MODEL 1
REMARK VINA RESULT:    -5.169      0.000      0.000
REMARK INTER + INTRA:          -5.877
REMARK INTER:                  -5.623
REMARK INTRA:                  -0.254
REMARK UNBOUND:                -0.254
REMARK SMILES O=C([O-])c1ccccc1O
REMARK SMILES IDX 4 1 9 2 5 3 8 4 6 5 7 6 2 7 1 8 3 9 10 10
REMARK H PARENT 10 11
REMARK Flexibility Score: inf
ROOT
ATOM      1  C   UNL     1      10.616  10.461  14.311  1.00  0.00     0.039 A 
ATOM      2  C   UNL     1       9.389  10.464  15.018  1.00  0.00     0.124 A 
ATOM      3  C   UNL     1      10.679   9.807  13.065  1.00  0.00     0.014 A 
ATOM      4  C   UNL     1       8.265   9.823  14.472  1.00  0.00     0.047 A 
ATOM      5  C   UNL     1       9.553   9.173  12.534  1.00  0.00     0.001 A 
ATOM      6  C   UNL     1       8.348   9.182  13.236  1.00  0.00     0.004 A 
ENDROOT
BRANCH   1   7
ATOM      7  C   UNL     1      11.833  11.124  14.845  1.00  0.00     0.075 C 
ATOM      8  O   UNL     1      12.955  10.556  14.801  1.00  0.00    -0.545 OA
ATOM      9  O   UNL     1      11.749  12.392  15.409  1.00  0.00    -0.545 OA
ENDBRANCH   1   7
BRANCH   2  10
ATOM     10  O   UNL     1       9.280  11.099  16.255  1.00  0.00    -0.507 OA
ATOM     11  H   UNL     1       8.668  11.894  16.395  1.00  0.00     0.293 HD
ENDBRANCH   2  10
TORSDOF 2
ENDMDL
MODEL 2
REMARK VINA RESULT:    -5.090      0.261      1.051
REMARK INTER + INTRA:          -5.790
REMARK INTER:                  -5.542
REMARK INTRA:                  -0.249
REMARK UNBOUND:                -0.254
REMARK SMILES O=C([O-])c1ccccc1O
REMARK SMILES IDX 4 1 9 2 5 3 8 4 6 5 7 6 2 7 1 8 3 9 10 10
REMARK H PARENT 10 11
REMARK Flexibility Score: inf
ROOT
ATOM      1  C   UNL     1      10.761  10.498  14.418  1.00  0.00     0.039 A 
ATOM      2  C   UNL     1       9.590  10.327  15.195  1.00  0.00     0.124 A 
ATOM      3  C   UNL     1      10.787   9.984  13.107  1.00  0.00     0.014 A 
ATOM      4  C   UNL     1       8.483   9.656  14.653  1.00  0.00     0.047 A 
ATOM      5  C   UNL     1       9.677   9.319  12.580  1.00  0.00     0.001 A 
ATOM      6  C   UNL     1       8.527   9.155  13.351  1.00  0.00     0.004 A 
ENDROOT
BRANCH   1   7
ATOM      7  C   UNL     1      11.959  11.199  14.946  1.00  0.00     0.075 C 
ATOM      8  O   UNL     1      11.869  12.348  15.452  1.00  0.00    -0.545 OA
ATOM      9  O   UNL     1      13.209  10.593  14.887  1.00  0.00    -0.545 OA
ENDBRANCH   1   7
BRANCH   2  10
ATOM     10  O   UNL     1       9.520  10.818  16.499  1.00  0.00    -0.507 OA
ATOM     11  H   UNL     1       8.864  10.445  17.175  1.00  0.00     0.293 HD
ENDBRANCH   2  10
TORSDOF 2
ENDMDL
MODEL 3
REMARK VINA RESULT:    -4.984     17.060     17.750
REMARK INTER + INTRA:          -5.675
REMARK INTER:                  -5.453
REMARK INTRA:                  -0.222
REMARK UNBOUND:                -0.254
REMARK SMILES O=C([O-])c1ccccc1O
REMARK SMILES IDX 4 1 9 2 5 3 8 4 6 5 7 6 2 7 1 8 3 9 10 10
REMARK H PARENT 10 11
REMARK Flexibility Score: inf
ROOT
ATOM      1  C   UNL     1      15.816  -6.061  16.627  1.00  0.00     0.039 A 
ATOM      2  C   UNL     1      16.724  -5.110  17.152  1.00  0.00     0.124 A 
ATOM      3  C   UNL     1      16.296  -7.031  15.725  1.00  0.00     0.014 A 
ATOM      4  C   UNL     1      18.074  -5.147  16.772  1.00  0.00     0.047 A 
ATOM      5  C   UNL     1      17.642  -7.057  15.356  1.00  0.00     0.001 A 
ATOM      6  C   UNL     1      18.531  -6.117  15.878  1.00  0.00     0.004 A 
ENDROOT
BRANCH   1   7
ATOM      7  C   UNL     1      14.378  -6.064  16.998  1.00  0.00     0.075 C 
ATOM      8  O   UNL     1      13.702  -7.125  16.973  1.00  0.00    -0.545 OA
ATOM      9  O   UNL     1      13.751  -4.883  17.379  1.00  0.00    -0.545 OA
ENDBRANCH   1   7
BRANCH   2  10
ATOM     10  O   UNL     1      16.293  -4.131  18.047  1.00  0.00    -0.507 OA
ATOM     11  H   UNL     1      15.314  -3.887  18.141  1.00  0.00     0.293 HD
ENDBRANCH   2  10
TORSDOF 2
ENDMDL
MODEL 4
REMARK VINA RESULT:    -4.915      1.815      3.511
REMARK INTER + INTRA:          -5.600
REMARK INTER:                  -5.371
REMARK INTRA:                  -0.229
REMARK UNBOUND:                -0.254
REMARK SMILES O=C([O-])c1ccccc1O
REMARK SMILES IDX 4 1 9 2 5 3 8 4 6 5 7 6 2 7 1 8 3 9 10 10
REMARK H PARENT 10 11
REMARK Flexibility Score: inf
ROOT
ATOM      1  C   UNL     1      10.020   9.993  14.237  1.00  0.00     0.039 A 
ATOM      2  C   UNL     1      10.197  10.973  15.244  1.00  0.00     0.124 A 
ATOM      3  C   UNL     1      11.153   9.502  13.561  1.00  0.00     0.014 A 
ATOM      4  C   UNL     1      11.487  11.435  15.551  1.00  0.00     0.047 A 
ATOM      5  C   UNL     1      12.431   9.971  13.877  1.00  0.00     0.001 A 
ATOM      6  C   UNL     1      12.598  10.935  14.870  1.00  0.00     0.004 A 
ENDROOT
BRANCH   1   7
ATOM      7  C   UNL     1       8.676   9.473  13.875  1.00  0.00     0.075 C 
ATOM      8  O   UNL     1       7.761   9.384  14.734  1.00  0.00    -0.545 OA
ATOM      9  O   UNL     1       8.409   9.071  12.571  1.00  0.00    -0.545 OA
ENDBRANCH   1   7
BRANCH   2  10
ATOM     10  O   UNL     1       9.103  11.489  15.939  1.00  0.00    -0.507 OA
ATOM     11  H   UNL     1       9.218  12.024  16.792  1.00  0.00     0.293 HD
ENDBRANCH   2  10
TORSDOF 2
ENDMDL
MODEL 5
REMARK VINA RESULT:    -4.691      1.406      2.219
REMARK INTER + INTRA:          -5.357
REMARK INTER:                  -5.124
REMARK INTRA:                  -0.233
REMARK UNBOUND:                -0.254
REMARK SMILES O=C([O-])c1ccccc1O
REMARK SMILES IDX 4 1 9 2 5 3 8 4 6 5 7 6 2 7 1 8 3 9 10 10
REMARK H PARENT 10 11
REMARK Flexibility Score: inf
ROOT
ATOM      1  C   UNL     1      11.905  10.480  14.239  1.00  0.00     0.039 A 
ATOM      2  C   UNL     1      11.366  11.351  15.216  1.00  0.00     0.124 A 
ATOM      3  C   UNL     1      11.033   9.633  13.528  1.00  0.00     0.014 A 
ATOM      4  C   UNL     1       9.983  11.359  15.458  1.00  0.00     0.047 A 
ATOM      5  C   UNL     1       9.659   9.652  13.780  1.00  0.00     0.001 A 
ATOM      6  C   UNL     1       9.134  10.514  14.743  1.00  0.00     0.004 A 
ENDROOT
BRANCH   1   7
ATOM      7  C   UNL     1      13.361  10.433  13.946  1.00  0.00     0.075 C 
ATOM      8  O   UNL     1      14.194  10.125  14.837  1.00  0.00    -0.545 OA
ATOM      9  O   UNL     1      13.828  10.734  12.671  1.00  0.00    -0.545 OA
ENDBRANCH   1   7
BRANCH   2  10
ATOM     10  O   UNL     1      12.192  12.207  15.944  1.00  0.00    -0.507 OA
ATOM     11  H   UNL     1      12.302  12.116  16.947  1.00  0.00     0.293 HD
ENDBRANCH   2  10
TORSDOF 2
ENDMDL
MODEL 6
REMARK VINA RESULT:    -4.670     16.925     17.529
REMARK INTER + INTRA:          -5.333
REMARK INTER:                  -5.113
REMARK INTRA:                  -0.220
REMARK UNBOUND:                -0.254
REMARK SMILES O=C([O-])c1ccccc1O
REMARK SMILES IDX 4 1 9 2 5 3 8 4 6 5 7 6 2 7 1 8 3 9 10 10
REMARK H PARENT 10 11
REMARK Flexibility Score: inf
ROOT
ATOM      1  C   UNL     1      17.104  -5.705  16.657  1.00  0.00     0.039 A 
ATOM      2  C   UNL     1      16.030  -5.126  17.374  1.00  0.00     0.124 A 
ATOM      3  C   UNL     1      16.825  -6.708  15.708  1.00  0.00     0.014 A 
ATOM      4  C   UNL     1      14.715  -5.555  17.131  1.00  0.00     0.047 A 
ATOM      5  C   UNL     1      15.512  -7.125  15.476  1.00  0.00     0.001 A 
ATOM      6  C   UNL     1      14.459  -6.549  16.186  1.00  0.00     0.004 A 
ENDROOT
BRANCH   1   7
ATOM      7  C   UNL     1      18.512  -5.287  16.878  1.00  0.00     0.075 C 
ATOM      8  O   UNL     1      18.891  -4.116  16.615  1.00  0.00    -0.545 OA
ATOM      9  O   UNL     1      19.440  -6.191  17.381  1.00  0.00    -0.545 OA
ENDBRANCH   1   7
BRANCH   2  10
ATOM     10  O   UNL     1      16.259  -4.131  18.324  1.00  0.00    -0.507 OA
ATOM     11  H   UNL     1      16.551  -3.197  18.058  1.00  0.00     0.293 HD
ENDBRANCH   2  10
TORSDOF 2
ENDMDL
MODEL 7
REMARK VINA RESULT:    -4.656      1.437      3.132
REMARK INTER + INTRA:          -5.319
REMARK INTER:                  -5.110
REMARK INTRA:                  -0.209
REMARK UNBOUND:                -0.254
REMARK SMILES O=C([O-])c1ccccc1O
REMARK SMILES IDX 4 1 9 2 5 3 8 4 6 5 7 6 2 7 1 8 3 9 10 10
REMARK H PARENT 10 11
REMARK Flexibility Score: inf
ROOT
ATOM      1  C   UNL     1      11.027  10.331  14.443  1.00  0.00     0.039 A 
ATOM      2  C   UNL     1      12.427  10.454  14.608  1.00  0.00     0.124 A 
ATOM      3  C   UNL     1      10.517  10.021  13.168  1.00  0.00     0.014 A 
ATOM      4  C   UNL     1      13.280  10.265  13.508  1.00  0.00     0.047 A 
ATOM      5  C   UNL     1      11.377   9.836  12.083  1.00  0.00     0.001 A 
ATOM      6  C   UNL     1      12.756   9.957  12.252  1.00  0.00     0.004 A 
ENDROOT
BRANCH   1   7
ATOM      7  C   UNL     1      10.083  10.522  15.575  1.00  0.00     0.075 C 
ATOM      8  O   UNL     1      10.060   9.719  16.544  1.00  0.00    -0.545 OA
ATOM      9  O   UNL     1       9.203  11.598  15.579  1.00  0.00    -0.545 OA
ENDBRANCH   1   7
BRANCH   2  10
ATOM     10  O   UNL     1      12.976  10.761  15.853  1.00  0.00    -0.507 OA
ATOM     11  H   UNL     1      13.665  11.496  15.965  1.00  0.00     0.293 HD
ENDBRANCH   2  10
TORSDOF 2
ENDMDL
MODEL 8
REMARK VINA RESULT:    -4.556      1.048      2.421
REMARK INTER + INTRA:          -5.209
REMARK INTER:                  -4.964
REMARK INTRA:                  -0.245
REMARK UNBOUND:                -0.254
REMARK SMILES O=C([O-])c1ccccc1O
REMARK SMILES IDX 4 1 9 2 5 3 8 4 6 5 7 6 2 7 1 8 3 9 10 10
REMARK H PARENT 10 11
REMARK Flexibility Score: inf
ROOT
ATOM      1  C   UNL     1      10.863  10.596  14.428  1.00  0.00     0.039 A 
ATOM      2  C   UNL     1      10.835   9.872  13.212  1.00  0.00     0.124 A 
ATOM      3  C   UNL     1       9.681  10.693  15.187  1.00  0.00     0.014 A 
ATOM      4  C   UNL     1       9.643   9.266  12.786  1.00  0.00     0.047 A 
ATOM      5  C   UNL     1       8.502  10.085  14.752  1.00  0.00     0.001 A 
ATOM      6  C   UNL     1       8.482   9.372  13.553  1.00  0.00     0.004 A 
ENDROOT
BRANCH   1   7
ATOM      7  C   UNL     1      12.099  11.256  14.921  1.00  0.00     0.075 C 
ATOM      8  O   UNL     1      12.053  12.373  15.499  1.00  0.00    -0.545 OA
ATOM      9  O   UNL     1      13.335  10.645  14.749  1.00  0.00    -0.545 OA
ENDBRANCH   1   7
BRANCH   2  10
ATOM     10  O   UNL     1      11.982   9.751  12.426  1.00  0.00    -0.507 OA
ATOM     11  H   UNL     1      12.531  10.558  12.156  1.00  0.00     0.293 HD
ENDBRANCH   2  10
TORSDOF 2
ENDMDL
MODEL 9
REMARK VINA RESULT:    -4.476      2.350      3.737
REMARK INTER + INTRA:          -5.123
REMARK INTER:                  -4.873
REMARK INTRA:                  -0.250
REMARK UNBOUND:                -0.254
REMARK SMILES O=C([O-])c1ccccc1O
REMARK SMILES IDX 4 1 9 2 5 3 8 4 6 5 7 6 2 7 1 8 3 9 10 10
REMARK H PARENT 10 11
REMARK Flexibility Score: inf
ROOT
ATOM      1  C   UNL     1      12.445  10.716  13.926  1.00  0.00     0.039 A 
ATOM      2  C   UNL     1      13.626  10.066  14.360  1.00  0.00     0.124 A 
ATOM      3  C   UNL     1      12.033  10.552  12.589  1.00  0.00     0.014 A 
ATOM      4  C   UNL     1      14.360   9.275  13.461  1.00  0.00     0.047 A 
ATOM      5  C   UNL     1      12.773   9.762  11.706  1.00  0.00     0.001 A 
ATOM      6  C   UNL     1      13.934   9.124  12.141  1.00  0.00     0.004 A 
ENDROOT
BRANCH   1   7
ATOM      7  C   UNL     1      11.634  11.563  14.837  1.00  0.00     0.075 C 
ATOM      8  O   UNL     1      12.169  12.463  15.536  1.00  0.00    -0.545 OA
ATOM      9  O   UNL     1      10.261  11.372  14.934  1.00  0.00    -0.545 OA
ENDBRANCH   1   7
BRANCH   2  10
ATOM     10  O   UNL     1      14.073  10.200  15.674  1.00  0.00    -0.507 OA
ATOM     11  H   UNL     1      14.167  11.107  16.116  1.00  0.00     0.293 HD
ENDBRANCH   2  10
TORSDOF 2
ENDMDL
