MODEL 1
REMARK VINA RESULT:    -4.204      0.000      0.000
REMARK INTER + INTRA:          -4.327
REMARK INTER:                  -4.327
REMARK INTRA:                   0.000
REMARK UNBOUND:                 0.000
REMARK SMILES Cc1cccc(O)c1C
REMARK SMILES IDX 1 1 2 2 8 3 6 4 5 5 4 6 3 7 9 8 7 9
REMARK H PARENT 7 10
REMARK Flexibility Score: inf
ROOT
ATOM      1  C   UNL     1      37.085  -9.606  56.628  1.00  0.00     0.045 C 
ATOM      2  C   UNL     1      36.509  -9.770  55.246  1.00  0.00    -0.045 A 
ATOM      3  C   UNL     1      36.490  -8.703  54.304  1.00  0.00    -0.006 A 
ATOM      4  C   UNL     1      35.931  -8.928  53.020  1.00  0.00     0.118 A 
ATOM      5  C   UNL     1      35.407 -10.184  52.695  1.00  0.00     0.046 A 
ATOM      6  C   UNL     1      35.430 -11.222  53.620  1.00  0.00     0.004 A 
ATOM      7  C   UNL     1      35.974 -11.019  54.886  1.00  0.00     0.004 A 
ATOM      8  C   UNL     1      37.050  -7.339  54.634  1.00  0.00     0.048 C 
ENDROOT
BRANCH   4   9
ATOM      9  O   UNL     1      35.879  -7.930  52.044  1.00  0.00    -0.508 OA
ATOM     10  H   UNL     1      35.015  -7.528  51.703  1.00  0.00     0.293 HD
ENDBRANCH   4   9
TORSDOF 1
ENDMDL
MODEL 2
REMARK VINA RESULT:    -3.926      7.780      8.978
REMARK INTER + INTRA:          -4.041
REMARK INTER:                  -4.041
REMARK INTRA:                   0.000
REMARK UNBOUND:                 0.000
REMARK SMILES Cc1cccc(O)c1C
REMARK SMILES IDX 1 1 2 2 8 3 6 4 5 5 4 6 3 7 9 8 7 9
REMARK H PARENT 7 10
REMARK Flexibility Score: inf
ROOT
ATOM      1  C   UNL     1      36.735  -4.011  58.948  1.00  0.00     0.045 C 
ATOM      2  C   UNL     1      35.514  -3.130  58.905  1.00  0.00    -0.045 A 
ATOM      3  C   UNL     1      34.254  -3.560  59.410  1.00  0.00    -0.006 A 
ATOM      4  C   UNL     1      33.147  -2.677  59.336  1.00  0.00     0.118 A 
ATOM      5  C   UNL     1      33.300  -1.407  58.774  1.00  0.00     0.046 A 
ATOM      6  C   UNL     1      34.534  -0.993  58.283  1.00  0.00     0.004 A 
ATOM      7  C   UNL     1      35.633  -1.846  58.346  1.00  0.00     0.004 A 
ATOM      8  C   UNL     1      34.066  -4.929  60.022  1.00  0.00     0.048 C 
ENDROOT
BRANCH   4   9
ATOM      9  O   UNL     1      31.881  -3.029  59.813  1.00  0.00    -0.508 OA
ATOM     10  H   UNL     1      31.246  -2.372  60.247  1.00  0.00     0.293 HD
ENDBRANCH   4   9
TORSDOF 1
ENDMDL
MODEL 3
REMARK VINA RESULT:    -3.791      1.083      2.582
REMARK INTER + INTRA:          -3.901
REMARK INTER:                  -3.901
REMARK INTRA:                   0.000
REMARK UNBOUND:                 0.000
REMARK SMILES Cc1cccc(O)c1C
REMARK SMILES IDX 1 1 2 2 8 3 6 4 5 5 4 6 3 7 9 8 7 9
REMARK H PARENT 7 10
REMARK Flexibility Score: inf
ROOT
ATOM      1  C   UNL     1      36.912  -9.591  56.610  1.00  0.00     0.045 C 
ATOM      2  C   UNL     1      36.706  -9.135  55.189  1.00  0.00    -0.045 A 
ATOM      3  C   UNL     1      36.106  -9.972  54.207  1.00  0.00    -0.006 A 
ATOM      4  C   UNL     1      35.943  -9.477  52.888  1.00  0.00     0.118 A 
ATOM      5  C   UNL     1      36.371  -8.185  52.567  1.00  0.00     0.046 A 
ATOM      6  C   UNL     1      36.957  -7.372  53.532  1.00  0.00     0.004 A 
ATOM      7  C   UNL     1      37.125  -7.841  54.833  1.00  0.00     0.004 A 
ATOM      8  C   UNL     1      35.636 -11.371  54.532  1.00  0.00     0.048 C 
ENDROOT
BRANCH   4   9
ATOM      9  O   UNL     1      35.361 -10.240  51.872  1.00  0.00    -0.508 OA
ATOM     10  H   UNL     1      35.635 -11.191  51.664  1.00  0.00     0.293 HD
ENDBRANCH   4   9
TORSDOF 1
ENDMDL
MODEL 4
REMARK VINA RESULT:    -3.756      7.469      8.373
REMARK INTER + INTRA:          -3.866
REMARK INTER:                  -3.866
REMARK INTRA:                   0.000
REMARK UNBOUND:                 0.000
REMARK SMILES Cc1cccc(O)c1C
REMARK SMILES IDX 1 1 2 2 8 3 6 4 5 5 4 6 3 7 9 8 7 9
REMARK H PARENT 7 10
REMARK Flexibility Score: inf
ROOT
ATOM      1  C   UNL     1      37.049  -3.485  57.586  1.00  0.00     0.045 C 
ATOM      2  C   UNL     1      35.821  -3.524  58.457  1.00  0.00    -0.045 A 
ATOM      3  C   UNL     1      34.856  -2.477  58.450  1.00  0.00    -0.006 A 
ATOM      4  C   UNL     1      33.723  -2.579  59.297  1.00  0.00     0.118 A 
ATOM      5  C   UNL     1      33.566  -3.696  60.124  1.00  0.00     0.046 A 
ATOM      6  C   UNL     1      34.512  -4.716  60.125  1.00  0.00     0.004 A 
ATOM      7  C   UNL     1      35.631  -4.632  59.300  1.00  0.00     0.004 A 
ATOM      8  C   UNL     1      35.006  -1.261  57.565  1.00  0.00     0.048 C 
ENDROOT
BRANCH   4   9
ATOM      9  O   UNL     1      32.736  -1.592  59.343  1.00  0.00    -0.508 OA
ATOM     10  H   UNL     1      32.642  -0.865  58.646  1.00  0.00     0.293 HD
ENDBRANCH   4   9
TORSDOF 1
ENDMDL
MODEL 5
REMARK VINA RESULT:    -3.748      7.393      8.718
REMARK INTER + INTRA:          -3.858
REMARK INTER:                  -3.858
REMARK INTRA:                   0.000
REMARK UNBOUND:                 0.000
REMARK SMILES Cc1cccc(O)c1C
REMARK SMILES IDX 1 1 2 2 8 3 6 4 5 5 4 6 3 7 9 8 7 9
REMARK H PARENT 7 10
REMARK Flexibility Score: inf
ROOT
ATOM      1  C   UNL     1      34.558  -5.290  60.018  1.00  0.00     0.045 C 
ATOM      2  C   UNL     1      34.240  -3.873  59.618  1.00  0.00    -0.045 A 
ATOM      3  C   UNL     1      35.087  -3.124  58.753  1.00  0.00    -0.006 A 
ATOM      4  C   UNL     1      34.725  -1.794  58.419  1.00  0.00     0.118 A 
ATOM      5  C   UNL     1      33.553  -1.235  58.938  1.00  0.00     0.046 A 
ATOM      6  C   UNL     1      32.730  -1.973  59.782  1.00  0.00     0.004 A 
ATOM      7  C   UNL     1      33.069  -3.281  60.122  1.00  0.00     0.004 A 
ATOM      8  C   UNL     1      36.358  -3.708  58.180  1.00  0.00     0.048 C 
ENDROOT
BRANCH   4   9
ATOM      9  O   UNL     1      35.506  -0.999  57.575  1.00  0.00    -0.508 OA
ATOM     10  H   UNL     1      35.458  -1.045  56.565  1.00  0.00     0.293 HD
ENDBRANCH   4   9
TORSDOF 1
ENDMDL
MODEL 6
REMARK VINA RESULT:    -3.685      7.223      8.957
REMARK INTER + INTRA:          -3.793
REMARK INTER:                  -3.793
REMARK INTRA:                   0.000
REMARK UNBOUND:                 0.000
REMARK SMILES Cc1cccc(O)c1C
REMARK SMILES IDX 1 1 2 2 8 3 6 4 5 5 4 6 3 7 9 8 7 9
REMARK H PARENT 7 10
REMARK Flexibility Score: inf
ROOT
ATOM      1  C   UNL     1      35.474  -0.918  57.126  1.00  0.00     0.045 C 
ATOM      2  C   UNL     1      34.780  -1.761  58.164  1.00  0.00    -0.045 A 
ATOM      3  C   UNL     1      35.224  -3.073  58.492  1.00  0.00    -0.006 A 
ATOM      4  C   UNL     1      34.523  -3.810  59.480  1.00  0.00     0.118 A 
ATOM      5  C   UNL     1      33.411  -3.248  60.115  1.00  0.00     0.046 A 
ATOM      6  C   UNL     1      32.983  -1.965  59.791  1.00  0.00     0.004 A 
ATOM      7  C   UNL     1      33.659  -1.226  58.823  1.00  0.00     0.004 A 
ATOM      8  C   UNL     1      36.423  -3.700  57.818  1.00  0.00     0.048 C 
ENDROOT
BRANCH   4   9
ATOM      9  O   UNL     1      34.901  -5.102  59.854  1.00  0.00    -0.508 OA
ATOM     10  H   UNL     1      35.410  -5.731  59.247  1.00  0.00     0.293 HD
ENDBRANCH   4   9
TORSDOF 1
ENDMDL
MODEL 7
REMARK VINA RESULT:    -3.567      1.094      2.735
REMARK INTER + INTRA:          -3.671
REMARK INTER:                  -3.671
REMARK INTRA:                   0.000
REMARK UNBOUND:                 0.000
REMARK SMILES Cc1cccc(O)c1C
REMARK SMILES IDX 1 1 2 2 8 3 6 4 5 5 4 6 3 7 9 8 7 9
REMARK H PARENT 7 10
REMARK Flexibility Score: inf
ROOT
ATOM      1  C   UNL     1      35.631 -11.624  53.985  1.00  0.00     0.045 C 
ATOM      2  C   UNL     1      36.142 -10.330  54.563  1.00  0.00    -0.045 A 
ATOM      3  C   UNL     1      36.384  -9.185  53.754  1.00  0.00    -0.006 A 
ATOM      4  C   UNL     1      36.865  -7.999  54.365  1.00  0.00     0.118 A 
ATOM      5  C   UNL     1      37.095  -7.967  55.744  1.00  0.00     0.046 A 
ATOM      6  C   UNL     1      36.855  -9.089  56.530  1.00  0.00     0.004 A 
ATOM      7  C   UNL     1      36.383 -10.263  55.946  1.00  0.00     0.004 A 
ATOM      8  C   UNL     1      36.142  -9.198  52.262  1.00  0.00     0.048 C 
ENDROOT
BRANCH   4   9
ATOM      9  O   UNL     1      37.125  -6.837  53.635  1.00  0.00    -0.508 OA
ATOM     10  H   UNL     1      36.765  -6.671  52.704  1.00  0.00     0.293 HD
ENDBRANCH   4   9
TORSDOF 1
ENDMDL
MODEL 8
REMARK VINA RESULT:    -3.540      6.699      8.098
REMARK INTER + INTRA:          -3.643
REMARK INTER:                  -3.643
REMARK INTRA:                   0.000
REMARK UNBOUND:                 0.000
REMARK SMILES Cc1cccc(O)c1C
REMARK SMILES IDX 1 1 2 2 8 3 6 4 5 5 4 6 3 7 9 8 7 9
REMARK H PARENT 7 10
REMARK Flexibility Score: inf
ROOT
ATOM      1  C   UNL     1      34.288  -0.999  59.611  1.00  0.00     0.045 C 
ATOM      2  C   UNL     1      35.111  -2.170  59.142  1.00  0.00    -0.045 A 
ATOM      3  C   UNL     1      35.386  -2.396  57.764  1.00  0.00    -0.006 A 
ATOM      4  C   UNL     1      36.168  -3.520  57.394  1.00  0.00     0.118 A 
ATOM      5  C   UNL     1      36.657  -4.387  58.376  1.00  0.00     0.046 A 
ATOM      6  C   UNL     1      36.385  -4.160  59.721  1.00  0.00     0.004 A 
ATOM      7  C   UNL     1      35.618  -3.061  60.104  1.00  0.00     0.004 A 
ATOM      8  C   UNL     1      34.868  -1.472  56.686  1.00  0.00     0.048 C 
ENDROOT
BRANCH   4   9
ATOM      9  O   UNL     1      36.480  -3.805  56.062  1.00  0.00    -0.508 OA
ATOM     10  H   UNL     1      35.790  -3.836  55.323  1.00  0.00     0.293 HD
ENDBRANCH   4   9
TORSDOF 1
ENDMDL
