MODEL 1
REMARK VINA RESULT:    -5.268      0.000      0.000
REMARK INTER + INTRA:          -6.721
REMARK INTER:                  -7.424
REMARK INTRA:                   0.702
REMARK UNBOUND:                 0.702
REMARK SMILES CC1=CCCC(C)=CCC(C)(C)C=CC1
REMARK SMILES IDX 2 1 3 2 1 3 4 4 5 5 6 6 7 7 8 8 15 10 14 11 13 12 10 13
REMARK SMILES IDX 11 14 12 15 9 16
REMARK H PARENT
REMARK Flexibility Score: 60.00
ROOT
ATOM      1  C   UNL     1     -32.485  15.461  57.117  1.00  0.00    -0.074 C 
ATOM      2  C   UNL     1     -32.964  15.275  55.859  1.00  0.00    -0.027 C 
ATOM      3  C   UNL     1     -31.816  16.782  57.413  1.00  0.00     0.039 C 
ENDROOT
BRANCH   2   4
ATOM      4  C   UNL     1     -33.690  14.059  55.323  1.00  0.00     0.032 C 
BRANCH   4   5
ATOM      5  C   UNL     1     -35.136  14.415  54.908  1.00  0.00     0.034 C 
BRANCH   5   6
ATOM      6  C   UNL     1     -36.129  13.327  55.282  1.00  0.00    -0.077 C 
ATOM      7  C   UNL     1     -36.614  12.378  54.216  1.00  0.00     0.039 C 
ATOM      8  C   UNL     1     -36.627  13.189  56.534  1.00  0.00    -0.027 CG0
ATOM      9  G   UNL     1     -36.246  14.065  57.709  1.00  0.00     0.000 G0
ENDBRANCH   5   6
ENDBRANCH   4   5
ENDBRANCH   2   4
BRANCH   1  10
ATOM     10  C   UNL     1     -32.506  14.413  58.218  1.00  0.00     0.057 C 
BRANCH  10  11
ATOM     11  C   UNL     1     -33.408  14.801  59.370  1.00  0.00    -0.026 C 
ATOM     12  C   UNL     1     -34.649  14.336  59.657  1.00  0.00    -0.024 C 
BRANCH  12  13
ATOM     13  C   UNL     1     -35.498  13.326  58.872  1.00  0.00    -0.014 C 
ATOM     14  C   UNL     1     -36.551  12.743  59.848  1.00  0.00     0.016 C 
ATOM     15  C   UNL     1     -34.626  12.137  58.380  1.00  0.00     0.016 C 
BRANCH  13  16
ATOM     16  C   UNL     1     -36.255  14.062  57.724  1.00  0.00     0.038 CG0
ATOM     17  G   UNL     1     -36.603  13.176  56.546  1.00  0.00     0.000 G0
ENDBRANCH  13  16
ENDBRANCH  12  13
ENDBRANCH  10  11
ENDBRANCH   1  10
TORSDOF 0
ENDMDL
MODEL 2
REMARK VINA RESULT:    -4.885      6.496      8.306
REMARK INTER + INTRA:          -6.181
REMARK INTER:                  -7.294
REMARK INTRA:                   1.113
REMARK UNBOUND:                 0.702
REMARK SMILES CC1=CCCC(C)=CCC(C)(C)C=CC1
REMARK SMILES IDX 2 1 3 2 1 3 4 4 5 5 6 6 7 7 8 8 15 10 14 11 13 12 10 13
REMARK SMILES IDX 11 14 12 15 9 16
REMARK H PARENT
REMARK Flexibility Score: 60.00
ROOT
ATOM      1  C   UNL     1     -27.588  17.586  58.061  1.00  0.00    -0.074 C 
ATOM      2  C   UNL     1     -28.567  16.927  57.388  1.00  0.00    -0.027 C 
ATOM      3  C   UNL     1     -26.189  17.028  57.968  1.00  0.00     0.039 C 
ENDROOT
BRANCH   2   4
ATOM      4  C   UNL     1     -30.033  17.297  57.305  1.00  0.00     0.032 C 
BRANCH   4   5
ATOM      5  C   UNL     1     -30.429  17.670  55.858  1.00  0.00     0.034 C 
BRANCH   5   6
ATOM      6  C   UNL     1     -29.540  18.758  55.278  1.00  0.00    -0.077 C 
ATOM      7  C   UNL     1     -28.502  18.386  54.250  1.00  0.00     0.039 C 
ATOM      8  C   UNL     1     -29.619  20.053  55.668  1.00  0.00    -0.027 CG0
ATOM      9  G   UNL     1     -30.602  20.582  56.691  1.00  0.00     0.000 G0
ENDBRANCH   5   6
ENDBRANCH   4   5
ENDBRANCH   2   4
BRANCH   1  10
ATOM     10  C   UNL     1     -27.813  18.793  58.960  1.00  0.00     0.057 C 
BRANCH  10  11
ATOM     11  C   UNL     1     -27.528  20.101  58.253  1.00  0.00    -0.026 C 
ATOM     12  C   UNL     1     -28.409  21.063  57.881  1.00  0.00    -0.024 C 
BRANCH  12  13
ATOM     13  C   UNL     1     -29.937  21.071  58.031  1.00  0.00    -0.014 C 
ATOM     14  C   UNL     1     -30.372  22.534  58.296  1.00  0.00     0.016 C 
ATOM     15  C   UNL     1     -30.374  20.233  59.265  1.00  0.00     0.016 C 
BRANCH  13  16
ATOM     16  C   UNL     1     -30.594  20.604  56.695  1.00  0.00     0.038 CG0
ATOM     17  G   UNL     1     -29.612  20.057  55.680  1.00  0.00     0.000 G0
ENDBRANCH  13  16
ENDBRANCH  12  13
ENDBRANCH  10  11
ENDBRANCH   1  10
TORSDOF 0
ENDMDL
MODEL 3
REMARK VINA RESULT:    -4.750      7.696      9.151
REMARK INTER + INTRA:          -5.992
REMARK INTER:                  -6.658
REMARK INTRA:                   0.667
REMARK UNBOUND:                 0.702
REMARK SMILES CC1=CCCC(C)=CCC(C)(C)C=CC1
REMARK SMILES IDX 2 1 3 2 1 3 4 4 5 5 6 6 7 7 8 8 15 10 14 11 13 12 10 13
REMARK SMILES IDX 11 14 12 15 9 16
REMARK H PARENT
REMARK Flexibility Score: 60.00
ROOT
ATOM      1  C   UNL     1     -29.048  19.722  54.309  1.00  0.00    -0.074 C 
ATOM      2  C   UNL     1     -29.787  20.688  54.916  1.00  0.00    -0.027 C 
ATOM      3  C   UNL     1     -28.476  20.042  52.949  1.00  0.00     0.039 C 
ENDROOT
BRANCH   2   4
ATOM      4  C   UNL     1     -30.443  20.621  56.279  1.00  0.00     0.032 C 
BRANCH   4   5
ATOM      5  C   UNL     1     -29.572  21.319  57.348  1.00  0.00     0.034 C 
BRANCH   5   6
ATOM      6  C   UNL     1     -29.520  20.539  58.652  1.00  0.00    -0.077 C 
ATOM      7  C   UNL     1     -30.614  20.737  59.669  1.00  0.00     0.039 C 
ATOM      8  C   UNL     1     -28.510  19.690  58.956  1.00  0.00    -0.027 CG0
ATOM      9  G   UNL     1     -27.338  19.389  58.045  1.00  0.00     0.000 G0
ENDBRANCH   5   6
ENDBRANCH   4   5
ENDBRANCH   2   4
BRANCH   1  10
ATOM     10  C   UNL     1     -28.824  18.323  54.862  1.00  0.00     0.057 C 
BRANCH  10  11
ATOM     11  C   UNL     1     -27.356  17.998  55.038  1.00  0.00    -0.026 C 
ATOM     12  C   UNL     1     -26.673  17.801  56.192  1.00  0.00    -0.024 C 
BRANCH  12  13
ATOM     13  C   UNL     1     -27.185  17.897  57.636  1.00  0.00    -0.014 C 
ATOM     14  C   UNL     1     -26.117  17.250  58.554  1.00  0.00     0.016 C 
ATOM     15  C   UNL     1     -28.495  17.078  57.812  1.00  0.00     0.016 C 
BRANCH  13  16
ATOM     16  C   UNL     1     -27.328  19.397  58.041  1.00  0.00     0.038 CG0
ATOM     17  G   UNL     1     -28.499  19.681  58.958  1.00  0.00     0.000 G0
ENDBRANCH  13  16
ENDBRANCH  12  13
ENDBRANCH  10  11
ENDBRANCH   1  10
TORSDOF 0
ENDMDL
MODEL 4
REMARK VINA RESULT:    -4.734      6.652      8.961
REMARK INTER + INTRA:          -5.969
REMARK INTER:                  -7.048
REMARK INTRA:                   1.079
REMARK UNBOUND:                 0.702
REMARK SMILES CC1=CCCC(C)=CCC(C)(C)C=CC1
REMARK SMILES IDX 2 1 3 2 1 3 4 4 5 5 6 6 7 7 8 8 15 10 14 11 13 12 10 13
REMARK SMILES IDX 11 14 12 15 9 16
REMARK H PARENT
REMARK Flexibility Score: 60.00
ROOT
ATOM      1  C   UNL     1     -30.353  20.150  58.106  1.00  0.00    -0.074 C 
ATOM      2  C   UNL     1     -30.548  18.812  58.241  1.00  0.00    -0.027 C 
ATOM      3  C   UNL     1     -30.380  20.982  59.365  1.00  0.00     0.039 C 
ENDROOT
BRANCH   2   4
ATOM      4  C   UNL     1     -30.543  17.768  57.143  1.00  0.00     0.032 C 
BRANCH   4   5
ATOM      5  C   UNL     1     -29.375  16.773  57.330  1.00  0.00     0.034 C 
BRANCH   5   6
ATOM      6  C   UNL     1     -28.024  17.469  57.376  1.00  0.00    -0.077 C 
ATOM      7  C   UNL     1     -27.278  17.538  58.684  1.00  0.00     0.039 C 
ATOM      8  C   UNL     1     -27.469  18.062  56.292  1.00  0.00    -0.027 CG0
ATOM      9  G   UNL     1     -28.094  18.085  54.913  1.00  0.00     0.000 G0
ENDBRANCH   5   6
ENDBRANCH   4   5
ENDBRANCH   2   4
BRANCH   1  10
ATOM     10  C   UNL     1     -30.188  20.874  56.779  1.00  0.00     0.057 C 
BRANCH  10  11
ATOM     11  C   UNL     1     -28.736  21.117  56.428  1.00  0.00    -0.026 C 
ATOM     12  C   UNL     1     -28.014  20.571  55.419  1.00  0.00    -0.024 C 
BRANCH  12  13
ATOM     13  C   UNL     1     -28.453  19.524  54.385  1.00  0.00    -0.014 C 
ATOM     14  C   UNL     1     -27.649  19.784  53.087  1.00  0.00     0.016 C 
ATOM     15  C   UNL     1     -29.958  19.695  54.032  1.00  0.00     0.016 C 
BRANCH  13  16
ATOM     16  C   UNL     1     -28.092  18.097  54.902  1.00  0.00     0.038 CG0
ATOM     17  G   UNL     1     -27.472  18.078  56.283  1.00  0.00     0.000 G0
ENDBRANCH  13  16
ENDBRANCH  12  13
ENDBRANCH  10  11
ENDBRANCH   1  10
TORSDOF 0
ENDMDL
MODEL 5
REMARK VINA RESULT:    -4.515      7.530      8.993
REMARK INTER + INTRA:          -5.661
REMARK INTER:                  -6.934
REMARK INTRA:                   1.274
REMARK UNBOUND:                 0.702
REMARK SMILES CC1=CCCC(C)=CCC(C)(C)C=CC1
REMARK SMILES IDX 2 1 3 2 1 3 4 4 5 5 6 6 7 7 8 8 15 10 14 11 13 12 10 13
REMARK SMILES IDX 11 14 12 15 9 16
REMARK H PARENT
REMARK Flexibility Score: 60.00
ROOT
ATOM      1  C   UNL     1     -28.145  18.562  54.927  1.00  0.00    -0.074 C 
ATOM      2  C   UNL     1     -27.016  18.028  55.462  1.00  0.00    -0.027 C 
ATOM      3  C   UNL     1     -27.982  19.467  53.730  1.00  0.00     0.039 C 
ENDROOT
BRANCH   2   4
ATOM      4  C   UNL     1     -26.918  17.080  56.639  1.00  0.00     0.032 C 
BRANCH   4   5
ATOM      5  C   UNL     1     -28.086  17.299  57.626  1.00  0.00     0.034 C 
BRANCH   5   6
ATOM      6  C   UNL     1     -27.721  18.253  58.753  1.00  0.00    -0.077 C 
ATOM      7  C   UNL     1     -26.469  17.998  59.552  1.00  0.00     0.039 C 
ATOM      8  C   UNL     1     -28.492  19.313  59.093  1.00  0.00    -0.027 CG0
ATOM      9  G   UNL     1     -29.778  19.698  58.392  1.00  0.00     0.000 G0
ENDBRANCH   5   6
ENDBRANCH   4   5
ENDBRANCH   2   4
BRANCH   1  10
ATOM     10  C   UNL     1     -29.546  18.379  55.492  1.00  0.00     0.057 C 
BRANCH  10  11
ATOM     11  C   UNL     1     -30.395  19.624  55.352  1.00  0.00    -0.026 C 
ATOM     12  C   UNL     1     -30.435  20.708  56.165  1.00  0.00    -0.024 C 
BRANCH  12  13
ATOM     13  C   UNL     1     -29.668  20.952  57.473  1.00  0.00    -0.014 C 
ATOM     14  C   UNL     1     -30.350  22.139  58.199  1.00  0.00     0.016 C 
ATOM     15  C   UNL     1     -28.202  21.377  57.181  1.00  0.00     0.016 C 
BRANCH  13  16
ATOM     16  C   UNL     1     -29.783  19.693  58.388  1.00  0.00     0.038 CG0
ATOM     17  G   UNL     1     -28.500  19.332  59.106  1.00  0.00     0.000 G0
ENDBRANCH  13  16
ENDBRANCH  12  13
ENDBRANCH  10  11
ENDBRANCH   1  10
TORSDOF 0
ENDMDL
MODEL 6
REMARK VINA RESULT:    -4.490      1.145      3.598
REMARK INTER + INTRA:          -5.625
REMARK INTER:                  -6.653
REMARK INTRA:                   1.029
REMARK UNBOUND:                 0.702
REMARK SMILES CC1=CCCC(C)=CCC(C)(C)C=CC1
REMARK SMILES IDX 2 1 3 2 1 3 4 4 5 5 6 6 7 7 8 8 15 10 14 11 13 12 10 13
REMARK SMILES IDX 11 14 12 15 9 16
REMARK H PARENT
REMARK Flexibility Score: 60.00
ROOT
ATOM      1  C   UNL     1     -32.968  15.835  57.174  1.00  0.00    -0.074 C 
ATOM      2  C   UNL     1     -33.046  15.514  58.492  1.00  0.00    -0.027 C 
ATOM      3  C   UNL     1     -31.718  16.539  56.706  1.00  0.00     0.039 C 
ENDROOT
BRANCH   2   4
ATOM      4  C   UNL     1     -34.175  14.791  59.196  1.00  0.00     0.032 C 
BRANCH   4   5
ATOM      5  C   UNL     1     -34.161  13.282  58.861  1.00  0.00     0.034 C 
BRANCH   5   6
ATOM      6  C   UNL     1     -35.558  12.682  58.838  1.00  0.00    -0.077 C 
ATOM      7  C   UNL     1     -36.421  12.784  60.069  1.00  0.00     0.039 C 
ATOM      8  C   UNL     1     -36.054  12.026  57.762  1.00  0.00    -0.027 CG0
ATOM      9  G   UNL     1     -35.311  11.834  56.457  1.00  0.00     0.000 G0
ENDBRANCH   5   6
ENDBRANCH   4   5
ENDBRANCH   2   4
BRANCH   1  10
ATOM     10  C   UNL     1     -34.078  15.608  56.158  1.00  0.00     0.057 C 
BRANCH  10  11
ATOM     11  C   UNL     1     -33.701  14.583  55.109  1.00  0.00    -0.026 C 
ATOM     12  C   UNL     1     -34.368  13.455  54.761  1.00  0.00    -0.024 C 
BRANCH  12  13
ATOM     13  C   UNL     1     -35.661  12.884  55.361  1.00  0.00    -0.014 C 
ATOM     14  C   UNL     1     -36.421  12.155  54.224  1.00  0.00     0.016 C 
ATOM     15  C   UNL     1     -36.585  14.025  55.869  1.00  0.00     0.016 C 
BRANCH  13  16
ATOM     16  C   UNL     1     -35.306  11.832  56.458  1.00  0.00     0.038 CG0
ATOM     17  G   UNL     1     -36.045  12.030  57.765  1.00  0.00     0.000 G0
ENDBRANCH  13  16
ENDBRANCH  12  13
ENDBRANCH  10  11
ENDBRANCH   1  10
TORSDOF 0
ENDMDL
MODEL 7
REMARK VINA RESULT:    -4.403      7.517      9.026
REMARK INTER + INTRA:          -5.502
REMARK INTER:                  -6.665
REMARK INTRA:                   1.163
REMARK UNBOUND:                 0.702
REMARK SMILES CC1=CCCC(C)=CCC(C)(C)C=CC1
REMARK SMILES IDX 2 1 3 2 1 3 4 4 5 5 6 6 7 7 8 8 15 10 14 11 13 12 10 13
REMARK SMILES IDX 11 14 12 15 9 16
REMARK H PARENT
REMARK Flexibility Score: 60.00
ROOT
ATOM      1  C   UNL     1     -28.050  18.456  58.754  1.00  0.00    -0.074 C 
ATOM      2  C   UNL     1     -28.530  19.483  59.503  1.00  0.00    -0.027 C 
ATOM      3  C   UNL     1     -26.569  18.173  58.838  1.00  0.00     0.039 C 
ENDROOT
BRANCH   2   4
ATOM      4  C   UNL     1     -29.967  19.948  59.610  1.00  0.00     0.032 C 
BRANCH   4   5
ATOM      5  C   UNL     1     -30.694  19.818  58.252  1.00  0.00     0.034 C 
BRANCH   5   6
ATOM      6  C   UNL     1     -30.450  21.016  57.349  1.00  0.00    -0.077 C 
ATOM      7  C   UNL     1     -30.743  22.399  57.870  1.00  0.00     0.039 C 
ATOM      8  C   UNL     1     -30.007  20.893  56.075  1.00  0.00    -0.027 CG0
ATOM      9  G   UNL     1     -29.675  19.575  55.406  1.00  0.00     0.000 G0
ENDBRANCH   5   6
ENDBRANCH   4   5
ENDBRANCH   2   4
BRANCH   1  10
ATOM     10  C   UNL     1     -28.877  17.626  57.785  1.00  0.00     0.057 C 
BRANCH  10  11
ATOM     11  C   UNL     1     -28.082  17.185  56.575  1.00  0.00    -0.026 C 
ATOM     12  C   UNL     1     -27.759  17.907  55.474  1.00  0.00    -0.024 C 
BRANCH  12  13
ATOM     13  C   UNL     1     -28.147  19.352  55.129  1.00  0.00    -0.014 C 
ATOM     14  C   UNL     1     -27.895  19.553  53.614  1.00  0.00     0.016 C 
ATOM     15  C   UNL     1     -27.237  20.362  55.882  1.00  0.00     0.016 C 
BRANCH  13  16
ATOM     16  C   UNL     1     -29.670  19.561  55.400  1.00  0.00     0.038 CG0
ATOM     17  G   UNL     1     -30.003  20.879  56.067  1.00  0.00     0.000 G0
ENDBRANCH  13  16
ENDBRANCH  12  13
ENDBRANCH  10  11
ENDBRANCH   1  10
TORSDOF 0
ENDMDL
MODEL 8
REMARK VINA RESULT:    -4.396      1.328      4.113
REMARK INTER + INTRA:          -5.492
REMARK INTER:                  -7.103
REMARK INTRA:                   1.610
REMARK UNBOUND:                 0.702
REMARK SMILES CC1=CCCC(C)=CCC(C)(C)C=CC1
REMARK SMILES IDX 2 1 3 2 1 3 4 4 5 5 6 6 7 7 8 8 15 10 14 11 13 12 10 13
REMARK SMILES IDX 11 14 12 15 9 16
REMARK H PARENT
REMARK Flexibility Score: 60.00
ROOT
ATOM      1  C   UNL     1     -34.974  13.081  58.851  1.00  0.00    -0.074 C 
ATOM      2  C   UNL     1     -34.120  14.088  59.173  1.00  0.00    -0.027 C 
ATOM      3  C   UNL     1     -36.383  13.172  59.385  1.00  0.00     0.039 C 
ENDROOT
BRANCH   2   4
ATOM      4  C   UNL     1     -32.675  14.239  58.746  1.00  0.00     0.032 C 
BRANCH   4   5
ATOM      5  C   UNL     1     -32.486  13.816  57.271  1.00  0.00     0.034 C 
BRANCH   5   6
ATOM      6  C   UNL     1     -33.185  14.759  56.305  1.00  0.00    -0.077 C 
ATOM      7  C   UNL     1     -32.873  16.233  56.363  1.00  0.00     0.039 C 
ATOM      8  C   UNL     1     -34.106  14.336  55.406  1.00  0.00    -0.027 CG0
ATOM      9  G   UNL     1     -34.531  12.893  55.230  1.00  0.00     0.000 G0
ENDBRANCH   5   6
ENDBRANCH   4   5
ENDBRANCH   2   4
BRANCH   1  10
ATOM     10  C   UNL     1     -34.592  11.837  58.063  1.00  0.00     0.057 C 
BRANCH  10  11
ATOM     11  C   UNL     1     -35.786  11.178  57.407  1.00  0.00    -0.026 C 
ATOM     12  C   UNL     1     -36.396  11.514  56.245  1.00  0.00    -0.024 C 
BRANCH  12  13
ATOM     13  C   UNL     1     -36.076  12.679  55.297  1.00  0.00    -0.014 C 
ATOM     14  C   UNL     1     -36.718  13.956  55.895  1.00  0.00     0.016 C 
ATOM     15  C   UNL     1     -36.725  12.451  53.904  1.00  0.00     0.016 C 
BRANCH  13  16
ATOM     16  C   UNL     1     -34.531  12.894  55.239  1.00  0.00     0.038 CG0
ATOM     17  G   UNL     1     -34.101  14.335  55.419  1.00  0.00     0.000 G0
ENDBRANCH  13  16
ENDBRANCH  12  13
ENDBRANCH  10  11
ENDBRANCH   1  10
TORSDOF 0
ENDMDL
MODEL 9
REMARK VINA RESULT:    -4.176      5.747      8.296
REMARK INTER + INTRA:          -5.183
REMARK INTER:                  -6.840
REMARK INTRA:                   1.658
REMARK UNBOUND:                 0.702
REMARK SMILES CC1=CCCC(C)=CCC(C)(C)C=CC1
REMARK SMILES IDX 2 1 3 2 1 3 4 4 5 5 6 6 7 7 8 8 15 10 14 11 13 12 10 13
REMARK SMILES IDX 11 14 12 15 9 16
REMARK H PARENT
REMARK Flexibility Score: 60.00
ROOT
ATOM      1  C   UNL     1     -28.999  19.927  54.773  1.00  0.00    -0.074 C 
ATOM      2  C   UNL     1     -30.033  20.325  55.559  1.00  0.00    -0.027 C 
ATOM      3  C   UNL     1     -29.243  19.877  53.284  1.00  0.00     0.039 C 
ENDROOT
BRANCH   2   4
ATOM      4  C   UNL     1     -30.034  20.479  57.066  1.00  0.00     0.032 C 
BRANCH   4   5
ATOM      5  C   UNL     1     -30.898  19.386  57.734  1.00  0.00     0.034 C 
BRANCH   5   6
ATOM      6  C   UNL     1     -30.517  17.987  57.278  1.00  0.00    -0.077 C 
ATOM      7  C   UNL     1     -31.387  17.280  56.271  1.00  0.00     0.039 C 
ATOM      8  C   UNL     1     -29.436  17.329  57.763  1.00  0.00    -0.027 CG0
ATOM      9  G   UNL     1     -28.470  17.899  58.780  1.00  0.00     0.000 G0
ENDBRANCH   5   6
ENDBRANCH   4   5
ENDBRANCH   2   4
BRANCH   1  10
ATOM     10  C   UNL     1     -27.647  19.457  55.287  1.00  0.00     0.057 C 
BRANCH  10  11
ATOM     11  C   UNL     1     -27.222  20.183  56.545  1.00  0.00    -0.026 C 
ATOM     12  C   UNL     1     -26.948  19.658  57.765  1.00  0.00    -0.024 C 
BRANCH  12  13
ATOM     13  C   UNL     1     -27.037  18.194  58.218  1.00  0.00    -0.014 C 
ATOM     14  C   UNL     1     -26.020  18.000  59.371  1.00  0.00     0.016 C 
ATOM     15  C   UNL     1     -26.615  17.234  57.071  1.00  0.00     0.016 C 
BRANCH  13  16
ATOM     16  C   UNL     1     -28.466  17.907  58.778  1.00  0.00     0.038 CG0
ATOM     17  G   UNL     1     -29.423  17.325  57.760  1.00  0.00     0.000 G0
ENDBRANCH  13  16
ENDBRANCH  12  13
ENDBRANCH  10  11
ENDBRANCH   1  10
TORSDOF 0
ENDMDL
