MODEL 1
REMARK VINA RESULT:    -2.979      0.000      0.000
REMARK INTER + INTRA:         -13.202
REMARK INTER:                  -7.507
REMARK INTRA:                  -5.694
REMARK UNBOUND:                -5.694
REMARK SMILES CCCCCCCCCCCCCCCCCCCCCCCCCCCC(=O)[O-]
REMARK SMILES IDX 15 1 16 2 17 3 18 4 19 5 20 6 21 7 22 8 23 9 24 10 25 11
REMARK SMILES IDX 26 12 27 13 28 14 29 15 30 16 14 17 13 18 12 19 11 20 10 21
REMARK SMILES IDX 9 22 8 23 7 24 6 25 5 26 4 27 3 28 2 29 1 30
REMARK H PARENT
REMARK Flexibility Score: inf
ROOT
ATOM      1  C   UNL     1      32.198  29.867  54.450  1.00  0.00     0.000 C 
ENDROOT
BRANCH   1   2
ATOM      2  C   UNL     1      32.143  30.865  53.287  1.00  0.00     0.000 C 
BRANCH   2   3
ATOM      3  C   UNL     1      31.078  30.448  52.260  1.00  0.00     0.000 C 
BRANCH   3   4
ATOM      4  C   UNL     1      30.205  31.627  51.794  1.00  0.00     0.000 C 
BRANCH   4   5
ATOM      5  C   UNL     1      30.645  33.005  52.321  1.00  0.00     0.000 C 
BRANCH   5   6
ATOM      6  C   UNL     1      29.463  33.974  52.509  1.00  0.00     0.000 C 
BRANCH   6   7
ATOM      7  C   UNL     1      28.144  33.257  52.848  1.00  0.00     0.000 C 
BRANCH   7   8
ATOM      8  C   UNL     1      26.931  34.178  53.095  1.00  0.00     0.000 C 
BRANCH   8   9
ATOM      9  C   UNL     1      25.623  33.737  52.413  1.00  0.00     0.000 C 
BRANCH   9  10
ATOM     10  C   UNL     1      25.858  32.833  51.194  1.00  0.00     0.000 C 
BRANCH  10  11
ATOM     11  C   UNL     1      25.383  33.522  49.905  1.00  0.00     0.000 C 
BRANCH  11  12
ATOM     12  C   UNL     1      26.470  33.564  48.815  1.00  0.00     0.006 C 
BRANCH  12  13
ATOM     13  C   UNL     1      27.760  32.812  49.181  1.00  0.00     0.053 C 
BRANCH  13  14
ATOM     14  C   UNL     1      27.932  31.565  48.370  1.00  0.00     0.041 C 
ATOM     15  O   UNL     1      28.656  30.627  48.798  1.00  0.00    -0.550 OA
ATOM     16  O   UNL     1      27.278  31.430  47.151  1.00  0.00    -0.550 OA
ENDBRANCH  13  14
ENDBRANCH  12  13
ENDBRANCH  11  12
ENDBRANCH  10  11
ENDBRANCH   9  10
ENDBRANCH   8   9
ENDBRANCH   7   8
ENDBRANCH   6   7
ENDBRANCH   5   6
ENDBRANCH   4   5
ENDBRANCH   3   4
ENDBRANCH   2   3
ENDBRANCH   1   2
BRANCH   1  17
ATOM     17  C   UNL     1      31.998  30.580  55.796  1.00  0.00     0.000 C 
BRANCH  17  18
ATOM     18  C   UNL     1      31.842  32.102  55.645  1.00  0.00     0.000 C 
BRANCH  18  19
ATOM     19  C   UNL     1      30.425  32.593  55.993  1.00  0.00     0.000 C 
BRANCH  19  20
ATOM     20  C   UNL     1      29.505  31.460  56.496  1.00  0.00     0.000 C 
BRANCH  20  21
ATOM     21  C   UNL     1      28.281  31.198  55.595  1.00  0.00     0.000 C 
BRANCH  21  22
ATOM     22  C   UNL     1      28.387  29.967  54.674  1.00  0.00    -0.000 C 
BRANCH  22  23
ATOM     23  C   UNL     1      28.385  28.607  55.398  1.00  0.00    -0.000 C 
BRANCH  23  24
ATOM     24  C   UNL     1      27.020  27.904  55.347  1.00  0.00    -0.000 C 
BRANCH  24  25
ATOM     25  C   UNL     1      26.170  28.270  56.573  1.00  0.00    -0.000 C 
BRANCH  25  26
ATOM     26  C   UNL     1      24.793  28.848  56.202  1.00  0.00    -0.000 C 
BRANCH  26  27
ATOM     27  C   UNL     1      24.736  30.384  56.095  1.00  0.00    -0.000 C 
BRANCH  27  28
ATOM     28  C   UNL     1      24.645  30.886  54.646  1.00  0.00    -0.000 C 
BRANCH  28  29
ATOM     29  C   UNL     1      24.274  29.744  53.693  1.00  0.00    -0.003 C 
ATOM     30  C   UNL     1      25.268  29.640  52.540  1.00  0.00     0.004 C 
ENDBRANCH  28  29
ENDBRANCH  27  28
ENDBRANCH  26  27
ENDBRANCH  25  26
ENDBRANCH  24  25
ENDBRANCH  23  24
ENDBRANCH  22  23
ENDBRANCH  21  22
ENDBRANCH  20  21
ENDBRANCH  19  20
ENDBRANCH  18  19
ENDBRANCH  17  18
ENDBRANCH   1  17
TORSDOF 26
ENDMDL
MODEL 2
REMARK VINA RESULT:    -2.899      2.905      6.647
REMARK INTER + INTRA:         -12.999
REMARK INTER:                  -6.872
REMARK INTRA:                  -6.128
REMARK UNBOUND:                -5.694
REMARK SMILES CCCCCCCCCCCCCCCCCCCCCCCCCCCC(=O)[O-]
REMARK SMILES IDX 15 1 16 2 17 3 18 4 19 5 20 6 21 7 22 8 23 9 24 10 25 11
REMARK SMILES IDX 26 12 27 13 28 14 29 15 30 16 14 17 13 18 12 19 11 20 10 21
REMARK SMILES IDX 9 22 8 23 7 24 6 25 5 26 4 27 3 28 2 29 1 30
REMARK H PARENT
REMARK Flexibility Score: inf
ROOT
ATOM      1  C   UNL     1      29.722  32.794  50.223  1.00  0.00     0.000 C 
ENDROOT
BRANCH   1   2
ATOM      2  C   UNL     1      29.997  33.577  51.511  1.00  0.00     0.000 C 
BRANCH   2   3
ATOM      3  C   UNL     1      28.710  33.741  52.336  1.00  0.00     0.000 C 
BRANCH   3   4
ATOM      4  C   UNL     1      28.965  34.366  53.720  1.00  0.00     0.000 C 
BRANCH   4   5
ATOM      5  C   UNL     1      30.356  35.004  53.895  1.00  0.00     0.000 C 
BRANCH   5   6
ATOM      6  C   UNL     1      31.004  34.653  55.247  1.00  0.00     0.000 C 
BRANCH   6   7
ATOM      7  C   UNL     1      30.823  33.175  55.636  1.00  0.00     0.000 C 
BRANCH   7   8
ATOM      8  C   UNL     1      31.608  32.161  54.777  1.00  0.00     0.000 C 
BRANCH   8   9
ATOM      9  C   UNL     1      30.759  31.045  54.141  1.00  0.00     0.000 C 
BRANCH   9  10
ATOM     10  C   UNL     1      29.448  30.784  54.897  1.00  0.00     0.000 C 
BRANCH  10  11
ATOM     11  C   UNL     1      28.329  30.377  53.925  1.00  0.00     0.000 C 
BRANCH  11  12
ATOM     12  C   UNL     1      27.004  31.110  54.202  1.00  0.00     0.006 C 
BRANCH  12  13
ATOM     13  C   UNL     1      25.824  30.180  54.526  1.00  0.00     0.053 C 
BRANCH  13  14
ATOM     14  C   UNL     1      25.494  30.180  55.987  1.00  0.00     0.041 C 
ATOM     15  O   UNL     1      24.295  30.089  56.365  1.00  0.00    -0.550 OA
ATOM     16  O   UNL     1      26.510  30.263  56.932  1.00  0.00    -0.550 OA
ENDBRANCH  13  14
ENDBRANCH  12  13
ENDBRANCH  11  12
ENDBRANCH  10  11
ENDBRANCH   9  10
ENDBRANCH   8   9
ENDBRANCH   7   8
ENDBRANCH   6   7
ENDBRANCH   5   6
ENDBRANCH   4   5
ENDBRANCH   3   4
ENDBRANCH   2   3
ENDBRANCH   1   2
BRANCH   1  17
ATOM     17  C   UNL     1      29.408  31.321  50.530  1.00  0.00     0.000 C 
BRANCH  17  18
ATOM     18  C   UNL     1      29.139  30.494  49.263  1.00  0.00     0.000 C 
BRANCH  18  19
ATOM     19  C   UNL     1      27.948  29.532  49.423  1.00  0.00     0.000 C 
BRANCH  19  20
ATOM     20  C   UNL     1      27.091  29.839  50.670  1.00  0.00     0.000 C 
BRANCH  20  21
ATOM     21  C   UNL     1      25.572  29.840  50.403  1.00  0.00     0.000 C 
BRANCH  21  22
ATOM     22  C   UNL     1      24.824  31.115  50.839  1.00  0.00    -0.000 C 
BRANCH  22  23
ATOM     23  C   UNL     1      25.687  32.389  50.906  1.00  0.00    -0.000 C 
BRANCH  23  24
ATOM     24  C   UNL     1      25.393  33.372  49.764  1.00  0.00    -0.000 C 
BRANCH  24  25
ATOM     25  C   UNL     1      26.549  33.398  48.752  1.00  0.00    -0.000 C 
BRANCH  25  26
ATOM     26  C   UNL     1      26.121  32.975  47.335  1.00  0.00    -0.000 C 
BRANCH  26  27
ATOM     27  C   UNL     1      26.245  31.469  47.037  1.00  0.00    -0.000 C 
BRANCH  27  28
ATOM     28  C   UNL     1      24.886  30.758  46.939  1.00  0.00    -0.000 C 
BRANCH  28  29
ATOM     29  C   UNL     1      23.746  31.773  46.792  1.00  0.00    -0.003 C 
ATOM     30  C   UNL     1      22.693  31.583  47.879  1.00  0.00     0.004 C 
ENDBRANCH  28  29
ENDBRANCH  27  28
ENDBRANCH  26  27
ENDBRANCH  25  26
ENDBRANCH  24  25
ENDBRANCH  23  24
ENDBRANCH  22  23
ENDBRANCH  21  22
ENDBRANCH  20  21
ENDBRANCH  19  20
ENDBRANCH  18  19
ENDBRANCH  17  18
ENDBRANCH   1  17
TORSDOF 26
ENDMDL
MODEL 3
REMARK VINA RESULT:    -2.895     14.284     17.492
REMARK INTER + INTRA:         -12.990
REMARK INTER:                  -7.668
REMARK INTRA:                  -5.322
REMARK UNBOUND:                -5.694
REMARK SMILES CCCCCCCCCCCCCCCCCCCCCCCCCCCC(=O)[O-]
REMARK SMILES IDX 15 1 16 2 17 3 18 4 19 5 20 6 21 7 22 8 23 9 24 10 25 11
REMARK SMILES IDX 26 12 27 13 28 14 29 15 30 16 14 17 13 18 12 19 11 20 10 21
REMARK SMILES IDX 9 22 8 23 7 24 6 25 5 26 4 27 3 28 2 29 1 30
REMARK H PARENT
REMARK Flexibility Score: inf
ROOT
ATOM      1  C   UNL     1      17.673  18.235  47.515  1.00  0.00     0.000 C 
ENDROOT
BRANCH   1   2
ATOM      2  C   UNL     1      18.410  19.577  47.579  1.00  0.00     0.000 C 
BRANCH   2   3
ATOM      3  C   UNL     1      17.419  20.739  47.752  1.00  0.00     0.000 C 
BRANCH   3   4
ATOM      4  C   UNL     1      17.768  21.956  46.875  1.00  0.00     0.000 C 
BRANCH   4   5
ATOM      5  C   UNL     1      16.696  22.333  45.836  1.00  0.00     0.000 C 
BRANCH   5   6
ATOM      6  C   UNL     1      17.221  22.268  44.391  1.00  0.00     0.000 C 
BRANCH   6   7
ATOM      7  C   UNL     1      16.737  21.021  43.629  1.00  0.00     0.000 C 
BRANCH   7   8
ATOM      8  C   UNL     1      17.814  19.951  43.354  1.00  0.00     0.000 C 
BRANCH   8   9
ATOM      9  C   UNL     1      19.203  20.250  43.949  1.00  0.00     0.000 C 
BRANCH   9  10
ATOM     10  C   UNL     1      20.007  18.979  44.260  1.00  0.00     0.000 C 
BRANCH  10  11
ATOM     11  C   UNL     1      21.399  19.334  44.806  1.00  0.00     0.000 C 
BRANCH  11  12
ATOM     12  C   UNL     1      22.539  18.867  43.883  1.00  0.00     0.006 C 
BRANCH  12  13
ATOM     13  C   UNL     1      22.174  18.841  42.390  1.00  0.00     0.053 C 
BRANCH  13  14
ATOM     14  C   UNL     1      23.054  17.914  41.612  1.00  0.00     0.041 C 
ATOM     15  O   UNL     1      22.959  16.667  41.771  1.00  0.00    -0.550 OA
ATOM     16  O   UNL     1      23.968  18.424  40.697  1.00  0.00    -0.550 OA
ENDBRANCH  13  14
ENDBRANCH  12  13
ENDBRANCH  11  12
ENDBRANCH  10  11
ENDBRANCH   9  10
ENDBRANCH   8   9
ENDBRANCH   7   8
ENDBRANCH   6   7
ENDBRANCH   5   6
ENDBRANCH   4   5
ENDBRANCH   3   4
ENDBRANCH   2   3
ENDBRANCH   1   2
BRANCH   1  17
ATOM     17  C   UNL     1      16.922  18.083  46.183  1.00  0.00     0.000 C 
BRANCH  17  18
ATOM     18  C   UNL     1      15.408  17.896  46.372  1.00  0.00     0.000 C 
BRANCH  18  19
ATOM     19  C   UNL     1      14.602  19.153  46.002  1.00  0.00     0.000 C 
BRANCH  19  20
ATOM     20  C   UNL     1      13.703  19.651  47.154  1.00  0.00     0.000 C 
BRANCH  20  21
ATOM     21  C   UNL     1      14.019  19.007  48.520  1.00  0.00     0.000 C 
BRANCH  21  22
ATOM     22  C   UNL     1      14.531  19.974  49.605  1.00  0.00    -0.000 C 
BRANCH  22  23
ATOM     23  C   UNL     1      15.501  19.354  50.628  1.00  0.00    -0.000 C 
BRANCH  23  24
ATOM     24  C   UNL     1      15.519  17.818  50.581  1.00  0.00    -0.000 C 
BRANCH  24  25
ATOM     25  C   UNL     1      16.514  17.251  51.606  1.00  0.00    -0.000 C 
BRANCH  25  26
ATOM     26  C   UNL     1      17.976  17.321  51.129  1.00  0.00    -0.000 C 
BRANCH  26  27
ATOM     27  C   UNL     1      18.877  18.285  51.923  1.00  0.00    -0.000 C 
BRANCH  27  28
ATOM     28  C   UNL     1      19.288  19.529  51.120  1.00  0.00    -0.000 C 
BRANCH  28  29
ATOM     29  C   UNL     1      18.659  20.796  51.712  1.00  0.00    -0.003 C 
ATOM     30  C   UNL     1      19.007  22.027  50.880  1.00  0.00     0.004 C 
ENDBRANCH  28  29
ENDBRANCH  27  28
ENDBRANCH  26  27
ENDBRANCH  25  26
ENDBRANCH  24  25
ENDBRANCH  23  24
ENDBRANCH  22  23
ENDBRANCH  21  22
ENDBRANCH  20  21
ENDBRANCH  19  20
ENDBRANCH  18  19
ENDBRANCH  17  18
ENDBRANCH   1  17
TORSDOF 26
ENDMDL
MODEL 4
REMARK VINA RESULT:    -2.893      3.536      5.826
REMARK INTER + INTRA:         -12.984
REMARK INTER:                  -7.598
REMARK INTRA:                  -5.385
REMARK UNBOUND:                -5.694
REMARK SMILES CCCCCCCCCCCCCCCCCCCCCCCCCCCC(=O)[O-]
REMARK SMILES IDX 15 1 16 2 17 3 18 4 19 5 20 6 21 7 22 8 23 9 24 10 25 11
REMARK SMILES IDX 26 12 27 13 28 14 29 15 30 16 14 17 13 18 12 19 11 20 10 21
REMARK SMILES IDX 9 22 8 23 7 24 6 25 5 26 4 27 3 28 2 29 1 30
REMARK H PARENT
REMARK Flexibility Score: inf
ROOT
ATOM      1  C   UNL     1      29.656  32.042  52.250  1.00  0.00     0.000 C 
ENDROOT
BRANCH   1   2
ATOM      2  C   UNL     1      29.928  33.535  52.468  1.00  0.00     0.000 C 
BRANCH   2   3
ATOM      3  C   UNL     1      28.835  34.167  53.344  1.00  0.00     0.000 C 
BRANCH   3   4
ATOM      4  C   UNL     1      27.545  33.328  53.386  1.00  0.00     0.000 C 
BRANCH   4   5
ATOM      5  C   UNL     1      26.327  33.982  52.708  1.00  0.00     0.000 C 
BRANCH   5   6
ATOM      6  C   UNL     1      25.505  32.983  51.873  1.00  0.00     0.000 C 
BRANCH   6   7
ATOM      7  C   UNL     1      25.786  31.515  52.242  1.00  0.00     0.000 C 
BRANCH   7   8
ATOM      8  C   UNL     1      24.720  30.838  53.129  1.00  0.00     0.000 C 
BRANCH   8   9
ATOM      9  C   UNL     1      24.824  31.148  54.633  1.00  0.00     0.000 C 
BRANCH   9  10
ATOM     10  C   UNL     1      23.674  30.543  55.451  1.00  0.00     0.000 C 
BRANCH  10  11
ATOM     11  C   UNL     1      22.795  29.640  54.572  1.00  0.00     0.000 C 
BRANCH  11  12
ATOM     12  C   UNL     1      21.312  29.668  54.982  1.00  0.00     0.006 C 
BRANCH  12  13
ATOM     13  C   UNL     1      21.054  30.246  56.383  1.00  0.00     0.053 C 
BRANCH  13  14
ATOM     14  C   UNL     1      20.696  29.181  57.372  1.00  0.00     0.041 C 
ATOM     15  O   UNL     1      21.567  28.735  58.167  1.00  0.00    -0.550 OA
ATOM     16  O   UNL     1      19.396  28.693  57.431  1.00  0.00    -0.550 OA
ENDBRANCH  13  14
ENDBRANCH  12  13
ENDBRANCH  11  12
ENDBRANCH  10  11
ENDBRANCH   9  10
ENDBRANCH   8   9
ENDBRANCH   7   8
ENDBRANCH   6   7
ENDBRANCH   5   6
ENDBRANCH   4   5
ENDBRANCH   3   4
ENDBRANCH   2   3
ENDBRANCH   1   2
BRANCH   1  17
ATOM     17  C   UNL     1      30.964  31.276  51.995  1.00  0.00     0.000 C 
BRANCH  17  18
ATOM     18  C   UNL     1      31.491  30.565  53.251  1.00  0.00     0.000 C 
BRANCH  18  19
ATOM     19  C   UNL     1      32.479  31.429  54.054  1.00  0.00     0.000 C 
BRANCH  19  20
ATOM     20  C   UNL     1      32.144  31.481  55.561  1.00  0.00     0.000 C 
BRANCH  20  21
ATOM     21  C   UNL     1      31.059  32.514  55.928  1.00  0.00     0.000 C 
BRANCH  21  22
ATOM     22  C   UNL     1      29.666  31.932  56.233  1.00  0.00    -0.000 C 
BRANCH  22  23
ATOM     23  C   UNL     1      29.669  30.568  56.950  1.00  0.00    -0.000 C 
BRANCH  23  24
ATOM     24  C   UNL     1      29.005  29.456  56.124  1.00  0.00    -0.000 C 
BRANCH  24  25
ATOM     25  C   UNL     1      28.225  30.046  54.939  1.00  0.00    -0.000 C 
BRANCH  25  26
ATOM     26  C   UNL     1      28.009  29.037  53.797  1.00  0.00    -0.000 C 
BRANCH  26  27
ATOM     27  C   UNL     1      27.524  27.643  54.239  1.00  0.00    -0.000 C 
BRANCH  27  28
ATOM     28  C   UNL     1      26.057  27.630  54.697  1.00  0.00    -0.000 C 
BRANCH  28  29
ATOM     29  C   UNL     1      25.913  26.926  56.052  1.00  0.00    -0.003 C 
ATOM     30  C   UNL     1      25.580  27.922  57.159  1.00  0.00     0.004 C 
ENDBRANCH  28  29
ENDBRANCH  27  28
ENDBRANCH  26  27
ENDBRANCH  25  26
ENDBRANCH  24  25
ENDBRANCH  23  24
ENDBRANCH  22  23
ENDBRANCH  21  22
ENDBRANCH  20  21
ENDBRANCH  19  20
ENDBRANCH  18  19
ENDBRANCH  17  18
ENDBRANCH   1  17
TORSDOF 26
ENDMDL
MODEL 5
REMARK VINA RESULT:    -2.884      1.551      4.964
REMARK INTER + INTRA:         -12.962
REMARK INTER:                  -6.986
REMARK INTRA:                  -5.975
REMARK UNBOUND:                -5.694
REMARK SMILES CCCCCCCCCCCCCCCCCCCCCCCCCCCC(=O)[O-]
REMARK SMILES IDX 15 1 16 2 17 3 18 4 19 5 20 6 21 7 22 8 23 9 24 10 25 11
REMARK SMILES IDX 26 12 27 13 28 14 29 15 30 16 14 17 13 18 12 19 11 20 10 21
REMARK SMILES IDX 9 22 8 23 7 24 6 25 5 26 4 27 3 28 2 29 1 30
REMARK H PARENT
REMARK Flexibility Score: inf
ROOT
ATOM      1  C   UNL     1      25.238  31.990  52.105  1.00  0.00     0.000 C 
ENDROOT
BRANCH   1   2
ATOM      2  C   UNL     1      25.344  31.632  53.592  1.00  0.00     0.000 C 
BRANCH   2   3
ATOM      3  C   UNL     1      25.938  30.227  53.775  1.00  0.00     0.000 C 
BRANCH   3   4
ATOM      4  C   UNL     1      27.306  30.064  53.088  1.00  0.00     0.000 C 
BRANCH   4   5
ATOM      5  C   UNL     1      28.060  28.770  53.446  1.00  0.00     0.000 C 
BRANCH   5   6
ATOM      6  C   UNL     1      29.581  28.894  53.248  1.00  0.00     0.000 C 
BRANCH   6   7
ATOM      7  C   UNL     1      30.010  30.280  52.733  1.00  0.00     0.000 C 
BRANCH   7   8
ATOM      8  C   UNL     1      31.169  30.281  51.715  1.00  0.00     0.000 C 
BRANCH   8   9
ATOM      9  C   UNL     1      30.758  30.538  50.253  1.00  0.00     0.000 C 
BRANCH   9  10
ATOM     10  C   UNL     1      29.367  31.177  50.125  1.00  0.00     0.000 C 
BRANCH  10  11
ATOM     11  C   UNL     1      29.420  32.423  49.228  1.00  0.00     0.000 C 
BRANCH  11  12
ATOM     12  C   UNL     1      28.025  32.999  48.923  1.00  0.00     0.006 C 
BRANCH  12  13
ATOM     13  C   UNL     1      27.233  32.211  47.869  1.00  0.00     0.053 C 
BRANCH  13  14
ATOM     14  C   UNL     1      26.021  31.553  48.452  1.00  0.00     0.041 C 
ATOM     15  O   UNL     1      26.123  30.444  49.042  1.00  0.00    -0.550 OA
ATOM     16  O   UNL     1      24.780  32.174  48.363  1.00  0.00    -0.550 OA
ENDBRANCH  13  14
ENDBRANCH  12  13
ENDBRANCH  11  12
ENDBRANCH  10  11
ENDBRANCH   9  10
ENDBRANCH   8   9
ENDBRANCH   7   8
ENDBRANCH   6   7
ENDBRANCH   5   6
ENDBRANCH   4   5
ENDBRANCH   3   4
ENDBRANCH   2   3
ENDBRANCH   1   2
BRANCH   1  17
ATOM     17  C   UNL     1      25.960  33.313  51.805  1.00  0.00     0.000 C 
BRANCH  17  18
ATOM     18  C   UNL     1      26.078  34.218  53.041  1.00  0.00     0.000 C 
BRANCH  18  19
ATOM     19  C   UNL     1      27.538  34.554  53.395  1.00  0.00     0.000 C 
BRANCH  19  20
ATOM     20  C   UNL     1      28.536  33.486  52.900  1.00  0.00     0.000 C 
BRANCH  20  21
ATOM     21  C   UNL     1      29.915  34.050  52.503  1.00  0.00     0.000 C 
BRANCH  21  22
ATOM     22  C   UNL     1      31.071  33.714  53.464  1.00  0.00    -0.000 C 
BRANCH  22  23
ATOM     23  C   UNL     1      30.666  33.547  54.941  1.00  0.00    -0.000 C 
BRANCH  23  24
ATOM     24  C   UNL     1      31.445  32.430  55.652  1.00  0.00    -0.000 C 
BRANCH  24  25
ATOM     25  C   UNL     1      30.497  31.317  56.125  1.00  0.00    -0.000 C 
BRANCH  25  26
ATOM     26  C   UNL     1      29.012  31.716  56.048  1.00  0.00    -0.000 C 
BRANCH  26  27
ATOM     27  C   UNL     1      28.041  30.765  56.774  1.00  0.00    -0.000 C 
BRANCH  27  28
ATOM     28  C   UNL     1      28.719  29.486  57.289  1.00  0.00    -0.000 C 
BRANCH  28  29
ATOM     29  C   UNL     1      27.877  28.249  56.957  1.00  0.00    -0.003 C 
ATOM     30  C   UNL     1      26.385  28.557  57.038  1.00  0.00     0.004 C 
ENDBRANCH  28  29
ENDBRANCH  27  28
ENDBRANCH  26  27
ENDBRANCH  25  26
ENDBRANCH  24  25
ENDBRANCH  23  24
ENDBRANCH  22  23
ENDBRANCH  21  22
ENDBRANCH  20  21
ENDBRANCH  19  20
ENDBRANCH  18  19
ENDBRANCH  17  18
ENDBRANCH   1  17
TORSDOF 26
ENDMDL
MODEL 6
REMARK VINA RESULT:    -2.863      3.859      6.674
REMARK INTER + INTRA:         -12.910
REMARK INTER:                  -8.127
REMARK INTRA:                  -4.782
REMARK UNBOUND:                -5.694
REMARK SMILES CCCCCCCCCCCCCCCCCCCCCCCCCCCC(=O)[O-]
REMARK SMILES IDX 15 1 16 2 17 3 18 4 19 5 20 6 21 7 22 8 23 9 24 10 25 11
REMARK SMILES IDX 26 12 27 13 28 14 29 15 30 16 14 17 13 18 12 19 11 20 10 21
REMARK SMILES IDX 9 22 8 23 7 24 6 25 5 26 4 27 3 28 2 29 1 30
REMARK H PARENT
REMARK Flexibility Score: inf
ROOT
ATOM      1  C   UNL     1      25.519  27.771  56.194  1.00  0.00     0.000 C 
ENDROOT
BRANCH   1   2
ATOM      2  C   UNL     1      26.193  28.950  56.903  1.00  0.00     0.000 C 
BRANCH   2   3
ATOM      3  C   UNL     1      26.546  30.061  55.902  1.00  0.00     0.000 C 
BRANCH   3   4
ATOM      4  C   UNL     1      27.114  29.514  54.580  1.00  0.00     0.000 C 
BRANCH   4   5
ATOM      5  C   UNL     1      26.576  30.200  53.311  1.00  0.00     0.000 C 
BRANCH   5   6
ATOM      6  C   UNL     1      25.713  31.435  53.624  1.00  0.00     0.000 C 
BRANCH   6   7
ATOM      7  C   UNL     1      25.302  32.218  52.364  1.00  0.00     0.000 C 
BRANCH   7   8
ATOM      8  C   UNL     1      25.690  33.711  52.353  1.00  0.00     0.000 C 
BRANCH   8   9
ATOM      9  C   UNL     1      26.873  34.089  53.264  1.00  0.00     0.000 C 
BRANCH   9  10
ATOM     10  C   UNL     1      28.235  33.696  52.672  1.00  0.00     0.000 C 
BRANCH  10  11
ATOM     11  C   UNL     1      29.315  33.660  53.764  1.00  0.00     0.000 C 
BRANCH  11  12
ATOM     12  C   UNL     1      29.623  32.234  54.253  1.00  0.00     0.006 C 
BRANCH  12  13
ATOM     13  C   UNL     1      29.672  32.086  55.782  1.00  0.00     0.053 C 
BRANCH  13  14
ATOM     14  C   UNL     1      30.269  30.779  56.202  1.00  0.00     0.041 C 
ATOM     15  O   UNL     1      31.256  30.304  55.579  1.00  0.00    -0.550 OA
ATOM     16  O   UNL     1      29.748  30.094  57.293  1.00  0.00    -0.550 OA
ENDBRANCH  13  14
ENDBRANCH  12  13
ENDBRANCH  11  12
ENDBRANCH  10  11
ENDBRANCH   9  10
ENDBRANCH   8   9
ENDBRANCH   7   8
ENDBRANCH   6   7
ENDBRANCH   5   6
ENDBRANCH   4   5
ENDBRANCH   3   4
ENDBRANCH   2   3
ENDBRANCH   1   2
BRANCH   1  17
ATOM     17  C   UNL     1      23.995  27.810  56.388  1.00  0.00     0.000 C 
BRANCH  17  18
ATOM     18  C   UNL     1      23.243  28.214  55.110  1.00  0.00     0.000 C 
BRANCH  18  19
ATOM     19  C   UNL     1      22.826  29.695  55.108  1.00  0.00     0.000 C 
BRANCH  19  20
ATOM     20  C   UNL     1      22.829  30.321  56.520  1.00  0.00     0.000 C 
BRANCH  20  21
ATOM     21  C   UNL     1      21.425  30.670  57.055  1.00  0.00     0.000 C 
BRANCH  21  22
ATOM     22  C   UNL     1      21.110  30.155  58.472  1.00  0.00    -0.000 C 
BRANCH  22  23
ATOM     23  C   UNL     1      21.217  28.628  58.652  1.00  0.00    -0.000 C 
BRANCH  23  24
ATOM     24  C   UNL     1      19.948  27.883  58.213  1.00  0.00    -0.000 C 
BRANCH  24  25
ATOM     25  C   UNL     1      20.272  26.838  57.134  1.00  0.00    -0.000 C 
BRANCH  25  26
ATOM     26  C   UNL     1      19.571  27.119  55.793  1.00  0.00    -0.000 C 
BRANCH  26  27
ATOM     27  C   UNL     1      18.924  28.511  55.671  1.00  0.00    -0.000 C 
BRANCH  27  28
ATOM     28  C   UNL     1      19.264  29.223  54.353  1.00  0.00    -0.000 C 
BRANCH  28  29
ATOM     29  C   UNL     1      18.200  30.271  54.007  1.00  0.00    -0.003 C 
ATOM     30  C   UNL     1      16.922  29.613  53.494  1.00  0.00     0.004 C 
ENDBRANCH  28  29
ENDBRANCH  27  28
ENDBRANCH  26  27
ENDBRANCH  25  26
ENDBRANCH  24  25
ENDBRANCH  23  24
ENDBRANCH  22  23
ENDBRANCH  21  22
ENDBRANCH  20  21
ENDBRANCH  19  20
ENDBRANCH  18  19
ENDBRANCH  17  18
ENDBRANCH   1  17
TORSDOF 26
ENDMDL
MODEL 7
REMARK VINA RESULT:    -2.827      1.884      4.078
REMARK INTER + INTRA:         -12.818
REMARK INTER:                  -7.459
REMARK INTRA:                  -5.359
REMARK UNBOUND:                -5.694
REMARK SMILES CCCCCCCCCCCCCCCCCCCCCCCCCCCC(=O)[O-]
REMARK SMILES IDX 15 1 16 2 17 3 18 4 19 5 20 6 21 7 22 8 23 9 24 10 25 11
REMARK SMILES IDX 26 12 27 13 28 14 29 15 30 16 14 17 13 18 12 19 11 20 10 21
REMARK SMILES IDX 9 22 8 23 7 24 6 25 5 26 4 27 3 28 2 29 1 30
REMARK H PARENT
REMARK Flexibility Score: inf
ROOT
ATOM      1  C   UNL     1      30.495  33.399  52.515  1.00  0.00     0.000 C 
ENDROOT
BRANCH   1   2
ATOM      2  C   UNL     1      31.353  32.829  53.651  1.00  0.00     0.000 C 
BRANCH   2   3
ATOM      3  C   UNL     1      30.824  33.289  55.019  1.00  0.00     0.000 C 
BRANCH   3   4
ATOM      4  C   UNL     1      31.034  32.236  56.123  1.00  0.00     0.000 C 
BRANCH   4   5
ATOM      5  C   UNL     1      30.022  31.076  56.111  1.00  0.00     0.000 C 
BRANCH   5   6
ATOM      6  C   UNL     1      28.603  31.529  55.721  1.00  0.00     0.000 C 
BRANCH   6   7
ATOM      7  C   UNL     1      28.066  30.812  54.469  1.00  0.00     0.000 C 
BRANCH   7   8
ATOM      8  C   UNL     1      28.859  29.566  54.025  1.00  0.00     0.000 C 
BRANCH   8   9
ATOM      9  C   UNL     1      29.639  29.720  52.707  1.00  0.00     0.000 C 
BRANCH   9  10
ATOM     10  C   UNL     1      28.728  29.986  51.499  1.00  0.00     0.000 C 
BRANCH  10  11
ATOM     11  C   UNL     1      29.501  30.700  50.379  1.00  0.00     0.000 C 
BRANCH  11  12
ATOM     12  C   UNL     1      28.584  31.503  49.439  1.00  0.00     0.006 C 
BRANCH  12  13
ATOM     13  C   UNL     1      29.163  32.856  48.996  1.00  0.00     0.053 C 
BRANCH  13  14
ATOM     14  C   UNL     1      30.229  32.698  47.956  1.00  0.00     0.041 C 
ATOM     15  O   UNL     1      31.200  33.500  47.918  1.00  0.00    -0.550 OA
ATOM     16  O   UNL     1      30.161  31.653  47.042  1.00  0.00    -0.550 OA
ENDBRANCH  13  14
ENDBRANCH  12  13
ENDBRANCH  11  12
ENDBRANCH  10  11
ENDBRANCH   9  10
ENDBRANCH   8   9
ENDBRANCH   7   8
ENDBRANCH   6   7
ENDBRANCH   5   6
ENDBRANCH   4   5
ENDBRANCH   3   4
ENDBRANCH   2   3
ENDBRANCH   1   2
BRANCH   1  17
ATOM     17  C   UNL     1      29.243  34.097  53.068  1.00  0.00     0.000 C 
BRANCH  17  18
ATOM     18  C   UNL     1      27.954  33.653  52.360  1.00  0.00     0.000 C 
BRANCH  18  19
ATOM     19  C   UNL     1      26.682  34.084  53.112  1.00  0.00     0.000 C 
BRANCH  19  20
ATOM     20  C   UNL     1      25.431  33.288  52.682  1.00  0.00     0.000 C 
BRANCH  20  21
ATOM     21  C   UNL     1      25.736  32.086  51.766  1.00  0.00     0.000 C 
BRANCH  21  22
ATOM     22  C   UNL     1      25.111  30.746  52.201  1.00  0.00    -0.000 C 
BRANCH  22  23
ATOM     23  C   UNL     1      24.474  30.747  53.603  1.00  0.00    -0.000 C 
BRANCH  23  24
ATOM     24  C   UNL     1      24.663  29.417  54.347  1.00  0.00    -0.000 C 
BRANCH  24  25
ATOM     25  C   UNL     1      24.791  29.649  55.861  1.00  0.00    -0.000 C 
BRANCH  25  26
ATOM     26  C   UNL     1      23.625  30.467  56.446  1.00  0.00    -0.000 C 
BRANCH  26  27
ATOM     27  C   UNL     1      22.276  29.725  56.515  1.00  0.00    -0.000 C 
BRANCH  27  28
ATOM     28  C   UNL     1      21.221  30.299  55.558  1.00  0.00    -0.000 C 
BRANCH  28  29
ATOM     29  C   UNL     1      20.480  29.175  54.822  1.00  0.00    -0.003 C 
ATOM     30  C   UNL     1      21.294  27.885  54.822  1.00  0.00     0.004 C 
ENDBRANCH  28  29
ENDBRANCH  27  28
ENDBRANCH  26  27
ENDBRANCH  25  26
ENDBRANCH  24  25
ENDBRANCH  23  24
ENDBRANCH  22  23
ENDBRANCH  21  22
ENDBRANCH  20  21
ENDBRANCH  19  20
ENDBRANCH  18  19
ENDBRANCH  17  18
ENDBRANCH   1  17
TORSDOF 26
ENDMDL
MODEL 8
REMARK VINA RESULT:    -2.809      2.713      6.672
REMARK INTER + INTRA:         -12.772
REMARK INTER:                  -7.231
REMARK INTRA:                  -5.541
REMARK UNBOUND:                -5.694
REMARK SMILES CCCCCCCCCCCCCCCCCCCCCCCCCCCC(=O)[O-]
REMARK SMILES IDX 15 1 16 2 17 3 18 4 19 5 20 6 21 7 22 8 23 9 24 10 25 11
REMARK SMILES IDX 26 12 27 13 28 14 29 15 30 16 14 17 13 18 12 19 11 20 10 21
REMARK SMILES IDX 9 22 8 23 7 24 6 25 5 26 4 27 3 28 2 29 1 30
REMARK H PARENT
REMARK Flexibility Score: inf
ROOT
ATOM      1  C   UNL     1      30.138  32.890  51.561  1.00  0.00     0.000 C 
ENDROOT
BRANCH   1   2
ATOM      2  C   UNL     1      29.564  31.503  51.871  1.00  0.00     0.000 C 
BRANCH   2   3
ATOM      3  C   UNL     1      30.629  30.413  51.672  1.00  0.00     0.000 C 
BRANCH   3   4
ATOM      4  C   UNL     1      31.255  29.942  52.997  1.00  0.00     0.000 C 
BRANCH   4   5
ATOM      5  C   UNL     1      32.524  30.704  53.420  1.00  0.00     0.000 C 
BRANCH   5   6
ATOM      6  C   UNL     1      32.441  31.244  54.859  1.00  0.00     0.000 C 
BRANCH   6   7
ATOM      7  C   UNL     1      31.527  32.476  54.987  1.00  0.00     0.000 C 
BRANCH   7   8
ATOM      8  C   UNL     1      30.520  32.438  56.156  1.00  0.00     0.000 C 
BRANCH   8   9
ATOM      9  C   UNL     1      29.716  31.131  56.286  1.00  0.00     0.000 C 
BRANCH   9  10
ATOM     10  C   UNL     1      28.320  31.220  55.650  1.00  0.00     0.000 C 
BRANCH  10  11
ATOM     11  C   UNL     1      27.993  29.937  54.871  1.00  0.00     0.000 C 
BRANCH  11  12
ATOM     12  C   UNL     1      26.480  29.675  54.761  1.00  0.00     0.006 C 
BRANCH  12  13
ATOM     13  C   UNL     1      25.777  29.456  56.109  1.00  0.00     0.053 C 
BRANCH  13  14
ATOM     14  C   UNL     1      26.380  28.323  56.880  1.00  0.00     0.041 C 
ATOM     15  O   UNL     1      26.211  27.135  56.497  1.00  0.00    -0.550 OA
ATOM     16  O   UNL     1      27.147  28.580  58.011  1.00  0.00    -0.550 OA
ENDBRANCH  13  14
ENDBRANCH  12  13
ENDBRANCH  11  12
ENDBRANCH  10  11
ENDBRANCH   9  10
ENDBRANCH   8   9
ENDBRANCH   7   8
ENDBRANCH   6   7
ENDBRANCH   5   6
ENDBRANCH   4   5
ENDBRANCH   3   4
ENDBRANCH   2   3
ENDBRANCH   1   2
BRANCH   1  17
ATOM     17  C   UNL     1      29.383  33.983  52.332  1.00  0.00     0.000 C 
BRANCH  17  18
ATOM     18  C   UNL     1      28.216  33.426  53.162  1.00  0.00     0.000 C 
BRANCH  18  19
ATOM     19  C   UNL     1      27.016  34.387  53.222  1.00  0.00     0.000 C 
BRANCH  19  20
ATOM     20  C   UNL     1      25.680  33.703  52.857  1.00  0.00     0.000 C 
BRANCH  20  21
ATOM     21  C   UNL     1      25.835  32.256  52.347  1.00  0.00     0.000 C 
BRANCH  21  22
ATOM     22  C   UNL     1      25.514  32.042  50.855  1.00  0.00    -0.000 C 
BRANCH  22  23
ATOM     23  C   UNL     1      25.363  33.333  50.027  1.00  0.00    -0.000 C 
BRANCH  23  24
ATOM     24  C   UNL     1      26.121  33.279  48.692  1.00  0.00    -0.000 C 
BRANCH  24  25
ATOM     25  C   UNL     1      27.639  33.285  48.924  1.00  0.00    -0.000 C 
BRANCH  25  26
ATOM     26  C   UNL     1      28.439  32.807  47.699  1.00  0.00    -0.000 C 
BRANCH  26  27
ATOM     27  C   UNL     1      29.849  32.268  48.008  1.00  0.00    -0.000 C 
BRANCH  27  28
ATOM     28  C   UNL     1      29.910  30.734  48.071  1.00  0.00    -0.000 C 
BRANCH  28  29
ATOM     29  C   UNL     1      28.529  30.120  47.811  1.00  0.00    -0.003 C 
ATOM     30  C   UNL     1      27.944  29.516  49.084  1.00  0.00     0.004 C 
ENDBRANCH  28  29
ENDBRANCH  27  28
ENDBRANCH  26  27
ENDBRANCH  25  26
ENDBRANCH  24  25
ENDBRANCH  23  24
ENDBRANCH  22  23
ENDBRANCH  21  22
ENDBRANCH  20  21
ENDBRANCH  19  20
ENDBRANCH  18  19
ENDBRANCH  17  18
ENDBRANCH   1  17
TORSDOF 26
ENDMDL
MODEL 9
REMARK VINA RESULT:    -2.789      2.572      5.300
REMARK INTER + INTRA:         -12.722
REMARK INTER:                  -7.302
REMARK INTRA:                  -5.421
REMARK UNBOUND:                -5.694
REMARK SMILES CCCCCCCCCCCCCCCCCCCCCCCCCCCC(=O)[O-]
REMARK SMILES IDX 15 1 16 2 17 3 18 4 19 5 20 6 21 7 22 8 23 9 24 10 25 11
REMARK SMILES IDX 26 12 27 13 28 14 29 15 30 16 14 17 13 18 12 19 11 20 10 21
REMARK SMILES IDX 9 22 8 23 7 24 6 25 5 26 4 27 3 28 2 29 1 30
REMARK H PARENT
REMARK Flexibility Score: inf
ROOT
ATOM      1  C   UNL     1      30.186  32.833  52.434  1.00  0.00     0.000 C 
ENDROOT
BRANCH   1   2
ATOM      2  C   UNL     1      29.284  34.003  52.844  1.00  0.00     0.000 C 
BRANCH   2   3
ATOM      3  C   UNL     1      27.969  33.493  53.454  1.00  0.00     0.000 C 
BRANCH   3   4
ATOM      4  C   UNL     1      26.765  34.386  53.104  1.00  0.00     0.000 C 
BRANCH   4   5
ATOM      5  C   UNL     1      25.658  33.690  52.291  1.00  0.00     0.000 C 
BRANCH   5   6
ATOM      6  C   UNL     1      26.215  32.678  51.274  1.00  0.00     0.000 C 
BRANCH   6   7
ATOM      7  C   UNL     1      25.187  31.607  50.866  1.00  0.00     0.000 C 
BRANCH   7   8
ATOM      8  C   UNL     1      24.791  30.610  51.975  1.00  0.00     0.000 C 
BRANCH   8   9
ATOM      9  C   UNL     1      25.965  30.015  52.774  1.00  0.00     0.000 C 
BRANCH   9  10
ATOM     10  C   UNL     1      25.981  30.466  54.242  1.00  0.00     0.000 C 
BRANCH  10  11
ATOM     11  C   UNL     1      24.634  31.090  54.636  1.00  0.00     0.000 C 
BRANCH  11  12
ATOM     12  C   UNL     1      23.974  30.381  55.833  1.00  0.00     0.006 C 
BRANCH  12  13
ATOM     13  C   UNL     1      22.584  29.799  55.535  1.00  0.00     0.053 C 
BRANCH  13  14
ATOM     14  C   UNL     1      22.633  28.739  54.479  1.00  0.00     0.041 C 
ATOM     15  O   UNL     1      21.820  28.766  53.516  1.00  0.00    -0.550 OA
ATOM     16  O   UNL     1      23.588  27.731  54.546  1.00  0.00    -0.550 OA
ENDBRANCH  13  14
ENDBRANCH  12  13
ENDBRANCH  11  12
ENDBRANCH  10  11
ENDBRANCH   9  10
ENDBRANCH   8   9
ENDBRANCH   7   8
ENDBRANCH   6   7
ENDBRANCH   5   6
ENDBRANCH   4   5
ENDBRANCH   3   4
ENDBRANCH   2   3
ENDBRANCH   1   2
BRANCH   1  17
ATOM     17  C   UNL     1      29.436  31.496  52.546  1.00  0.00     0.000 C 
BRANCH  17  18
ATOM     18  C   UNL     1      30.382  30.296  52.712  1.00  0.00     0.000 C 
BRANCH  18  19
ATOM     19  C   UNL     1      31.856  30.662  52.462  1.00  0.00     0.000 C 
BRANCH  19  20
ATOM     20  C   UNL     1      32.709  30.628  53.748  1.00  0.00     0.000 C 
BRANCH  20  21
ATOM     21  C   UNL     1      32.131  29.731  54.862  1.00  0.00     0.000 C 
BRANCH  21  22
ATOM     22  C   UNL     1      31.801  30.447  56.185  1.00  0.00    -0.000 C 
BRANCH  22  23
ATOM     23  C   UNL     1      31.654  31.977  56.082  1.00  0.00    -0.000 C 
BRANCH  23  24
ATOM     24  C   UNL     1      30.193  32.445  56.160  1.00  0.00    -0.000 C 
BRANCH  24  25
ATOM     25  C   UNL     1      29.235  31.245  56.190  1.00  0.00    -0.000 C 
BRANCH  25  26
ATOM     26  C   UNL     1      28.590  31.022  57.570  1.00  0.00    -0.000 C 
BRANCH  26  27
ATOM     27  C   UNL     1      27.338  30.125  57.569  1.00  0.00    -0.000 C 
BRANCH  27  28
ATOM     28  C   UNL     1      27.636  28.671  57.171  1.00  0.00    -0.000 C 
BRANCH  28  29
ATOM     29  C   UNL     1      26.338  27.870  57.013  1.00  0.00    -0.003 C 
ATOM     30  C   UNL     1      26.554  26.633  56.146  1.00  0.00     0.004 C 
ENDBRANCH  28  29
ENDBRANCH  27  28
ENDBRANCH  26  27
ENDBRANCH  25  26
ENDBRANCH  24  25
ENDBRANCH  23  24
ENDBRANCH  22  23
ENDBRANCH  21  22
ENDBRANCH  20  21
ENDBRANCH  19  20
ENDBRANCH  18  19
ENDBRANCH  17  18
ENDBRANCH   1  17
TORSDOF 26
ENDMDL
