MODEL 1
REMARK VINA RESULT:    -4.981      0.000      0.000
REMARK INTER + INTRA:          -7.336
REMARK INTER:                  -6.728
REMARK INTRA:                  -0.608
REMARK UNBOUND:                -0.608
REMARK SMILES CCCCCCCC(=O)[O-]
REMARK SMILES IDX 5 1 6 2 7 3 8 4 9 5 10 6 4 7 3 8 2 9 1 10
REMARK H PARENT
REMARK Flexibility Score: inf
ROOT
ATOM      1  C   UNL     1     -16.592 -11.235 -10.330  1.00  0.00     0.000 C 
ENDROOT
BRANCH   1   2
ATOM      2  C   UNL     1     -15.124 -11.119  -9.890  1.00  0.00     0.006 C 
BRANCH   2   3
ATOM      3  C   UNL     1     -14.749 -12.258  -8.937  1.00  0.00     0.053 C 
BRANCH   3   4
ATOM      4  C   UNL     1     -14.798 -11.789  -7.517  1.00  0.00     0.041 C 
ATOM      5  O   UNL     1     -15.882 -11.817  -6.876  1.00  0.00    -0.550 OA
ATOM      6  O   UNL     1     -13.635 -11.366  -6.884  1.00  0.00    -0.550 OA
ENDBRANCH   3   4
ENDBRANCH   2   3
ENDBRANCH   1   2
BRANCH   1   7
ATOM      7  C   UNL     1     -17.448 -10.047  -9.859  1.00  0.00     0.000 C 
BRANCH   7   8
ATOM      8  C   UNL     1     -16.608  -8.790  -9.574  1.00  0.00    -0.000 C 
BRANCH   8   9
ATOM      9  C   UNL     1     -16.711  -8.334  -8.110  1.00  0.00    -0.003 C 
ATOM     10  C   UNL     1     -15.347  -8.208  -7.429  1.00  0.00     0.004 C 
ENDBRANCH   8   9
ENDBRANCH   7   8
ENDBRANCH   1   7
TORSDOF 6
ENDMDL
MODEL 2
REMARK VINA RESULT:    -4.943      1.189      1.847
REMARK INTER + INTRA:          -7.285
REMARK INTER:                  -6.670
REMARK INTRA:                  -0.615
REMARK UNBOUND:                -0.608
REMARK SMILES CCCCCCCC(=O)[O-]
REMARK SMILES IDX 5 1 6 2 7 3 8 4 9 5 10 6 4 7 3 8 2 9 1 10
REMARK H PARENT
REMARK Flexibility Score: inf
ROOT
ATOM      1  C   UNL     1     -17.423 -10.039 -10.255  1.00  0.00     0.000 C 
ENDROOT
BRANCH   1   2
ATOM      2  C   UNL     1     -16.548 -11.302 -10.274  1.00  0.00     0.006 C 
BRANCH   2   3
ATOM      3  C   UNL     1     -15.107 -10.974  -9.875  1.00  0.00     0.053 C 
BRANCH   3   4
ATOM      4  C   UNL     1     -14.666 -11.846  -8.742  1.00  0.00     0.041 C 
ATOM      5  O   UNL     1     -13.990 -11.363  -7.795  1.00  0.00    -0.550 OA
ATOM      6  O   UNL     1     -15.042 -13.183  -8.707  1.00  0.00    -0.550 OA
ENDBRANCH   3   4
ENDBRANCH   2   3
ENDBRANCH   1   2
BRANCH   1   7
ATOM      7  C   UNL     1     -16.676  -8.808  -9.714  1.00  0.00     0.000 C 
BRANCH   7   8
ATOM      8  C   UNL     1     -17.308  -8.252  -8.426  1.00  0.00    -0.000 C 
BRANCH   8   9
ATOM      9  C   UNL     1     -16.549  -8.688  -7.163  1.00  0.00    -0.003 C 
ATOM     10  C   UNL     1     -17.149  -9.933  -6.508  1.00  0.00     0.004 C 
ENDBRANCH   8   9
ENDBRANCH   7   8
ENDBRANCH   1   7
TORSDOF 6
ENDMDL
MODEL 3
REMARK VINA RESULT:    -4.893      2.316      4.239
REMARK INTER + INTRA:          -7.218
REMARK INTER:                  -6.977
REMARK INTRA:                  -0.241
REMARK UNBOUND:                -0.608
REMARK SMILES CCCCCCCC(=O)[O-]
REMARK SMILES IDX 5 1 6 2 7 3 8 4 9 5 10 6 4 7 3 8 2 9 1 10
REMARK H PARENT
REMARK Flexibility Score: inf
ROOT
ATOM      1  C   UNL     1     -17.815  -9.580 -10.275  1.00  0.00     0.000 C 
ENDROOT
BRANCH   1   2
ATOM      2  C   UNL     1     -16.733  -8.789  -9.523  1.00  0.00     0.006 C 
BRANCH   2   3
ATOM      3  C   UNL     1     -17.283  -8.227  -8.209  1.00  0.00     0.053 C 
BRANCH   3   4
ATOM      4  C   UNL     1     -17.043  -9.187  -7.087  1.00  0.00     0.041 C 
ATOM      5  O   UNL     1     -17.832 -10.150  -6.897  1.00  0.00    -0.550 OA
ATOM      6  O   UNL     1     -15.920  -9.048  -6.280  1.00  0.00    -0.550 OA
ENDBRANCH   3   4
ENDBRANCH   2   3
ENDBRANCH   1   2
BRANCH   1   7
ATOM      7  C   UNL     1     -17.367 -11.007 -10.630  1.00  0.00     0.000 C 
BRANCH   7   8
ATOM      8  C   UNL     1     -18.403 -11.757 -11.486  1.00  0.00    -0.000 C 
BRANCH   8   9
ATOM      9  C   UNL     1     -19.496 -10.826 -12.034  1.00  0.00    -0.003 C 
ATOM     10  C   UNL     1     -20.276 -11.444 -13.195  1.00  0.00     0.004 C 
ENDBRANCH   8   9
ENDBRANCH   7   8
ENDBRANCH   1   7
TORSDOF 6
ENDMDL
MODEL 4
REMARK VINA RESULT:    -4.891      3.382      4.483
REMARK INTER + INTRA:          -7.214
REMARK INTER:                  -6.873
REMARK INTRA:                  -0.341
REMARK UNBOUND:                -0.608
REMARK SMILES CCCCCCCC(=O)[O-]
REMARK SMILES IDX 5 1 6 2 7 3 8 4 9 5 10 6 4 7 3 8 2 9 1 10
REMARK H PARENT
REMARK Flexibility Score: inf
ROOT
ATOM      1  C   UNL     1     -16.603  -8.781  -9.861  1.00  0.00     0.000 C 
ENDROOT
BRANCH   1   2
ATOM      2  C   UNL     1     -17.374 -10.083 -10.130  1.00  0.00     0.006 C 
BRANCH   2   3
ATOM      3  C   UNL     1     -18.869  -9.805 -10.312  1.00  0.00     0.053 C 
BRANCH   3   4
ATOM      4  C   UNL     1     -19.417 -10.612 -11.445  1.00  0.00     0.041 C 
ATOM      5  O   UNL     1     -20.326 -10.142 -12.178  1.00  0.00    -0.550 OA
ATOM      6  O   UNL     1     -18.889 -11.868 -11.724  1.00  0.00    -0.550 OA
ENDBRANCH   3   4
ENDBRANCH   2   3
ENDBRANCH   1   2
BRANCH   1   7
ATOM      7  C   UNL     1     -16.814  -8.250  -8.434  1.00  0.00     0.000 C 
BRANCH   7   8
ATOM      8  C   UNL     1     -15.565  -8.414  -7.551  1.00  0.00    -0.000 C 
BRANCH   8   9
ATOM      9  C   UNL     1     -15.856  -9.189  -6.257  1.00  0.00    -0.003 C 
ATOM     10  C   UNL     1     -17.035 -10.153  -6.394  1.00  0.00     0.004 C 
ENDBRANCH   8   9
ENDBRANCH   7   8
ENDBRANCH   1   7
TORSDOF 6
ENDMDL
MODEL 5
REMARK VINA RESULT:    -4.885      1.744      3.118
REMARK INTER + INTRA:          -7.207
REMARK INTER:                  -6.860
REMARK INTRA:                  -0.346
REMARK UNBOUND:                -0.608
REMARK SMILES CCCCCCCC(=O)[O-]
REMARK SMILES IDX 5 1 6 2 7 3 8 4 9 5 10 6 4 7 3 8 2 9 1 10
REMARK H PARENT
REMARK Flexibility Score: inf
ROOT
ATOM      1  C   UNL     1     -16.972  -8.729  -7.366  1.00  0.00     0.000 C 
ENDROOT
BRANCH   1   2
ATOM      2  C   UNL     1     -15.762  -8.991  -6.455  1.00  0.00     0.006 C 
BRANCH   2   3
ATOM      3  C   UNL     1     -14.468  -9.046  -7.271  1.00  0.00     0.053 C 
BRANCH   3   4
ATOM      4  C   UNL     1     -14.003 -10.460  -7.419  1.00  0.00     0.041 C 
ATOM      5  O   UNL     1     -14.313 -11.126  -8.442  1.00  0.00    -0.550 OA
ATOM      6  O   UNL     1     -13.186 -11.029  -6.450  1.00  0.00    -0.550 OA
ENDBRANCH   3   4
ENDBRANCH   2   3
ENDBRANCH   1   2
BRANCH   1   7
ATOM      7  C   UNL     1     -16.569  -8.198  -8.751  1.00  0.00     0.000 C 
BRANCH   7   8
ATOM      8  C   UNL     1     -17.044  -9.111  -9.895  1.00  0.00    -0.000 C 
BRANCH   8   9
ATOM      9  C   UNL     1     -18.528  -9.488  -9.769  1.00  0.00    -0.003 C 
ATOM     10  C   UNL     1     -19.061 -10.224 -10.999  1.00  0.00     0.004 C 
ENDBRANCH   8   9
ENDBRANCH   7   8
ENDBRANCH   1   7
TORSDOF 6
ENDMDL
MODEL 6
REMARK VINA RESULT:    -4.861      1.558      3.301
REMARK INTER + INTRA:          -7.174
REMARK INTER:                  -6.647
REMARK INTRA:                  -0.527
REMARK UNBOUND:                -0.608
REMARK SMILES CCCCCCCC(=O)[O-]
REMARK SMILES IDX 5 1 6 2 7 3 8 4 9 5 10 6 4 7 3 8 2 9 1 10
REMARK H PARENT
REMARK Flexibility Score: inf
ROOT
ATOM      1  C   UNL     1     -17.446 -10.181 -10.124  1.00  0.00     0.000 C 
ENDROOT
BRANCH   1   2
ATOM      2  C   UNL     1     -16.626  -8.989  -9.605  1.00  0.00     0.006 C 
BRANCH   2   3
ATOM      3  C   UNL     1     -17.346  -8.294  -8.446  1.00  0.00     0.053 C 
BRANCH   3   4
ATOM      4  C   UNL     1     -16.875  -8.840  -7.135  1.00  0.00     0.041 C 
ATOM      5  O   UNL     1     -17.482  -9.802  -6.594  1.00  0.00    -0.550 OA
ATOM      6  O   UNL     1     -15.736  -8.319  -6.534  1.00  0.00    -0.550 OA
ENDBRANCH   3   4
ENDBRANCH   2   3
ENDBRANCH   1   2
BRANCH   1   7
ATOM      7  C   UNL     1     -16.565 -11.364 -10.556  1.00  0.00     0.000 C 
BRANCH   7   8
ATOM      8  C   UNL     1     -15.128 -11.260 -10.015  1.00  0.00    -0.000 C 
BRANCH   8   9
ATOM      9  C   UNL     1     -14.840 -12.286  -8.909  1.00  0.00    -0.003 C 
ATOM     10  C   UNL     1     -14.434 -11.636  -7.586  1.00  0.00     0.004 C 
ENDBRANCH   8   9
ENDBRANCH   7   8
ENDBRANCH   1   7
TORSDOF 6
ENDMDL
MODEL 7
REMARK VINA RESULT:    -4.815      1.658      2.826
REMARK INTER + INTRA:          -7.111
REMARK INTER:                  -6.642
REMARK INTRA:                  -0.470
REMARK UNBOUND:                -0.608
REMARK SMILES CCCCCCCC(=O)[O-]
REMARK SMILES IDX 5 1 6 2 7 3 8 4 9 5 10 6 4 7 3 8 2 9 1 10
REMARK H PARENT
REMARK Flexibility Score: inf
ROOT
ATOM      1  C   UNL     1     -15.786  -9.303  -6.441  1.00  0.00     0.000 C 
ENDROOT
BRANCH   1   2
ATOM      2  C   UNL     1     -14.560  -9.791  -7.229  1.00  0.00     0.006 C 
BRANCH   2   3
ATOM      3  C   UNL     1     -14.398 -11.308  -7.100  1.00  0.00     0.053 C 
BRANCH   3   4
ATOM      4  C   UNL     1     -14.731 -11.983  -8.393  1.00  0.00     0.041 C 
ATOM      5  O   UNL     1     -14.671 -11.343  -9.476  1.00  0.00    -0.550 OA
ATOM      6  O   UNL     1     -15.062 -13.332  -8.408  1.00  0.00    -0.550 OA
ENDBRANCH   3   4
ENDBRANCH   2   3
ENDBRANCH   1   2
BRANCH   1   7
ATOM      7  C   UNL     1     -16.944  -8.868  -7.354  1.00  0.00     0.000 C 
BRANCH   7   8
ATOM      8  C   UNL     1     -16.458  -8.332  -8.712  1.00  0.00    -0.000 C 
BRANCH   8   9
ATOM      9  C   UNL     1     -17.212  -8.958  -9.895  1.00  0.00    -0.003 C 
ATOM     10  C   UNL     1     -18.629  -9.401  -9.530  1.00  0.00     0.004 C 
ENDBRANCH   8   9
ENDBRANCH   7   8
ENDBRANCH   1   7
TORSDOF 6
ENDMDL
MODEL 8
REMARK VINA RESULT:    -4.811      1.186      3.183
REMARK INTER + INTRA:          -7.106
REMARK INTER:                  -6.554
REMARK INTRA:                  -0.552
REMARK UNBOUND:                -0.608
REMARK SMILES CCCCCCCC(=O)[O-]
REMARK SMILES IDX 5 1 6 2 7 3 8 4 9 5 10 6 4 7 3 8 2 9 1 10
REMARK H PARENT
REMARK Flexibility Score: inf
ROOT
ATOM      1  C   UNL     1     -16.623  -8.152  -8.442  1.00  0.00     0.000 C 
ENDROOT
BRANCH   1   2
ATOM      2  C   UNL     1     -15.349  -8.505  -7.659  1.00  0.00     0.006 C 
BRANCH   2   3
ATOM      3  C   UNL     1     -15.694  -9.199  -6.338  1.00  0.00     0.053 C 
BRANCH   3   4
ATOM      4  C   UNL     1     -16.266 -10.557  -6.595  1.00  0.00     0.041 C 
ATOM      5  O   UNL     1     -15.506 -11.527  -6.856  1.00  0.00    -0.550 OA
ATOM      6  O   UNL     1     -17.637 -10.765  -6.499  1.00  0.00    -0.550 OA
ENDBRANCH   3   4
ENDBRANCH   2   3
ENDBRANCH   1   2
BRANCH   1   7
ATOM      7  C   UNL     1     -16.643  -8.767  -9.851  1.00  0.00     0.000 C 
BRANCH   7   8
ATOM      8  C   UNL     1     -17.772  -9.797 -10.030  1.00  0.00    -0.000 C 
BRANCH   8   9
ATOM      9  C   UNL     1     -17.272 -11.119 -10.634  1.00  0.00    -0.003 C 
ATOM     10  C   UNL     1     -15.786 -11.368 -10.372  1.00  0.00     0.004 C 
ENDBRANCH   8   9
ENDBRANCH   7   8
ENDBRANCH   1   7
TORSDOF 6
ENDMDL
MODEL 9
REMARK VINA RESULT:    -4.755      2.425      4.321
REMARK INTER + INTRA:          -7.030
REMARK INTER:                  -6.512
REMARK INTRA:                  -0.518
REMARK UNBOUND:                -0.608
REMARK SMILES CCCCCCCC(=O)[O-]
REMARK SMILES IDX 5 1 6 2 7 3 8 4 9 5 10 6 4 7 3 8 2 9 1 10
REMARK H PARENT
REMARK Flexibility Score: inf
ROOT
ATOM      1  C   UNL     1     -16.057  -9.321  -7.175  1.00  0.00     0.000 C 
ENDROOT
BRANCH   1   2
ATOM      2  C   UNL     1     -16.726  -8.312  -8.121  1.00  0.00     0.006 C 
BRANCH   2   3
ATOM      3  C   UNL     1     -16.691  -8.814  -9.567  1.00  0.00     0.053 C 
BRANCH   3   4
ATOM      4  C   UNL     1     -17.915  -9.619  -9.872  1.00  0.00     0.041 C 
ATOM      5  O   UNL     1     -19.050  -9.208  -9.513  1.00  0.00    -0.550 OA
ATOM      6  O   UNL     1     -17.808 -10.801 -10.595  1.00  0.00    -0.550 OA
ENDBRANCH   3   4
ENDBRANCH   2   3
ENDBRANCH   1   2
BRANCH   1   7
ATOM      7  C   UNL     1     -14.615  -9.657  -7.589  1.00  0.00     0.000 C 
BRANCH   7   8
ATOM      8  C   UNL     1     -14.180 -11.060  -7.129  1.00  0.00    -0.000 C 
BRANCH   8   9
ATOM      9  C   UNL     1     -14.873 -12.179  -7.921  1.00  0.00    -0.003 C 
ATOM     10  C   UNL     1     -14.655 -12.064  -9.430  1.00  0.00     0.004 C 
ENDBRANCH   8   9
ENDBRANCH   7   8
ENDBRANCH   1   7
TORSDOF 6
ENDMDL
