MODEL 1
REMARK VINA RESULT:    -7.796      0.000      0.000
REMARK INTER + INTRA:         -13.104
REMARK INTER:                 -12.126
REMARK INTRA:                  -0.978
REMARK UNBOUND:                -0.978
REMARK SMILES COc1cc(CNC(=O)CCCCC=CC(C)C)ccc1O
REMARK SMILES IDX 11 1 12 2 13 3 14 4 15 5 16 6 17 7 18 8 10 9 8 10 9 11 7 12
REMARK SMILES IDX 6 14 5 15 4 16 19 17 3 18 20 19 21 20 2 21 1 22 22 23
REMARK H PARENT 7 13 22 24
REMARK Flexibility Score: inf
ROOT
ATOM      1  C   UNL     1     117.171 113.577 122.367  1.00  0.00     0.010 C 
ENDROOT
BRANCH   1   2
ATOM      2  C   UNL     1     117.805 112.359 123.058  1.00  0.00     0.005 C 
BRANCH   2   3
ATOM      3  C   UNL     1     119.115 111.909 122.392  1.00  0.00     0.027 C 
BRANCH   3   4
ATOM      4  C   UNL     1     119.830 113.071 121.757  1.00  0.00    -0.031 C 
ATOM      5  C   UNL     1     120.848 112.889 120.900  1.00  0.00    -0.028 C 
BRANCH   5   6
ATOM      6  C   UNL     1     121.560 114.060 120.266  1.00  0.00     0.005 C 
ATOM      7  C   UNL     1     121.416 114.015 118.742  1.00  0.00     0.012 C 
ATOM      8  C   UNL     1     121.009 115.381 120.816  1.00  0.00     0.012 C 
ENDBRANCH   5   6
ENDBRANCH   3   4
ENDBRANCH   2   3
ENDBRANCH   1   2
BRANCH   1   9
ATOM      9  C   UNL     1     115.644 113.609 122.503  1.00  0.00     0.100 C 
BRANCH   9  10
ATOM     10  C   UNL     1     115.056 114.626 121.573  1.00  0.00     0.220 C 
ATOM     11  O   UNL     1     114.264 114.254 120.664  1.00  0.00    -0.275 OA
ATOM     12  N   UNL     1     115.360 116.018 121.744  1.00  0.00    -0.352 N 
ATOM     13  H   UNL     1     115.968 116.309 122.542  1.00  0.00     0.163 HD
BRANCH  12  14
ATOM     14  C   UNL     1     114.839 117.051 120.851  1.00  0.00     0.151 C 
BRANCH  14  15
ATOM     15  C   UNL     1     115.931 118.017 120.476  1.00  0.00    -0.025 A 
ATOM     16  C   UNL     1     115.620 119.329 120.079  1.00  0.00     0.056 A 
ATOM     17  C   UNL     1     117.270 117.603 120.497  1.00  0.00     0.009 A 
ATOM     18  C   UNL     1     116.641 120.226 119.704  1.00  0.00     0.160 A 
ATOM     19  C   UNL     1     118.286 118.485 120.127  1.00  0.00     0.050 A 
ATOM     20  C   UNL     1     117.980 119.792 119.731  1.00  0.00     0.157 A 
BRANCH  18  21
ATOM     21  O   UNL     1     116.363 121.542 119.303  1.00  0.00    -0.493 OA
ATOM     22  C   UNL     1     115.093 121.996 118.845  1.00  0.00     0.278 C 
ENDBRANCH  18  21
BRANCH  20  23
ATOM     23  O   UNL     1     119.022 120.646 119.367  1.00  0.00    -0.504 OA
ATOM     24  H   UNL     1     118.870 121.627 119.162  1.00  0.00     0.293 HD
ENDBRANCH  20  23
ENDBRANCH  14  15
ENDBRANCH  12  14
ENDBRANCH   9  10
ENDBRANCH   1   9
TORSDOF 10
ENDMDL
MODEL 2
REMARK VINA RESULT:    -7.318      2.113      4.573
REMARK INTER + INTRA:         -12.360
REMARK INTER:                 -11.112
REMARK INTRA:                  -1.248
REMARK UNBOUND:                -0.978
REMARK SMILES COc1cc(CNC(=O)CCCCC=CC(C)C)ccc1O
REMARK SMILES IDX 11 1 12 2 13 3 14 4 15 5 16 6 17 7 18 8 10 9 8 10 9 11 7 12
REMARK SMILES IDX 6 14 5 15 4 16 19 17 3 18 20 19 21 20 2 21 1 22 22 23
REMARK H PARENT 7 13 22 24
REMARK Flexibility Score: inf
ROOT
ATOM      1  C   UNL     1     121.041 113.045 120.348  1.00  0.00     0.010 C 
ENDROOT
BRANCH   1   2
ATOM      2  C   UNL     1     120.087 112.033 121.000  1.00  0.00     0.005 C 
BRANCH   2   3
ATOM      3  C   UNL     1     119.734 112.395 122.452  1.00  0.00     0.027 C 
BRANCH   3   4
ATOM      4  C   UNL     1     118.289 112.101 122.750  1.00  0.00    -0.031 C 
ATOM      5  C   UNL     1     117.354 113.066 122.729  1.00  0.00    -0.028 C 
BRANCH   5   6
ATOM      6  C   UNL     1     115.905 112.762 123.027  1.00  0.00     0.005 C 
ATOM      7  C   UNL     1     114.997 113.382 121.961  1.00  0.00     0.012 C 
ATOM      8  C   UNL     1     115.682 111.248 123.106  1.00  0.00     0.012 C 
ENDBRANCH   5   6
ENDBRANCH   3   4
ENDBRANCH   2   3
ENDBRANCH   1   2
BRANCH   1   9
ATOM      9  C   UNL     1     121.548 114.105 121.334  1.00  0.00     0.100 C 
BRANCH   9  10
ATOM     10  C   UNL     1     121.127 115.474 120.895  1.00  0.00     0.220 C 
ATOM     11  O   UNL     1     121.685 116.006 119.897  1.00  0.00    -0.275 OA
ATOM     12  N   UNL     1     120.067 116.155 121.582  1.00  0.00    -0.352 N 
ATOM     13  H   UNL     1     119.577 115.668 122.366  1.00  0.00     0.163 HD
BRANCH  12  14
ATOM     14  C   UNL     1     119.633 117.502 121.218  1.00  0.00     0.151 C 
BRANCH  14  15
ATOM     15  C   UNL     1     118.130 117.594 121.248  1.00  0.00    -0.025 A 
ATOM     16  C   UNL     1     117.460 118.592 120.522  1.00  0.00     0.056 A 
ATOM     17  C   UNL     1     117.390 116.693 122.027  1.00  0.00     0.009 A 
ATOM     18  C   UNL     1     116.054 118.692 120.571  1.00  0.00     0.160 A 
ATOM     19  C   UNL     1     115.999 116.786 122.080  1.00  0.00     0.050 A 
ATOM     20  C   UNL     1     115.327 117.779 121.358  1.00  0.00     0.157 A 
BRANCH  18  21
ATOM     21  O   UNL     1     115.355 119.678 119.857  1.00  0.00    -0.493 OA
ATOM     22  C   UNL     1     115.131 121.007 120.321  1.00  0.00     0.278 C 
ENDBRANCH  18  21
BRANCH  20  23
ATOM     23  O   UNL     1     113.936 117.844 121.437  1.00  0.00    -0.504 OA
ATOM     24  H   UNL     1     113.337 117.139 121.022  1.00  0.00     0.293 HD
ENDBRANCH  20  23
ENDBRANCH  14  15
ENDBRANCH  12  14
ENDBRANCH   9  10
ENDBRANCH   1   9
TORSDOF 10
ENDMDL
MODEL 3
REMARK VINA RESULT:    -7.106      1.235      2.034
REMARK INTER + INTRA:         -12.031
REMARK INTER:                 -11.332
REMARK INTRA:                  -0.698
REMARK UNBOUND:                -0.978
REMARK SMILES COc1cc(CNC(=O)CCCCC=CC(C)C)ccc1O
REMARK SMILES IDX 11 1 12 2 13 3 14 4 15 5 16 6 17 7 18 8 10 9 8 10 9 11 7 12
REMARK SMILES IDX 6 14 5 15 4 16 19 17 3 18 20 19 21 20 2 21 1 22 22 23
REMARK H PARENT 7 13 22 24
REMARK Flexibility Score: inf
ROOT
ATOM      1  C   UNL     1     116.599 111.960 122.902  1.00  0.00     0.010 C 
ENDROOT
BRANCH   1   2
ATOM      2  C   UNL     1     117.882 111.581 122.147  1.00  0.00     0.005 C 
BRANCH   2   3
ATOM      3  C   UNL     1     119.152 112.135 122.812  1.00  0.00     0.027 C 
BRANCH   3   4
ATOM      4  C   UNL     1     119.879 113.081 121.895  1.00  0.00    -0.031 C 
ATOM      5  C   UNL     1     120.803 112.645 121.022  1.00  0.00    -0.028 C 
BRANCH   5   6
ATOM      6  C   UNL     1     121.527 113.600 120.103  1.00  0.00     0.005 C 
ATOM      7  C   UNL     1     121.055 113.415 118.658  1.00  0.00     0.012 C 
ATOM      8  C   UNL     1     121.307 115.048 120.557  1.00  0.00     0.012 C 
ENDBRANCH   5   6
ENDBRANCH   3   4
ENDBRANCH   2   3
ENDBRANCH   1   2
BRANCH   1   9
ATOM      9  C   UNL     1     116.469 113.471 123.131  1.00  0.00     0.100 C 
BRANCH   9  10
ATOM     10  C   UNL     1     115.560 114.080 122.107  1.00  0.00     0.220 C 
ATOM     11  O   UNL     1     114.659 113.375 121.577  1.00  0.00    -0.275 OA
ATOM     12  N   UNL     1     115.689 115.468 121.766  1.00  0.00    -0.352 N 
ATOM     13  H   UNL     1     116.401 116.048 122.264  1.00  0.00     0.163 HD
BRANCH  12  14
ATOM     14  C   UNL     1     114.851 116.110 120.755  1.00  0.00     0.151 C 
BRANCH  14  15
ATOM     15  C   UNL     1     114.863 117.604 120.937  1.00  0.00    -0.025 A 
ATOM     16  C   UNL     1     115.792 118.401 120.248  1.00  0.00     0.056 A 
ATOM     17  C   UNL     1     113.956 118.209 121.819  1.00  0.00     0.009 A 
ATOM     18  C   UNL     1     115.818 119.798 120.437  1.00  0.00     0.160 A 
ATOM     19  C   UNL     1     113.977 119.591 122.011  1.00  0.00     0.050 A 
ATOM     20  C   UNL     1     114.901 120.388 121.327  1.00  0.00     0.157 A 
BRANCH  18  21
ATOM     21  O   UNL     1     116.735 120.621 119.764  1.00  0.00    -0.493 OA
ATOM     22  C   UNL     1     116.558 121.114 118.439  1.00  0.00     0.278 C 
ENDBRANCH  18  21
BRANCH  20  23
ATOM     23  O   UNL     1     114.893 121.766 121.545  1.00  0.00    -0.504 OA
ATOM     24  H   UNL     1     114.051 122.269 121.796  1.00  0.00     0.293 HD
ENDBRANCH  20  23
ENDBRANCH  14  15
ENDBRANCH  12  14
ENDBRANCH   9  10
ENDBRANCH   1   9
TORSDOF 10
ENDMDL
MODEL 4
REMARK VINA RESULT:    -6.832      2.527      6.957
REMARK INTER + INTRA:         -11.605
REMARK INTER:                 -10.759
REMARK INTRA:                  -0.845
REMARK UNBOUND:                -0.978
REMARK SMILES COc1cc(CNC(=O)CCCCC=CC(C)C)ccc1O
REMARK SMILES IDX 11 1 12 2 13 3 14 4 15 5 16 6 17 7 18 8 10 9 8 10 9 11 7 12
REMARK SMILES IDX 6 14 5 15 4 16 19 17 3 18 20 19 21 20 2 21 1 22 22 23
REMARK H PARENT 7 13 22 24
REMARK Flexibility Score: inf
ROOT
ATOM      1  C   UNL     1     114.840 117.450 120.892  1.00  0.00     0.010 C 
ENDROOT
BRANCH   1   2
ATOM      2  C   UNL     1     113.955 118.158 121.930  1.00  0.00     0.005 C 
BRANCH   2   3
ATOM      3  C   UNL     1     114.141 119.684 121.932  1.00  0.00     0.027 C 
BRANCH   3   4
ATOM      4  C   UNL     1     114.967 120.133 120.758  1.00  0.00    -0.031 C 
ATOM      5  C   UNL     1     114.910 121.394 120.297  1.00  0.00    -0.028 C 
BRANCH   5   6
ATOM      6  C   UNL     1     115.745 121.837 119.120  1.00  0.00     0.005 C 
ATOM      7  C   UNL     1     116.184 120.628 118.288  1.00  0.00     0.012 C 
ATOM      8  C   UNL     1     114.959 122.827 118.251  1.00  0.00     0.012 C 
ENDBRANCH   5   6
ENDBRANCH   3   4
ENDBRANCH   2   3
ENDBRANCH   1   2
BRANCH   1   9
ATOM      9  C   UNL     1     114.205 116.164 120.348  1.00  0.00     0.100 C 
BRANCH   9  10
ATOM     10  C   UNL     1     114.700 114.972 121.110  1.00  0.00     0.220 C 
ATOM     11  O   UNL     1     114.212 113.834 120.870  1.00  0.00    -0.275 OA
ATOM     12  N   UNL     1     115.752 115.121 122.074  1.00  0.00    -0.352 N 
ATOM     13  H   UNL     1     116.185 116.063 122.209  1.00  0.00     0.163 HD
BRANCH  12  14
ATOM     14  C   UNL     1     116.256 114.002 122.866  1.00  0.00     0.151 C 
BRANCH  14  15
ATOM     15  C   UNL     1     117.694 113.721 122.521  1.00  0.00    -0.025 A 
ATOM     16  C   UNL     1     118.509 114.727 121.976  1.00  0.00     0.056 A 
ATOM     17  C   UNL     1     118.224 112.438 122.720  1.00  0.00     0.009 A 
ATOM     18  C   UNL     1     119.848 114.457 121.631  1.00  0.00     0.160 A 
ATOM     19  C   UNL     1     119.549 112.163 122.381  1.00  0.00     0.050 A 
ATOM     20  C   UNL     1     120.363 113.163 121.837  1.00  0.00     0.157 A 
BRANCH  18  21
ATOM     21  O   UNL     1     120.687 115.441 121.084  1.00  0.00    -0.493 OA
ATOM     22  C   UNL     1     120.273 116.762 120.749  1.00  0.00     0.278 C 
ENDBRANCH  18  21
BRANCH  20  23
ATOM     23  O   UNL     1     121.683 112.852 121.508  1.00  0.00    -0.504 OA
ATOM     24  H   UNL     1     122.460 113.451 121.761  1.00  0.00     0.293 HD
ENDBRANCH  20  23
ENDBRANCH  14  15
ENDBRANCH  12  14
ENDBRANCH   9  10
ENDBRANCH   1   9
TORSDOF 10
ENDMDL
MODEL 5
REMARK VINA RESULT:    -6.784      2.611      6.155
REMARK INTER + INTRA:         -11.530
REMARK INTER:                 -10.552
REMARK INTRA:                  -0.977
REMARK UNBOUND:                -0.978
REMARK SMILES COc1cc(CNC(=O)CCCCC=CC(C)C)ccc1O
REMARK SMILES IDX 11 1 12 2 13 3 14 4 15 5 16 6 17 7 18 8 10 9 8 10 9 11 7 12
REMARK SMILES IDX 6 14 5 15 4 16 19 17 3 18 20 19 21 20 2 21 1 22 22 23
REMARK H PARENT 7 13 22 24
REMARK Flexibility Score: inf
ROOT
ATOM      1  C   UNL     1     114.873 113.433 121.930  1.00  0.00     0.010 C 
ENDROOT
BRANCH   1   2
ATOM      2  C   UNL     1     115.379 114.849 121.613  1.00  0.00     0.005 C 
BRANCH   2   3
ATOM      3  C   UNL     1     114.418 115.639 120.710  1.00  0.00     0.027 C 
BRANCH   3   4
ATOM      4  C   UNL     1     114.986 116.987 120.358  1.00  0.00    -0.031 C 
ATOM      5  C   UNL     1     116.062 117.485 120.990  1.00  0.00    -0.028 C 
BRANCH   5   6
ATOM      6  C   UNL     1     116.627 118.838 120.629  1.00  0.00     0.005 C 
ATOM      7  C   UNL     1     117.350 118.776 119.281  1.00  0.00     0.012 C 
ATOM      8  C   UNL     1     115.511 119.890 120.590  1.00  0.00     0.012 C 
ENDBRANCH   5   6
ENDBRANCH   3   4
ENDBRANCH   2   3
ENDBRANCH   1   2
BRANCH   1   9
ATOM      9  C   UNL     1     115.511 112.844 123.194  1.00  0.00     0.100 C 
BRANCH   9  10
ATOM     10  C   UNL     1     116.736 112.055 122.845  1.00  0.00     0.220 C 
ATOM     11  O   UNL     1     116.614 110.889 122.379  1.00  0.00    -0.275 OA
ATOM     12  N   UNL     1     118.037 112.641 123.000  1.00  0.00    -0.352 N 
ATOM     13  H   UNL     1     118.111 113.630 123.328  1.00  0.00     0.163 HD
BRANCH  12  14
ATOM     14  C   UNL     1     119.267 111.911 122.703  1.00  0.00     0.151 C 
BRANCH  14  15
ATOM     15  C   UNL     1     119.992 112.554 121.551  1.00  0.00    -0.025 A 
ATOM     16  C   UNL     1     120.268 113.932 121.560  1.00  0.00     0.056 A 
ATOM     17  C   UNL     1     120.376 111.782 120.446  1.00  0.00     0.009 A 
ATOM     18  C   UNL     1     120.926 114.538 120.470  1.00  0.00     0.160 A 
ATOM     19  C   UNL     1     121.027 112.375 119.364  1.00  0.00     0.050 A 
ATOM     20  C   UNL     1     121.304 113.747 119.369  1.00  0.00     0.157 A 
BRANCH  18  21
ATOM     21  O   UNL     1     121.215 115.912 120.449  1.00  0.00    -0.493 OA
ATOM     22  C   UNL     1     120.286 116.940 120.778  1.00  0.00     0.278 C 
ENDBRANCH  18  21
BRANCH  20  23
ATOM     23  O   UNL     1     121.954 114.306 118.269  1.00  0.00    -0.504 OA
ATOM     24  H   UNL     1     121.465 114.545 117.415  1.00  0.00     0.293 HD
ENDBRANCH  20  23
ENDBRANCH  14  15
ENDBRANCH  12  14
ENDBRANCH   9  10
ENDBRANCH   1   9
TORSDOF 10
ENDMDL
MODEL 6
REMARK VINA RESULT:    -6.678      2.551      7.664
REMARK INTER + INTRA:         -11.365
REMARK INTER:                 -10.695
REMARK INTRA:                  -0.670
REMARK UNBOUND:                -0.978
REMARK SMILES COc1cc(CNC(=O)CCCCC=CC(C)C)ccc1O
REMARK SMILES IDX 11 1 12 2 13 3 14 4 15 5 16 6 17 7 18 8 10 9 8 10 9 11 7 12
REMARK SMILES IDX 6 14 5 15 4 16 19 17 3 18 20 19 21 20 2 21 1 22 22 23
REMARK H PARENT 7 13 22 24
REMARK Flexibility Score: inf
ROOT
ATOM      1  C   UNL     1     114.931 118.000 121.616  1.00  0.00     0.010 C 
ENDROOT
BRANCH   1   2
ATOM      2  C   UNL     1     114.081 119.277 121.701  1.00  0.00     0.005 C 
BRANCH   2   3
ATOM      3  C   UNL     1     114.930 120.558 121.746  1.00  0.00     0.027 C 
BRANCH   3   4
ATOM      4  C   UNL     1     114.833 121.320 120.452  1.00  0.00    -0.031 C 
ATOM      5  C   UNL     1     115.819 121.288 119.540  1.00  0.00    -0.028 C 
BRANCH   5   6
ATOM      6  C   UNL     1     115.713 122.055 118.243  1.00  0.00     0.005 C 
ATOM      7  C   UNL     1     114.629 123.132 118.344  1.00  0.00     0.012 C 
ATOM      8  C   UNL     1     117.063 122.687 117.884  1.00  0.00     0.012 C 
ENDBRANCH   5   6
ENDBRANCH   3   4
ENDBRANCH   2   3
ENDBRANCH   1   2
BRANCH   1   9
ATOM      9  C   UNL     1     115.675 117.870 120.280  1.00  0.00     0.100 C 
BRANCH   9  10
ATOM     10  C   UNL     1     117.153 117.998 120.489  1.00  0.00     0.220 C 
ATOM     11  O   UNL     1     117.827 118.744 119.726  1.00  0.00    -0.275 OA
ATOM     12  N   UNL     1     117.788 117.310 121.576  1.00  0.00    -0.352 N 
ATOM     13  H   UNL     1     117.200 116.749 122.233  1.00  0.00     0.163 HD
BRANCH  12  14
ATOM     14  C   UNL     1     119.229 117.374 121.812  1.00  0.00     0.151 C 
BRANCH  14  15
ATOM     15  C   UNL     1     119.874 116.057 121.475  1.00  0.00    -0.025 A 
ATOM     16  C   UNL     1     119.391 114.860 122.030  1.00  0.00     0.056 A 
ATOM     17  C   UNL     1     120.984 116.020 120.618  1.00  0.00     0.009 A 
ATOM     18  C   UNL     1     120.011 113.630 121.732  1.00  0.00     0.160 A 
ATOM     19  C   UNL     1     121.603 114.806 120.319  1.00  0.00     0.050 A 
ATOM     20  C   UNL     1     121.124 113.612 120.871  1.00  0.00     0.157 A 
BRANCH  18  21
ATOM     21  O   UNL     1     119.552 112.417 122.271  1.00  0.00    -0.493 OA
ATOM     22  C   UNL     1     118.242 112.208 122.791  1.00  0.00     0.278 C 
ENDBRANCH  18  21
BRANCH  20  23
ATOM     23  O   UNL     1     121.769 112.417 120.551  1.00  0.00    -0.504 OA
ATOM     24  H   UNL     1     122.744 112.384 120.279  1.00  0.00     0.293 HD
ENDBRANCH  20  23
ENDBRANCH  14  15
ENDBRANCH  12  14
ENDBRANCH   9  10
ENDBRANCH   1   9
TORSDOF 10
ENDMDL
MODEL 7
REMARK VINA RESULT:    -6.426      2.270      4.403
REMARK INTER + INTRA:         -10.974
REMARK INTER:                 -10.176
REMARK INTRA:                  -0.798
REMARK UNBOUND:                -0.978
REMARK SMILES COc1cc(CNC(=O)CCCCC=CC(C)C)ccc1O
REMARK SMILES IDX 11 1 12 2 13 3 14 4 15 5 16 6 17 7 18 8 10 9 8 10 9 11 7 12
REMARK SMILES IDX 6 14 5 15 4 16 19 17 3 18 20 19 21 20 2 21 1 22 22 23
REMARK H PARENT 7 13 22 24
REMARK Flexibility Score: inf
ROOT
ATOM      1  C   UNL     1     120.448 114.910 121.982  1.00  0.00     0.010 C 
ENDROOT
BRANCH   1   2
ATOM      2  C   UNL     1     119.904 113.575 121.451  1.00  0.00     0.005 C 
BRANCH   2   3
ATOM      3  C   UNL     1     119.693 112.532 122.560  1.00  0.00     0.027 C 
BRANCH   3   4
ATOM      4  C   UNL     1     118.237 112.186 122.712  1.00  0.00    -0.031 C 
ATOM      5  C   UNL     1     117.292 113.137 122.796  1.00  0.00    -0.028 C 
BRANCH   5   6
ATOM      6  C   UNL     1     115.832 112.781 122.947  1.00  0.00     0.005 C 
ATOM      7  C   UNL     1     114.987 113.531 121.912  1.00  0.00     0.012 C 
ATOM      8  C   UNL     1     115.633 111.267 122.804  1.00  0.00     0.012 C 
ENDBRANCH   5   6
ENDBRANCH   3   4
ENDBRANCH   2   3
ENDBRANCH   1   2
BRANCH   1   9
ATOM      9  C   UNL     1     119.367 115.994 122.083  1.00  0.00     0.100 C 
BRANCH   9  10
ATOM     10  C   UNL     1     119.554 117.022 121.009  1.00  0.00     0.220 C 
ATOM     11  O   UNL     1     120.587 116.985 120.285  1.00  0.00    -0.275 OA
ATOM     12  N   UNL     1     118.543 118.014 120.779  1.00  0.00    -0.352 N 
ATOM     13  H   UNL     1     117.668 117.985 121.348  1.00  0.00     0.163 HD
BRANCH  12  14
ATOM     14  C   UNL     1     118.683 119.057 119.765  1.00  0.00     0.151 C 
BRANCH  14  15
ATOM     15  C   UNL     1     117.444 119.912 119.720  1.00  0.00    -0.025 A 
ATOM     16  C   UNL     1     116.375 119.669 120.598  1.00  0.00     0.056 A 
ATOM     17  C   UNL     1     117.341 120.945 118.778  1.00  0.00     0.009 A 
ATOM     18  C   UNL     1     115.205 120.454 120.538  1.00  0.00     0.160 A 
ATOM     19  C   UNL     1     116.186 121.726 118.713  1.00  0.00     0.050 A 
ATOM     20  C   UNL     1     115.120 121.487 119.586  1.00  0.00     0.157 A 
BRANCH  18  21
ATOM     21  O   UNL     1     114.120 120.236 121.402  1.00  0.00    -0.493 OA
ATOM     22  C   UNL     1     113.842 119.001 122.055  1.00  0.00     0.278 C 
ENDBRANCH  18  21
BRANCH  20  23
ATOM     23  O   UNL     1     113.980 122.287 119.491  1.00  0.00    -0.504 OA
ATOM     24  H   UNL     1     113.304 122.179 118.744  1.00  0.00     0.293 HD
ENDBRANCH  20  23
ENDBRANCH  14  15
ENDBRANCH  12  14
ENDBRANCH   9  10
ENDBRANCH   1   9
TORSDOF 10
ENDMDL
MODEL 8
REMARK VINA RESULT:    -6.391      2.127      4.766
REMARK INTER + INTRA:         -10.919
REMARK INTER:                 -10.257
REMARK INTRA:                  -0.662
REMARK UNBOUND:                -0.978
REMARK SMILES COc1cc(CNC(=O)CCCCC=CC(C)C)ccc1O
REMARK SMILES IDX 11 1 12 2 13 3 14 4 15 5 16 6 17 7 18 8 10 9 8 10 9 11 7 12
REMARK SMILES IDX 6 14 5 15 4 16 19 17 3 18 20 19 21 20 2 21 1 22 22 23
REMARK H PARENT 7 13 22 24
REMARK Flexibility Score: inf
ROOT
ATOM      1  C   UNL     1     120.141 115.467 121.705  1.00  0.00     0.010 C 
ENDROOT
BRANCH   1   2
ATOM      2  C   UNL     1     121.017 114.211 121.578  1.00  0.00     0.005 C 
BRANCH   2   3
ATOM      3  C   UNL     1     120.201 112.909 121.595  1.00  0.00     0.027 C 
BRANCH   3   4
ATOM      4  C   UNL     1     118.791 113.156 122.058  1.00  0.00    -0.031 C 
ATOM      5  C   UNL     1     118.129 112.261 122.810  1.00  0.00    -0.028 C 
BRANCH   5   6
ATOM      6  C   UNL     1     116.714 112.518 123.272  1.00  0.00     0.005 C 
ATOM      7  C   UNL     1     116.215 113.867 122.746  1.00  0.00     0.012 C 
ATOM      8  C   UNL     1     115.787 111.388 122.810  1.00  0.00     0.012 C 
ENDBRANCH   5   6
ENDBRANCH   3   4
ENDBRANCH   2   3
ENDBRANCH   1   2
BRANCH   1   9
ATOM      9  C   UNL     1     120.254 116.395 120.490  1.00  0.00     0.100 C 
BRANCH   9  10
ATOM     10  C   UNL     1     119.427 117.628 120.693  1.00  0.00     0.220 C 
ATOM     11  O   UNL     1     119.261 118.081 121.859  1.00  0.00    -0.275 OA
ATOM     12  N   UNL     1     118.864 118.311 119.564  1.00  0.00    -0.352 N 
ATOM     13  H   UNL     1     119.067 117.954 118.604  1.00  0.00     0.163 HD
BRANCH  12  14
ATOM     14  C   UNL     1     118.026 119.501 119.703  1.00  0.00     0.151 C 
BRANCH  14  15
ATOM     15  C   UNL     1     116.709 119.142 120.338  1.00  0.00    -0.025 A 
ATOM     16  C   UNL     1     116.227 117.824 120.291  1.00  0.00     0.056 A 
ATOM     17  C   UNL     1     115.940 120.135 120.962  1.00  0.00     0.009 A 
ATOM     18  C   UNL     1     114.983 117.494 120.865  1.00  0.00     0.160 A 
ATOM     19  C   UNL     1     114.707 119.816 121.532  1.00  0.00     0.050 A 
ATOM     20  C   UNL     1     114.224 118.504 121.487  1.00  0.00     0.157 A 
BRANCH  18  21
ATOM     21  O   UNL     1     114.474 116.186 120.834  1.00  0.00    -0.493 OA
ATOM     22  C   UNL     1     113.896 115.570 119.686  1.00  0.00     0.278 C 
ENDBRANCH  18  21
BRANCH  20  23
ATOM     23  O   UNL     1     112.986 118.222 122.066  1.00  0.00    -0.504 OA
ATOM     24  H   UNL     1     112.315 118.948 122.287  1.00  0.00     0.293 HD
ENDBRANCH  20  23
ENDBRANCH  14  15
ENDBRANCH  12  14
ENDBRANCH   9  10
ENDBRANCH   1   9
TORSDOF 10
ENDMDL
MODEL 9
REMARK VINA RESULT:    -6.350      2.460      6.656
REMARK INTER + INTRA:         -10.855
REMARK INTER:                  -9.793
REMARK INTRA:                  -1.061
REMARK UNBOUND:                -0.978
REMARK SMILES COc1cc(CNC(=O)CCCCC=CC(C)C)ccc1O
REMARK SMILES IDX 11 1 12 2 13 3 14 4 15 5 16 6 17 7 18 8 10 9 8 10 9 11 7 12
REMARK SMILES IDX 6 14 5 15 4 16 19 17 3 18 20 19 21 20 2 21 1 22 22 23
REMARK H PARENT 7 13 22 24
REMARK Flexibility Score: inf
ROOT
ATOM      1  C   UNL     1     115.306 118.346 121.261  1.00  0.00     0.010 C 
ENDROOT
BRANCH   1   2
ATOM      2  C   UNL     1     114.156 117.329 121.285  1.00  0.00     0.005 C 
BRANCH   2   3
ATOM      3  C   UNL     1     114.206 116.343 120.106  1.00  0.00     0.027 C 
BRANCH   3   4
ATOM      4  C   UNL     1     114.574 114.960 120.568  1.00  0.00    -0.031 C 
ATOM      5  C   UNL     1     115.322 114.759 121.665  1.00  0.00    -0.028 C 
BRANCH   5   6
ATOM      6  C   UNL     1     115.687 113.367 122.123  1.00  0.00     0.005 C 
ATOM      7  C   UNL     1     116.001 113.361 123.622  1.00  0.00     0.012 C 
ATOM      8  C   UNL     1     114.550 112.387 121.811  1.00  0.00     0.012 C 
ENDBRANCH   5   6
ENDBRANCH   3   4
ENDBRANCH   2   3
ENDBRANCH   1   2
BRANCH   1   9
ATOM      9  C   UNL     1     116.030 118.393 119.909  1.00  0.00     0.100 C 
BRANCH   9  10
ATOM     10  C   UNL     1     117.513 118.465 120.111  1.00  0.00     0.220 C 
ATOM     11  O   UNL     1     118.197 119.272 119.423  1.00  0.00    -0.275 OA
ATOM     12  N   UNL     1     118.143 117.650 121.110  1.00  0.00    -0.352 N 
ATOM     13  H   UNL     1     117.549 117.036 121.711  1.00  0.00     0.163 HD
BRANCH  12  14
ATOM     14  C   UNL     1     119.587 117.656 121.333  1.00  0.00     0.151 C 
BRANCH  14  15
ATOM     15  C   UNL     1     120.149 116.269 121.168  1.00  0.00    -0.025 A 
ATOM     16  C   UNL     1     119.723 115.222 122.002  1.00  0.00     0.056 A 
ATOM     17  C   UNL     1     121.123 116.020 120.191  1.00  0.00     0.009 A 
ATOM     18  C   UNL     1     120.267 113.928 121.864  1.00  0.00     0.160 A 
ATOM     19  C   UNL     1     121.666 114.742 120.048  1.00  0.00     0.050 A 
ATOM     20  C   UNL     1     121.245 113.697 120.878  1.00  0.00     0.157 A 
BRANCH  18  21
ATOM     21  O   UNL     1     119.864 112.861 122.682  1.00  0.00    -0.493 OA
ATOM     22  C   UNL     1     119.127 111.729 122.230  1.00  0.00     0.278 C 
ENDBRANCH  18  21
BRANCH  20  23
ATOM     23  O   UNL     1     121.811 112.433 120.707  1.00  0.00    -0.504 OA
ATOM     24  H   UNL     1     122.812 112.294 120.632  1.00  0.00     0.293 HD
ENDBRANCH  20  23
ENDBRANCH  14  15
ENDBRANCH  12  14
ENDBRANCH   9  10
ENDBRANCH   1   9
TORSDOF 10
ENDMDL
