MODEL 1
REMARK VINA RESULT:    -2.402      0.000      0.000
REMARK INTER + INTRA:          -2.800
REMARK INTER:                  -2.753
REMARK INTRA:                  -0.047
REMARK UNBOUND:                -0.047
REMARK SMILES O=C([O-])c1cc(O)c(O)c(O)c1
REMARK SMILES IDX 4 1 5 2 12 3 6 4 10 5 8 6 2 7 1 8 3 9 7 10 11 12 9 14
REMARK H PARENT 7 11 11 13 9 15
REMARK Flexibility Score: inf
ROOT
ATOM      1  C   UNL     1     -13.982  15.132   7.005  1.00  0.00     0.005 A 
ATOM      2  C   UNL     1     -13.603  15.802   5.830  1.00  0.00     0.060 A 
ATOM      3  C   UNL     1     -14.003  13.727   7.014  1.00  0.00     0.060 A 
ATOM      4  C   UNL     1     -13.250  15.080   4.681  1.00  0.00     0.162 A 
ATOM      5  C   UNL     1     -13.650  13.000   5.868  1.00  0.00     0.162 A 
ATOM      6  C   UNL     1     -13.273  13.680   4.697  1.00  0.00     0.200 A 
ENDROOT
BRANCH   1   7
ATOM      7  C   UNL     1     -14.353  15.900   8.215  1.00  0.00     0.072 C 
ATOM      8  O   UNL     1     -15.496  15.770   8.732  1.00  0.00    -0.545 OA
ATOM      9  O   UNL     1     -13.447  16.778   8.799  1.00  0.00    -0.545 OA
ENDBRANCH   1   7
BRANCH   4  10
ATOM     10  O   UNL     1     -12.875  15.749   3.517  1.00  0.00    -0.504 OA
ATOM     11  H   UNL     1     -13.508  15.844   2.732  1.00  0.00     0.293 HD
ENDBRANCH   4  10
BRANCH   5  12
ATOM     12  O   UNL     1     -13.674  11.607   5.888  1.00  0.00    -0.504 OA
ATOM     13  H   UNL     1     -13.601  11.063   5.036  1.00  0.00     0.293 HD
ENDBRANCH   5  12
BRANCH   6  14
ATOM     14  O   UNL     1     -12.919  12.979   3.545  1.00  0.00    -0.502 OA
ATOM     15  H   UNL     1     -12.930  13.408   2.627  1.00  0.00     0.293 HD
ENDBRANCH   6  14
TORSDOF 4
ENDMDL
MODEL 2
REMARK VINA RESULT:    -2.243      0.106      2.424
REMARK INTER + INTRA:          -2.618
REMARK INTER:                  -2.571
REMARK INTRA:                  -0.046
REMARK UNBOUND:                -0.047
REMARK SMILES O=C([O-])c1cc(O)c(O)c(O)c1
REMARK SMILES IDX 4 1 5 2 12 3 6 4 10 5 8 6 2 7 1 8 3 9 7 10 11 12 9 14
REMARK H PARENT 7 11 11 13 9 15
REMARK Flexibility Score: inf
ROOT
ATOM      1  C   UNL     1     -13.977  15.197   7.073  1.00  0.00     0.005 A 
ATOM      2  C   UNL     1     -14.021  13.793   7.100  1.00  0.00     0.060 A 
ATOM      3  C   UNL     1     -13.600  15.845   5.884  1.00  0.00     0.060 A 
ATOM      4  C   UNL     1     -13.693  13.048   5.959  1.00  0.00     0.162 A 
ATOM      5  C   UNL     1     -13.273  15.104   4.740  1.00  0.00     0.162 A 
ATOM      6  C   UNL     1     -13.319  13.700   4.778  1.00  0.00     0.200 A 
ENDROOT
BRANCH   1   7
ATOM      7  C   UNL     1     -14.324  15.978   8.282  1.00  0.00     0.072 C 
ATOM      8  O   UNL     1     -15.477  15.902   8.785  1.00  0.00    -0.545 OA
ATOM      9  O   UNL     1     -13.382  16.807   8.880  1.00  0.00    -0.545 OA
ENDBRANCH   1   7
BRANCH   4  10
ATOM     10  O   UNL     1     -13.738  11.654   5.992  1.00  0.00    -0.504 OA
ATOM     11  H   UNL     1     -14.305  11.127   5.339  1.00  0.00     0.293 HD
ENDBRANCH   4  10
BRANCH   5  12
ATOM     12  O   UNL     1     -12.900  15.757   3.566  1.00  0.00    -0.504 OA
ATOM     13  H   UNL     1     -13.582  16.013   2.861  1.00  0.00     0.293 HD
ENDBRANCH   5  12
BRANCH   6  14
ATOM     14  O   UNL     1     -12.997  12.942   3.653  1.00  0.00    -0.502 OA
ATOM     15  H   UNL     1     -12.117  12.448   3.569  1.00  0.00     0.293 HD
ENDBRANCH   6  14
TORSDOF 4
ENDMDL
MODEL 3
REMARK VINA RESULT:    -2.146     17.895     19.603
REMARK INTER + INTRA:          -2.506
REMARK INTER:                  -2.461
REMARK INTRA:                  -0.045
REMARK UNBOUND:                -0.047
REMARK SMILES O=C([O-])c1cc(O)c(O)c(O)c1
REMARK SMILES IDX 4 1 5 2 12 3 6 4 10 5 8 6 2 7 1 8 3 9 7 10 11 12 9 14
REMARK H PARENT 7 11 11 13 9 15
REMARK Flexibility Score: inf
ROOT
ATOM      1  C   UNL     1     -26.588   0.068   0.996  1.00  0.00     0.005 A 
ATOM      2  C   UNL     1     -25.535  -0.789   0.634  1.00  0.00     0.060 A 
ATOM      3  C   UNL     1     -26.373   1.457   0.978  1.00  0.00     0.060 A 
ATOM      4  C   UNL     1     -24.288  -0.269   0.263  1.00  0.00     0.162 A 
ATOM      5  C   UNL     1     -25.128   1.982   0.606  1.00  0.00     0.162 A 
ATOM      6  C   UNL     1     -24.082   1.116   0.248  1.00  0.00     0.200 A 
ENDROOT
BRANCH   1   7
ATOM      7  C   UNL     1     -27.902  -0.489   1.387  1.00  0.00     0.072 C 
ATOM      8  O   UNL     1     -28.074  -0.981   2.535  1.00  0.00    -0.545 OA
ATOM      9  O   UNL     1     -28.968  -0.476   0.495  1.00  0.00    -0.545 OA
ENDBRANCH   1   7
BRANCH   4  10
ATOM     10  O   UNL     1     -23.246  -1.124  -0.094  1.00  0.00    -0.504 OA
ATOM     11  H   UNL     1     -22.947  -1.877   0.514  1.00  0.00     0.293 HD
ENDBRANCH   4  10
BRANCH   5  12
ATOM     12  O   UNL     1     -24.926   3.361   0.593  1.00  0.00    -0.504 OA
ATOM     13  H   UNL     1     -24.651   3.866   1.428  1.00  0.00     0.293 HD
ENDBRANCH   5  12
BRANCH   6  14
ATOM     14  O   UNL     1     -22.834   1.615  -0.125  1.00  0.00    -0.502 OA
ATOM     15  H   UNL     1     -22.722   2.530  -0.544  1.00  0.00     0.293 HD
ENDBRANCH   6  14
TORSDOF 4
ENDMDL
MODEL 4
REMARK VINA RESULT:    -2.069      0.512      1.041
REMARK INTER + INTRA:          -2.418
REMARK INTER:                  -2.373
REMARK INTRA:                  -0.045
REMARK UNBOUND:                -0.047
REMARK SMILES O=C([O-])c1cc(O)c(O)c(O)c1
REMARK SMILES IDX 4 1 5 2 12 3 6 4 10 5 8 6 2 7 1 8 3 9 7 10 11 12 9 14
REMARK H PARENT 7 11 11 13 9 15
REMARK Flexibility Score: inf
ROOT
ATOM      1  C   UNL     1     -14.048  15.384   7.295  1.00  0.00     0.005 A 
ATOM      2  C   UNL     1     -13.623  15.899   6.059  1.00  0.00     0.060 A 
ATOM      3  C   UNL     1     -14.165  13.992   7.451  1.00  0.00     0.060 A 
ATOM      4  C   UNL     1     -13.322  15.038   4.994  1.00  0.00     0.162 A 
ATOM      5  C   UNL     1     -13.864  13.127   6.390  1.00  0.00     0.162 A 
ATOM      6  C   UNL     1     -13.441  13.652   5.157  1.00  0.00     0.200 A 
ENDROOT
BRANCH   1   7
ATOM      7  C   UNL     1     -14.365  16.299   8.415  1.00  0.00     0.072 C 
ATOM      8  O   UNL     1     -13.442  16.860   9.064  1.00  0.00    -0.545 OA
ATOM      9  O   UNL     1     -15.686  16.552   8.766  1.00  0.00    -0.545 OA
ENDBRANCH   1   7
BRANCH   4  10
ATOM     10  O   UNL     1     -12.902  15.554   3.769  1.00  0.00    -0.504 OA
ATOM     11  H   UNL     1     -13.281  15.215   2.893  1.00  0.00     0.293 HD
ENDBRANCH   4  10
BRANCH   5  12
ATOM     12  O   UNL     1     -13.984  11.748   6.555  1.00  0.00    -0.504 OA
ATOM     13  H   UNL     1     -13.227  11.190   6.932  1.00  0.00     0.293 HD
ENDBRANCH   5  12
BRANCH   6  14
ATOM     14  O   UNL     1     -13.137  12.811   4.087  1.00  0.00    -0.502 OA
ATOM     15  H   UNL     1     -13.170  11.803   4.166  1.00  0.00     0.293 HD
ENDBRANCH   6  14
TORSDOF 4
ENDMDL
MODEL 5
REMARK VINA RESULT:    -1.705      1.751      3.914
REMARK INTER + INTRA:          -2.001
REMARK INTER:                  -1.952
REMARK INTRA:                  -0.049
REMARK UNBOUND:                -0.047
REMARK SMILES O=C([O-])c1cc(O)c(O)c(O)c1
REMARK SMILES IDX 4 1 5 2 12 3 6 4 10 5 8 6 2 7 1 8 3 9 7 10 11 12 9 14
REMARK H PARENT 7 11 11 13 9 15
REMARK Flexibility Score: inf
ROOT
ATOM      1  C   UNL     1     -14.375  12.061   6.859  1.00  0.00     0.005 A 
ATOM      2  C   UNL     1     -13.773  12.159   5.594  1.00  0.00     0.060 A 
ATOM      3  C   UNL     1     -14.675  13.239   7.566  1.00  0.00     0.060 A 
ATOM      4  C   UNL     1     -13.474  13.413   5.043  1.00  0.00     0.162 A 
ATOM      5  C   UNL     1     -14.378  14.495   7.019  1.00  0.00     0.162 A 
ATOM      6  C   UNL     1     -13.775  14.582   5.752  1.00  0.00     0.200 A 
ENDROOT
BRANCH   1   7
ATOM      7  C   UNL     1     -14.689  10.734   7.436  1.00  0.00     0.072 C 
ATOM      8  O   UNL     1     -13.851   9.795   7.374  1.00  0.00    -0.545 OA
ATOM      9  O   UNL     1     -15.913  10.505   8.054  1.00  0.00    -0.545 OA
ENDBRANCH   1   7
BRANCH   4  10
ATOM     10  O   UNL     1     -12.875  13.505   3.787  1.00  0.00    -0.504 OA
ATOM     11  H   UNL     1     -11.894  13.291   3.650  1.00  0.00     0.293 HD
ENDBRANCH   4  10
BRANCH   5  12
ATOM     12  O   UNL     1     -14.679  15.656   7.728  1.00  0.00    -0.504 OA
ATOM     13  H   UNL     1     -15.525  15.737   8.281  1.00  0.00     0.293 HD
ENDBRANCH   5  12
BRANCH   6  14
ATOM     14  O   UNL     1     -13.470  15.820   5.188  1.00  0.00    -0.502 OA
ATOM     15  H   UNL     1     -12.960  15.905   4.317  1.00  0.00     0.293 HD
ENDBRANCH   6  14
TORSDOF 4
ENDMDL
MODEL 6
REMARK VINA RESULT:    -1.460     16.441     18.012
REMARK INTER + INTRA:          -1.719
REMARK INTER:                  -1.672
REMARK INTRA:                  -0.047
REMARK UNBOUND:                -0.047
REMARK SMILES O=C([O-])c1cc(O)c(O)c(O)c1
REMARK SMILES IDX 4 1 5 2 12 3 6 4 10 5 8 6 2 7 1 8 3 9 7 10 11 12 9 14
REMARK H PARENT 7 11 11 13 9 15
REMARK Flexibility Score: inf
ROOT
ATOM      1  C   UNL     1     -24.320   2.773   0.557  1.00  0.00     0.005 A 
ATOM      2  C   UNL     1     -25.700   2.518   0.620  1.00  0.00     0.060 A 
ATOM      3  C   UNL     1     -23.439   1.706   0.307  1.00  0.00     0.060 A 
ATOM      4  C   UNL     1     -26.194   1.219   0.437  1.00  0.00     0.162 A 
ATOM      5  C   UNL     1     -23.928   0.405   0.122  1.00  0.00     0.162 A 
ATOM      6  C   UNL     1     -25.310   0.161   0.188  1.00  0.00     0.200 A 
ENDROOT
BRANCH   1   7
ATOM      7  C   UNL     1     -23.806   4.147   0.751  1.00  0.00     0.072 C 
ATOM      8  O   UNL     1     -23.078   4.689  -0.124  1.00  0.00    -0.545 OA
ATOM      9  O   UNL     1     -24.118   4.861   1.903  1.00  0.00    -0.545 OA
ENDBRANCH   1   7
BRANCH   4  10
ATOM     10  O   UNL     1     -27.564   0.970   0.502  1.00  0.00    -0.504 OA
ATOM     11  H   UNL     1     -27.947   0.262   1.116  1.00  0.00     0.293 HD
ENDBRANCH   4  10
BRANCH   5  12
ATOM     12  O   UNL     1     -23.046  -0.645  -0.125  1.00  0.00    -0.504 OA
ATOM     13  H   UNL     1     -23.191  -1.565   0.275  1.00  0.00     0.293 HD
ENDBRANCH   5  12
BRANCH   6  14
ATOM     14  O   UNL     1     -25.820  -1.125   0.009  1.00  0.00    -0.502 OA
ATOM     15  H   UNL     1     -26.696  -1.421   0.420  1.00  0.00     0.293 HD
ENDBRANCH   6  14
TORSDOF 4
ENDMDL
MODEL 7
REMARK VINA RESULT:    -1.375      1.439      3.688
REMARK INTER + INTRA:          -1.622
REMARK INTER:                  -1.576
REMARK INTRA:                  -0.047
REMARK UNBOUND:                -0.047
REMARK SMILES O=C([O-])c1cc(O)c(O)c(O)c1
REMARK SMILES IDX 4 1 5 2 12 3 6 4 10 5 8 6 2 7 1 8 3 9 7 10 11 12 9 14
REMARK H PARENT 7 11 11 13 9 15
REMARK Flexibility Score: inf
ROOT
ATOM      1  C   UNL     1     -13.997  12.501   6.638  1.00  0.00     0.005 A 
ATOM      2  C   UNL     1     -13.996  13.703   7.364  1.00  0.00     0.060 A 
ATOM      3  C   UNL     1     -13.620  12.520   5.284  1.00  0.00     0.060 A 
ATOM      4  C   UNL     1     -13.625  14.907   6.748  1.00  0.00     0.162 A 
ATOM      5  C   UNL     1     -13.247  13.720   4.664  1.00  0.00     0.162 A 
ATOM      6  C   UNL     1     -13.251  14.918   5.399  1.00  0.00     0.200 A 
ENDROOT
BRANCH   1   7
ATOM      7  C   UNL     1     -14.390  11.234   7.295  1.00  0.00     0.072 C 
ATOM      8  O   UNL     1     -13.588  10.263   7.347  1.00  0.00    -0.545 OA
ATOM      9  O   UNL     1     -15.651  11.096   7.865  1.00  0.00    -0.545 OA
ENDBRANCH   1   7
BRANCH   4  10
ATOM     10  O   UNL     1     -13.627  16.098   7.472  1.00  0.00    -0.504 OA
ATOM     11  H   UNL     1     -14.329  16.811   7.318  1.00  0.00     0.293 HD
ENDBRANCH   4  10
BRANCH   5  12
ATOM     12  O   UNL     1     -12.875  13.727   3.321  1.00  0.00    -0.504 OA
ATOM     13  H   UNL     1     -13.216  13.028   2.671  1.00  0.00     0.293 HD
ENDBRANCH   5  12
BRANCH   6  14
ATOM     14  O   UNL     1     -12.884  16.125   4.803  1.00  0.00    -0.502 OA
ATOM     15  H   UNL     1     -12.777  16.979   5.335  1.00  0.00     0.293 HD
ENDBRANCH   6  14
TORSDOF 4
ENDMDL
MODEL 8
REMARK VINA RESULT:    -0.927      1.126      4.544
REMARK INTER + INTRA:          -1.109
REMARK INTER:                  -1.057
REMARK INTRA:                  -0.052
REMARK UNBOUND:                -0.047
REMARK SMILES O=C([O-])c1cc(O)c(O)c(O)c1
REMARK SMILES IDX 4 1 5 2 12 3 6 4 10 5 8 6 2 7 1 8 3 9 7 10 11 12 9 14
REMARK H PARENT 7 11 11 13 9 15
REMARK Flexibility Score: inf
ROOT
ATOM      1  C   UNL     1     -13.519  14.266   4.751  1.00  0.00     0.005 A 
ATOM      2  C   UNL     1     -13.523  12.945   5.230  1.00  0.00     0.060 A 
ATOM      3  C   UNL     1     -13.937  15.303   5.603  1.00  0.00     0.060 A 
ATOM      4  C   UNL     1     -13.940  12.663   6.538  1.00  0.00     0.162 A 
ATOM      5  C   UNL     1     -14.354  15.026   6.912  1.00  0.00     0.162 A 
ATOM      6  C   UNL     1     -14.356  13.701   7.381  1.00  0.00     0.200 A 
ENDROOT
BRANCH   1   7
ATOM      7  C   UNL     1     -13.078  14.556   3.368  1.00  0.00     0.072 C 
ATOM      8  O   UNL     1     -12.877  15.744   2.995  1.00  0.00    -0.545 OA
ATOM      9  O   UNL     1     -12.877  13.523   2.460  1.00  0.00    -0.545 OA
ENDBRANCH   1   7
BRANCH   4  10
ATOM     10  O   UNL     1     -13.944  11.350   7.008  1.00  0.00    -0.504 OA
ATOM     11  H   UNL     1     -13.470  10.607   6.509  1.00  0.00     0.293 HD
ENDBRANCH   4  10
BRANCH   5  12
ATOM     12  O   UNL     1     -14.768  16.061   7.749  1.00  0.00    -0.504 OA
ATOM     13  H   UNL     1     -14.257  16.935   7.804  1.00  0.00     0.293 HD
ENDBRANCH   5  12
BRANCH   6  14
ATOM     14  O   UNL     1     -14.767  13.401   8.680  1.00  0.00    -0.502 OA
ATOM     15  H   UNL     1     -15.735  13.473   8.969  1.00  0.00     0.293 HD
ENDBRANCH   6  14
TORSDOF 4
ENDMDL
MODEL 9
REMARK VINA RESULT:    -0.778      1.206      4.062
REMARK INTER + INTRA:          -0.938
REMARK INTER:                  -0.885
REMARK INTRA:                  -0.053
REMARK UNBOUND:                -0.047
REMARK SMILES O=C([O-])c1cc(O)c(O)c(O)c1
REMARK SMILES IDX 4 1 5 2 12 3 6 4 10 5 8 6 2 7 1 8 3 9 7 10 11 12 9 14
REMARK H PARENT 7 11 11 13 9 15
REMARK Flexibility Score: inf
ROOT
ATOM      1  C   UNL     1     -13.437  14.346   4.470  1.00  0.00     0.005 A 
ATOM      2  C   UNL     1     -13.724  15.367   5.390  1.00  0.00     0.060 A 
ATOM      3  C   UNL     1     -13.522  13.006   4.889  1.00  0.00     0.060 A 
ATOM      4  C   UNL     1     -14.090  15.058   6.707  1.00  0.00     0.162 A 
ATOM      5  C   UNL     1     -13.889  12.692   6.204  1.00  0.00     0.162 A 
ATOM      6  C   UNL     1     -14.174  13.722   7.117  1.00  0.00     0.200 A 
ENDROOT
BRANCH   1   7
ATOM      7  C   UNL     1     -13.050  14.680   3.081  1.00  0.00     0.072 C 
ATOM      8  O   UNL     1     -12.875  15.879   2.735  1.00  0.00    -0.545 OA
ATOM      9  O   UNL     1     -12.875  13.674   2.137  1.00  0.00    -0.545 OA
ENDBRANCH   1   7
BRANCH   4  10
ATOM     10  O   UNL     1     -14.374  16.076   7.617  1.00  0.00    -0.504 OA
ATOM     11  H   UNL     1     -14.995  16.840   7.381  1.00  0.00     0.293 HD
ENDBRANCH   4  10
BRANCH   5  12
ATOM     12  O   UNL     1     -13.971  11.360   6.609  1.00  0.00    -0.504 OA
ATOM     13  H   UNL     1     -14.274  10.630   5.974  1.00  0.00     0.293 HD
ENDBRANCH   5  12
BRANCH   6  14
ATOM     14  O   UNL     1     -14.540  13.433   8.432  1.00  0.00    -0.502 OA
ATOM     15  H   UNL     1     -15.450  13.059   8.668  1.00  0.00     0.293 HD
ENDBRANCH   6  14
TORSDOF 4
ENDMDL
