MODEL 1
REMARK VINA RESULT:    -3.373      0.000      0.000
REMARK INTER + INTRA:          -4.411
REMARK INTER:                  -4.162
REMARK INTRA:                  -0.249
REMARK UNBOUND:                -0.249
REMARK SMILES CCCCCC(=O)[O-]
REMARK SMILES IDX 4 1 5 2 6 3 7 4 8 5 3 6 2 7 1 8
REMARK H PARENT
REMARK Flexibility Score: inf
ROOT
ATOM      1  C   UNL     1     161.923 157.078 164.543  1.00  0.00     0.006 C 
ENDROOT
BRANCH   1   2
ATOM      2  C   UNL     1     161.868 156.016 165.650  1.00  0.00     0.053 C 
BRANCH   2   3
ATOM      3  C   UNL     1     162.955 156.208 166.664  1.00  0.00     0.041 C 
ATOM      4  O   UNL     1     162.770 156.960 167.657  1.00  0.00    -0.550 OA
ATOM      5  O   UNL     1     164.182 155.580 166.494  1.00  0.00    -0.550 OA
ENDBRANCH   2   3
ENDBRANCH   1   2
BRANCH   1   6
ATOM      6  C   UNL     1     160.826 158.143 164.705  1.00  0.00     0.000 C 
BRANCH   6   7
ATOM      7  C   UNL     1     161.351 159.439 165.341  1.00  0.00    -0.003 C 
ATOM      8  C   UNL     1     162.861 159.610 165.176  1.00  0.00     0.004 C 
ENDBRANCH   6   7
ENDBRANCH   1   6
TORSDOF 4
ENDMDL
MODEL 2
REMARK VINA RESULT:    -3.320      0.153      1.154
REMARK INTER + INTRA:          -4.345
REMARK INTER:                  -4.102
REMARK INTRA:                  -0.242
REMARK UNBOUND:                -0.249
REMARK SMILES CCCCCC(=O)[O-]
REMARK SMILES IDX 4 1 5 2 6 3 7 4 8 5 3 6 2 7 1 8
REMARK H PARENT
REMARK Flexibility Score: inf
ROOT
ATOM      1  C   UNL     1     161.885 157.058 164.403  1.00  0.00     0.006 C 
ENDROOT
BRANCH   1   2
ATOM      2  C   UNL     1     161.851 155.945 165.459  1.00  0.00     0.053 C 
BRANCH   2   3
ATOM      3  C   UNL     1     162.905 156.137 166.507  1.00  0.00     0.041 C 
ATOM      4  O   UNL     1     164.042 155.612 166.366  1.00  0.00    -0.550 OA
ATOM      5  O   UNL     1     162.623 156.870 167.653  1.00  0.00    -0.550 OA
ENDBRANCH   2   3
ENDBRANCH   1   2
BRANCH   1   6
ATOM      6  C   UNL     1     160.779 158.104 164.626  1.00  0.00     0.000 C 
BRANCH   6   7
ATOM      7  C   UNL     1     161.306 159.387 165.285  1.00  0.00    -0.003 C 
ATOM      8  C   UNL     1     162.819 159.552 165.136  1.00  0.00     0.004 C 
ENDBRANCH   6   7
ENDBRANCH   1   6
TORSDOF 4
ENDMDL
MODEL 3
REMARK VINA RESULT:    -3.208      1.348      2.191
REMARK INTER + INTRA:          -4.207
REMARK INTER:                  -4.076
REMARK INTRA:                  -0.131
REMARK UNBOUND:                -0.249
REMARK SMILES CCCCCC(=O)[O-]
REMARK SMILES IDX 4 1 5 2 6 3 7 4 8 5 3 6 2 7 1 8
REMARK H PARENT
REMARK Flexibility Score: inf
ROOT
ATOM      1  C   UNL     1     162.727 158.579 165.382  1.00  0.00     0.006 C 
ENDROOT
BRANCH   1   2
ATOM      2  C   UNL     1     162.773 157.828 166.720  1.00  0.00     0.053 C 
BRANCH   2   3
ATOM      3  C   UNL     1     162.871 156.345 166.525  1.00  0.00     0.041 C 
ATOM      4  O   UNL     1     163.934 155.737 166.819  1.00  0.00    -0.550 OA
ATOM      5  O   UNL     1     161.799 155.641 165.992  1.00  0.00    -0.550 OA
ENDBRANCH   2   3
ENDBRANCH   1   2
BRANCH   1   6
ATOM      6  C   UNL     1     161.402 159.336 165.187  1.00  0.00     0.000 C 
BRANCH   6   7
ATOM      7  C   UNL     1     160.314 158.463 164.543  1.00  0.00    -0.003 C 
ATOM      8  C   UNL     1     159.126 159.278 164.032  1.00  0.00     0.004 C 
ENDBRANCH   6   7
ENDBRANCH   1   6
TORSDOF 4
ENDMDL
MODEL 4
REMARK VINA RESULT:    -3.111      2.128      3.457
REMARK INTER + INTRA:          -4.087
REMARK INTER:                  -3.841
REMARK INTRA:                  -0.247
REMARK UNBOUND:                -0.249
REMARK SMILES CCCCCC(=O)[O-]
REMARK SMILES IDX 4 1 5 2 6 3 7 4 8 5 3 6 2 7 1 8
REMARK H PARENT
REMARK Flexibility Score: inf
ROOT
ATOM      1  C   UNL     1     161.840 156.800 164.142  1.00  0.00     0.006 C 
ENDROOT
BRANCH   1   2
ATOM      2  C   UNL     1     160.685 157.762 164.451  1.00  0.00     0.053 C 
BRANCH   2   3
ATOM      3  C   UNL     1     161.177 159.069 164.996  1.00  0.00     0.041 C 
ATOM      4  O   UNL     1     160.356 159.936 165.399  1.00  0.00    -0.550 OA
ATOM      5  O   UNL     1     162.538 159.341 165.029  1.00  0.00    -0.550 OA
ENDBRANCH   2   3
ENDBRANCH   1   2
BRANCH   1   6
ATOM      6  C   UNL     1     162.010 155.728 165.233  1.00  0.00     0.000 C 
BRANCH   6   7
ATOM      7  C   UNL     1     163.228 155.991 166.132  1.00  0.00    -0.003 C 
ATOM      8  C   UNL     1     162.872 156.771 167.398  1.00  0.00     0.004 C 
ENDBRANCH   6   7
ENDBRANCH   1   6
TORSDOF 4
ENDMDL
MODEL 5
REMARK VINA RESULT:    -3.097      1.025      1.937
REMARK INTER + INTRA:          -4.070
REMARK INTER:                  -3.920
REMARK INTRA:                  -0.150
REMARK UNBOUND:                -0.249
REMARK SMILES CCCCCC(=O)[O-]
REMARK SMILES IDX 4 1 5 2 6 3 7 4 8 5 3 6 2 7 1 8
REMARK H PARENT
REMARK Flexibility Score: inf
ROOT
ATOM      1  C   UNL     1     161.414 157.546 164.442  1.00  0.00     0.006 C 
ENDROOT
BRANCH   1   2
ATOM      2  C   UNL     1     161.594 156.344 165.378  1.00  0.00     0.053 C 
BRANCH   2   3
ATOM      3  C   UNL     1     162.844 156.456 166.197  1.00  0.00     0.041 C 
ATOM      4  O   UNL     1     163.969 156.262 165.665  1.00  0.00    -0.550 OA
ATOM      5  O   UNL     1     162.764 156.744 167.554  1.00  0.00    -0.550 OA
ENDBRANCH   2   3
ENDBRANCH   1   2
BRANCH   1   6
ATOM      6  C   UNL     1     161.398 158.881 165.207  1.00  0.00     0.000 C 
BRANCH   6   7
ATOM      7  C   UNL     1     160.054 159.613 165.087  1.00  0.00    -0.003 C 
ATOM      8  C   UNL     1     159.109 158.957 164.079  1.00  0.00     0.004 C 
ENDBRANCH   6   7
ENDBRANCH   1   6
TORSDOF 4
ENDMDL
MODEL 6
REMARK VINA RESULT:    -3.002     15.102     15.705
REMARK INTER + INTRA:          -3.952
REMARK INTER:                  -3.889
REMARK INTRA:                  -0.063
REMARK UNBOUND:                -0.249
REMARK SMILES CCCCCC(=O)[O-]
REMARK SMILES IDX 4 1 5 2 6 3 7 4 8 5 3 6 2 7 1 8
REMARK H PARENT
REMARK Flexibility Score: inf
ROOT
ATOM      1  C   UNL     1     160.372 158.301 150.035  1.00  0.00     0.006 C 
ENDROOT
BRANCH   1   2
ATOM      2  C   UNL     1     159.104 158.932 150.625  1.00  0.00     0.053 C 
BRANCH   2   3
ATOM      3  C   UNL     1     157.937 157.992 150.576  1.00  0.00     0.041 C 
ATOM      4  O   UNL     1     156.874 158.269 151.192  1.00  0.00    -0.550 OA
ATOM      5  O   UNL     1     158.036 156.796 149.875  1.00  0.00    -0.550 OA
ENDBRANCH   2   3
ENDBRANCH   1   2
BRANCH   1   6
ATOM      6  C   UNL     1     161.541 158.304 151.035  1.00  0.00     0.000 C 
BRANCH   6   7
ATOM      7  C   UNL     1     162.885 158.635 150.368  1.00  0.00    -0.003 C 
ATOM      8  C   UNL     1     163.974 159.000 151.378  1.00  0.00     0.004 C 
ENDBRANCH   6   7
ENDBRANCH   1   6
TORSDOF 4
ENDMDL
MODEL 7
REMARK VINA RESULT:    -2.993      2.449      3.672
REMARK INTER + INTRA:          -3.942
REMARK INTER:                  -3.711
REMARK INTRA:                  -0.231
REMARK UNBOUND:                -0.249
REMARK SMILES CCCCCC(=O)[O-]
REMARK SMILES IDX 4 1 5 2 6 3 7 4 8 5 3 6 2 7 1 8
REMARK H PARENT
REMARK Flexibility Score: inf
ROOT
ATOM      1  C   UNL     1     162.816 158.379 165.564  1.00  0.00     0.006 C 
ENDROOT
BRANCH   1   2
ATOM      2  C   UNL     1     161.461 158.983 165.173  1.00  0.00     0.053 C 
BRANCH   2   3
ATOM      3  C   UNL     1     160.597 157.997 164.448  1.00  0.00     0.041 C 
ATOM      4  O   UNL     1     159.342 158.100 164.493  1.00  0.00    -0.550 OA
ATOM      5  O   UNL     1     161.177 156.946 163.748  1.00  0.00    -0.550 OA
ENDBRANCH   2   3
ENDBRANCH   1   2
BRANCH   1   6
ATOM      6  C   UNL     1     162.724 157.526 166.841  1.00  0.00     0.000 C 
BRANCH   6   7
ATOM      7  C   UNL     1     163.274 156.105 166.642  1.00  0.00    -0.003 C 
ATOM      8  C   UNL     1     164.191 155.991 165.424  1.00  0.00     0.004 C 
ENDBRANCH   6   7
ENDBRANCH   1   6
TORSDOF 4
ENDMDL
MODEL 8
REMARK VINA RESULT:    -2.950     13.868     14.636
REMARK INTER + INTRA:          -3.889
REMARK INTER:                  -3.840
REMARK INTRA:                  -0.049
REMARK UNBOUND:                -0.249
REMARK SMILES CCCCCC(=O)[O-]
REMARK SMILES IDX 4 1 5 2 6 3 7 4 8 5 3 6 2 7 1 8
REMARK H PARENT
REMARK Flexibility Score: inf
ROOT
ATOM      1  C   UNL     1     164.118 159.005 151.606  1.00  0.00     0.006 C 
ENDROOT
BRANCH   1   2
ATOM      2  C   UNL     1     165.303 159.974 151.722  1.00  0.00     0.053 C 
BRANCH   2   3
ATOM      3  C   UNL     1     166.336 159.480 152.688  1.00  0.00     0.041 C 
ATOM      4  O   UNL     1     167.556 159.492 152.372  1.00  0.00    -0.550 OA
ATOM      5  O   UNL     1     165.950 158.978 153.925  1.00  0.00    -0.550 OA
ENDBRANCH   2   3
ENDBRANCH   1   2
BRANCH   1   6
ATOM      6  C   UNL     1     162.953 159.607 150.801  1.00  0.00     0.000 C 
BRANCH   6   7
ATOM      7  C   UNL     1     162.285 158.580 149.875  1.00  0.00    -0.003 C 
ATOM      8  C   UNL     1     160.997 158.002 150.463  1.00  0.00     0.004 C 
ENDBRANCH   6   7
ENDBRANCH   1   6
TORSDOF 4
ENDMDL
MODEL 9
REMARK VINA RESULT:    -2.938      1.776      3.265
REMARK INTER + INTRA:          -3.873
REMARK INTER:                  -3.661
REMARK INTRA:                  -0.212
REMARK UNBOUND:                -0.249
REMARK SMILES CCCCCC(=O)[O-]
REMARK SMILES IDX 4 1 5 2 6 3 7 4 8 5 3 6 2 7 1 8
REMARK H PARENT
REMARK Flexibility Score: inf
ROOT
ATOM      1  C   UNL     1     160.565 157.537 164.583  1.00  0.00     0.006 C 
ENDROOT
BRANCH   1   2
ATOM      2  C   UNL     1     161.113 158.932 164.915  1.00  0.00     0.053 C 
BRANCH   2   3
ATOM      3  C   UNL     1     162.519 158.872 165.429  1.00  0.00     0.041 C 
ATOM      4  O   UNL     1     163.464 159.350 164.746  1.00  0.00    -0.550 OA
ATOM      5  O   UNL     1     162.790 158.262 166.647  1.00  0.00    -0.550 OA
ENDBRANCH   2   3
ENDBRANCH   1   2
BRANCH   1   6
ATOM      6  C   UNL     1     161.577 156.688 163.794  1.00  0.00     0.000 C 
BRANCH   6   7
ATOM      7  C   UNL     1     161.890 155.353 164.485  1.00  0.00    -0.003 C 
ATOM      8  C   UNL     1     163.368 155.208 164.852  1.00  0.00     0.004 C 
ENDBRANCH   6   7
ENDBRANCH   1   6
TORSDOF 4
ENDMDL
