MODEL 1
REMARK VINA RESULT:    -4.333      0.000      0.000
REMARK INTER + INTRA:         -10.840
REMARK INTER:                  -8.386
REMARK INTRA:                  -2.454
REMARK UNBOUND:                -2.454
REMARK SMILES CCCCCCCCCCCCCCCCCC(=O)[O-]
REMARK SMILES IDX 10 1 11 2 12 3 13 4 14 5 15 6 16 7 17 8 18 9 19 10 20 11
REMARK SMILES IDX 9 12 8 13 7 14 6 15 5 16 4 17 3 18 2 19 1 20
REMARK H PARENT
REMARK Flexibility Score: inf
ROOT
ATOM      1  C   UNL     1      -2.368  -0.564  12.276  1.00  0.00     0.000 C 
ENDROOT
BRANCH   1   2
ATOM      2  C   UNL     1      -2.549   0.678  11.391  1.00  0.00     0.000 C 
BRANCH   2   3
ATOM      3  C   UNL     1      -4.009   1.152  11.401  1.00  0.00     0.000 C 
BRANCH   3   4
ATOM      4  C   UNL     1      -4.804   0.602  12.597  1.00  0.00     0.000 C 
BRANCH   4   5
ATOM      5  C   UNL     1      -5.437   1.714  13.453  1.00  0.00     0.000 C 
BRANCH   5   6
ATOM      6  C   UNL     1      -4.453   2.267  14.506  1.00  0.00     0.000 C 
BRANCH   6   7
ATOM      7  C   UNL     1      -5.108   3.224  15.517  1.00  0.00     0.006 C 
BRANCH   7   8
ATOM      8  C   UNL     1      -6.497   2.755  15.968  1.00  0.00     0.053 C 
BRANCH   8   9
ATOM      9  C   UNL     1      -7.504   3.843  15.770  1.00  0.00     0.041 C 
ATOM     10  O   UNL     1      -7.831   4.586  16.734  1.00  0.00    -0.550 OA
ATOM     11  O   UNL     1      -8.045   4.070  14.511  1.00  0.00    -0.550 OA
ENDBRANCH   8   9
ENDBRANCH   7   8
ENDBRANCH   6   7
ENDBRANCH   5   6
ENDBRANCH   4   5
ENDBRANCH   3   4
ENDBRANCH   2   3
ENDBRANCH   1   2
BRANCH   1  12
ATOM     12  C   UNL     1      -1.260  -1.499  11.766  1.00  0.00     0.000 C 
BRANCH  12  13
ATOM     13  C   UNL     1      -1.701  -2.970  11.716  1.00  0.00    -0.000 C 
BRANCH  13  14
ATOM     14  C   UNL     1      -3.229  -3.083  11.681  1.00  0.00    -0.000 C 
BRANCH  14  15
ATOM     15  C   UNL     1      -3.678  -4.197  10.726  1.00  0.00    -0.000 C 
BRANCH  15  16
ATOM     16  C   UNL     1      -3.794  -3.675   9.287  1.00  0.00    -0.000 C 
BRANCH  16  17
ATOM     17  C   UNL     1      -4.360  -2.245   9.211  1.00  0.00    -0.000 C 
BRANCH  17  18
ATOM     18  C   UNL     1      -3.469  -1.231   8.472  1.00  0.00    -0.000 C 
BRANCH  18  19
ATOM     19  C   UNL     1      -2.106  -1.813   8.070  1.00  0.00    -0.003 C 
ATOM     20  C   UNL     1      -1.006  -0.762   8.181  1.00  0.00     0.004 C 
ENDBRANCH  18  19
ENDBRANCH  17  18
ENDBRANCH  16  17
ENDBRANCH  15  16
ENDBRANCH  14  15
ENDBRANCH  13  14
ENDBRANCH  12  13
ENDBRANCH   1  12
TORSDOF 16
ENDMDL
MODEL 2
REMARK VINA RESULT:    -4.301      1.450      3.387
REMARK INTER + INTRA:         -10.778
REMARK INTER:                  -8.728
REMARK INTRA:                  -2.050
REMARK UNBOUND:                -2.454
REMARK SMILES CCCCCCCCCCCCCCCCCC(=O)[O-]
REMARK SMILES IDX 10 1 11 2 12 3 13 4 14 5 15 6 16 7 17 8 18 9 19 10 20 11
REMARK SMILES IDX 9 12 8 13 7 14 6 15 5 16 4 17 3 18 2 19 1 20
REMARK H PARENT
REMARK Flexibility Score: inf
ROOT
ATOM      1  C   UNL     1      -5.127   1.349  12.898  1.00  0.00     0.000 C 
ENDROOT
BRANCH   1   2
ATOM      2  C   UNL     1      -4.593   1.630  14.311  1.00  0.00     0.000 C 
BRANCH   2   3
ATOM      3  C   UNL     1      -4.125   3.087  14.441  1.00  0.00     0.000 C 
BRANCH   3   4
ATOM      4  C   UNL     1      -4.034   3.805  13.086  1.00  0.00     0.000 C 
BRANCH   4   5
ATOM      5  C   UNL     1      -4.610   5.232  13.128  1.00  0.00     0.000 C 
BRANCH   5   6
ATOM      6  C   UNL     1      -5.384   5.506  14.435  1.00  0.00     0.000 C 
BRANCH   6   7
ATOM      7  C   UNL     1      -6.911   5.547  14.248  1.00  0.00     0.006 C 
BRANCH   7   8
ATOM      8  C   UNL     1      -7.591   4.220  14.606  1.00  0.00     0.053 C 
BRANCH   8   9
ATOM      9  C   UNL     1      -7.594   4.019  16.088  1.00  0.00     0.041 C 
ATOM     10  O   UNL     1      -7.986   4.941  16.852  1.00  0.00    -0.550 OA
ATOM     11  O   UNL     1      -7.213   2.796  16.625  1.00  0.00    -0.550 OA
ENDBRANCH   8   9
ENDBRANCH   7   8
ENDBRANCH   6   7
ENDBRANCH   5   6
ENDBRANCH   4   5
ENDBRANCH   3   4
ENDBRANCH   2   3
ENDBRANCH   1   2
BRANCH   1  12
ATOM     12  C   UNL     1      -4.418   0.165  12.221  1.00  0.00     0.000 C 
BRANCH  12  13
ATOM     13  C   UNL     1      -2.920   0.421  11.996  1.00  0.00    -0.000 C 
BRANCH  13  14
ATOM     14  C   UNL     1      -2.678   1.117  10.653  1.00  0.00    -0.000 C 
BRANCH  14  15
ATOM     15  C   UNL     1      -3.738   0.712   9.622  1.00  0.00    -0.000 C 
BRANCH  15  16
ATOM     16  C   UNL     1      -3.290  -0.522   8.826  1.00  0.00    -0.000 C 
BRANCH  16  17
ATOM     17  C   UNL     1      -4.211  -1.738   9.034  1.00  0.00    -0.000 C 
BRANCH  17  18
ATOM     18  C   UNL     1      -3.503  -3.017   9.517  1.00  0.00    -0.000 C 
BRANCH  18  19
ATOM     19  C   UNL     1      -3.515  -3.166  11.045  1.00  0.00    -0.003 C 
ATOM     20  C   UNL     1      -4.318  -4.392  11.471  1.00  0.00     0.004 C 
ENDBRANCH  18  19
ENDBRANCH  17  18
ENDBRANCH  16  17
ENDBRANCH  15  16
ENDBRANCH  14  15
ENDBRANCH  13  14
ENDBRANCH  12  13
ENDBRANCH   1  12
TORSDOF 16
ENDMDL
MODEL 3
REMARK VINA RESULT:    -4.293      3.256      7.770
REMARK INTER + INTRA:         -10.763
REMARK INTER:                  -8.848
REMARK INTRA:                  -1.915
REMARK UNBOUND:                -2.454
REMARK SMILES CCCCCCCCCCCCCCCCCC(=O)[O-]
REMARK SMILES IDX 10 1 11 2 12 3 13 4 14 5 15 6 16 7 17 8 18 9 19 10 20 11
REMARK SMILES IDX 9 12 8 13 7 14 6 15 5 16 4 17 3 18 2 19 1 20
REMARK H PARENT
REMARK Flexibility Score: inf
ROOT
ATOM      1  C   UNL     1      -3.594   0.195   9.388  1.00  0.00     0.000 C 
ENDROOT
BRANCH   1   2
ATOM      2  C   UNL     1      -4.192  -1.220   9.360  1.00  0.00     0.000 C 
BRANCH   2   3
ATOM      3  C   UNL     1      -3.324  -2.166   8.518  1.00  0.00     0.000 C 
BRANCH   3   4
ATOM      4  C   UNL     1      -2.938  -3.448   9.274  1.00  0.00     0.000 C 
BRANCH   4   5
ATOM      5  C   UNL     1      -3.765  -3.655  10.556  1.00  0.00     0.000 C 
BRANCH   5   6
ATOM      6  C   UNL     1      -2.879  -3.683  11.820  1.00  0.00     0.000 C 
BRANCH   6   7
ATOM      7  C   UNL     1      -1.430  -3.229  11.565  1.00  0.00     0.006 C 
BRANCH   7   8
ATOM      8  C   UNL     1      -1.118  -1.860  12.179  1.00  0.00     0.053 C 
BRANCH   8   9
ATOM      9  C   UNL     1      -0.573  -0.934  11.138  1.00  0.00     0.041 C 
ATOM     10  O   UNL     1      -0.467   0.298  11.379  1.00  0.00    -0.550 OA
ATOM     11  O   UNL     1      -0.134  -1.437   9.920  1.00  0.00    -0.550 OA
ENDBRANCH   8   9
ENDBRANCH   7   8
ENDBRANCH   6   7
ENDBRANCH   5   6
ENDBRANCH   4   5
ENDBRANCH   3   4
ENDBRANCH   2   3
ENDBRANCH   1   2
BRANCH   1  12
ATOM     12  C   UNL     1      -3.973   0.974  10.657  1.00  0.00     0.000 C 
BRANCH  12  13
ATOM     13  C   UNL     1      -4.145   0.063  11.882  1.00  0.00    -0.000 C 
BRANCH  13  14
ATOM     14  C   UNL     1      -5.148   0.661  12.875  1.00  0.00    -0.000 C 
BRANCH  14  15
ATOM     15  C   UNL     1      -4.494   1.757  13.726  1.00  0.00    -0.000 C 
BRANCH  15  16
ATOM     16  C   UNL     1      -5.534   2.787  14.192  1.00  0.00    -0.000 C 
BRANCH  16  17
ATOM     17  C   UNL     1      -5.527   2.998  15.717  1.00  0.00    -0.000 C 
BRANCH  17  18
ATOM     18  C   UNL     1      -6.899   2.853  16.400  1.00  0.00    -0.000 C 
BRANCH  18  19
ATOM     19  C   UNL     1      -7.848   4.019  16.091  1.00  0.00    -0.003 C 
ATOM     20  C   UNL     1      -7.377   5.305  16.765  1.00  0.00     0.004 C 
ENDBRANCH  18  19
ENDBRANCH  17  18
ENDBRANCH  16  17
ENDBRANCH  15  16
ENDBRANCH  14  15
ENDBRANCH  13  14
ENDBRANCH  12  13
ENDBRANCH   1  12
TORSDOF 16
ENDMDL
MODEL 4
REMARK VINA RESULT:    -4.275      4.735      8.069
REMARK INTER + INTRA:         -10.727
REMARK INTER:                  -8.442
REMARK INTRA:                  -2.285
REMARK UNBOUND:                -2.454
REMARK SMILES CCCCCCCCCCCCCCCCCC(=O)[O-]
REMARK SMILES IDX 10 1 11 2 12 3 13 4 14 5 15 6 16 7 17 8 18 9 19 10 20 11
REMARK SMILES IDX 9 12 8 13 7 14 6 15 5 16 4 17 3 18 2 19 1 20
REMARK H PARENT
REMARK Flexibility Score: inf
ROOT
ATOM      1  C   UNL     1      -5.150   1.256  13.017  1.00  0.00     0.000 C 
ENDROOT
BRANCH   1   2
ATOM      2  C   UNL     1      -4.087   0.987  11.941  1.00  0.00     0.000 C 
BRANCH   2   3
ATOM      3  C   UNL     1      -4.442   1.699  10.628  1.00  0.00     0.000 C 
BRANCH   3   4
ATOM      4  C   UNL     1      -3.306   2.597  10.113  1.00  0.00     0.000 C 
BRANCH   4   5
ATOM      5  C   UNL     1      -3.776   4.028   9.795  1.00  0.00     0.000 C 
BRANCH   5   6
ATOM      6  C   UNL     1      -2.596   5.019   9.700  1.00  0.00     0.000 C 
BRANCH   6   7
ATOM      7  C   UNL     1      -2.912   6.273   8.867  1.00  0.00     0.006 C 
BRANCH   7   8
ATOM      8  C   UNL     1      -3.937   6.008   7.757  1.00  0.00     0.053 C 
BRANCH   8   9
ATOM      9  C   UNL     1      -3.505   6.661   6.483  1.00  0.00     0.041 C 
ATOM     10  O   UNL     1      -4.085   6.383   5.400  1.00  0.00    -0.550 OA
ATOM     11  O   UNL     1      -2.495   7.615   6.496  1.00  0.00    -0.550 OA
ENDBRANCH   8   9
ENDBRANCH   7   8
ENDBRANCH   6   7
ENDBRANCH   5   6
ENDBRANCH   4   5
ENDBRANCH   3   4
ENDBRANCH   2   3
ENDBRANCH   1   2
BRANCH   1  12
ATOM     12  C   UNL     1      -4.539   1.495  14.407  1.00  0.00     0.000 C 
BRANCH  12  13
ATOM     13  C   UNL     1      -3.190   2.227  14.343  1.00  0.00    -0.000 C 
BRANCH  13  14
ATOM     14  C   UNL     1      -3.339   3.693  14.766  1.00  0.00    -0.000 C 
BRANCH  14  15
ATOM     15  C   UNL     1      -3.396   4.616  13.543  1.00  0.00    -0.000 C 
BRANCH  15  16
ATOM     16  C   UNL     1      -4.846   4.993  13.204  1.00  0.00    -0.000 C 
BRANCH  16  17
ATOM     17  C   UNL     1      -5.693   5.301  14.452  1.00  0.00    -0.000 C 
BRANCH  17  18
ATOM     18  C   UNL     1      -6.977   4.464  14.590  1.00  0.00    -0.000 C 
BRANCH  18  19
ATOM     19  C   UNL     1      -7.413   4.271  16.050  1.00  0.00    -0.003 C 
ATOM     20  C   UNL     1      -7.001   2.897  16.570  1.00  0.00     0.004 C 
ENDBRANCH  18  19
ENDBRANCH  17  18
ENDBRANCH  16  17
ENDBRANCH  15  16
ENDBRANCH  14  15
ENDBRANCH  13  14
ENDBRANCH  12  13
ENDBRANCH   1  12
TORSDOF 16
ENDMDL
MODEL 5
REMARK VINA RESULT:    -4.209      2.768      4.036
REMARK INTER + INTRA:         -10.599
REMARK INTER:                  -8.308
REMARK INTRA:                  -2.291
REMARK UNBOUND:                -2.454
REMARK SMILES CCCCCCCCCCCCCCCCCC(=O)[O-]
REMARK SMILES IDX 10 1 11 2 12 3 13 4 14 5 15 6 16 7 17 8 18 9 19 10 20 11
REMARK SMILES IDX 9 12 8 13 7 14 6 15 5 16 4 17 3 18 2 19 1 20
REMARK H PARENT
REMARK Flexibility Score: inf
ROOT
ATOM      1  C   UNL     1      -3.165   1.492   9.853  1.00  0.00     0.000 C 
ENDROOT
BRANCH   1   2
ATOM      2  C   UNL     1      -4.250   1.662  10.926  1.00  0.00     0.000 C 
BRANCH   2   3
ATOM      3  C   UNL     1      -4.340   0.417  11.820  1.00  0.00     0.000 C 
BRANCH   3   4
ATOM      4  C   UNL     1      -5.261   0.622  13.034  1.00  0.00     0.000 C 
BRANCH   4   5
ATOM      5  C   UNL     1      -5.185   2.050  13.604  1.00  0.00     0.000 C 
BRANCH   5   6
ATOM      6  C   UNL     1      -4.705   2.064  15.071  1.00  0.00     0.000 C 
BRANCH   6   7
ATOM      7  C   UNL     1      -3.291   2.644  15.250  1.00  0.00     0.006 C 
BRANCH   7   8
ATOM      8  C   UNL     1      -2.207   1.562  15.320  1.00  0.00     0.053 C 
BRANCH   8   9
ATOM      9  C   UNL     1      -1.144   1.822  14.301  1.00  0.00     0.041 C 
ATOM     10  O   UNL     1      -1.303   1.445  13.109  1.00  0.00    -0.550 OA
ATOM     11  O   UNL     1       0.001   2.525  14.653  1.00  0.00    -0.550 OA
ENDBRANCH   8   9
ENDBRANCH   7   8
ENDBRANCH   6   7
ENDBRANCH   5   6
ENDBRANCH   4   5
ENDBRANCH   3   4
ENDBRANCH   2   3
ENDBRANCH   1   2
BRANCH   1  12
ATOM     12  C   UNL     1      -3.224   0.120   9.162  1.00  0.00     0.000 C 
BRANCH  12  13
ATOM     13  C   UNL     1      -1.894  -0.267   8.498  1.00  0.00    -0.000 C 
BRANCH  13  14
ATOM     14  C   UNL     1      -1.902  -1.739   8.070  1.00  0.00    -0.000 C 
BRANCH  14  15
ATOM     15  C   UNL     1      -3.234  -2.410   8.426  1.00  0.00    -0.000 C 
BRANCH  15  16
ATOM     16  C   UNL     1      -3.015  -3.855   8.897  1.00  0.00    -0.000 C 
BRANCH  16  17
ATOM     17  C   UNL     1      -3.794  -4.191  10.183  1.00  0.00    -0.000 C 
BRANCH  17  18
ATOM     18  C   UNL     1      -3.485  -3.283  11.386  1.00  0.00    -0.000 C 
BRANCH  18  19
ATOM     19  C   UNL     1      -2.006  -3.314  11.796  1.00  0.00    -0.003 C 
ATOM     20  C   UNL     1      -1.417  -1.907  11.837  1.00  0.00     0.004 C 
ENDBRANCH  18  19
ENDBRANCH  17  18
ENDBRANCH  16  17
ENDBRANCH  15  16
ENDBRANCH  14  15
ENDBRANCH  13  14
ENDBRANCH  12  13
ENDBRANCH   1  12
TORSDOF 16
ENDMDL
MODEL 6
REMARK VINA RESULT:    -4.193      1.505      3.300
REMARK INTER + INTRA:         -10.568
REMARK INTER:                  -8.901
REMARK INTRA:                  -1.667
REMARK UNBOUND:                -2.454
REMARK SMILES CCCCCCCCCCCCCCCCCC(=O)[O-]
REMARK SMILES IDX 10 1 11 2 12 3 13 4 14 5 15 6 16 7 17 8 18 9 19 10 20 11
REMARK SMILES IDX 9 12 8 13 7 14 6 15 5 16 4 17 3 18 2 19 1 20
REMARK H PARENT
REMARK Flexibility Score: inf
ROOT
ATOM      1  C   UNL     1      -3.202   3.906  10.834  1.00  0.00     0.000 C 
ENDROOT
BRANCH   1   2
ATOM      2  C   UNL     1      -3.888   3.741  12.198  1.00  0.00     0.000 C 
BRANCH   2   3
ATOM      3  C   UNL     1      -2.894   3.246  13.258  1.00  0.00     0.000 C 
BRANCH   3   4
ATOM      4  C   UNL     1      -3.454   2.093  14.106  1.00  0.00     0.000 C 
BRANCH   4   5
ATOM      5  C   UNL     1      -4.988   2.134  14.226  1.00  0.00     0.000 C 
BRANCH   5   6
ATOM      6  C   UNL     1      -5.449   2.499  15.654  1.00  0.00     0.000 C 
BRANCH   6   7
ATOM      7  C   UNL     1      -5.200   3.973  16.022  1.00  0.00     0.006 C 
BRANCH   7   8
ATOM      8  C   UNL     1      -6.153   4.935  15.305  1.00  0.00     0.053 C 
BRANCH   8   9
ATOM      9  C   UNL     1      -7.575   4.576  15.599  1.00  0.00     0.041 C 
ATOM     10  O   UNL     1      -8.045   4.744  16.755  1.00  0.00    -0.550 OA
ATOM     11  O   UNL     1      -8.397   4.102  14.584  1.00  0.00    -0.550 OA
ENDBRANCH   8   9
ENDBRANCH   7   8
ENDBRANCH   6   7
ENDBRANCH   5   6
ENDBRANCH   4   5
ENDBRANCH   3   4
ENDBRANCH   2   3
ENDBRANCH   1   2
BRANCH   1  12
ATOM     12  C   UNL     1      -3.202   2.610  10.008  1.00  0.00     0.000 C 
BRANCH  12  13
ATOM     13  C   UNL     1      -4.378   1.685  10.358  1.00  0.00    -0.000 C 
BRANCH  13  14
ATOM     14  C   UNL     1      -3.885   0.275  10.702  1.00  0.00    -0.000 C 
BRANCH  14  15
ATOM     15  C   UNL     1      -3.379  -0.452   9.451  1.00  0.00    -0.000 C 
BRANCH  15  16
ATOM     16  C   UNL     1      -4.327  -1.594   9.055  1.00  0.00    -0.000 C 
BRANCH  16  17
ATOM     17  C   UNL     1      -3.700  -2.987   9.244  1.00  0.00    -0.000 C 
BRANCH  17  18
ATOM     18  C   UNL     1      -3.097  -3.246  10.637  1.00  0.00    -0.000 C 
BRANCH  18  19
ATOM     19  C   UNL     1      -3.973  -4.156  11.509  1.00  0.00    -0.003 C 
ATOM     20  C   UNL     1      -4.911  -5.002  10.653  1.00  0.00     0.004 C 
ENDBRANCH  18  19
ENDBRANCH  17  18
ENDBRANCH  16  17
ENDBRANCH  15  16
ENDBRANCH  14  15
ENDBRANCH  13  14
ENDBRANCH  12  13
ENDBRANCH   1  12
TORSDOF 16
ENDMDL
MODEL 7
REMARK VINA RESULT:    -4.188      2.956      5.766
REMARK INTER + INTRA:         -10.559
REMARK INTER:                  -7.793
REMARK INTRA:                  -2.766
REMARK UNBOUND:                -2.454
REMARK SMILES CCCCCCCCCCCCCCCCCC(=O)[O-]
REMARK SMILES IDX 10 1 11 2 12 3 13 4 14 5 15 6 16 7 17 8 18 9 19 10 20 11
REMARK SMILES IDX 9 12 8 13 7 14 6 15 5 16 4 17 3 18 2 19 1 20
REMARK H PARENT
REMARK Flexibility Score: inf
ROOT
ATOM      1  C   UNL     1      -3.613   3.401  10.196  1.00  0.00     0.000 C 
ENDROOT
BRANCH   1   2
ATOM      2  C   UNL     1      -4.419   2.113  10.422  1.00  0.00     0.000 C 
BRANCH   2   3
ATOM      3  C   UNL     1      -3.595   1.080  11.205  1.00  0.00     0.000 C 
BRANCH   3   4
ATOM      4  C   UNL     1      -4.399   0.410  12.331  1.00  0.00     0.000 C 
BRANCH   4   5
ATOM      5  C   UNL     1      -5.265   1.409  13.120  1.00  0.00     0.000 C 
BRANCH   5   6
ATOM      6  C   UNL     1      -4.752   1.609  14.562  1.00  0.00     0.000 C 
BRANCH   6   7
ATOM      7  C   UNL     1      -5.599   2.596  15.385  1.00  0.00     0.006 C 
BRANCH   7   8
ATOM      8  C   UNL     1      -6.289   3.655  14.517  1.00  0.00     0.053 C 
BRANCH   8   9
ATOM      9  C   UNL     1      -7.616   4.024  15.101  1.00  0.00     0.041 C 
ATOM     10  O   UNL     1      -8.621   4.157  14.355  1.00  0.00    -0.550 OA
ATOM     11  O   UNL     1      -7.755   4.170  16.476  1.00  0.00    -0.550 OA
ENDBRANCH   8   9
ENDBRANCH   7   8
ENDBRANCH   6   7
ENDBRANCH   5   6
ENDBRANCH   4   5
ENDBRANCH   3   4
ENDBRANCH   2   3
ENDBRANCH   1   2
BRANCH   1  12
ATOM     12  C   UNL     1      -3.720   4.381  11.374  1.00  0.00     0.000 C 
BRANCH  12  13
ATOM     13  C   UNL     1      -2.421   4.470  12.191  1.00  0.00    -0.000 C 
BRANCH  13  14
ATOM     14  C   UNL     1      -2.722   4.609  13.687  1.00  0.00    -0.000 C 
BRANCH  14  15
ATOM     15  C   UNL     1      -1.788   3.723  14.522  1.00  0.00    -0.000 C 
BRANCH  15  16
ATOM     16  C   UNL     1      -1.227   2.568  13.680  1.00  0.00    -0.000 C 
BRANCH  16  17
ATOM     17  C   UNL     1      -1.026   1.276  14.493  1.00  0.00    -0.000 C 
BRANCH  17  18
ATOM     18  C   UNL     1      -1.388   1.383  15.985  1.00  0.00    -0.000 C 
BRANCH  18  19
ATOM     19  C   UNL     1      -0.245   0.945  16.912  1.00  0.00    -0.003 C 
ATOM     20  C   UNL     1      -0.169   1.833  18.150  1.00  0.00     0.004 C 
ENDBRANCH  18  19
ENDBRANCH  17  18
ENDBRANCH  16  17
ENDBRANCH  15  16
ENDBRANCH  14  15
ENDBRANCH  13  14
ENDBRANCH  12  13
ENDBRANCH   1  12
TORSDOF 16
ENDMDL
MODEL 8
REMARK VINA RESULT:    -4.156      1.253      2.608
REMARK INTER + INTRA:         -10.496
REMARK INTER:                  -8.519
REMARK INTRA:                  -1.978
REMARK UNBOUND:                -2.454
REMARK SMILES CCCCCCCCCCCCCCCCCC(=O)[O-]
REMARK SMILES IDX 10 1 11 2 12 3 13 4 14 5 15 6 16 7 17 8 18 9 19 10 20 11
REMARK SMILES IDX 9 12 8 13 7 14 6 15 5 16 4 17 3 18 2 19 1 20
REMARK H PARENT
REMARK Flexibility Score: inf
ROOT
ATOM      1  C   UNL     1      -2.768   0.193   9.265  1.00  0.00     0.000 C 
ENDROOT
BRANCH   1   2
ATOM      2  C   UNL     1      -3.986   0.085  10.194  1.00  0.00     0.000 C 
BRANCH   2   3
ATOM      3  C   UNL     1      -4.147   1.356  11.040  1.00  0.00     0.000 C 
BRANCH   3   4
ATOM      4  C   UNL     1      -4.636   1.063  12.467  1.00  0.00     0.000 C 
BRANCH   4   5
ATOM      5  C   UNL     1      -3.562   1.342  13.534  1.00  0.00     0.000 C 
BRANCH   5   6
ATOM      6  C   UNL     1      -4.178   1.819  14.866  1.00  0.00     0.000 C 
BRANCH   6   7
ATOM      7  C   UNL     1      -5.534   2.528  14.698  1.00  0.00     0.006 C 
BRANCH   7   8
ATOM      8  C   UNL     1      -6.288   2.694  16.022  1.00  0.00     0.053 C 
BRANCH   8   9
ATOM      9  C   UNL     1      -6.397   4.142  16.382  1.00  0.00     0.041 C 
ATOM     10  O   UNL     1      -5.375   4.879  16.355  1.00  0.00    -0.550 OA
ATOM     11  O   UNL     1      -7.633   4.690  16.698  1.00  0.00    -0.550 OA
ENDBRANCH   8   9
ENDBRANCH   7   8
ENDBRANCH   6   7
ENDBRANCH   5   6
ENDBRANCH   4   5
ENDBRANCH   3   4
ENDBRANCH   2   3
ENDBRANCH   1   2
BRANCH   1  12
ATOM     12  C   UNL     1      -2.508  -1.099   8.475  1.00  0.00     0.000 C 
BRANCH  12  13
ATOM     13  C   UNL     1      -3.619  -2.143   8.664  1.00  0.00    -0.000 C 
BRANCH  13  14
ATOM     14  C   UNL     1      -3.029  -3.546   8.849  1.00  0.00    -0.000 C 
BRANCH  14  15
ATOM     15  C   UNL     1      -3.690  -4.272  10.028  1.00  0.00    -0.000 C 
BRANCH  15  16
ATOM     16  C   UNL     1      -3.609  -3.428  11.309  1.00  0.00    -0.000 C 
BRANCH  16  17
ATOM     17  C   UNL     1      -2.232  -3.507  11.993  1.00  0.00    -0.000 C 
BRANCH  17  18
ATOM     18  C   UNL     1      -1.393  -2.219  11.916  1.00  0.00    -0.000 C 
BRANCH  18  19
ATOM     19  C   UNL     1      -0.163  -2.359  11.007  1.00  0.00    -0.003 C 
ATOM     20  C   UNL     1       0.546  -3.690  11.243  1.00  0.00     0.004 C 
ENDBRANCH  18  19
ENDBRANCH  17  18
ENDBRANCH  16  17
ENDBRANCH  15  16
ENDBRANCH  14  15
ENDBRANCH  13  14
ENDBRANCH  12  13
ENDBRANCH   1  12
TORSDOF 16
ENDMDL
MODEL 9
REMARK VINA RESULT:    -4.156      1.371      2.529
REMARK INTER + INTRA:         -10.496
REMARK INTER:                  -8.129
REMARK INTRA:                  -2.367
REMARK UNBOUND:                -2.454
REMARK SMILES CCCCCCCCCCCCCCCCCC(=O)[O-]
REMARK SMILES IDX 10 1 11 2 12 3 13 4 14 5 15 6 16 7 17 8 18 9 19 10 20 11
REMARK SMILES IDX 9 12 8 13 7 14 6 15 5 16 4 17 3 18 2 19 1 20
REMARK H PARENT
REMARK Flexibility Score: inf
ROOT
ATOM      1  C   UNL     1      -0.771  -1.955  11.770  1.00  0.00     0.000 C 
ENDROOT
BRANCH   1   2
ATOM      2  C   UNL     1      -1.537  -0.757  12.350  1.00  0.00     0.000 C 
BRANCH   2   3
ATOM      3  C   UNL     1      -0.713   0.533  12.228  1.00  0.00     0.000 C 
BRANCH   3   4
ATOM      4  C   UNL     1      -1.134   1.606  13.246  1.00  0.00     0.000 C 
BRANCH   4   5
ATOM      5  C   UNL     1      -2.099   1.064  14.315  1.00  0.00     0.000 C 
BRANCH   5   6
ATOM      6  C   UNL     1      -3.081   2.147  14.813  1.00  0.00     0.000 C 
BRANCH   6   7
ATOM      7  C   UNL     1      -4.556   1.714  14.751  1.00  0.00     0.006 C 
BRANCH   7   8
ATOM      8  C   UNL     1      -5.465   2.780  14.128  1.00  0.00     0.053 C 
BRANCH   8   9
ATOM      9  C   UNL     1      -6.530   3.187  15.096  1.00  0.00     0.041 C 
ATOM     10  O   UNL     1      -6.441   2.861  16.310  1.00  0.00    -0.550 OA
ATOM     11  O   UNL     1      -7.596   3.970  14.670  1.00  0.00    -0.550 OA
ENDBRANCH   8   9
ENDBRANCH   7   8
ENDBRANCH   6   7
ENDBRANCH   5   6
ENDBRANCH   4   5
ENDBRANCH   3   4
ENDBRANCH   2   3
ENDBRANCH   1   2
BRANCH   1  12
ATOM     12  C   UNL     1      -1.556  -3.272  11.884  1.00  0.00     0.000 C 
BRANCH  12  13
ATOM     13  C   UNL     1      -3.034  -3.117  11.496  1.00  0.00    -0.000 C 
BRANCH  13  14
ATOM     14  C   UNL     1      -3.398  -4.053  10.338  1.00  0.00    -0.000 C 
BRANCH  14  15
ATOM     15  C   UNL     1      -3.608  -3.267   9.038  1.00  0.00    -0.000 C 
BRANCH  15  16
ATOM     16  C   UNL     1      -3.917  -1.792   9.331  1.00  0.00    -0.000 C 
BRANCH  16  17
ATOM     17  C   UNL     1      -2.982  -0.823   8.582  1.00  0.00    -0.000 C 
BRANCH  17  18
ATOM     18  C   UNL     1      -2.838   0.568   9.224  1.00  0.00    -0.000 C 
BRANCH  18  19
ATOM     19  C   UNL     1      -3.965   0.889  10.217  1.00  0.00    -0.003 C 
ATOM     20  C   UNL     1      -3.911   2.349  10.657  1.00  0.00     0.004 C 
ENDBRANCH  18  19
ENDBRANCH  17  18
ENDBRANCH  16  17
ENDBRANCH  15  16
ENDBRANCH  14  15
ENDBRANCH  13  14
ENDBRANCH  12  13
ENDBRANCH   1  12
TORSDOF 16
ENDMDL
