MODEL 1
REMARK VINA RESULT:    -4.957      0.000      0.000
REMARK INTER + INTRA:          -4.957
REMARK INTER:                  -4.957
REMARK INTRA:                   0.000
REMARK UNBOUND:                 0.000
REMARK SMILES CC1=CC(=O)[C@@H]2C[C@H]1C2(C)C
REMARK SMILES IDX 1 1 2 2 3 3 4 4 5 5 6 6 7 7 8 8 9 9 10 10 11 11
REMARK H PARENT
REMARK Flexibility Score: inf
ROOT
ATOM      1  C   UNL     1      45.719   3.018  19.001  1.00  0.00     0.040 C 
ATOM      2  C   UNL     1      46.859   2.693  18.086  1.00  0.00    -0.066 C 
ATOM      3  C   UNL     1      46.881   3.088  16.782  1.00  0.00     0.047 C 
ATOM      4  C   UNL     1      48.089   2.689  15.990  1.00  0.00     0.159 C 
ATOM      5  O   UNL     1      48.248   3.031  14.788  1.00  0.00    -0.295 OA
ATOM      6  C   UNL     1      49.114   1.840  16.742  1.00  0.00     0.067 C 
ATOM      7  C   UNL     1      48.262   0.778  17.470  1.00  0.00     0.021 C 
ATOM      8  C   UNL     1      48.045   1.836  18.575  1.00  0.00     0.022 C 
ATOM      9  C   UNL     1      49.381   2.497  18.127  1.00  0.00    -0.019 C 
ATOM     10  C   UNL     1      49.494   4.047  18.201  1.00  0.00     0.012 C 
ATOM     11  C   UNL     1      50.611   1.885  18.843  1.00  0.00     0.012 C 
ENDROOT
TORSDOF 0
ENDMDL
MODEL 2
REMARK VINA RESULT:    -4.914      1.892      3.256
REMARK INTER + INTRA:          -4.914
REMARK INTER:                  -4.914
REMARK INTRA:                   0.000
REMARK UNBOUND:                 0.000
REMARK SMILES CC1=CC(=O)[C@@H]2C[C@H]1C2(C)C
REMARK SMILES IDX 1 1 2 2 3 3 4 4 5 5 6 6 7 7 8 8 9 9 10 10 11 11
REMARK H PARENT
REMARK Flexibility Score: inf
ROOT
ATOM      1  C   UNL     1      49.087   3.339  14.904  1.00  0.00     0.040 C 
ATOM      2  C   UNL     1      49.124   2.709  16.261  1.00  0.00    -0.066 C 
ATOM      3  C   UNL     1      50.291   2.501  16.935  1.00  0.00     0.047 C 
ATOM      4  C   UNL     1      50.170   1.860  18.284  1.00  0.00     0.159 C 
ATOM      5  O   UNL     1      51.170   1.655  19.022  1.00  0.00    -0.295 OA
ATOM      6  C   UNL     1      48.751   1.475  18.702  1.00  0.00     0.067 C 
ATOM      7  C   UNL     1      48.162   0.791  17.449  1.00  0.00     0.021 C 
ATOM      8  C   UNL     1      47.830   2.211  16.937  1.00  0.00     0.022 C 
ATOM      9  C   UNL     1      47.808   2.680  18.421  1.00  0.00    -0.019 C 
ATOM     10  C   UNL     1      48.321   4.112  18.746  1.00  0.00     0.012 C 
ATOM     11  C   UNL     1      46.414   2.503  19.074  1.00  0.00     0.012 C 
ENDROOT
TORSDOF 0
ENDMDL
MODEL 3
REMARK VINA RESULT:    -4.707      1.842      3.206
REMARK INTER + INTRA:          -4.707
REMARK INTER:                  -4.707
REMARK INTRA:                   0.000
REMARK UNBOUND:                 0.000
REMARK SMILES CC1=CC(=O)[C@@H]2C[C@H]1C2(C)C
REMARK SMILES IDX 1 1 2 2 3 3 4 4 5 5 6 6 7 7 8 8 9 9 10 10 11 11
REMARK H PARENT
REMARK Flexibility Score: inf
ROOT
ATOM      1  C   UNL     1      50.817   3.760  19.693  1.00  0.00     0.040 C 
ATOM      2  C   UNL     1      49.415   3.442  19.276  1.00  0.00    -0.066 C 
ATOM      3  C   UNL     1      48.431   4.384  19.254  1.00  0.00     0.047 C 
ATOM      4  C   UNL     1      47.077   3.916  18.814  1.00  0.00     0.159 C 
ATOM      5  O   UNL     1      46.096   4.699  18.711  1.00  0.00    -0.295 OA
ATOM      6  C   UNL     1      46.970   2.424  18.500  1.00  0.00     0.067 C 
ATOM      7  C   UNL     1      47.697   1.737  19.677  1.00  0.00     0.021 C 
ATOM      8  C   UNL     1      49.010   2.000  18.904  1.00  0.00     0.022 C 
ATOM      9  C   UNL     1      48.169   2.022  17.594  1.00  0.00    -0.019 C 
ATOM     10  C   UNL     1      48.600   2.996  16.461  1.00  0.00     0.012 C 
ATOM     11  C   UNL     1      47.998   0.608  16.982  1.00  0.00     0.012 C 
ENDROOT
TORSDOF 0
ENDMDL
MODEL 4
REMARK VINA RESULT:    -4.194      1.930      2.917
REMARK INTER + INTRA:          -4.194
REMARK INTER:                  -4.194
REMARK INTRA:                   0.000
REMARK UNBOUND:                 0.000
REMARK SMILES CC1=CC(=O)[C@@H]2C[C@H]1C2(C)C
REMARK SMILES IDX 1 1 2 2 3 3 4 4 5 5 6 6 7 7 8 8 9 9 10 10 11 11
REMARK H PARENT
REMARK Flexibility Score: inf
ROOT
ATOM      1  C   UNL     1      48.508   0.968  18.622  1.00  0.00     0.040 C 
ATOM      2  C   UNL     1      49.459   2.060  18.241  1.00  0.00    -0.066 C 
ATOM      3  C   UNL     1      49.385   2.704  17.043  1.00  0.00     0.047 C 
ATOM      4  C   UNL     1      50.404   3.776  16.803  1.00  0.00     0.159 C 
ATOM      5  O   UNL     1      50.415   4.472  15.754  1.00  0.00    -0.295 OA
ATOM      6  C   UNL     1      51.430   3.965  17.922  1.00  0.00     0.067 C 
ATOM      7  C   UNL     1      51.866   2.528  18.281  1.00  0.00     0.021 C 
ATOM      8  C   UNL     1      50.612   2.467  19.182  1.00  0.00     0.022 C 
ATOM      9  C   UNL     1      50.675   4.019  19.281  1.00  0.00    -0.019 C 
ATOM     10  C   UNL     1      49.335   4.805  19.353  1.00  0.00     0.012 C 
ATOM     11  C   UNL     1      51.583   4.498  20.442  1.00  0.00     0.012 C 
ENDROOT
TORSDOF 0
ENDMDL
MODEL 5
REMARK VINA RESULT:    -4.131      4.946      5.912
REMARK INTER + INTRA:          -4.131
REMARK INTER:                  -4.131
REMARK INTRA:                   0.000
REMARK UNBOUND:                 0.000
REMARK SMILES CC1=CC(=O)[C@@H]2C[C@H]1C2(C)C
REMARK SMILES IDX 1 1 2 2 3 3 4 4 5 5 6 6 7 7 8 8 9 9 10 10 11 11
REMARK H PARENT
REMARK Flexibility Score: inf
ROOT
ATOM      1  C   UNL     1      49.304   3.242  14.498  1.00  0.00     0.040 C 
ATOM      2  C   UNL     1      50.509   4.020  14.070  1.00  0.00    -0.066 C 
ATOM      3  C   UNL     1      50.618   5.363  14.271  1.00  0.00     0.047 C 
ATOM      4  C   UNL     1      51.884   6.004  13.789  1.00  0.00     0.159 C 
ATOM      5  O   UNL     1      52.121   7.230  13.954  1.00  0.00    -0.295 OA
ATOM      6  C   UNL     1      52.864   5.067  13.083  1.00  0.00     0.067 C 
ATOM      7  C   UNL     1      51.978   4.250  12.119  1.00  0.00     0.021 C 
ATOM      8  C   UNL     1      51.669   3.330  13.322  1.00  0.00     0.022 C 
ATOM      9  C   UNL     1      53.024   3.780  13.942  1.00  0.00    -0.019 C 
ATOM     10  C   UNL     1      53.111   3.928  15.488  1.00  0.00     0.012 C 
ATOM     11  C   UNL     1      54.209   2.900  13.470  1.00  0.00     0.012 C 
ENDROOT
TORSDOF 0
ENDMDL
MODEL 6
REMARK VINA RESULT:    -4.002      4.283      5.637
REMARK INTER + INTRA:          -4.002
REMARK INTER:                  -4.002
REMARK INTRA:                   0.000
REMARK UNBOUND:                 0.000
REMARK SMILES CC1=CC(=O)[C@@H]2C[C@H]1C2(C)C
REMARK SMILES IDX 1 1 2 2 3 3 4 4 5 5 6 6 7 7 8 8 9 9 10 10 11 11
REMARK H PARENT
REMARK Flexibility Score: inf
ROOT
ATOM      1  C   UNL     1      48.892   2.744  14.902  1.00  0.00     0.040 C 
ATOM      2  C   UNL     1      50.103   3.624  14.911  1.00  0.00    -0.066 C 
ATOM      3  C   UNL     1      51.003   3.613  15.935  1.00  0.00     0.047 C 
ATOM      4  C   UNL     1      52.166   4.549  15.805  1.00  0.00     0.159 C 
ATOM      5  O   UNL     1      53.086   4.601  16.663  1.00  0.00    -0.295 OA
ATOM      6  C   UNL     1      52.156   5.434  14.558  1.00  0.00     0.067 C 
ATOM      7  C   UNL     1      50.707   5.962  14.481  1.00  0.00     0.021 C 
ATOM      8  C   UNL     1      50.355   4.634  13.773  1.00  0.00     0.022 C 
ATOM      9  C   UNL     1      51.842   4.545  13.321  1.00  0.00    -0.019 C 
ATOM     10  C   UNL     1      52.500   3.138  13.235  1.00  0.00     0.012 C 
ATOM     11  C   UNL     1      52.097   5.283  11.983  1.00  0.00     0.012 C 
ENDROOT
TORSDOF 0
ENDMDL
MODEL 7
REMARK VINA RESULT:    -4.001     10.782     12.182
REMARK INTER + INTRA:          -4.001
REMARK INTER:                  -4.001
REMARK INTRA:                   0.000
REMARK UNBOUND:                 0.000
REMARK SMILES CC1=CC(=O)[C@@H]2C[C@H]1C2(C)C
REMARK SMILES IDX 1 1 2 2 3 3 4 4 5 5 6 6 7 7 8 8 9 9 10 10 11 11
REMARK H PARENT
REMARK Flexibility Score: inf
ROOT
ATOM      1  C   UNL     1      42.737  12.081  22.378  1.00  0.00     0.040 C 
ATOM      2  C   UNL     1      41.744  11.502  21.420  1.00  0.00    -0.066 C 
ATOM      3  C   UNL     1      42.124  10.810  20.308  1.00  0.00     0.047 C 
ATOM      4  C   UNL     1      41.017  10.289  19.443  1.00  0.00     0.159 C 
ATOM      5  O   UNL     1      41.237   9.599  18.413  1.00  0.00    -0.295 OA
ATOM      6  C   UNL     1      39.603  10.654  19.898  1.00  0.00     0.067 C 
ATOM      7  C   UNL     1      39.694  12.156  20.243  1.00  0.00     0.021 C 
ATOM      8  C   UNL     1      40.230  11.716  21.624  1.00  0.00     0.022 C 
ATOM      9  C   UNL     1      39.484  10.365  21.422  1.00  0.00    -0.019 C 
ATOM     10  C   UNL     1      40.141   9.073  21.984  1.00  0.00     0.012 C 
ATOM     11  C   UNL     1      38.018  10.422  21.921  1.00  0.00     0.012 C 
ENDROOT
TORSDOF 0
ENDMDL
MODEL 8
REMARK VINA RESULT:    -3.962      2.465      3.794
REMARK INTER + INTRA:          -3.962
REMARK INTER:                  -3.962
REMARK INTRA:                   0.000
REMARK UNBOUND:                 0.000
REMARK SMILES CC1=CC(=O)[C@@H]2C[C@H]1C2(C)C
REMARK SMILES IDX 1 1 2 2 3 3 4 4 5 5 6 6 7 7 8 8 9 9 10 10 11 11
REMARK H PARENT
REMARK Flexibility Score: inf
ROOT
ATOM      1  C   UNL     1      47.644   2.482  18.833  1.00  0.00     0.040 C 
ATOM      2  C   UNL     1      49.104   2.814  18.854  1.00  0.00    -0.066 C 
ATOM      3  C   UNL     1      50.069   1.853  18.815  1.00  0.00     0.047 C 
ATOM      4  C   UNL     1      51.487   2.337  18.842  1.00  0.00     0.159 C 
ATOM      5  O   UNL     1      52.467   1.551  18.768  1.00  0.00    -0.295 OA
ATOM      6  C   UNL     1      51.659   3.851  18.965  1.00  0.00     0.067 C 
ATOM      7  C   UNL     1      50.667   4.255  20.077  1.00  0.00     0.021 C 
ATOM      8  C   UNL     1      49.580   4.276  18.979  1.00  0.00     0.022 C 
ATOM      9  C   UNL     1      50.711   4.542  17.943  1.00  0.00    -0.019 C 
ATOM     10  C   UNL     1      50.570   3.917  16.526  1.00  0.00     0.012 C 
ATOM     11  C   UNL     1      51.018   6.052  17.781  1.00  0.00     0.012 C 
ENDROOT
TORSDOF 0
ENDMDL
MODEL 9
REMARK VINA RESULT:    -3.854      5.510      6.901
REMARK INTER + INTRA:          -3.854
REMARK INTER:                  -3.854
REMARK INTRA:                   0.000
REMARK UNBOUND:                 0.000
REMARK SMILES CC1=CC(=O)[C@@H]2C[C@H]1C2(C)C
REMARK SMILES IDX 1 1 2 2 3 3 4 4 5 5 6 6 7 7 8 8 9 9 10 10 11 11
REMARK H PARENT
REMARK Flexibility Score: inf
ROOT
ATOM      1  C   UNL     1      52.380   5.968  10.770  1.00  0.00     0.040 C 
ATOM      2  C   UNL     1      52.528   5.310  12.107  1.00  0.00    -0.066 C 
ATOM      3  C   UNL     1      53.516   5.652  12.980  1.00  0.00     0.047 C 
ATOM      4  C   UNL     1      53.538   4.906  14.280  1.00  0.00     0.159 C 
ATOM      5  O   UNL     1      54.374   5.160  15.187  1.00  0.00    -0.295 OA
ATOM      6  C   UNL     1      52.474   3.818  14.428  1.00  0.00     0.067 C 
ATOM      7  C   UNL     1      52.520   3.060  13.084  1.00  0.00     0.021 C 
ATOM      8  C   UNL     1      51.588   4.162  12.531  1.00  0.00     0.022 C 
ATOM      9  C   UNL     1      51.102   4.404  13.989  1.00  0.00    -0.019 C 
ATOM     10  C   UNL     1      50.749   5.858  14.414  1.00  0.00     0.012 C 
ATOM     11  C   UNL     1      49.916   3.484  14.375  1.00  0.00     0.012 C 
ENDROOT
TORSDOF 0
ENDMDL
