MODEL 1
REMARK VINA RESULT:    -3.940      0.000      0.000
REMARK INTER + INTRA:          -6.163
REMARK INTER:                  -6.013
REMARK INTRA:                  -0.150
REMARK UNBOUND:                -0.150
REMARK SMILES CC1=CCC[C@H](C)C(=O)C[C@H](C(C)C)C(=O)C1
REMARK SMILES IDX 8 1 9 2 6 3 7 4 5 5 4 6 3 7 2 8 1 9 10 11 11 12 15 13 16 14
REMARK SMILES IDX 17 15 12 17 13 18 14 19
REMARK H PARENT
REMARK Flexibility Score: 70.00
ROOT
ATOM      1  C   UNL     1      21.124  25.873  29.235  1.00  0.00     0.136 C 
ATOM      2  O   UNL     1      21.381  24.863  29.874  1.00  0.00    -0.299 OA
ENDROOT
BRANCH   1   3
ATOM      3  C   UNL     1      20.301  25.743  27.964  1.00  0.00     0.053 C 
ATOM      4  C   UNL     1      20.793  24.530  27.165  1.00  0.00     0.016 C 
BRANCH   3   5
ATOM      5  C   UNL     1      18.777  25.637  28.229  1.00  0.00     0.015 C 
BRANCH   5   6
ATOM      6  C   UNL     1      17.939  26.881  27.858  1.00  0.00     0.028 C 
BRANCH   6   7
ATOM      7  C   UNL     1      17.599  27.828  28.985  1.00  0.00    -0.028 C 
ATOM      8  C   UNL     1      18.214  29.005  29.247  1.00  0.00    -0.070 CG0
ATOM      9  C   UNL     1      17.868  29.690  30.546  1.00  0.00     0.039 C 
ATOM     10  G   UNL     1      19.271  29.614  28.340  1.00  0.00     0.000 G0
ENDBRANCH   6   7
ENDBRANCH   5   6
ENDBRANCH   3   5
ENDBRANCH   1   3
BRANCH   1  11
ATOM     11  C   UNL     1      21.501  27.225  29.806  1.00  0.00     0.087 C 
BRANCH  11  12
ATOM     12  C   UNL     1      21.609  28.359  28.749  1.00  0.00     0.066 C 
BRANCH  12  13
ATOM     13  C   UNL     1      20.658  29.541  28.944  1.00  0.00     0.140 C 
ATOM     14  O   UNL     1      21.045  30.470  29.636  1.00  0.00    -0.299 OA
BRANCH  13  15
ATOM     15  C   UNL     1      19.271  29.642  28.343  1.00  0.00     0.106 CG0
ATOM     16  G   UNL     1      18.225  29.014  29.249  1.00  0.00     0.000 G0
ENDBRANCH  13  15
ENDBRANCH  12  13
BRANCH  12  17
ATOM     17  C   UNL     1      23.071  28.884  28.579  1.00  0.00    -0.006 C 
ATOM     18  C   UNL     1      23.919  27.988  27.663  1.00  0.00     0.008 C 
ATOM     19  C   UNL     1      23.793  29.112  29.918  1.00  0.00     0.008 C 
ENDBRANCH  12  17
ENDBRANCH  11  12
ENDBRANCH   1  11
TORSDOF 1
ENDMDL
MODEL 2
REMARK VINA RESULT:    -3.604      2.245      4.664
REMARK INTER + INTRA:          -5.651
REMARK INTER:                  -5.345
REMARK INTRA:                  -0.306
REMARK UNBOUND:                -0.150
REMARK SMILES CC1=CCC[C@H](C)C(=O)C[C@H](C(C)C)C(=O)C1
REMARK SMILES IDX 8 1 9 2 6 3 7 4 5 5 4 6 3 7 2 8 1 9 10 11 11 12 15 13 16 14
REMARK SMILES IDX 17 15 12 17 13 18 14 19
REMARK H PARENT
REMARK Flexibility Score: 70.00
ROOT
ATOM      1  C   UNL     1      19.270  26.203  27.985  1.00  0.00     0.136 C 
ATOM      2  O   UNL     1      19.668  25.354  27.201  1.00  0.00    -0.299 OA
ENDROOT
BRANCH   1   3
ATOM      3  C   UNL     1      20.232  26.736  29.034  1.00  0.00     0.053 C 
ATOM      4  C   UNL     1      21.290  25.668  29.338  1.00  0.00     0.016 C 
BRANCH   3   5
ATOM      5  C   UNL     1      20.907  28.070  28.626  1.00  0.00     0.015 C 
BRANCH   5   6
ATOM      6  C   UNL     1      20.321  29.348  29.268  1.00  0.00     0.028 C 
BRANCH   6   7
ATOM      7  C   UNL     1      19.636  29.181  30.603  1.00  0.00    -0.028 C 
ATOM      8  C   UNL     1      18.300  29.202  30.820  1.00  0.00    -0.070 CG0
ATOM      9  C   UNL     1      17.834  29.236  32.256  1.00  0.00     0.039 C 
ATOM     10  G   UNL     1      17.274  29.264  29.700  1.00  0.00     0.000 G0
ENDBRANCH   6   7
ENDBRANCH   5   6
ENDBRANCH   3   5
ENDBRANCH   1   3
BRANCH   1  11
ATOM     11  C   UNL     1      17.892  26.802  27.789  1.00  0.00     0.087 C 
BRANCH  11  12
ATOM     12  C   UNL     1      16.958  26.678  29.025  1.00  0.00     0.066 C 
BRANCH  12  13
ATOM     13  C   UNL     1      16.458  27.998  29.613  1.00  0.00     0.140 C 
ATOM     14  O   UNL     1      15.313  28.031  30.037  1.00  0.00    -0.299 OA
BRANCH  13  15
ATOM     15  C   UNL     1      17.278  29.269  29.707  1.00  0.00     0.106 CG0
ATOM     16  G   UNL     1      18.297  29.190  30.832  1.00  0.00     0.000 G0
ENDBRANCH  13  15
ENDBRANCH  12  13
BRANCH  12  17
ATOM     17  C   UNL     1      15.747  25.724  28.770  1.00  0.00    -0.006 C 
ATOM     18  C   UNL     1      15.722  24.528  29.735  1.00  0.00     0.008 C 
ATOM     19  C   UNL     1      15.656  25.237  27.314  1.00  0.00     0.008 C 
ENDBRANCH  12  17
ENDBRANCH  11  12
ENDBRANCH   1  11
TORSDOF 1
ENDMDL
MODEL 3
REMARK VINA RESULT:    -3.594      2.701      5.917
REMARK INTER + INTRA:          -5.634
REMARK INTER:                  -5.218
REMARK INTRA:                  -0.416
REMARK UNBOUND:                -0.150
REMARK SMILES CC1=CCC[C@H](C)C(=O)C[C@H](C(C)C)C(=O)C1
REMARK SMILES IDX 8 1 9 2 6 3 7 4 5 5 4 6 3 7 2 8 1 9 10 11 11 12 15 13 16 14
REMARK SMILES IDX 17 15 12 17 13 18 14 19
REMARK H PARENT
REMARK Flexibility Score: 70.00
ROOT
ATOM      1  C   UNL     1      19.540  32.080  31.264  1.00  0.00     0.136 C 
ATOM      2  O   UNL     1      20.172  32.446  32.245  1.00  0.00    -0.299 OA
ENDROOT
BRANCH   1   3
ATOM      3  C   UNL     1      20.174  32.228  29.891  1.00  0.00     0.053 C 
ATOM      4  C   UNL     1      20.780  33.631  29.762  1.00  0.00     0.016 C 
BRANCH   3   5
ATOM      5  C   UNL     1      21.241  31.145  29.588  1.00  0.00     0.015 C 
BRANCH   5   6
ATOM      6  C   UNL     1      20.880  29.704  30.014  1.00  0.00     0.028 C 
BRANCH   6   7
ATOM      7  C   UNL     1      20.272  28.818  28.953  1.00  0.00    -0.028 C 
ATOM      8  C   UNL     1      19.063  28.212  29.021  1.00  0.00    -0.070 CG0
ATOM      9  C   UNL     1      18.739  27.196  27.952  1.00  0.00     0.039 C 
ATOM     10  G   UNL     1      18.069  28.456  30.145  1.00  0.00     0.000 G0
ENDBRANCH   6   7
ENDBRANCH   5   6
ENDBRANCH   3   5
ENDBRANCH   1   3
BRANCH   1  11
ATOM     11  C   UNL     1      18.222  31.359  31.462  1.00  0.00     0.087 C 
BRANCH  11  12
ATOM     12  C   UNL     1      17.449  31.068  30.145  1.00  0.00     0.066 C 
BRANCH  12  13
ATOM     13  C   UNL     1      17.120  29.598  29.881  1.00  0.00     0.140 C 
ATOM     14  O   UNL     1      16.027  29.339  29.401  1.00  0.00    -0.299 OA
BRANCH  13  15
ATOM     15  C   UNL     1      18.051  28.438  30.172  1.00  0.00     0.106 CG0
ATOM     16  G   UNL     1      19.052  28.233  29.047  1.00  0.00     0.000 G0
ENDBRANCH  13  15
ENDBRANCH  12  13
BRANCH  12  17
ATOM     17  C   UNL     1      16.152  31.929  30.008  1.00  0.00    -0.006 C 
ATOM     18  C   UNL     1      16.380  33.218  29.204  1.00  0.00     0.008 C 
ATOM     19  C   UNL     1      15.493  32.253  31.360  1.00  0.00     0.008 C 
ENDBRANCH  12  17
ENDBRANCH  11  12
ENDBRANCH   1  11
TORSDOF 1
ENDMDL
MODEL 4
REMARK VINA RESULT:    -3.540      2.758      5.232
REMARK INTER + INTRA:          -5.553
REMARK INTER:                  -5.361
REMARK INTRA:                  -0.192
REMARK UNBOUND:                -0.150
REMARK SMILES CC1=CCC[C@H](C)C(=O)C[C@H](C(C)C)C(=O)C1
REMARK SMILES IDX 8 1 9 2 6 3 7 4 5 5 4 6 3 7 2 8 1 9 10 11 11 12 15 13 16 14
REMARK SMILES IDX 17 15 12 17 13 18 14 19
REMARK H PARENT
REMARK Flexibility Score: 70.00
ROOT
ATOM      1  C   UNL     1      23.919  28.390  27.955  1.00  0.00     0.136 C 
ATOM      2  O   UNL     1      23.956  27.919  26.827  1.00  0.00    -0.299 OA
ENDROOT
BRANCH   1   3
ATOM      3  C   UNL     1      25.228  28.618  28.694  1.00  0.00     0.053 C 
ATOM      4  C   UNL     1      26.394  28.510  27.703  1.00  0.00     0.016 C 
BRANCH   3   5
ATOM      5  C   UNL     1      25.278  29.972  29.448  1.00  0.00     0.015 C 
BRANCH   5   6
ATOM      6  C   UNL     1      25.204  29.889  30.989  1.00  0.00     0.028 C 
BRANCH   6   7
ATOM      7  C   UNL     1      24.308  30.892  31.678  1.00  0.00    -0.028 C 
ATOM      8  C   UNL     1      23.063  30.652  32.152  1.00  0.00    -0.070 CG0
ATOM      9  C   UNL     1      22.256  31.844  32.607  1.00  0.00     0.039 C 
ATOM     10  G   UNL     1      22.432  29.269  32.176  1.00  0.00     0.000 G0
ENDBRANCH   6   7
ENDBRANCH   5   6
ENDBRANCH   3   5
ENDBRANCH   1   3
BRANCH   1  11
ATOM     11  C   UNL     1      22.594  28.867  28.513  1.00  0.00     0.087 C 
BRANCH  11  12
ATOM     12  C   UNL     1      22.114  28.092  29.772  1.00  0.00     0.066 C 
BRANCH  12  13
ATOM     13  C   UNL     1      21.625  28.955  30.936  1.00  0.00     0.140 C 
ATOM     14  O   UNL     1      20.507  29.441  30.850  1.00  0.00    -0.299 OA
BRANCH  13  15
ATOM     15  C   UNL     1      22.426  29.253  32.188  1.00  0.00     0.106 CG0
ATOM     16  G   UNL     1      23.052  30.637  32.131  1.00  0.00     0.000 G0
ENDBRANCH  13  15
ENDBRANCH  12  13
BRANCH  12  17
ATOM     17  C   UNL     1      21.041  27.007  29.436  1.00  0.00    -0.006 C 
ATOM     18  C   UNL     1      21.648  25.604  29.273  1.00  0.00     0.008 C 
ATOM     19  C   UNL     1      20.183  27.362  28.210  1.00  0.00     0.008 C 
ENDBRANCH  12  17
ENDBRANCH  11  12
ENDBRANCH   1  11
TORSDOF 1
ENDMDL
MODEL 5
REMARK VINA RESULT:    -3.457      1.959      3.507
REMARK INTER + INTRA:          -5.427
REMARK INTER:                  -5.390
REMARK INTRA:                  -0.037
REMARK UNBOUND:                -0.150
REMARK SMILES CC1=CCC[C@H](C)C(=O)C[C@H](C(C)C)C(=O)C1
REMARK SMILES IDX 8 1 9 2 6 3 7 4 5 5 4 6 3 7 2 8 1 9 10 11 11 12 15 13 16 14
REMARK SMILES IDX 17 15 12 17 13 18 14 19
REMARK H PARENT
REMARK Flexibility Score: 70.00
ROOT
ATOM      1  C   UNL     1      23.217  28.830  29.544  1.00  0.00     0.136 C 
ATOM      2  O   UNL     1      24.348  29.195  29.835  1.00  0.00    -0.299 OA
ENDROOT
BRANCH   1   3
ATOM      3  C   UNL     1      23.036  27.882  28.370  1.00  0.00     0.053 C 
ATOM      4  C   UNL     1      24.233  28.017  27.421  1.00  0.00     0.016 C 
BRANCH   3   5
ATOM      5  C   UNL     1      22.845  26.404  28.799  1.00  0.00     0.015 C 
BRANCH   5   6
ATOM      6  C   UNL     1      21.413  26.002  29.219  1.00  0.00     0.028 C 
BRANCH   6   7
ATOM      7  C   UNL     1      20.300  26.382  28.272  1.00  0.00    -0.028 C 
ATOM      8  C   UNL     1      19.304  27.262  28.528  1.00  0.00    -0.070 CG0
ATOM      9  C   UNL     1      18.172  27.332  27.532  1.00  0.00     0.039 C 
ATOM     10  G   UNL     1      19.245  28.112  29.786  1.00  0.00     0.000 G0
ENDBRANCH   6   7
ENDBRANCH   5   6
ENDBRANCH   3   5
ENDBRANCH   1   3
BRANCH   1  11
ATOM     11  C   UNL     1      22.063  29.210  30.449  1.00  0.00     0.087 C 
BRANCH  11  12
ATOM     12  C   UNL     1      21.030  30.172  29.798  1.00  0.00     0.066 C 
BRANCH  12  13
ATOM     13  C   UNL     1      19.663  29.562  29.483  1.00  0.00     0.140 C 
ATOM     14  O   UNL     1      18.833  30.280  28.947  1.00  0.00    -0.299 OA
BRANCH  13  15
ATOM     15  C   UNL     1      19.264  28.132  29.788  1.00  0.00     0.106 CG0
ATOM     16  G   UNL     1      19.308  27.265  28.541  1.00  0.00     0.000 G0
ENDBRANCH  13  15
ENDBRANCH  12  13
BRANCH  12  17
ATOM     17  C   UNL     1      20.841  31.491  30.615  1.00  0.00    -0.006 C 
ATOM     18  C   UNL     1      20.974  32.750  29.744  1.00  0.00     0.008 C 
ATOM     19  C   UNL     1      21.770  31.586  31.837  1.00  0.00     0.008 C 
ENDBRANCH  12  17
ENDBRANCH  11  12
ENDBRANCH   1  11
TORSDOF 1
ENDMDL
MODEL 6
REMARK VINA RESULT:    -3.397      2.587      4.567
REMARK INTER + INTRA:          -5.334
REMARK INTER:                  -4.893
REMARK INTRA:                  -0.442
REMARK UNBOUND:                -0.150
REMARK SMILES CC1=CCC[C@H](C)C(=O)C[C@H](C(C)C)C(=O)C1
REMARK SMILES IDX 8 1 9 2 6 3 7 4 5 5 4 6 3 7 2 8 1 9 10 11 11 12 15 13 16 14
REMARK SMILES IDX 17 15 12 17 13 18 14 19
REMARK H PARENT
REMARK Flexibility Score: 70.00
ROOT
ATOM      1  C   UNL     1      17.028  28.878  30.869  1.00  0.00     0.136 C 
ATOM      2  O   UNL     1      16.695  28.718  32.035  1.00  0.00    -0.299 OA
ENDROOT
BRANCH   1   3
ATOM      3  C   UNL     1      15.993  29.378  29.876  1.00  0.00     0.053 C 
ATOM      4  C   UNL     1      14.880  28.332  29.735  1.00  0.00     0.016 C 
BRANCH   3   5
ATOM      5  C   UNL     1      15.397  30.758  30.255  1.00  0.00     0.015 C 
BRANCH   5   6
ATOM      6  C   UNL     1      16.157  31.993  29.719  1.00  0.00     0.028 C 
BRANCH   6   7
ATOM      7  C   UNL     1      17.253  32.546  30.599  1.00  0.00    -0.028 C 
ATOM      8  C   UNL     1      18.580  32.509  30.334  1.00  0.00    -0.070 CG0
ATOM      9  C   UNL     1      19.517  32.921  31.444  1.00  0.00     0.039 C 
ATOM     10  G   UNL     1      19.154  32.012  29.018  1.00  0.00     0.000 G0
ENDBRANCH   6   7
ENDBRANCH   5   6
ENDBRANCH   3   5
ENDBRANCH   1   3
BRANCH   1  11
ATOM     11  C   UNL     1      18.486  28.719  30.490  1.00  0.00     0.087 C 
BRANCH  11  12
ATOM     12  C   UNL     1      18.855  29.311  29.101  1.00  0.00     0.066 C 
BRANCH  12  13
ATOM     13  C   UNL     1      19.700  30.585  29.127  1.00  0.00     0.140 C 
ATOM     14  O   UNL     1      20.908  30.461  29.258  1.00  0.00    -0.299 OA
BRANCH  13  15
ATOM     15  C   UNL     1      19.147  31.991  29.003  1.00  0.00     0.106 CG0
ATOM     16  G   UNL     1      18.582  32.485  30.325  1.00  0.00     0.000 G0
ENDBRANCH  13  15
ENDBRANCH  12  13
BRANCH  12  17
ATOM     17  C   UNL     1      19.521  28.258  28.158  1.00  0.00    -0.006 C 
ATOM     18  C   UNL     1      18.518  27.612  27.191  1.00  0.00     0.008 C 
ATOM     19  C   UNL     1      20.306  27.174  28.917  1.00  0.00     0.008 C 
ENDBRANCH  12  17
ENDBRANCH  11  12
ENDBRANCH   1  11
TORSDOF 1
ENDMDL
MODEL 7
REMARK VINA RESULT:    -3.340      2.007      4.217
REMARK INTER + INTRA:          -5.247
REMARK INTER:                  -5.125
REMARK INTRA:                  -0.122
REMARK UNBOUND:                -0.150
REMARK SMILES CC1=CCC[C@H](C)C(=O)C[C@H](C(C)C)C(=O)C1
REMARK SMILES IDX 8 1 9 2 6 3 7 4 5 5 4 6 3 7 2 8 1 9 10 11 11 12 15 13 16 14
REMARK SMILES IDX 17 15 12 17 13 18 14 19
REMARK H PARENT
REMARK Flexibility Score: 70.00
ROOT
ATOM      1  C   UNL     1      19.789  27.154  28.467  1.00  0.00     0.136 C 
ATOM      2  O   UNL     1      19.379  26.181  27.851  1.00  0.00    -0.299 OA
ENDROOT
BRANCH   1   3
ATOM      3  C   UNL     1      21.110  27.043  29.211  1.00  0.00     0.053 C 
ATOM      4  C   UNL     1      21.491  25.564  29.347  1.00  0.00     0.016 C 
BRANCH   3   5
ATOM      5  C   UNL     1      22.259  27.842  28.543  1.00  0.00     0.015 C 
BRANCH   5   6
ATOM      6  C   UNL     1      22.995  28.853  29.451  1.00  0.00     0.028 C 
BRANCH   6   7
ATOM      7  C   UNL     1      22.359  29.149  30.789  1.00  0.00    -0.028 C 
ATOM      8  C   UNL     1      21.489  30.152  31.051  1.00  0.00    -0.070 CG0
ATOM      9  C   UNL     1      21.143  30.405  32.498  1.00  0.00     0.039 C 
ATOM     10  G   UNL     1      20.914  31.060  29.975  1.00  0.00     0.000 G0
ENDBRANCH   6   7
ENDBRANCH   5   6
ENDBRANCH   3   5
ENDBRANCH   1   3
BRANCH   1  11
ATOM     11  C   UNL     1      19.051  28.471  28.344  1.00  0.00     0.087 C 
BRANCH  11  12
ATOM     12  C   UNL     1      18.924  29.261  29.677  1.00  0.00     0.066 C 
BRANCH  12  13
ATOM     13  C   UNL     1      19.467  30.690  29.655  1.00  0.00     0.140 C 
ATOM     14  O   UNL     1      18.696  31.584  29.341  1.00  0.00    -0.299 OA
BRANCH  13  15
ATOM     15  C   UNL     1      20.892  31.079  29.993  1.00  0.00     0.106 CG0
ATOM     16  G   UNL     1      21.486  30.154  31.043  1.00  0.00     0.000 G0
ENDBRANCH  13  15
ENDBRANCH  12  13
BRANCH  12  17
ATOM     17  C   UNL     1      17.465  29.262  30.238  1.00  0.00    -0.006 C 
ATOM     18  C   UNL     1      17.393  28.794  31.700  1.00  0.00     0.008 C 
ATOM     19  C   UNL     1      16.482  28.457  29.371  1.00  0.00     0.008 C 
ENDBRANCH  12  17
ENDBRANCH  11  12
ENDBRANCH   1  11
TORSDOF 1
ENDMDL
MODEL 8
REMARK VINA RESULT:    -3.264      2.359      4.883
REMARK INTER + INTRA:          -5.132
REMARK INTER:                  -4.882
REMARK INTRA:                  -0.250
REMARK UNBOUND:                -0.150
REMARK SMILES CC1=CCC[C@H](C)C(=O)C[C@H](C(C)C)C(=O)C1
REMARK SMILES IDX 8 1 9 2 6 3 7 4 5 5 4 6 3 7 2 8 1 9 10 11 11 12 15 13 16 14
REMARK SMILES IDX 17 15 12 17 13 18 14 19
REMARK H PARENT
REMARK Flexibility Score: 70.00
ROOT
ATOM      1  C   UNL     1      19.775  32.048  29.791  1.00  0.00     0.136 C 
ATOM      2  O   UNL     1      20.690  32.858  29.820  1.00  0.00    -0.299 OA
ENDROOT
BRANCH   1   3
ATOM      3  C   UNL     1      18.431  32.444  30.381  1.00  0.00     0.053 C 
ATOM      4  C   UNL     1      18.616  33.674  31.279  1.00  0.00     0.016 C 
BRANCH   3   5
ATOM      5  C   UNL     1      17.346  32.714  29.306  1.00  0.00     0.015 C 
BRANCH   5   6
ATOM      6  C   UNL     1      16.096  31.807  29.367  1.00  0.00     0.028 C 
BRANCH   6   7
ATOM      7  C   UNL     1      16.059  30.780  30.474  1.00  0.00    -0.028 C 
ATOM      8  C   UNL     1      16.523  29.511  30.397  1.00  0.00    -0.070 CG0
ATOM      9  C   UNL     1      16.191  28.584  31.541  1.00  0.00     0.039 C 
ATOM     10  G   UNL     1      17.287  28.974  29.198  1.00  0.00     0.000 G0
ENDBRANCH   6   7
ENDBRANCH   5   6
ENDBRANCH   3   5
ENDBRANCH   1   3
BRANCH   1  11
ATOM     11  C   UNL     1      19.964  30.746  29.040  1.00  0.00     0.087 C 
BRANCH  11  12
ATOM     12  C   UNL     1      19.852  29.474  29.926  1.00  0.00     0.066 C 
BRANCH  12  13
ATOM     13  C   UNL     1      18.697  28.530  29.589  1.00  0.00     0.140 C 
ATOM     14  O   UNL     1      18.914  27.329  29.642  1.00  0.00    -0.299 OA
BRANCH  13  15
ATOM     15  C   UNL     1      17.304  28.976  29.193  1.00  0.00     0.106 CG0
ATOM     16  G   UNL     1      16.527  29.500  30.390  1.00  0.00     0.000 G0
ENDBRANCH  13  15
ENDBRANCH  12  13
BRANCH  12  17
ATOM     17  C   UNL     1      21.189  28.667  29.989  1.00  0.00    -0.006 C 
ATOM     18  C   UNL     1      22.008  28.975  31.252  1.00  0.00     0.008 C 
ATOM     19  C   UNL     1      22.061  28.839  28.733  1.00  0.00     0.008 C 
ENDBRANCH  12  17
ENDBRANCH  11  12
ENDBRANCH   1  11
TORSDOF 1
ENDMDL
MODEL 9
REMARK VINA RESULT:    -3.209      1.770      3.829
REMARK INTER + INTRA:          -5.047
REMARK INTER:                  -4.764
REMARK INTRA:                  -0.283
REMARK UNBOUND:                -0.150
REMARK SMILES CC1=CCC[C@H](C)C(=O)C[C@H](C(C)C)C(=O)C1
REMARK SMILES IDX 8 1 9 2 6 3 7 4 5 5 4 6 3 7 2 8 1 9 10 11 11 12 15 13 16 14
REMARK SMILES IDX 17 15 12 17 13 18 14 19
REMARK H PARENT
REMARK Flexibility Score: 70.00
ROOT
ATOM      1  C   UNL     1      21.164  29.460  30.417  1.00  0.00     0.136 C 
ATOM      2  O   UNL     1      22.197  29.211  31.021  1.00  0.00    -0.299 OA
ENDROOT
BRANCH   1   3
ATOM      3  C   UNL     1      20.194  30.467  31.014  1.00  0.00     0.053 C 
ATOM      4  C   UNL     1      19.688  31.400  29.907  1.00  0.00     0.016 C 
BRANCH   3   5
ATOM      5  C   UNL     1      19.003  29.805  31.755  1.00  0.00     0.015 C 
BRANCH   5   6
ATOM      6  C   UNL     1      17.645  29.841  31.017  1.00  0.00     0.028 C 
BRANCH   6   7
ATOM      7  C   UNL     1      16.965  28.513  30.788  1.00  0.00    -0.028 C 
ATOM      8  C   UNL     1      17.001  27.788  29.645  1.00  0.00    -0.070 CG0
ATOM      9  C   UNL     1      16.075  26.599  29.553  1.00  0.00     0.039 C 
ATOM     10  G   UNL     1      17.865  28.157  28.451  1.00  0.00     0.000 G0
ENDBRANCH   6   7
ENDBRANCH   5   6
ENDBRANCH   3   5
ENDBRANCH   1   3
BRANCH   1  11
ATOM     11  C   UNL     1      20.958  28.878  29.033  1.00  0.00     0.087 C 
BRANCH  11  12
ATOM     12  C   UNL     1      20.386  27.433  29.025  1.00  0.00     0.066 C 
BRANCH  12  13
ATOM     13  C   UNL     1      19.058  27.250  28.290  1.00  0.00     0.140 C 
ATOM     14  O   UNL     1      18.957  26.298  27.531  1.00  0.00    -0.299 OA
BRANCH  13  15
ATOM     15  C   UNL     1      17.857  28.164  28.435  1.00  0.00     0.106 CG0
ATOM     16  G   UNL     1      17.015  27.789  29.643  1.00  0.00     0.000 G0
ENDBRANCH  13  15
ENDBRANCH  12  13
BRANCH  12  17
ATOM     17  C   UNL     1      21.421  26.382  28.510  1.00  0.00    -0.006 C 
ATOM     18  C   UNL     1      21.503  25.141  29.413  1.00  0.00     0.008 C 
ATOM     19  C   UNL     1      22.823  26.971  28.283  1.00  0.00     0.008 C 
ENDBRANCH  12  17
ENDBRANCH  11  12
ENDBRANCH   1  11
TORSDOF 1
ENDMDL
