MODEL 1
REMARK VINA RESULT:    -7.949      0.000      0.000
REMARK INTER + INTRA:          -9.055
REMARK INTER:                  -9.576
REMARK INTRA:                   0.521
REMARK UNBOUND:                 0.521
REMARK SMILES O=c1c(O)c(-c2ccc(O)c(O)c2)oc2cc(O)cc(O)c12
REMARK SMILES IDX 5 1 3 2 2 3 1 4 22 5 20 6 19 7 17 8 16 9 15 10 14 11 6 12
REMARK SMILES IDX 7 13 8 14 9 15 13 16 11 17 10 18 12 20 4 22 21 24 18 26
REMARK H PARENT 10 19 12 21 4 23 21 25 18 27
REMARK Flexibility Score: inf
ROOT
ATOM      1  C   UNL     1      26.399 -21.000   2.355  1.00  0.00     0.180 A 
ATOM      2  C   UNL     1      27.448 -20.085   2.160  1.00  0.00     0.208 A 
ATOM      3  C   UNL     1      28.617 -20.215   2.927  1.00  0.00     0.238 A 
ATOM      4  O   UNL     1      29.573 -19.426   2.710  1.00  0.00    -0.285 OA
ATOM      5  C   UNL     1      28.717 -21.248   3.890  1.00  0.00     0.111 A 
ATOM      6  C   UNL     1      29.837 -21.448   4.750  1.00  0.00     0.134 A 
ATOM      7  C   UNL     1      29.882 -22.580   5.574  1.00  0.00     0.093 A 
ATOM      8  C   UNL     1      28.821 -23.482   5.616  1.00  0.00     0.123 A 
ATOM      9  C   UNL     1      27.694 -23.264   4.823  1.00  0.00     0.094 A 
ATOM     10  C   UNL     1      27.635 -22.164   3.965  1.00  0.00     0.146 A 
ATOM     11  O   UNL     1      26.549 -21.998   3.220  1.00  0.00    -0.452 OA
ENDROOT
BRANCH   1  12
ATOM     12  C   UNL     1      25.127 -20.913   1.603  1.00  0.00     0.025 A 
ATOM     13  C   UNL     1      24.880 -19.796   0.790  1.00  0.00     0.016 A 
ATOM     14  C   UNL     1      23.694 -19.702   0.055  1.00  0.00     0.051 A 
ATOM     15  C   UNL     1      22.747 -20.733   0.112  1.00  0.00     0.157 A 
ATOM     16  C   UNL     1      24.181 -21.955   1.641  1.00  0.00     0.062 A 
ATOM     17  C   UNL     1      22.992 -21.863   0.901  1.00  0.00     0.158 A 
BRANCH  15  18
ATOM     18  O   UNL     1      21.563 -20.642  -0.618  1.00  0.00    -0.504 OA
ATOM     19  H   UNL     1      21.165 -21.447  -1.087  1.00  0.00     0.293 HD
ENDBRANCH  15  18
BRANCH  17  20
ATOM     20  O   UNL     1      22.054 -22.892   0.944  1.00  0.00    -0.504 OA
ATOM     21  H   UNL     1      22.327 -23.852   1.124  1.00  0.00     0.293 HD
ENDBRANCH  17  20
ENDBRANCH   1  12
BRANCH   2  22
ATOM     22  O   UNL     1      27.338 -19.086   1.189  1.00  0.00    -0.502 OA
ATOM     23  H   UNL     1      27.763 -19.168   0.274  1.00  0.00     0.293 HD
ENDBRANCH   2  22
BRANCH   6  24
ATOM     24  O   UNL     1      30.911 -20.558   4.853  1.00  0.00    -0.507 OA
ATOM     25  H   UNL     1      31.504 -20.463   5.663  1.00  0.00     0.293 HD
ENDBRANCH   6  24
BRANCH   8  26
ATOM     26  O   UNL     1      28.893 -24.589   6.459  1.00  0.00    -0.508 OA
ATOM     27  H   UNL     1      28.067 -24.971   6.905  1.00  0.00     0.293 HD
ENDBRANCH   8  26
TORSDOF 6
ENDMDL
MODEL 2
REMARK VINA RESULT:    -7.772      1.556      6.686
REMARK INTER + INTRA:          -8.841
REMARK INTER:                  -8.613
REMARK INTRA:                  -0.228
REMARK UNBOUND:                 0.521
REMARK SMILES O=c1c(O)c(-c2ccc(O)c(O)c2)oc2cc(O)cc(O)c12
REMARK SMILES IDX 5 1 3 2 2 3 1 4 22 5 20 6 19 7 17 8 16 9 15 10 14 11 6 12
REMARK SMILES IDX 7 13 8 14 9 15 13 16 11 17 10 18 12 20 4 22 21 24 18 26
REMARK H PARENT 10 19 12 21 4 23 21 25 18 27
REMARK Flexibility Score: inf
ROOT
ATOM      1  C   UNL     1      28.118 -21.996   3.306  1.00  0.00     0.180 A 
ATOM      2  C   UNL     1      28.662 -20.702   3.220  1.00  0.00     0.208 A 
ATOM      3  C   UNL     1      28.033 -19.752   2.400  1.00  0.00     0.238 A 
ATOM      4  O   UNL     1      28.494 -18.581   2.370  1.00  0.00    -0.285 OA
ATOM      5  C   UNL     1      26.879 -20.111   1.663  1.00  0.00     0.111 A 
ATOM      6  C   UNL     1      26.185 -19.240   0.770  1.00  0.00     0.134 A 
ATOM      7  C   UNL     1      24.980 -19.660   0.194  1.00  0.00     0.093 A 
ATOM      8  C   UNL     1      24.478 -20.939   0.426  1.00  0.00     0.123 A 
ATOM      9  C   UNL     1      25.179 -21.820   1.251  1.00  0.00     0.094 A 
ATOM     10  C   UNL     1      26.365 -21.418   1.868  1.00  0.00     0.146 A 
ATOM     11  O   UNL     1      26.997 -22.282   2.653  1.00  0.00    -0.452 OA
ENDROOT
BRANCH   1  12
ATOM     12  C   UNL     1      28.738 -23.059   4.129  1.00  0.00     0.025 A 
ATOM     13  C   UNL     1      28.046 -23.563   5.242  1.00  0.00     0.016 A 
ATOM     14  C   UNL     1      28.603 -24.581   6.021  1.00  0.00     0.051 A 
ATOM     15  C   UNL     1      29.853 -25.120   5.688  1.00  0.00     0.157 A 
ATOM     16  C   UNL     1      29.984 -23.617   3.787  1.00  0.00     0.062 A 
ATOM     17  C   UNL     1      30.542 -24.641   4.568  1.00  0.00     0.158 A 
BRANCH  15  18
ATOM     18  O   UNL     1      30.412 -26.133   6.464  1.00  0.00    -0.504 OA
ATOM     19  H   UNL     1      30.740 -26.998   6.051  1.00  0.00     0.293 HD
ENDBRANCH  15  18
BRANCH  17  20
ATOM     20  O   UNL     1      31.779 -25.188   4.232  1.00  0.00    -0.504 OA
ATOM     21  H   UNL     1      32.366 -24.774   3.517  1.00  0.00     0.293 HD
ENDBRANCH  17  20
ENDBRANCH   1  12
BRANCH   2  22
ATOM     22  O   UNL     1      29.789 -20.363   3.973  1.00  0.00    -0.502 OA
ATOM     23  H   UNL     1      30.320 -21.048   4.498  1.00  0.00     0.293 HD
ENDBRANCH   2  22
BRANCH   6  24
ATOM     24  O   UNL     1      26.648 -17.974   0.397  1.00  0.00    -0.507 OA
ATOM     25  H   UNL     1      27.546 -17.592   0.652  1.00  0.00     0.293 HD
ENDBRANCH   6  24
BRANCH   8  26
ATOM     26  O   UNL     1      23.284 -21.329  -0.176  1.00  0.00    -0.508 OA
ATOM     27  H   UNL     1      23.245 -21.594  -1.154  1.00  0.00     0.293 HD
ENDBRANCH   8  26
TORSDOF 6
ENDMDL
MODEL 3
REMARK VINA RESULT:    -7.730      1.650      6.671
REMARK INTER + INTRA:          -8.790
REMARK INTER:                  -8.551
REMARK INTRA:                  -0.240
REMARK UNBOUND:                 0.521
REMARK SMILES O=c1c(O)c(-c2ccc(O)c(O)c2)oc2cc(O)cc(O)c12
REMARK SMILES IDX 5 1 3 2 2 3 1 4 22 5 20 6 19 7 17 8 16 9 15 10 14 11 6 12
REMARK SMILES IDX 7 13 8 14 9 15 13 16 11 17 10 18 12 20 4 22 21 24 18 26
REMARK H PARENT 10 19 12 21 4 23 21 25 18 27
REMARK Flexibility Score: inf
ROOT
ATOM      1  C   UNL     1      27.217 -21.345   2.181  1.00  0.00     0.180 A 
ATOM      2  C   UNL     1      27.692 -20.127   1.665  1.00  0.00     0.208 A 
ATOM      3  C   UNL     1      26.848 -19.358   0.848  1.00  0.00     0.238 A 
ATOM      4  O   UNL     1      27.260 -18.244   0.433  1.00  0.00    -0.285 OA
ATOM      5  C   UNL     1      25.547 -19.824   0.543  1.00  0.00     0.111 A 
ATOM      6  C   UNL     1      24.623 -19.148  -0.308  1.00  0.00     0.134 A 
ATOM      7  C   UNL     1      23.316 -19.635  -0.436  1.00  0.00     0.093 A 
ATOM      8  C   UNL     1      22.920 -20.808   0.204  1.00  0.00     0.123 A 
ATOM      9  C   UNL     1      23.834 -21.511   0.991  1.00  0.00     0.094 A 
ATOM     10  C   UNL     1      25.133 -21.031   1.166  1.00  0.00     0.146 A 
ATOM     11  O   UNL     1      25.969 -21.723   1.930  1.00  0.00    -0.452 OA
ENDROOT
BRANCH   1  12
ATOM     12  C   UNL     1      28.055 -22.222   3.030  1.00  0.00     0.025 A 
ATOM     13  C   UNL     1      27.712 -22.413   4.378  1.00  0.00     0.016 A 
ATOM     14  C   UNL     1      28.477 -23.253   5.192  1.00  0.00     0.051 A 
ATOM     15  C   UNL     1      29.587 -23.926   4.665  1.00  0.00     0.157 A 
ATOM     16  C   UNL     1      29.159 -22.915   2.500  1.00  0.00     0.062 A 
ATOM     17  C   UNL     1      29.927 -23.761   3.316  1.00  0.00     0.158 A 
BRANCH  15  18
ATOM     18  O   UNL     1      30.354 -24.762   5.474  1.00  0.00    -0.504 OA
ATOM     19  H   UNL     1      31.332 -24.575   5.655  1.00  0.00     0.293 HD
ENDBRANCH  15  18
BRANCH  17  20
ATOM     20  O   UNL     1      31.023 -24.442   2.792  1.00  0.00    -0.504 OA
ATOM     21  H   UNL     1      31.205 -25.412   3.023  1.00  0.00     0.293 HD
ENDBRANCH  17  20
ENDBRANCH   1  12
BRANCH   2  22
ATOM     22  O   UNL     1      28.972 -19.675   1.997  1.00  0.00    -0.502 OA
ATOM     23  H   UNL     1      29.130 -18.916   2.648  1.00  0.00     0.293 HD
ENDBRANCH   2  22
BRANCH   6  24
ATOM     24  O   UNL     1      24.944 -18.017  -1.066  1.00  0.00    -0.507 OA
ATOM     25  H   UNL     1      25.421 -17.203  -0.711  1.00  0.00     0.293 HD
ENDBRANCH   6  24
BRANCH   8  26
ATOM     26  O   UNL     1      21.617 -21.273   0.043  1.00  0.00    -0.508 OA
ATOM     27  H   UNL     1      20.894 -20.694  -0.367  1.00  0.00     0.293 HD
ENDBRANCH   8  26
TORSDOF 6
ENDMDL
MODEL 4
REMARK VINA RESULT:    -7.184      3.626      5.830
REMARK INTER + INTRA:          -8.133
REMARK INTER:                  -7.819
REMARK INTRA:                  -0.314
REMARK UNBOUND:                 0.521
REMARK SMILES O=c1c(O)c(-c2ccc(O)c(O)c2)oc2cc(O)cc(O)c12
REMARK SMILES IDX 5 1 3 2 2 3 1 4 22 5 20 6 19 7 17 8 16 9 15 10 14 11 6 12
REMARK SMILES IDX 7 13 8 14 9 15 13 16 11 17 10 18 12 20 4 22 21 24 18 26
REMARK H PARENT 10 19 12 21 4 23 21 25 18 27
REMARK Flexibility Score: inf
ROOT
ATOM      1  C   UNL     1      29.566 -23.476   3.382  1.00  0.00     0.180 A 
ATOM      2  C   UNL     1      29.645 -24.021   4.676  1.00  0.00     0.208 A 
ATOM      3  C   UNL     1      30.108 -25.338   4.833  1.00  0.00     0.238 A 
ATOM      4  O   UNL     1      30.228 -25.800   5.997  1.00  0.00    -0.285 OA
ATOM      5  C   UNL     1      30.469 -26.098   3.695  1.00  0.00     0.111 A 
ATOM      6  C   UNL     1      30.911 -27.454   3.734  1.00  0.00     0.134 A 
ATOM      7  C   UNL     1      31.366 -28.066   2.559  1.00  0.00     0.093 A 
ATOM      8  C   UNL     1      31.334 -27.395   1.339  1.00  0.00     0.123 A 
ATOM      9  C   UNL     1      30.847 -26.088   1.278  1.00  0.00     0.094 A 
ATOM     10  C   UNL     1      30.420 -25.439   2.439  1.00  0.00     0.146 A 
ATOM     11  O   UNL     1      29.973 -24.193   2.341  1.00  0.00    -0.452 OA
ENDROOT
BRANCH   1  12
ATOM     12  C   UNL     1      29.065 -22.106   3.134  1.00  0.00     0.025 A 
ATOM     13  C   UNL     1      29.980 -21.071   2.879  1.00  0.00     0.016 A 
ATOM     14  C   UNL     1      29.528 -19.773   2.622  1.00  0.00     0.051 A 
ATOM     15  C   UNL     1      28.155 -19.496   2.599  1.00  0.00     0.157 A 
ATOM     16  C   UNL     1      27.687 -21.826   3.090  1.00  0.00     0.062 A 
ATOM     17  C   UNL     1      27.233 -20.524   2.829  1.00  0.00     0.158 A 
BRANCH  15  18
ATOM     18  O   UNL     1      27.701 -18.203   2.345  1.00  0.00    -0.504 OA
ATOM     19  H   UNL     1      27.934 -17.718   1.487  1.00  0.00     0.293 HD
ENDBRANCH  15  18
BRANCH  17  20
ATOM     20  O   UNL     1      25.868 -20.247   2.793  1.00  0.00    -0.504 OA
ATOM     21  H   UNL     1      25.520 -19.298   2.709  1.00  0.00     0.293 HD
ENDBRANCH  17  20
ENDBRANCH   1  12
BRANCH   2  22
ATOM     22  O   UNL     1      29.305 -23.245   5.787  1.00  0.00    -0.502 OA
ATOM     23  H   UNL     1      28.653 -22.473   5.732  1.00  0.00     0.293 HD
ENDBRANCH   2  22
BRANCH   6  24
ATOM     24  O   UNL     1      30.897 -28.247   4.886  1.00  0.00    -0.507 OA
ATOM     25  H   UNL     1      30.997 -29.250   4.895  1.00  0.00     0.293 HD
ENDBRANCH   6  24
BRANCH   8  26
ATOM     26  O   UNL     1      31.779 -28.041   0.187  1.00  0.00    -0.508 OA
ATOM     27  H   UNL     1      31.735 -27.594  -0.722  1.00  0.00     0.293 HD
ENDBRANCH   8  26
TORSDOF 6
ENDMDL
MODEL 5
REMARK VINA RESULT:    -7.124      1.560      1.565
REMARK INTER + INTRA:          -8.061
REMARK INTER:                  -7.773
REMARK INTRA:                  -0.288
REMARK UNBOUND:                 0.521
REMARK SMILES O=c1c(O)c(-c2ccc(O)c(O)c2)oc2cc(O)cc(O)c12
REMARK SMILES IDX 5 1 3 2 2 3 1 4 22 5 20 6 19 7 17 8 16 9 15 10 14 11 6 12
REMARK SMILES IDX 7 13 8 14 9 15 13 16 11 17 10 18 12 20 4 22 21 24 18 26
REMARK H PARENT 10 19 12 21 4 23 21 25 18 27
REMARK Flexibility Score: inf
ROOT
ATOM      1  C   UNL     1      26.901 -21.429   1.343  1.00  0.00     0.180 A 
ATOM      2  C   UNL     1      28.046 -21.150   0.577  1.00  0.00     0.208 A 
ATOM      3  C   UNL     1      29.313 -21.355   1.147  1.00  0.00     0.238 A 
ATOM      4  O   UNL     1      30.333 -21.156   0.438  1.00  0.00    -0.285 OA
ATOM      5  C   UNL     1      29.419 -21.820   2.480  1.00  0.00     0.111 A 
ATOM      6  C   UNL     1      30.651 -22.024   3.171  1.00  0.00     0.134 A 
ATOM      7  C   UNL     1      30.640 -22.611   4.443  1.00  0.00     0.093 A 
ATOM      8  C   UNL     1      29.442 -22.940   5.074  1.00  0.00     0.123 A 
ATOM      9  C   UNL     1      28.228 -22.690   4.431  1.00  0.00     0.094 A 
ATOM     10  C   UNL     1      28.208 -22.139   3.148  1.00  0.00     0.146 A 
ATOM     11  O   UNL     1      27.034 -21.926   2.567  1.00  0.00    -0.452 OA
ENDROOT
BRANCH   1  12
ATOM     12  C   UNL     1      25.533 -21.214   0.821  1.00  0.00     0.025 A 
ATOM     13  C   UNL     1      25.004 -19.914   0.780  1.00  0.00     0.016 A 
ATOM     14  C   UNL     1      23.722 -19.686   0.272  1.00  0.00     0.051 A 
ATOM     15  C   UNL     1      22.957 -20.753  -0.217  1.00  0.00     0.157 A 
ATOM     16  C   UNL     1      24.768 -22.279   0.310  1.00  0.00     0.062 A 
ATOM     17  C   UNL     1      23.482 -22.051  -0.202  1.00  0.00     0.158 A 
BRANCH  15  18
ATOM     18  O   UNL     1      21.678 -20.529  -0.722  1.00  0.00    -0.504 OA
ATOM     19  H   UNL     1      21.443 -20.739  -1.685  1.00  0.00     0.293 HD
ENDBRANCH  15  18
BRANCH  17  20
ATOM     20  O   UNL     1      22.724 -23.107  -0.702  1.00  0.00    -0.504 OA
ATOM     21  H   UNL     1      22.602 -23.967  -0.178  1.00  0.00     0.293 HD
ENDBRANCH  17  20
ENDBRANCH   1  12
BRANCH   2  22
ATOM     22  O   UNL     1      27.919 -20.713  -0.744  1.00  0.00    -0.502 OA
ATOM     23  H   UNL     1      28.223 -21.269  -1.533  1.00  0.00     0.293 HD
ENDBRANCH   2  22
BRANCH   6  24
ATOM     24  O   UNL     1      31.900 -21.646   2.668  1.00  0.00    -0.507 OA
ATOM     25  H   UNL     1      32.659 -21.286   3.226  1.00  0.00     0.293 HD
ENDBRANCH   6  24
BRANCH   8  26
ATOM     26  O   UNL     1      29.468 -23.508   6.346  1.00  0.00    -0.508 OA
ATOM     27  H   UNL     1      30.289 -23.449   6.936  1.00  0.00     0.293 HD
ENDBRANCH   8  26
TORSDOF 6
ENDMDL
MODEL 6
REMARK VINA RESULT:    -6.904      2.522      2.912
REMARK INTER + INTRA:          -7.796
REMARK INTER:                  -7.465
REMARK INTRA:                  -0.331
REMARK UNBOUND:                 0.521
REMARK SMILES O=c1c(O)c(-c2ccc(O)c(O)c2)oc2cc(O)cc(O)c12
REMARK SMILES IDX 5 1 3 2 2 3 1 4 22 5 20 6 19 7 17 8 16 9 15 10 14 11 6 12
REMARK SMILES IDX 7 13 8 14 9 15 13 16 11 17 10 18 12 20 4 22 21 24 18 26
REMARK H PARENT 10 19 12 21 4 23 21 25 18 27
REMARK Flexibility Score: inf
ROOT
ATOM      1  C   UNL     1      26.671 -20.957   1.544  1.00  0.00     0.180 A 
ATOM      2  C   UNL     1      26.938 -20.805   2.915  1.00  0.00     0.208 A 
ATOM      3  C   UNL     1      28.018 -21.501   3.481  1.00  0.00     0.238 A 
ATOM      4  O   UNL     1      28.284 -21.319   4.697  1.00  0.00    -0.285 OA
ATOM      5  C   UNL     1      28.808 -22.353   2.672  1.00  0.00     0.111 A 
ATOM      6  C   UNL     1      29.900 -23.138   3.148  1.00  0.00     0.134 A 
ATOM      7  C   UNL     1      30.693 -23.844   2.234  1.00  0.00     0.093 A 
ATOM      8  C   UNL     1      30.394 -23.847   0.873  1.00  0.00     0.123 A 
ATOM      9  C   UNL     1      29.292 -23.130   0.404  1.00  0.00     0.094 A 
ATOM     10  C   UNL     1      28.504 -22.387   1.286  1.00  0.00     0.146 A 
ATOM     11  O   UNL     1      27.470 -21.712   0.798  1.00  0.00    -0.452 OA
ENDROOT
BRANCH   1  12
ATOM     12  C   UNL     1      25.536 -20.276   0.881  1.00  0.00     0.025 A 
ATOM     13  C   UNL     1      25.740 -19.027   0.272  1.00  0.00     0.016 A 
ATOM     14  C   UNL     1      24.687 -18.375  -0.377  1.00  0.00     0.051 A 
ATOM     15  C   UNL     1      23.421 -18.971  -0.441  1.00  0.00     0.157 A 
ATOM     16  C   UNL     1      24.268 -20.879   0.797  1.00  0.00     0.062 A 
ATOM     17  C   UNL     1      23.212 -20.227   0.143  1.00  0.00     0.158 A 
BRANCH  15  18
ATOM     18  O   UNL     1      22.369 -18.324  -1.086  1.00  0.00    -0.504 OA
ATOM     19  H   UNL     1      22.242 -18.386  -2.089  1.00  0.00     0.293 HD
ENDBRANCH  15  18
BRANCH  17  20
ATOM     20  O   UNL     1      21.955 -20.823   0.066  1.00  0.00    -0.504 OA
ATOM     21  H   UNL     1      21.108 -20.304   0.270  1.00  0.00     0.293 HD
ENDBRANCH  17  20
ENDBRANCH   1  12
BRANCH   2  22
ATOM     22  O   UNL     1      26.159 -19.942   3.691  1.00  0.00    -0.502 OA
ATOM     23  H   UNL     1      25.473 -20.277   4.357  1.00  0.00     0.293 HD
ENDBRANCH   2  22
BRANCH   6  24
ATOM     24  O   UNL     1      30.230 -23.278   4.500  1.00  0.00    -0.507 OA
ATOM     25  H   UNL     1      29.626 -23.030   5.267  1.00  0.00     0.293 HD
ENDBRANCH   6  24
BRANCH   8  26
ATOM     26  O   UNL     1      31.195 -24.573  -0.005  1.00  0.00    -0.508 OA
ATOM     27  H   UNL     1      31.276 -24.319  -0.983  1.00  0.00     0.293 HD
ENDBRANCH   8  26
TORSDOF 6
ENDMDL
MODEL 7
REMARK VINA RESULT:    -6.902      3.009      5.187
REMARK INTER + INTRA:          -7.793
REMARK INTER:                  -7.481
REMARK INTRA:                  -0.312
REMARK UNBOUND:                 0.521
REMARK SMILES O=c1c(O)c(-c2ccc(O)c(O)c2)oc2cc(O)cc(O)c12
REMARK SMILES IDX 5 1 3 2 2 3 1 4 22 5 20 6 19 7 17 8 16 9 15 10 14 11 6 12
REMARK SMILES IDX 7 13 8 14 9 15 13 16 11 17 10 18 12 20 4 22 21 24 18 26
REMARK H PARENT 10 19 12 21 4 23 21 25 18 27
REMARK Flexibility Score: inf
ROOT
ATOM      1  C   UNL     1      29.210 -22.987   2.975  1.00  0.00     0.180 A 
ATOM      2  C   UNL     1      29.157 -22.897   4.377  1.00  0.00     0.208 A 
ATOM      3  C   UNL     1      29.570 -23.997   5.146  1.00  0.00     0.238 A 
ATOM      4  O   UNL     1      29.571 -23.891   6.400  1.00  0.00    -0.285 OA
ATOM      5  C   UNL     1      30.015 -25.178   4.504  1.00  0.00     0.111 A 
ATOM      6  C   UNL     1      30.418 -26.367   5.184  1.00  0.00     0.134 A 
ATOM      7  C   UNL     1      30.963 -27.429   4.452  1.00  0.00     0.093 A 
ATOM      8  C   UNL     1      31.060 -27.372   3.064  1.00  0.00     0.123 A 
ATOM      9  C   UNL     1      30.614 -26.238   2.383  1.00  0.00     0.094 A 
ATOM     10  C   UNL     1      30.098 -25.148   3.088  1.00  0.00     0.146 A 
ATOM     11  O   UNL     1      29.694 -24.085   2.404  1.00  0.00    -0.452 OA
ENDROOT
BRANCH   1  12
ATOM     12  C   UNL     1      28.769 -21.880   2.098  1.00  0.00     0.025 A 
ATOM     13  C   UNL     1      27.404 -21.734   1.803  1.00  0.00     0.016 A 
ATOM     14  C   UNL     1      26.962 -20.683   0.992  1.00  0.00     0.051 A 
ATOM     15  C   UNL     1      27.878 -19.756   0.480  1.00  0.00     0.157 A 
ATOM     16  C   UNL     1      29.682 -20.934   1.596  1.00  0.00     0.062 A 
ATOM     17  C   UNL     1      29.239 -19.878   0.785  1.00  0.00     0.158 A 
BRANCH  15  18
ATOM     18  O   UNL     1      27.442 -18.708  -0.330  1.00  0.00    -0.504 OA
ATOM     19  H   UNL     1      27.978 -18.398  -1.132  1.00  0.00     0.293 HD
ENDBRANCH  15  18
BRANCH  17  20
ATOM     20  O   UNL     1      30.146 -18.946   0.285  1.00  0.00    -0.504 OA
ATOM     21  H   UNL     1      30.956 -18.653   0.819  1.00  0.00     0.293 HD
ENDBRANCH  17  20
ENDBRANCH   1  12
BRANCH   2  22
ATOM     22  O   UNL     1      28.735 -21.715   4.990  1.00  0.00    -0.502 OA
ATOM     23  H   UNL     1      29.087 -21.412   5.890  1.00  0.00     0.293 HD
ENDBRANCH   2  22
BRANCH   6  24
ATOM     24  O   UNL     1      30.279 -26.563   6.562  1.00  0.00    -0.507 OA
ATOM     25  H   UNL     1      30.312 -25.831   7.253  1.00  0.00     0.293 HD
ENDBRANCH   6  24
BRANCH   8  26
ATOM     26  O   UNL     1      31.593 -28.454   2.366  1.00  0.00    -0.508 OA
ATOM     27  H   UNL     1      31.760 -29.346   2.818  1.00  0.00     0.293 HD
ENDBRANCH   8  26
TORSDOF 6
ENDMDL
