MODEL 1
REMARK VINA RESULT:    -5.669      0.000      0.000
REMARK INTER + INTRA:          -6.265
REMARK INTER:                  -6.000
REMARK INTRA:                  -0.265
REMARK UNBOUND:                -0.265
REMARK SMILES CC1=CC[C@@H]2[C@H]3[C@H](C(C)C)CC[C@]2(C)[C@@H]13
REMARK SMILES IDX 1 1 2 2 3 3 4 4 5 5 6 6 15 7 13 8 12 9 11 10 7 11 14 12 8 13
REMARK SMILES IDX 9 14 10 15
REMARK H PARENT
REMARK Flexibility Score: inf
ROOT
ATOM      1  C   UNL     1      27.467  23.956  11.880  1.00  0.00     0.039 C 
ATOM      2  C   UNL     1      28.911  24.220  12.194  1.00  0.00    -0.073 C 
ATOM      3  C   UNL     1      29.518  23.705  13.296  1.00  0.00    -0.027 C 
ATOM      4  C   UNL     1      30.995  24.030  13.546  1.00  0.00     0.031 C 
ATOM      5  C   UNL     1      31.537  24.990  12.436  1.00  0.00     0.003 C 
ATOM      6  C   UNL     1      30.493  26.114  12.243  1.00  0.00     0.004 C 
ATOM      7  C   UNL     1      29.748  25.138  11.302  1.00  0.00     0.024 C 
ATOM      8  C   UNL     1      31.133  24.501  11.025  1.00  0.00    -0.022 C 
ATOM      9  C   UNL     1      31.925  25.327   9.970  1.00  0.00     0.008 C 
ATOM     10  C   UNL     1      31.616  26.843  10.052  1.00  0.00     0.005 C 
ATOM     11  C   UNL     1      31.129  27.311  11.464  1.00  0.00    -0.005 C 
ATOM     12  C   UNL     1      31.211  22.988  10.712  1.00  0.00     0.012 C 
ENDROOT
BRANCH  11  13
ATOM     13  C   UNL     1      30.167  28.539  11.356  1.00  0.00    -0.014 C 
ATOM     14  C   UNL     1      29.454  28.846  12.687  1.00  0.00     0.007 C 
ATOM     15  C   UNL     1      30.924  29.801  10.900  1.00  0.00     0.007 C 
ENDBRANCH  11  13
TORSDOF 1
ENDMDL
MODEL 2
REMARK VINA RESULT:    -5.379      1.248      2.900
REMARK INTER + INTRA:          -5.959
REMARK INTER:                  -5.724
REMARK INTRA:                  -0.235
REMARK UNBOUND:                -0.265
REMARK SMILES CC1=CC[C@@H]2[C@H]3[C@H](C(C)C)CC[C@]2(C)[C@@H]13
REMARK SMILES IDX 1 1 2 2 3 3 4 4 5 5 6 6 15 7 13 8 12 9 11 10 7 11 14 12 8 13
REMARK SMILES IDX 9 14 10 15
REMARK H PARENT
REMARK Flexibility Score: inf
ROOT
ATOM      1  C   UNL     1      32.125  24.312  14.122  1.00  0.00     0.039 C 
ATOM      2  C   UNL     1      31.287  24.298  12.877  1.00  0.00    -0.073 C 
ATOM      3  C   UNL     1      31.384  23.307  11.950  1.00  0.00    -0.027 C 
ATOM      4  C   UNL     1      30.495  23.374  10.702  1.00  0.00     0.031 C 
ATOM      5  C   UNL     1      29.630  24.677  10.718  1.00  0.00     0.003 C 
ATOM      6  C   UNL     1      30.563  25.850  11.098  1.00  0.00     0.004 C 
ATOM      7  C   UNL     1      30.322  25.446  12.572  1.00  0.00     0.024 C 
ATOM      8  C   UNL     1      28.958  24.888  12.095  1.00  0.00    -0.022 C 
ATOM      9  C   UNL     1      27.906  26.027  11.963  1.00  0.00     0.008 C 
ATOM     10  C   UNL     1      28.543  27.373  11.536  1.00  0.00     0.005 C 
ATOM     11  C   UNL     1      29.884  27.213  10.745  1.00  0.00    -0.005 C 
ATOM     12  C   UNL     1      28.355  23.663  12.823  1.00  0.00     0.012 C 
ENDROOT
BRANCH  11  13
ATOM     13  C   UNL     1      30.831  28.436  10.977  1.00  0.00    -0.014 C 
ATOM     14  C   UNL     1      31.523  28.898   9.681  1.00  0.00     0.007 C 
ATOM     15  C   UNL     1      30.063  29.629  11.578  1.00  0.00     0.007 C 
ENDBRANCH  11  13
TORSDOF 1
ENDMDL
MODEL 3
REMARK VINA RESULT:    -5.123      2.311      5.480
REMARK INTER + INTRA:          -5.688
REMARK INTER:                  -5.453
REMARK INTRA:                  -0.235
REMARK UNBOUND:                -0.265
REMARK SMILES CC1=CC[C@@H]2[C@H]3[C@H](C(C)C)CC[C@]2(C)[C@@H]13
REMARK SMILES IDX 1 1 2 2 3 3 4 4 5 5 6 6 15 7 13 8 12 9 11 10 7 11 14 12 8 13
REMARK SMILES IDX 9 14 10 15
REMARK H PARENT
REMARK Flexibility Score: inf
ROOT
ATOM      1  C   UNL     1      27.346  24.140  12.515  1.00  0.00     0.039 C 
ATOM      2  C   UNL     1      28.768  23.920  12.090  1.00  0.00    -0.073 C 
ATOM      3  C   UNL     1      29.180  24.121  10.810  1.00  0.00    -0.027 C 
ATOM      4  C   UNL     1      30.651  23.865  10.458  1.00  0.00     0.031 C 
ATOM      5  C   UNL     1      31.428  23.345  11.712  1.00  0.00     0.003 C 
ATOM      6  C   UNL     1      30.563  22.248  12.374  1.00  0.00     0.004 C 
ATOM      7  C   UNL     1      29.809  23.397  13.083  1.00  0.00     0.024 C 
ATOM      8  C   UNL     1      31.124  24.207  12.959  1.00  0.00    -0.022 C 
ATOM      9  C   UNL     1      32.125  23.819  14.085  1.00  0.00     0.008 C 
ATOM     10  C   UNL     1      32.003  22.330  14.497  1.00  0.00     0.005 C 
ATOM     11  C   UNL     1      31.427  21.409  13.370  1.00  0.00    -0.005 C 
ATOM     12  C   UNL     1      31.044  25.744  12.799  1.00  0.00     0.012 C 
ENDROOT
BRANCH  11  13
ATOM     13  C   UNL     1      30.646  20.196  13.971  1.00  0.00    -0.014 C 
ATOM     14  C   UNL     1      30.938  18.881  13.224  1.00  0.00     0.007 C 
ATOM     15  C   UNL     1      30.982  19.999  15.462  1.00  0.00     0.007 C 
ENDBRANCH  11  13
TORSDOF 1
ENDMDL
MODEL 4
REMARK VINA RESULT:    -4.868      1.511      4.463
REMARK INTER + INTRA:          -5.417
REMARK INTER:                  -5.339
REMARK INTRA:                  -0.078
REMARK UNBOUND:                -0.265
REMARK SMILES CC1=CC[C@@H]2[C@H]3[C@H](C(C)C)CC[C@]2(C)[C@@H]13
REMARK SMILES IDX 1 1 2 2 3 3 4 4 5 5 6 6 15 7 13 8 12 9 11 10 7 11 14 12 8 13
REMARK SMILES IDX 9 14 10 15
REMARK H PARENT
REMARK Flexibility Score: inf
ROOT
ATOM      1  C   UNL     1      28.008  27.790  11.820  1.00  0.00     0.039 C 
ATOM      2  C   UNL     1      29.303  27.118  11.473  1.00  0.00    -0.073 C 
ATOM      3  C   UNL     1      29.921  27.309  10.276  1.00  0.00    -0.027 C 
ATOM      4  C   UNL     1      31.240  26.577  10.000  1.00  0.00     0.031 C 
ATOM      5  C   UNL     1      31.617  25.659  11.210  1.00  0.00     0.003 C 
ATOM      6  C   UNL     1      30.344  24.883  11.620  1.00  0.00     0.004 C 
ATOM      7  C   UNL     1      29.957  26.133  12.445  1.00  0.00     0.024 C 
ATOM      8  C   UNL     1      31.478  26.414  12.552  1.00  0.00    -0.022 C 
ATOM      9  C   UNL     1      32.125  25.551  13.674  1.00  0.00     0.008 C 
ATOM     10  C   UNL     1      31.436  24.173  13.832  1.00  0.00     0.005 C 
ATOM     11  C   UNL     1      30.723  23.672  12.532  1.00  0.00    -0.005 C 
ATOM     12  C   UNL     1      31.964  27.880  12.635  1.00  0.00     0.012 C 
ENDROOT
BRANCH  11  13
ATOM     13  C   UNL     1      29.495  22.765  12.870  1.00  0.00    -0.014 C 
ATOM     14  C   UNL     1      29.880  21.559  13.748  1.00  0.00     0.007 C 
ATOM     15  C   UNL     1      28.392  23.565  13.589  1.00  0.00     0.007 C 
ENDBRANCH  11  13
TORSDOF 1
ENDMDL
MODEL 5
REMARK VINA RESULT:    -4.833      2.034      5.350
REMARK INTER + INTRA:          -5.381
REMARK INTER:                  -5.137
REMARK INTRA:                  -0.244
REMARK UNBOUND:                -0.265
REMARK SMILES CC1=CC[C@@H]2[C@H]3[C@H](C(C)C)CC[C@]2(C)[C@@H]13
REMARK SMILES IDX 1 1 2 2 3 3 4 4 5 5 6 6 15 7 13 8 12 9 11 10 7 11 14 12 8 13
REMARK SMILES IDX 9 14 10 15
REMARK H PARENT
REMARK Flexibility Score: inf
ROOT
ATOM      1  C   UNL     1      32.125  24.003   9.470  1.00  0.00     0.039 C 
ATOM      2  C   UNL     1      31.747  24.457  10.849  1.00  0.00    -0.073 C 
ATOM      3  C   UNL     1      32.124  25.668  11.341  1.00  0.00    -0.027 C 
ATOM      4  C   UNL     1      31.701  26.051  12.764  1.00  0.00     0.031 C 
ATOM      5  C   UNL     1      30.907  24.880  13.431  1.00  0.00     0.003 C 
ATOM      6  C   UNL     1      31.686  23.572  13.153  1.00  0.00     0.004 C 
ATOM      7  C   UNL     1      30.962  23.538  11.786  1.00  0.00     0.024 C 
ATOM      8  C   UNL     1      29.821  24.325  12.480  1.00  0.00    -0.022 C 
ATOM      9  C   UNL     1      28.897  23.369  13.288  1.00  0.00     0.008 C 
ATOM     10  C   UNL     1      29.667  22.163  13.881  1.00  0.00     0.005 C 
ATOM     11  C   UNL     1      31.191  22.439  14.108  1.00  0.00    -0.005 C 
ATOM     12  C   UNL     1      28.985  25.322  11.643  1.00  0.00     0.012 C 
ENDROOT
BRANCH  11  13
ATOM     13  C   UNL     1      32.033  21.128  13.974  1.00  0.00    -0.014 C 
ATOM     14  C   UNL     1      32.102  20.336  15.294  1.00  0.00     0.007 C 
ATOM     15  C   UNL     1      31.461  20.208  12.878  1.00  0.00     0.007 C 
ENDBRANCH  11  13
TORSDOF 1
ENDMDL
MODEL 6
REMARK VINA RESULT:    -4.753      1.411      4.558
REMARK INTER + INTRA:          -5.296
REMARK INTER:                  -5.220
REMARK INTRA:                  -0.075
REMARK UNBOUND:                -0.265
REMARK SMILES CC1=CC[C@@H]2[C@H]3[C@H](C(C)C)CC[C@]2(C)[C@@H]13
REMARK SMILES IDX 1 1 2 2 3 3 4 4 5 5 6 6 15 7 13 8 12 9 11 10 7 11 14 12 8 13
REMARK SMILES IDX 9 14 10 15
REMARK H PARENT
REMARK Flexibility Score: inf
ROOT
ATOM      1  C   UNL     1      32.124  27.495  13.414  1.00  0.00     0.039 C 
ATOM      2  C   UNL     1      31.251  26.780  12.425  1.00  0.00    -0.073 C 
ATOM      3  C   UNL     1      30.224  27.401  11.784  1.00  0.00    -0.027 C 
ATOM      4  C   UNL     1      29.376  26.594  10.793  1.00  0.00     0.031 C 
ATOM      5  C   UNL     1      29.861  25.107  10.746  1.00  0.00     0.003 C 
ATOM      6  C   UNL     1      30.050  24.633  12.206  1.00  0.00     0.004 C 
ATOM      7  C   UNL     1      31.450  25.290  12.142  1.00  0.00     0.024 C 
ATOM      8  C   UNL     1      31.399  25.021  10.616  1.00  0.00    -0.022 C 
ATOM      9  C   UNL     1      31.787  23.548  10.297  1.00  0.00     0.008 C 
ATOM     10  C   UNL     1      31.351  22.567  11.414  1.00  0.00     0.005 C 
ATOM     11  C   UNL     1      30.135  23.074  12.259  1.00  0.00    -0.005 C 
ATOM     12  C   UNL     1      32.120  26.000   9.660  1.00  0.00     0.012 C 
ENDROOT
BRANCH  11  13
ATOM     13  C   UNL     1      30.190  22.522  13.721  1.00  0.00    -0.014 C 
ATOM     14  C   UNL     1      30.270  20.984  13.766  1.00  0.00     0.007 C 
ATOM     15  C   UNL     1      31.392  23.100  14.491  1.00  0.00     0.007 C 
ENDBRANCH  11  13
TORSDOF 1
ENDMDL
MODEL 7
REMARK VINA RESULT:    -4.566      1.346      4.771
REMARK INTER + INTRA:          -5.097
REMARK INTER:                  -4.916
REMARK INTRA:                  -0.181
REMARK UNBOUND:                -0.265
REMARK SMILES CC1=CC[C@@H]2[C@H]3[C@H](C(C)C)CC[C@]2(C)[C@@H]13
REMARK SMILES IDX 1 1 2 2 3 3 4 4 5 5 6 6 15 7 13 8 12 9 11 10 7 11 14 12 8 13
REMARK SMILES IDX 9 14 10 15
REMARK H PARENT
REMARK Flexibility Score: inf
ROOT
ATOM      1  C   UNL     1      31.688  28.481   8.886  1.00  0.00     0.039 C 
ATOM      2  C   UNL     1      31.456  27.972  10.278  1.00  0.00    -0.073 C 
ATOM      3  C   UNL     1      32.105  28.492  11.355  1.00  0.00    -0.027 C 
ATOM      4  C   UNL     1      31.815  27.908  12.744  1.00  0.00     0.031 C 
ATOM      5  C   UNL     1      30.800  26.723  12.636  1.00  0.00     0.003 C 
ATOM      6  C   UNL     1      31.263  25.818  11.470  1.00  0.00     0.004 C 
ATOM      7  C   UNL     1      30.513  26.795  10.533  1.00  0.00     0.024 C 
ATOM      8  C   UNL     1      29.593  27.096  11.743  1.00  0.00    -0.022 C 
ATOM      9  C   UNL     1      28.503  25.998  11.901  1.00  0.00     0.008 C 
ATOM     10  C   UNL     1      29.003  24.600  11.458  1.00  0.00     0.005 C 
ATOM     11  C   UNL     1      30.556  24.427  11.555  1.00  0.00    -0.005 C 
ATOM     12  C   UNL     1      28.976  28.508  11.880  1.00  0.00     0.012 C 
ENDROOT
BRANCH  11  13
ATOM     13  C   UNL     1      31.083  23.417  10.484  1.00  0.00    -0.014 C 
ATOM     14  C   UNL     1      32.123  24.050   9.540  1.00  0.00     0.007 C 
ATOM     15  C   UNL     1      31.713  22.178  11.149  1.00  0.00     0.007 C 
ENDBRANCH  11  13
TORSDOF 1
ENDMDL
MODEL 8
REMARK VINA RESULT:    -3.714      2.860      4.039
REMARK INTER + INTRA:          -4.196
REMARK INTER:                  -3.879
REMARK INTRA:                  -0.317
REMARK UNBOUND:                -0.265
REMARK SMILES CC1=CC[C@@H]2[C@H]3[C@H](C(C)C)CC[C@]2(C)[C@@H]13
REMARK SMILES IDX 1 1 2 2 3 3 4 4 5 5 6 6 15 7 13 8 12 9 11 10 7 11 14 12 8 13
REMARK SMILES IDX 9 14 10 15
REMARK H PARENT
REMARK Flexibility Score: inf
ROOT
ATOM      1  C   UNL     1      30.084  19.949  14.044  1.00  0.00     0.039 C 
ATOM      2  C   UNL     1      30.596  21.318  13.706  1.00  0.00    -0.073 C 
ATOM      3  C   UNL     1      31.661  21.871  14.346  1.00  0.00    -0.027 C 
ATOM      4  C   UNL     1      32.115  23.279  13.945  1.00  0.00     0.031 C 
ATOM      5  C   UNL     1      31.174  23.860  12.838  1.00  0.00     0.003 C 
ATOM      6  C   UNL     1      29.717  23.585  13.275  1.00  0.00     0.004 C 
ATOM      7  C   UNL     1      29.892  22.178  12.655  1.00  0.00     0.024 C 
ATOM      8  C   UNL     1      30.932  22.830  11.710  1.00  0.00    -0.022 C 
ATOM      9  C   UNL     1      30.231  23.553  10.523  1.00  0.00     0.008 C 
ATOM     10  C   UNL     1      28.858  24.149  10.923  1.00  0.00     0.005 C 
ATOM     11  C   UNL     1      28.731  24.472  12.449  1.00  0.00    -0.005 C 
ATOM     12  C   UNL     1      32.125  21.981  11.210  1.00  0.00     0.012 C 
ENDROOT
BRANCH  11  13
ATOM     13  C   UNL     1      27.251  24.343  12.936  1.00  0.00    -0.014 C 
ATOM     14  C   UNL     1      26.314  23.809  11.836  1.00  0.00     0.007 C 
ATOM     15  C   UNL     1      27.146  23.418  14.163  1.00  0.00     0.007 C 
ENDBRANCH  11  13
TORSDOF 1
ENDMDL
MODEL 9
REMARK VINA RESULT:    -3.332      1.867      4.387
REMARK INTER + INTRA:          -3.792
REMARK INTER:                  -3.400
REMARK INTRA:                  -0.391
REMARK UNBOUND:                -0.265
REMARK SMILES CC1=CC[C@@H]2[C@H]3[C@H](C(C)C)CC[C@]2(C)[C@@H]13
REMARK SMILES IDX 1 1 2 2 3 3 4 4 5 5 6 6 15 7 13 8 12 9 11 10 7 11 14 12 8 13
REMARK SMILES IDX 9 14 10 15
REMARK H PARENT
REMARK Flexibility Score: inf
ROOT
ATOM      1  C   UNL     1      27.075  23.554  14.007  1.00  0.00     0.039 C 
ATOM      2  C   UNL     1      27.881  23.846  12.775  1.00  0.00    -0.073 C 
ATOM      3  C   UNL     1      27.346  23.774  11.527  1.00  0.00    -0.027 C 
ATOM      4  C   UNL     1      28.242  24.081  10.321  1.00  0.00     0.031 C 
ATOM      5  C   UNL     1      29.701  24.391  10.791  1.00  0.00     0.003 C 
ATOM      6  C   UNL     1      30.096  23.311  11.825  1.00  0.00     0.004 C 
ATOM      7  C   UNL     1      29.370  24.182  12.877  1.00  0.00     0.024 C 
ATOM      8  C   UNL     1      29.711  25.391  11.970  1.00  0.00    -0.022 C 
ATOM      9  C   UNL     1      31.174  25.867  12.203  1.00  0.00     0.008 C 
ATOM     10  C   UNL     1      32.125  24.699  12.566  1.00  0.00     0.005 C 
ATOM     11  C   UNL     1      31.645  23.307  12.034  1.00  0.00    -0.005 C 
ATOM     12  C   UNL     1      28.740  26.595  11.932  1.00  0.00     0.012 C 
ENDROOT
BRANCH  11  13
ATOM     13  C   UNL     1      32.125  22.146  12.965  1.00  0.00    -0.014 C 
ATOM     14  C   UNL     1      32.086  22.534  14.455  1.00  0.00     0.007 C 
ATOM     15  C   UNL     1      31.270  20.881  12.764  1.00  0.00     0.007 C 
ENDBRANCH  11  13
TORSDOF 1
ENDMDL
