MODEL 1
REMARK VINA RESULT:    -1.715      0.000      0.000
REMARK INTER + INTRA:          -1.715
REMARK INTER:                  -1.715
REMARK INTRA:                   0.000
REMARK UNBOUND:                 0.000
REMARK SMILES CC(=O)[O-]
REMARK SMILES IDX 1 1 2 2 3 3 4 4
REMARK H PARENT
REMARK Flexibility Score: inf
ROOT
ATOM      1  C   UNL     1      -7.143 -10.913  33.154  1.00  0.00     0.063 C 
ATOM      2  C   UNL     1      -8.077 -10.390  34.192  1.00  0.00     0.038 C 
ATOM      3  O   UNL     1      -9.006 -11.118  34.631  1.00  0.00    -0.550 OA
ATOM      4  O   UNL     1      -7.894  -9.117  34.716  1.00  0.00    -0.550 OA
ENDROOT
TORSDOF 0
ENDMDL
MODEL 2
REMARK VINA RESULT:    -1.695     18.938     19.328
REMARK INTER + INTRA:          -1.695
REMARK INTER:                  -1.695
REMARK INTRA:                   0.000
REMARK UNBOUND:                 0.000
REMARK SMILES CC(=O)[O-]
REMARK SMILES IDX 1 1 2 2 3 3 4 4
REMARK H PARENT
REMARK Flexibility Score: inf
ROOT
ATOM      1  C   UNL     1      -4.056   5.825  40.435  1.00  0.00     0.063 C 
ATOM      2  C   UNL     1      -3.883   7.242  40.867  1.00  0.00     0.038 C 
ATOM      3  O   UNL     1      -3.502   8.112  40.042  1.00  0.00    -0.550 OA
ATOM      4  O   UNL     1      -4.194   7.615  42.168  1.00  0.00    -0.550 OA
ENDROOT
TORSDOF 0
ENDMDL
MODEL 3
REMARK VINA RESULT:    -1.688     19.962     20.290
REMARK INTER + INTRA:          -1.688
REMARK INTER:                  -1.688
REMARK INTRA:                   0.000
REMARK UNBOUND:                 0.000
REMARK SMILES CC(=O)[O-]
REMARK SMILES IDX 1 1 2 2 3 3 4 4
REMARK H PARENT
REMARK Flexibility Score: inf
ROOT
ATOM      1  C   UNL     1      -3.968   7.315  40.754  1.00  0.00     0.063 C 
ATOM      2  C   UNL     1      -3.612   7.749  42.136  1.00  0.00     0.038 C 
ATOM      3  O   UNL     1      -4.511   7.881  43.008  1.00  0.00    -0.550 OA
ATOM      4  O   UNL     1      -2.283   7.958  42.479  1.00  0.00    -0.550 OA
ENDROOT
TORSDOF 0
ENDMDL
MODEL 4
REMARK VINA RESULT:    -1.665     20.116     20.365
REMARK INTER + INTRA:          -1.665
REMARK INTER:                  -1.665
REMARK INTRA:                   0.000
REMARK UNBOUND:                 0.000
REMARK SMILES CC(=O)[O-]
REMARK SMILES IDX 1 1 2 2 3 3 4 4
REMARK H PARENT
REMARK Flexibility Score: inf
ROOT
ATOM      1  C   UNL     1      -3.820   7.554  40.513  1.00  0.00     0.063 C 
ATOM      2  C   UNL     1      -2.617   8.275  40.006  1.00  0.00     0.038 C 
ATOM      3  O   UNL     1      -2.684   8.945  38.942  1.00  0.00    -0.550 OA
ATOM      4  O   UNL     1      -1.435   8.254  40.734  1.00  0.00    -0.550 OA
ENDROOT
TORSDOF 0
ENDMDL
MODEL 5
REMARK VINA RESULT:    -1.493     22.849     23.266
REMARK INTER + INTRA:          -1.493
REMARK INTER:                  -1.493
REMARK INTRA:                   0.000
REMARK UNBOUND:                 0.000
REMARK SMILES CC(=O)[O-]
REMARK SMILES IDX 1 1 2 2 3 3 4 4
REMARK H PARENT
REMARK Flexibility Score: inf
ROOT
ATOM      1  C   UNL     1       4.174   7.219  26.608  1.00  0.00     0.063 C 
ATOM      2  C   UNL     1       3.361   8.467  26.685  1.00  0.00     0.038 C 
ATOM      3  O   UNL     1       3.107   9.122  25.641  1.00  0.00    -0.550 OA
ATOM      4  O   UNL     1       2.836   8.881  27.903  1.00  0.00    -0.550 OA
ENDROOT
TORSDOF 0
ENDMDL
MODEL 6
REMARK VINA RESULT:    -1.476     22.601     23.062
REMARK INTER + INTRA:          -1.476
REMARK INTER:                  -1.476
REMARK INTRA:                   0.000
REMARK UNBOUND:                 0.000
REMARK SMILES CC(=O)[O-]
REMARK SMILES IDX 1 1 2 2 3 3 4 4
REMARK H PARENT
REMARK Flexibility Score: inf
ROOT
ATOM      1  C   UNL     1       1.857   9.125  25.886  1.00  0.00     0.063 C 
ATOM      2  C   UNL     1       2.240   9.021  27.323  1.00  0.00     0.038 C 
ATOM      3  O   UNL     1       3.448   9.119  27.665  1.00  0.00    -0.550 OA
ATOM      4  O   UNL     1       1.260   8.868  28.295  1.00  0.00    -0.550 OA
ENDROOT
TORSDOF 0
ENDMDL
MODEL 7
REMARK VINA RESULT:    -1.476     19.838     20.156
REMARK INTER + INTRA:          -1.476
REMARK INTER:                  -1.476
REMARK INTRA:                   0.000
REMARK UNBOUND:                 0.000
REMARK SMILES CC(=O)[O-]
REMARK SMILES IDX 1 1 2 2 3 3 4 4
REMARK H PARENT
REMARK Flexibility Score: inf
ROOT
ATOM      1  C   UNL     1      -2.377   9.125  38.703  1.00  0.00     0.063 C 
ATOM      2  C   UNL     1      -1.589   8.213  37.824  1.00  0.00     0.038 C 
ATOM      3  O   UNL     1      -1.933   8.037  36.626  1.00  0.00    -0.550 OA
ATOM      4  O   UNL     1      -0.444   7.596  38.309  1.00  0.00    -0.550 OA
ENDROOT
TORSDOF 0
ENDMDL
