MODEL 1
REMARK VINA RESULT:    -3.219      0.000      0.000
REMARK INTER + INTRA:          -3.630
REMARK INTER:                  -3.595
REMARK INTRA:                  -0.035
REMARK UNBOUND:                -0.035
REMARK SMILES CCCC(=O)[O-]
REMARK SMILES IDX 3 1 4 2 5 3 6 4 2 5 1 6
REMARK H PARENT
REMARK Flexibility Score: inf
ROOT
ATOM      1  C   UNL     1      32.655 144.848 108.015  1.00  0.00     0.052 C 
ENDROOT
BRANCH   1   2
ATOM      2  C   UNL     1      32.658 143.502 107.356  1.00  0.00     0.041 C 
ATOM      3  O   UNL     1      33.672 143.111 106.718  1.00  0.00    -0.550 OA
ATOM      4  O   UNL     1      31.530 142.694 107.416  1.00  0.00    -0.550 OA
ENDBRANCH   1   2
BRANCH   1   5
ATOM      5  C   UNL     1      32.958 144.748 109.515  1.00  0.00     0.003 C 
ATOM      6  C   UNL     1      34.401 145.133 109.843  1.00  0.00     0.004 C 
ENDBRANCH   1   5
TORSDOF 2
ENDMDL
MODEL 2
REMARK VINA RESULT:    -2.969      2.237      3.356
REMARK INTER + INTRA:          -3.351
REMARK INTER:                  -3.314
REMARK INTRA:                  -0.037
REMARK UNBOUND:                -0.035
REMARK SMILES CCCC(=O)[O-]
REMARK SMILES IDX 3 1 4 2 5 3 6 4 2 5 1 6
REMARK H PARENT
REMARK Flexibility Score: inf
ROOT
ATOM      1  C   UNL     1      32.672 144.720 108.965  1.00  0.00     0.052 C 
ENDROOT
BRANCH   1   2
ATOM      2  C   UNL     1      34.073 144.755 109.495  1.00  0.00     0.041 C 
ATOM      3  O   UNL     1      34.359 145.485 110.481  1.00  0.00    -0.550 OA
ATOM      4  O   UNL     1      35.069 144.008 108.880  1.00  0.00    -0.550 OA
ENDBRANCH   1   2
BRANCH   1   5
ATOM      5  C   UNL     1      32.620 144.185 107.529  1.00  0.00     0.003 C 
ATOM      6  C   UNL     1      31.847 142.870 107.427  1.00  0.00     0.004 C 
ENDBRANCH   1   5
TORSDOF 2
ENDMDL
MODEL 3
REMARK VINA RESULT:    -2.777      2.183      3.463
REMARK INTER + INTRA:          -3.136
REMARK INTER:                  -3.125
REMARK INTRA:                  -0.011
REMARK UNBOUND:                -0.035
REMARK SMILES CCCC(=O)[O-]
REMARK SMILES IDX 3 1 4 2 5 3 6 4 2 5 1 6
REMARK H PARENT
REMARK Flexibility Score: inf
ROOT
ATOM      1  C   UNL     1      33.118 143.991 107.572  1.00  0.00     0.052 C 
ENDROOT
BRANCH   1   2
ATOM      2  C   UNL     1      32.812 144.845 108.764  1.00  0.00     0.041 C 
ATOM      3  O   UNL     1      31.780 145.567 108.778  1.00  0.00    -0.550 OA
ATOM      4  O   UNL     1      33.684 144.871 109.845  1.00  0.00    -0.550 OA
ENDBRANCH   1   2
BRANCH   1   5
ATOM      5  C   UNL     1      31.971 143.025 107.253  1.00  0.00     0.003 C 
ATOM      6  C   UNL     1      31.982 142.571 105.793  1.00  0.00     0.004 C 
ENDBRANCH   1   5
TORSDOF 2
ENDMDL
MODEL 4
REMARK VINA RESULT:    -2.580      1.372      1.605
REMARK INTER + INTRA:          -2.916
REMARK INTER:                  -2.873
REMARK INTRA:                  -0.043
REMARK UNBOUND:                -0.035
REMARK SMILES CCCC(=O)[O-]
REMARK SMILES IDX 3 1 4 2 5 3 6 4 2 5 1 6
REMARK H PARENT
REMARK Flexibility Score: inf
ROOT
ATOM      1  C   UNL     1      33.174 143.770 107.428  1.00  0.00     0.052 C 
ENDROOT
BRANCH   1   2
ATOM      2  C   UNL     1      32.172 142.883 106.754  1.00  0.00     0.041 C 
ATOM      3  O   UNL     1      32.143 142.800 105.498  1.00  0.00    -0.550 OA
ATOM      4  O   UNL     1      31.247 142.176 107.512  1.00  0.00    -0.550 OA
ENDBRANCH   1   2
BRANCH   1   5
ATOM      5  C   UNL     1      32.689 144.232 108.808  1.00  0.00     0.003 C 
ATOM      6  C   UNL     1      31.912 145.547 108.739  1.00  0.00     0.004 C 
ENDBRANCH   1   5
TORSDOF 2
ENDMDL
MODEL 5
REMARK VINA RESULT:    -2.552     20.161     20.634
REMARK INTER + INTRA:          -2.885
REMARK INTER:                  -2.846
REMARK INTRA:                  -0.038
REMARK UNBOUND:                -0.035
REMARK SMILES CCCC(=O)[O-]
REMARK SMILES IDX 3 1 4 2 5 3 6 4 2 5 1 6
REMARK H PARENT
REMARK Flexibility Score: inf
ROOT
ATOM      1  C   UNL     1      42.818 159.500 115.769  1.00  0.00     0.052 C 
ENDROOT
BRANCH   1   2
ATOM      2  C   UNL     1      42.373 160.193 117.020  1.00  0.00     0.041 C 
ATOM      3  O   UNL     1      43.204 160.455 117.929  1.00  0.00    -0.550 OA
ATOM      4  O   UNL     1      41.034 160.518 117.198  1.00  0.00    -0.550 OA
ENDBRANCH   1   2
BRANCH   1   5
ATOM      5  C   UNL     1      44.342 159.341 115.717  1.00  0.00     0.003 C 
ATOM      6  C   UNL     1      44.783 157.895 115.951  1.00  0.00     0.004 C 
ENDBRANCH   1   5
TORSDOF 2
ENDMDL
MODEL 6
REMARK VINA RESULT:    -2.508     18.046     18.663
REMARK INTER + INTRA:          -2.836
REMARK INTER:                  -2.785
REMARK INTRA:                  -0.050
REMARK UNBOUND:                -0.035
REMARK SMILES CCCC(=O)[O-]
REMARK SMILES IDX 3 1 4 2 5 3 6 4 2 5 1 6
REMARK H PARENT
REMARK Flexibility Score: inf
ROOT
ATOM      1  C   UNL     1      25.405 157.369 119.813  1.00  0.00     0.052 C 
ENDROOT
BRANCH   1   2
ATOM      2  C   UNL     1      26.002 158.090 118.643  1.00  0.00     0.041 C 
ATOM      3  O   UNL     1      26.911 158.943 118.821  1.00  0.00    -0.550 OA
ATOM      4  O   UNL     1      25.529 157.845 117.360  1.00  0.00    -0.550 OA
ENDBRANCH   1   2
BRANCH   1   5
ATOM      5  C   UNL     1      26.309 156.231 120.302  1.00  0.00     0.003 C 
ATOM      6  C   UNL     1      26.152 154.963 119.462  1.00  0.00     0.004 C 
ENDBRANCH   1   5
TORSDOF 2
ENDMDL
MODEL 7
REMARK VINA RESULT:    -2.462     18.101     18.701
REMARK INTER + INTRA:          -2.785
REMARK INTER:                  -2.774
REMARK INTRA:                  -0.011
REMARK UNBOUND:                -0.035
REMARK SMILES CCCC(=O)[O-]
REMARK SMILES IDX 3 1 4 2 5 3 6 4 2 5 1 6
REMARK H PARENT
REMARK Flexibility Score: inf
ROOT
ATOM      1  C   UNL     1      25.579 157.203 117.832  1.00  0.00     0.052 C 
ENDROOT
BRANCH   1   2
ATOM      2  C   UNL     1      25.843 158.675 117.746  1.00  0.00     0.041 C 
ATOM      3  O   UNL     1      25.623 159.417 118.740  1.00  0.00    -0.550 OA
ATOM      4  O   UNL     1      26.298 159.233 116.558  1.00  0.00    -0.550 OA
ENDBRANCH   1   2
BRANCH   1   5
ATOM      5  C   UNL     1      25.600 156.703 119.282  1.00  0.00     0.003 C 
ATOM      6  C   UNL     1      26.109 155.266 119.394  1.00  0.00     0.004 C 
ENDBRANCH   1   5
TORSDOF 2
ENDMDL
