MODEL 1
REMARK VINA RESULT:    -4.187      0.000      0.000
REMARK INTER + INTRA:          -4.975
REMARK INTER:                  -4.676
REMARK INTRA:                  -0.299
REMARK UNBOUND:                -0.299
REMARK SMILES CC(=O)c1ccc(O)cc1O
REMARK SMILES IDX 4 1 10 2 9 3 7 4 6 5 5 6 2 7 1 8 3 9 11 10 8 12
REMARK H PARENT 11 11 8 13
REMARK Flexibility Score: inf
ROOT
ATOM      1  C   UNL     1      42.044 -40.789  -5.087  1.00  0.00     0.059 A 
ATOM      2  C   UNL     1      42.068 -39.524  -4.450  1.00  0.00     0.130 A 
ATOM      3  C   UNL     1      40.904 -38.745  -4.410  1.00  0.00     0.093 A 
ATOM      4  C   UNL     1      39.708 -39.217  -4.963  1.00  0.00     0.119 A 
ATOM      5  C   UNL     1      39.676 -40.476  -5.565  1.00  0.00     0.047 A 
ATOM      6  C   UNL     1      40.832 -41.256  -5.629  1.00  0.00     0.019 A 
ENDROOT
BRANCH   1   7
ATOM      7  C   UNL     1      43.265 -41.618  -5.234  1.00  0.00     0.163 C 
ATOM      8  C   UNL     1      43.549 -42.358  -6.503  1.00  0.00     0.093 C 
ATOM      9  O   UNL     1      44.123 -41.641  -4.311  1.00  0.00    -0.294 OA
ENDBRANCH   1   7
BRANCH   2  10
ATOM     10  O   UNL     1      43.211 -39.022  -3.823  1.00  0.00    -0.507 OA
ATOM     11  H   UNL     1      43.921 -39.610  -3.410  1.00  0.00     0.293 HD
ENDBRANCH   2  10
BRANCH   4  12
ATOM     12  O   UNL     1      38.550 -38.446  -4.916  1.00  0.00    -0.508 OA
ATOM     13  H   UNL     1      37.710 -38.722  -5.412  1.00  0.00     0.293 HD
ENDBRANCH   4  12
TORSDOF 3
ENDMDL
MODEL 2
REMARK VINA RESULT:    -4.140      1.601      4.001
REMARK INTER + INTRA:          -4.923
REMARK INTER:                  -4.674
REMARK INTRA:                  -0.248
REMARK UNBOUND:                -0.299
REMARK SMILES CC(=O)c1ccc(O)cc1O
REMARK SMILES IDX 4 1 10 2 9 3 7 4 6 5 5 6 2 7 1 8 3 9 11 10 8 12
REMARK H PARENT 11 11 8 13
REMARK Flexibility Score: inf
ROOT
ATOM      1  C   UNL     1      40.183 -40.584  -4.426  1.00  0.00     0.059 A 
ATOM      2  C   UNL     1      41.279 -40.052  -3.702  1.00  0.00     0.130 A 
ATOM      3  C   UNL     1      42.587 -40.339  -4.112  1.00  0.00     0.093 A 
ATOM      4  C   UNL     1      42.824 -41.119  -5.250  1.00  0.00     0.119 A 
ATOM      5  C   UNL     1      41.747 -41.619  -5.982  1.00  0.00     0.047 A 
ATOM      6  C   UNL     1      40.437 -41.356  -5.576  1.00  0.00     0.019 A 
ENDROOT
BRANCH   1   7
ATOM      7  C   UNL     1      38.780 -40.384  -3.990  1.00  0.00     0.163 C 
ATOM      8  C   UNL     1      37.633 -40.766  -4.872  1.00  0.00     0.093 C 
ATOM      9  O   UNL     1      38.539 -39.961  -2.827  1.00  0.00    -0.294 OA
ENDBRANCH   1   7
BRANCH   2  10
ATOM     10  O   UNL     1      41.110 -39.216  -2.596  1.00  0.00    -0.507 OA
ATOM     11  H   UNL     1      41.097 -38.207  -2.659  1.00  0.00     0.293 HD
ENDBRANCH   2  10
BRANCH   4  12
ATOM     12  O   UNL     1      44.125 -41.397  -5.662  1.00  0.00    -0.508 OA
ATOM     13  H   UNL     1      44.692 -42.092  -5.191  1.00  0.00     0.293 HD
ENDBRANCH   4  12
TORSDOF 3
ENDMDL
MODEL 3
REMARK VINA RESULT:    -3.857      1.875      2.179
REMARK INTER + INTRA:          -4.606
REMARK INTER:                  -4.310
REMARK INTRA:                  -0.296
REMARK UNBOUND:                -0.299
REMARK SMILES CC(=O)c1ccc(O)cc1O
REMARK SMILES IDX 4 1 10 2 9 3 7 4 6 5 5 6 2 7 1 8 3 9 11 10 8 12
REMARK H PARENT 11 11 8 13
REMARK Flexibility Score: inf
ROOT
ATOM      1  C   UNL     1      41.157 -40.550  -4.254  1.00  0.00     0.059 A 
ATOM      2  C   UNL     1      40.521 -40.507  -2.988  1.00  0.00     0.130 A 
ATOM      3  C   UNL     1      39.125 -40.580  -2.909  1.00  0.00     0.093 A 
ATOM      4  C   UNL     1      38.351 -40.729  -4.067  1.00  0.00     0.119 A 
ATOM      5  C   UNL     1      38.977 -40.801  -5.312  1.00  0.00     0.047 A 
ATOM      6  C   UNL     1      40.367 -40.712  -5.408  1.00  0.00     0.019 A 
ENDROOT
BRANCH   1   7
ATOM      7  C   UNL     1      42.624 -40.392  -4.403  1.00  0.00     0.163 C 
ATOM      8  C   UNL     1      43.424 -41.346  -5.234  1.00  0.00     0.093 C 
ATOM      9  O   UNL     1      43.203 -39.396  -3.892  1.00  0.00    -0.294 OA
ENDBRANCH   1   7
BRANCH   2  10
ATOM     10  O   UNL     1      41.239 -40.424  -1.793  1.00  0.00    -0.507 OA
ATOM     11  H   UNL     1      40.828 -40.130  -0.917  1.00  0.00     0.293 HD
ENDBRANCH   2  10
BRANCH   4  12
ATOM     12  O   UNL     1      36.963 -40.810  -3.988  1.00  0.00    -0.508 OA
ATOM     13  H   UNL     1      36.366 -40.235  -4.571  1.00  0.00     0.293 HD
ENDBRANCH   4  12
TORSDOF 3
ENDMDL
MODEL 4
REMARK VINA RESULT:    -3.729     18.283     18.931
REMARK INTER + INTRA:          -4.464
REMARK INTER:                  -4.182
REMARK INTRA:                  -0.282
REMARK UNBOUND:                -0.299
REMARK SMILES CC(=O)c1ccc(O)cc1O
REMARK SMILES IDX 4 1 10 2 9 3 7 4 6 5 5 6 2 7 1 8 3 9 11 10 8 12
REMARK H PARENT 11 11 8 13
REMARK Flexibility Score: inf
ROOT
ATOM      1  C   UNL     1      28.779 -30.520   4.737  1.00  0.00     0.059 A 
ATOM      2  C   UNL     1      28.959 -30.055   3.411  1.00  0.00     0.130 A 
ATOM      3  C   UNL     1      28.015 -30.378   2.427  1.00  0.00     0.093 A 
ATOM      4  C   UNL     1      26.877 -31.128   2.749  1.00  0.00     0.119 A 
ATOM      5  C   UNL     1      26.683 -31.562   4.061  1.00  0.00     0.047 A 
ATOM      6  C   UNL     1      27.624 -31.263   5.048  1.00  0.00     0.019 A 
ENDROOT
BRANCH   1   7
ATOM      7  C   UNL     1      29.788 -30.281   5.797  1.00  0.00     0.163 C 
ATOM      8  C   UNL     1      29.405 -29.653   7.101  1.00  0.00     0.093 C 
ATOM      9  O   UNL     1      30.972 -30.683   5.640  1.00  0.00    -0.294 OA
ENDBRANCH   1   7
BRANCH   2  10
ATOM     10  O   UNL     1      30.038 -29.251   3.039  1.00  0.00    -0.507 OA
ATOM     11  H   UNL     1      31.003 -29.539   3.127  1.00  0.00     0.293 HD
ENDBRANCH   2  10
BRANCH   4  12
ATOM     12  O   UNL     1      25.934 -31.443   1.773  1.00  0.00    -0.508 OA
ATOM     13  H   UNL     1      25.761 -32.401   1.494  1.00  0.00     0.293 HD
ENDBRANCH   4  12
TORSDOF 3
ENDMDL
MODEL 5
REMARK VINA RESULT:    -3.715      2.285      4.547
REMARK INTER + INTRA:          -4.448
REMARK INTER:                  -4.141
REMARK INTRA:                  -0.307
REMARK UNBOUND:                -0.299
REMARK SMILES CC(=O)c1ccc(O)cc1O
REMARK SMILES IDX 4 1 10 2 9 3 7 4 6 5 5 6 2 7 1 8 3 9 11 10 8 12
REMARK H PARENT 11 11 8 13
REMARK Flexibility Score: inf
ROOT
ATOM      1  C   UNL     1      40.641 -40.449  -3.149  1.00  0.00     0.059 A 
ATOM      2  C   UNL     1      40.445 -40.823  -4.501  1.00  0.00     0.130 A 
ATOM      3  C   UNL     1      41.547 -40.938  -5.358  1.00  0.00     0.093 A 
ATOM      4  C   UNL     1      42.846 -40.721  -4.883  1.00  0.00     0.119 A 
ATOM      5  C   UNL     1      43.045 -40.382  -3.544  1.00  0.00     0.047 A 
ATOM      6  C   UNL     1      41.954 -40.246  -2.682  1.00  0.00     0.019 A 
ENDROOT
BRANCH   1   7
ATOM      7  C   UNL     1      39.506 -40.230  -2.220  1.00  0.00     0.163 C 
ATOM      8  C   UNL     1      39.571 -40.687  -0.797  1.00  0.00     0.093 C 
ATOM      9  O   UNL     1      38.499 -39.577  -2.604  1.00  0.00    -0.294 OA
ENDBRANCH   1   7
BRANCH   2  10
ATOM     10  O   UNL     1      39.181 -41.115  -5.021  1.00  0.00    -0.507 OA
ATOM     11  H   UNL     1      38.795 -40.656  -5.834  1.00  0.00     0.293 HD
ENDBRANCH   2  10
BRANCH   4  12
ATOM     12  O   UNL     1      43.943 -40.844  -5.732  1.00  0.00    -0.508 OA
ATOM     13  H   UNL     1      44.002 -41.589  -6.416  1.00  0.00     0.293 HD
ENDBRANCH   4  12
TORSDOF 3
ENDMDL
MODEL 6
REMARK VINA RESULT:    -3.631      2.120      4.451
REMARK INTER + INTRA:          -4.354
REMARK INTER:                  -4.049
REMARK INTRA:                  -0.305
REMARK UNBOUND:                -0.299
REMARK SMILES CC(=O)c1ccc(O)cc1O
REMARK SMILES IDX 4 1 10 2 9 3 7 4 6 5 5 6 2 7 1 8 3 9 11 10 8 12
REMARK H PARENT 11 11 8 13
REMARK Flexibility Score: inf
ROOT
ATOM      1  C   UNL     1      39.265 -40.478  -4.484  1.00  0.00     0.059 A 
ATOM      2  C   UNL     1      39.378 -40.387  -3.074  1.00  0.00     0.130 A 
ATOM      3  C   UNL     1      40.644 -40.400  -2.477  1.00  0.00     0.093 A 
ATOM      4  C   UNL     1      41.803 -40.469  -3.259  1.00  0.00     0.119 A 
ATOM      5  C   UNL     1      41.696 -40.529  -4.649  1.00  0.00     0.047 A 
ATOM      6  C   UNL     1      40.439 -40.534  -5.259  1.00  0.00     0.019 A 
ENDROOT
BRANCH   1   7
ATOM      7  C   UNL     1      37.950 -40.554  -5.164  1.00  0.00     0.163 C 
ATOM      8  C   UNL     1      37.669 -39.753  -6.397  1.00  0.00     0.093 C 
ATOM      9  O   UNL     1      37.076 -41.363  -4.753  1.00  0.00    -0.294 OA
ENDBRANCH   1   7
BRANCH   2  10
ATOM     10  O   UNL     1      38.265 -40.252  -2.241  1.00  0.00    -0.507 OA
ATOM     11  H   UNL     1      37.484 -40.894  -2.248  1.00  0.00     0.293 HD
ENDBRANCH   2  10
BRANCH   4  12
ATOM     12  O   UNL     1      43.063 -40.474  -2.666  1.00  0.00    -0.508 OA
ATOM     13  H   UNL     1      43.849 -40.948  -3.096  1.00  0.00     0.293 HD
ENDBRANCH   4  12
TORSDOF 3
ENDMDL
MODEL 7
REMARK VINA RESULT:    -3.551      1.518      4.242
REMARK INTER + INTRA:          -4.264
REMARK INTER:                  -3.966
REMARK INTRA:                  -0.298
REMARK UNBOUND:                -0.299
REMARK SMILES CC(=O)c1ccc(O)cc1O
REMARK SMILES IDX 4 1 10 2 9 3 7 4 6 5 5 6 2 7 1 8 3 9 11 10 8 12
REMARK H PARENT 11 11 8 13
REMARK Flexibility Score: inf
ROOT
ATOM      1  C   UNL     1      39.478 -39.801  -5.211  1.00  0.00     0.059 A 
ATOM      2  C   UNL     1      39.843 -38.478  -4.859  1.00  0.00     0.130 A 
ATOM      3  C   UNL     1      41.136 -38.216  -4.390  1.00  0.00     0.093 A 
ATOM      4  C   UNL     1      42.084 -39.242  -4.298  1.00  0.00     0.119 A 
ATOM      5  C   UNL     1      41.736 -40.540  -4.673  1.00  0.00     0.047 A 
ATOM      6  C   UNL     1      40.445 -40.820  -5.125  1.00  0.00     0.019 A 
ENDROOT
BRANCH   1   7
ATOM      7  C   UNL     1      38.100 -40.151  -5.632  1.00  0.00     0.163 C 
ATOM      8  C   UNL     1      37.254 -41.080  -4.819  1.00  0.00     0.093 C 
ATOM      9  O   UNL     1      37.594 -39.599  -6.646  1.00  0.00    -0.294 OA
ENDBRANCH   1   7
BRANCH   2  10
ATOM     10  O   UNL     1      38.964 -37.400  -4.987  1.00  0.00    -0.507 OA
ATOM     11  H   UNL     1      38.276 -37.328  -5.724  1.00  0.00     0.293 HD
ENDBRANCH   2  10
BRANCH   4  12
ATOM     12  O   UNL     1      43.373 -38.980  -3.840  1.00  0.00    -0.508 OA
ATOM     13  H   UNL     1      43.948 -39.708  -3.433  1.00  0.00     0.293 HD
ENDBRANCH   4  12
TORSDOF 3
ENDMDL
MODEL 8
REMARK VINA RESULT:    -3.529      2.435      3.606
REMARK INTER + INTRA:          -4.240
REMARK INTER:                  -3.932
REMARK INTRA:                  -0.308
REMARK UNBOUND:                -0.299
REMARK SMILES CC(=O)c1ccc(O)cc1O
REMARK SMILES IDX 4 1 10 2 9 3 7 4 6 5 5 6 2 7 1 8 3 9 11 10 8 12
REMARK H PARENT 11 11 8 13
REMARK Flexibility Score: inf
ROOT
ATOM      1  C   UNL     1      41.133 -40.529  -3.914  1.00  0.00     0.059 A 
ATOM      2  C   UNL     1      42.475 -40.125  -3.706  1.00  0.00     0.130 A 
ATOM      3  C   UNL     1      42.913 -39.808  -2.414  1.00  0.00     0.093 A 
ATOM      4  C   UNL     1      42.047 -39.920  -1.319  1.00  0.00     0.119 A 
ATOM      5  C   UNL     1      40.733 -40.347  -1.517  1.00  0.00     0.047 A 
ATOM      6  C   UNL     1      40.277 -40.649  -2.802  1.00  0.00     0.019 A 
ENDROOT
BRANCH   1   7
ATOM      7  C   UNL     1      40.592 -40.794  -5.269  1.00  0.00     0.163 C 
ATOM      8  C   UNL     1      39.408 -40.042  -5.791  1.00  0.00     0.093 C 
ATOM      9  O   UNL     1      41.182 -41.605  -6.033  1.00  0.00    -0.294 OA
ENDBRANCH   1   7
BRANCH   2  10
ATOM     10  O   UNL     1      43.405 -40.054  -4.746  1.00  0.00    -0.507 OA
ATOM     11  H   UNL     1      43.147 -40.030  -5.723  1.00  0.00     0.293 HD
ENDBRANCH   2  10
BRANCH   4  12
ATOM     12  O   UNL     1      42.484 -39.614  -0.033  1.00  0.00    -0.508 OA
ATOM     13  H   UNL     1      42.730 -40.340   0.630  1.00  0.00     0.293 HD
ENDBRANCH   4  12
TORSDOF 3
ENDMDL
MODEL 9
REMARK VINA RESULT:    -3.496      2.723      4.135
REMARK INTER + INTRA:          -4.203
REMARK INTER:                  -3.892
REMARK INTRA:                  -0.310
REMARK UNBOUND:                -0.299
REMARK SMILES CC(=O)c1ccc(O)cc1O
REMARK SMILES IDX 4 1 10 2 9 3 7 4 6 5 5 6 2 7 1 8 3 9 11 10 8 12
REMARK H PARENT 11 11 8 13
REMARK Flexibility Score: inf
ROOT
ATOM      1  C   UNL     1      41.089 -40.513  -3.615  1.00  0.00     0.059 A 
ATOM      2  C   UNL     1      40.185 -40.681  -2.536  1.00  0.00     0.130 A 
ATOM      3  C   UNL     1      40.657 -40.625  -1.219  1.00  0.00     0.093 A 
ATOM      4  C   UNL     1      42.008 -40.370  -0.954  1.00  0.00     0.119 A 
ATOM      5  C   UNL     1      42.895 -40.175  -2.014  1.00  0.00     0.047 A 
ATOM      6  C   UNL     1      42.443 -40.246  -3.333  1.00  0.00     0.019 A 
ENDROOT
BRANCH   1   7
ATOM      7  C   UNL     1      40.661 -40.647  -5.028  1.00  0.00     0.163 C 
ATOM      8  C   UNL     1      41.351 -41.594  -5.959  1.00  0.00     0.093 C 
ATOM      9  O   UNL     1      39.649 -40.018  -5.439  1.00  0.00    -0.294 OA
ENDBRANCH   1   7
BRANCH   2  10
ATOM     10  O   UNL     1      38.816 -40.874  -2.731  1.00  0.00    -0.507 OA
ATOM     11  H   UNL     1      38.200 -41.245  -2.020  1.00  0.00     0.293 HD
ENDBRANCH   2  10
BRANCH   4  12
ATOM     12  O   UNL     1      42.476 -40.306   0.355  1.00  0.00    -0.508 OA
ATOM     13  H   UNL     1      41.959 -40.717   1.123  1.00  0.00     0.293 HD
ENDBRANCH   4  12
TORSDOF 3
ENDMDL
