MODEL 1
REMARK VINA RESULT:     8.701      0.000      0.000
REMARK INTER + INTRA:          11.060
REMARK INTER:                  10.735
REMARK INTRA:                   0.324
REMARK UNBOUND:                 0.324
REMARK SMILES Oc1cc(O)c2cc(O)c(-c3cc(O)c(O)c(O)c3)[o+]c2c1.[Cl-]
REMARK SMILES IDX 10 1 20 2 21 3 22 4 2 5 3 6 4 7 6 8 7 9 8 10 11 11 12 12
REMARK SMILES IDX 13 13 19 14 15 15 17 16 14 17 16 19 18 21 9 23 1 25 5 27
REMARK H PARENT 14 18 16 20 18 22 9 24 1 26 5 28
REMARK Flexibility Score: inf
ROOT
ATOM      1  C   UNL     1      13.303  21.541   0.773  1.00  0.00     0.402 A 
ATOM      2  O   UNL     1      12.586  20.693   0.038  1.00  0.00    -0.202 OA
ATOM      3  C   UNL     1      12.571  20.717  -1.292  1.00  0.00     0.368 A 
ATOM      4  C   UNL     1      11.788  19.794  -1.991  1.00  0.00     0.162 A 
ATOM      5  C   UNL     1      11.760  19.810  -3.390  1.00  0.00     0.128 A 
ATOM      6  C   UNL     1      12.520  20.755  -4.093  1.00  0.00     0.093 A 
ATOM      7  C   UNL     1      13.311  21.686  -3.404  1.00  0.00     0.136 A 
ATOM      8  C   UNL     1      13.339  21.669  -1.997  1.00  0.00     0.125 A 
ATOM      9  C   UNL     1      14.115  22.569  -1.258  1.00  0.00     0.078 A 
ATOM     10  C   UNL     1      14.112  22.505   0.138  1.00  0.00     0.223 A 
ENDROOT
BRANCH   1  11
ATOM     11  C   UNL     1      13.230  21.422   2.248  1.00  0.00     0.091 A 
ATOM     12  C   UNL     1      12.863  20.215   2.866  1.00  0.00     0.068 A 
ATOM     13  C   UNL     1      12.820  20.107   4.261  1.00  0.00     0.162 A 
ATOM     14  C   UNL     1      13.588  22.515   3.047  1.00  0.00     0.068 A 
ATOM     15  C   UNL     1      13.156  21.225   5.062  1.00  0.00     0.200 A 
ATOM     16  C   UNL     1      13.546  22.426   4.441  1.00  0.00     0.162 A 
BRANCH  13  17
ATOM     17  O   UNL     1      12.446  18.875   4.804  1.00  0.00    -0.504 OA
ATOM     18  H   UNL     1      11.807  18.231   4.361  1.00  0.00     0.293 HD
ENDBRANCH  13  17
BRANCH  15  19
ATOM     19  O   UNL     1      13.120  21.180   6.458  1.00  0.00    -0.502 OA
ATOM     20  H   UNL     1      12.875  21.963   7.045  1.00  0.00     0.293 HD
ENDBRANCH  15  19
BRANCH  16  21
ATOM     21  O   UNL     1      13.895  23.546   5.195  1.00  0.00    -0.504 OA
ATOM     22  H   UNL     1      14.564  23.501   5.954  1.00  0.00     0.293 HD
ENDBRANCH  16  21
ENDBRANCH   1  11
BRANCH  10  23
ATOM     23  O   UNL     1      14.922  23.365   0.880  1.00  0.00    -0.500 OA
ATOM     24  H   UNL     1      15.924  23.410   0.732  1.00  0.00     0.294 HD
ENDBRANCH  10  23
BRANCH   5  25
ATOM     25  O   UNL     1      10.973  18.884  -4.070  1.00  0.00    -0.507 OA
ATOM     26  H   UNL     1      10.738  17.987  -3.661  1.00  0.00     0.293 HD
ENDBRANCH   5  25
BRANCH   7  27
ATOM     27  O   UNL     1      14.064  22.621  -4.115  1.00  0.00    -0.507 OA
ATOM     28  H   UNL     1      14.292  23.529  -3.723  1.00  0.00     0.293 HD
ENDBRANCH   7  27
TORSDOF 7
ENDMDL
MODEL 2
REMARK VINA RESULT:    10.497      1.311      3.194
REMARK INTER + INTRA:          13.276
REMARK INTER:                  12.825
REMARK INTRA:                   0.451
REMARK UNBOUND:                 0.324
REMARK SMILES Oc1cc(O)c2cc(O)c(-c3cc(O)c(O)c(O)c3)[o+]c2c1.[Cl-]
REMARK SMILES IDX 10 1 20 2 21 3 22 4 2 5 3 6 4 7 6 8 7 9 8 10 11 11 12 12
REMARK SMILES IDX 13 13 19 14 15 15 17 16 14 17 16 19 18 21 9 23 1 25 5 27
REMARK H PARENT 14 18 16 20 18 22 9 24 1 26 5 28
REMARK Flexibility Score: inf
ROOT
ATOM      1  C   UNL     1      13.278  21.484   0.892  1.00  0.00     0.402 A 
ATOM      2  O   UNL     1      13.355  22.682   0.313  1.00  0.00    -0.202 OA
ATOM      3  C   UNL     1      13.426  22.850  -1.004  1.00  0.00     0.368 A 
ATOM      4  C   UNL     1      13.510  24.142  -1.532  1.00  0.00     0.162 A 
ATOM      5  C   UNL     1      13.589  24.333  -2.916  1.00  0.00     0.128 A 
ATOM      6  C   UNL     1      13.585  23.227  -3.775  1.00  0.00     0.093 A 
ATOM      7  C   UNL     1      13.501  21.925  -3.259  1.00  0.00     0.136 A 
ATOM      8  C   UNL     1      13.421  21.733  -1.867  1.00  0.00     0.125 A 
ATOM      9  C   UNL     1      13.328  20.459  -1.297  1.00  0.00     0.078 A 
ATOM     10  C   UNL     1      13.244  20.324   0.092  1.00  0.00     0.223 A 
ENDROOT
BRANCH   1  11
ATOM     11  C   UNL     1      13.212  21.424   2.370  1.00  0.00     0.091 A 
ATOM     12  C   UNL     1      13.351  22.580   3.155  1.00  0.00     0.068 A 
ATOM     13  C   UNL     1      13.265  22.516   4.551  1.00  0.00     0.162 A 
ATOM     14  C   UNL     1      12.951  20.201   3.000  1.00  0.00     0.068 A 
ATOM     15  C   UNL     1      13.028  21.271   5.182  1.00  0.00     0.200 A 
ATOM     16  C   UNL     1      12.865  20.118   4.392  1.00  0.00     0.162 A 
BRANCH  13  17
ATOM     17  O   UNL     1      13.414  23.707   5.265  1.00  0.00    -0.504 OA
ATOM     18  H   UNL     1      13.121  23.836   6.222  1.00  0.00     0.293 HD
ENDBRANCH  13  17
BRANCH  15  19
ATOM     19  O   UNL     1      12.944  21.143   6.571  1.00  0.00    -0.502 OA
ATOM     20  H   UNL     1      12.309  20.520   7.046  1.00  0.00     0.293 HD
ENDBRANCH  15  19
BRANCH  16  21
ATOM     21  O   UNL     1      12.620  18.875   4.975  1.00  0.00    -0.504 OA
ATOM     22  H   UNL     1      12.884  18.005   4.529  1.00  0.00     0.293 HD
ENDBRANCH  16  21
ENDBRANCH   1  11
BRANCH  10  23
ATOM     23  O   UNL     1      13.100  19.060   0.665  1.00  0.00    -0.500 OA
ATOM     24  H   UNL     1      13.556  18.244   0.273  1.00  0.00     0.294 HD
ENDBRANCH  10  23
BRANCH   5  25
ATOM     25  O   UNL     1      13.672  25.627  -3.425  1.00  0.00    -0.507 OA
ATOM     26  H   UNL     1      12.877  26.074  -3.867  1.00  0.00     0.293 HD
ENDBRANCH   5  25
BRANCH   7  27
ATOM     27  O   UNL     1      13.497  20.831  -4.125  1.00  0.00    -0.507 OA
ATOM     28  H   UNL     1      13.118  19.933  -3.845  1.00  0.00     0.293 HD
ENDBRANCH   7  27
TORSDOF 7
ENDMDL
MODEL 3
REMARK VINA RESULT:    10.673      0.102      1.805
REMARK INTER + INTRA:          13.492
REMARK INTER:                  13.297
REMARK INTRA:                   0.196
REMARK UNBOUND:                 0.324
REMARK SMILES Oc1cc(O)c2cc(O)c(-c3cc(O)c(O)c(O)c3)[o+]c2c1.[Cl-]
REMARK SMILES IDX 10 1 20 2 21 3 22 4 2 5 3 6 4 7 6 8 7 9 8 10 11 11 12 12
REMARK SMILES IDX 13 13 19 14 15 15 17 16 14 17 16 19 18 21 9 23 1 25 5 27
REMARK H PARENT 14 18 16 20 18 22 9 24 1 26 5 28
REMARK Flexibility Score: inf
ROOT
ATOM      1  C   UNL     1      13.312  21.597   0.776  1.00  0.00     0.402 A 
ATOM      2  O   UNL     1      12.600  20.735   0.051  1.00  0.00    -0.202 OA
ATOM      3  C   UNL     1      12.572  20.752  -1.279  1.00  0.00     0.368 A 
ATOM      4  C   UNL     1      11.795  19.815  -1.966  1.00  0.00     0.162 A 
ATOM      5  C   UNL     1      11.755  19.824  -3.364  1.00  0.00     0.128 A 
ATOM      6  C   UNL     1      12.495  20.775  -4.079  1.00  0.00     0.093 A 
ATOM      7  C   UNL     1      13.279  21.721  -3.403  1.00  0.00     0.136 A 
ATOM      8  C   UNL     1      13.320  21.712  -1.996  1.00  0.00     0.125 A 
ATOM      9  C   UNL     1      14.090  22.626  -1.269  1.00  0.00     0.078 A 
ATOM     10  C   UNL     1      14.101  22.569   0.128  1.00  0.00     0.223 A 
ENDROOT
BRANCH   1  11
ATOM     11  C   UNL     1      13.255  21.484   2.251  1.00  0.00     0.091 A 
ATOM     12  C   UNL     1      13.469  22.598   3.079  1.00  0.00     0.068 A 
ATOM     13  C   UNL     1      13.390  22.485   4.472  1.00  0.00     0.162 A 
ATOM     14  C   UNL     1      12.925  20.255   2.836  1.00  0.00     0.068 A 
ATOM     15  C   UNL     1      13.084  21.233   5.057  1.00  0.00     0.200 A 
ATOM     16  C   UNL     1      12.847  20.123   4.225  1.00  0.00     0.162 A 
BRANCH  13  17
ATOM     17  O   UNL     1      13.615  23.637   5.229  1.00  0.00    -0.504 OA
ATOM     18  H   UNL     1      13.291  24.558   4.971  1.00  0.00     0.293 HD
ENDBRANCH  13  17
BRANCH  15  19
ATOM     19  O   UNL     1      13.004  21.056   6.441  1.00  0.00    -0.502 OA
ATOM     20  H   UNL     1      13.605  20.443   6.970  1.00  0.00     0.293 HD
ENDBRANCH  15  19
BRANCH  16  21
ATOM     21  O   UNL     1      12.532  18.875   4.762  1.00  0.00    -0.504 OA
ATOM     22  H   UNL     1      12.476  18.038   4.194  1.00  0.00     0.293 HD
ENDBRANCH  16  21
ENDBRANCH   1  11
BRANCH  10  23
ATOM     23  O   UNL     1      14.907  23.444   0.858  1.00  0.00    -0.500 OA
ATOM     24  H   UNL     1      14.710  24.437   0.899  1.00  0.00     0.294 HD
ENDBRANCH  10  23
BRANCH   5  25
ATOM     25  O   UNL     1      10.975  18.883  -4.033  1.00  0.00    -0.507 OA
ATOM     26  H   UNL     1      10.056  19.116  -4.391  1.00  0.00     0.293 HD
ENDBRANCH   5  25
BRANCH   7  27
ATOM     27  O   UNL     1      14.013  22.663  -4.125  1.00  0.00    -0.507 OA
ATOM     28  H   UNL     1      13.905  23.658  -3.963  1.00  0.00     0.293 HD
ENDBRANCH   7  27
TORSDOF 7
ENDMDL
MODEL 4
REMARK VINA RESULT:    10.881      1.291      2.659
REMARK INTER + INTRA:          13.750
REMARK INTER:                  13.383
REMARK INTRA:                   0.366
REMARK UNBOUND:                 0.324
REMARK SMILES Oc1cc(O)c2cc(O)c(-c3cc(O)c(O)c(O)c3)[o+]c2c1.[Cl-]
REMARK SMILES IDX 10 1 20 2 21 3 22 4 2 5 3 6 4 7 6 8 7 9 8 10 11 11 12 12
REMARK SMILES IDX 13 13 19 14 15 15 17 16 14 17 16 19 18 21 9 23 1 25 5 27
REMARK H PARENT 14 18 16 20 18 22 9 24 1 26 5 28
REMARK Flexibility Score: inf
ROOT
ATOM      1  C   UNL     1      13.255  21.436   0.899  1.00  0.00     0.402 A 
ATOM      2  O   UNL     1      13.379  22.638   0.339  1.00  0.00    -0.202 OA
ATOM      3  C   UNL     1      13.463  22.822  -0.976  1.00  0.00     0.368 A 
ATOM      4  C   UNL     1      13.597  24.117  -1.485  1.00  0.00     0.162 A 
ATOM      5  C   UNL     1      13.690  24.324  -2.865  1.00  0.00     0.128 A 
ATOM      6  C   UNL     1      13.650  23.231  -3.741  1.00  0.00     0.093 A 
ATOM      7  C   UNL     1      13.515  21.927  -3.244  1.00  0.00     0.136 A 
ATOM      8  C   UNL     1      13.421  21.718  -1.855  1.00  0.00     0.125 A 
ATOM      9  C   UNL     1      13.279  20.440  -1.303  1.00  0.00     0.078 A 
ATOM     10  C   UNL     1      13.183  20.289   0.083  1.00  0.00     0.223 A 
ENDROOT
BRANCH   1  11
ATOM     11  C   UNL     1      13.180  21.358   2.377  1.00  0.00     0.091 A 
ATOM     12  C   UNL     1      12.821  20.166   3.028  1.00  0.00     0.068 A 
ATOM     13  C   UNL     1      12.776  20.097   4.426  1.00  0.00     0.162 A 
ATOM     14  C   UNL     1      13.528  22.476   3.144  1.00  0.00     0.068 A 
ATOM     15  C   UNL     1      13.101  21.240   5.195  1.00  0.00     0.200 A 
ATOM     16  C   UNL     1      13.483  22.426   4.541  1.00  0.00     0.162 A 
BRANCH  13  17
ATOM     17  O   UNL     1      12.410  18.879   5.002  1.00  0.00    -0.504 OA
ATOM     18  H   UNL     1      11.510  18.698   5.423  1.00  0.00     0.293 HD
ENDBRANCH  13  17
BRANCH  15  19
ATOM     19  O   UNL     1      13.062  21.235   6.592  1.00  0.00    -0.502 OA
ATOM     20  H   UNL     1      13.396  21.990   7.172  1.00  0.00     0.293 HD
ENDBRANCH  15  19
BRANCH  16  21
ATOM     21  O   UNL     1      13.822  23.570   5.263  1.00  0.00    -0.504 OA
ATOM     22  H   UNL     1      14.779  23.890   5.354  1.00  0.00     0.293 HD
ENDBRANCH  16  21
ENDBRANCH   1  11
BRANCH  10  23
ATOM     23  O   UNL     1      12.989  19.023   0.637  1.00  0.00    -0.500 OA
ATOM     24  H   UNL     1      12.115  18.523   0.526  1.00  0.00     0.294 HD
ENDBRANCH  10  23
BRANCH   5  25
ATOM     25  O   UNL     1      13.823  25.622  -3.356  1.00  0.00    -0.507 OA
ATOM     26  H   UNL     1      14.721  26.092  -3.371  1.00  0.00     0.293 HD
ENDBRANCH   5  25
BRANCH   7  27
ATOM     27  O   UNL     1      13.475  20.846  -4.125  1.00  0.00    -0.507 OA
ATOM     28  H   UNL     1      14.296  20.550  -4.642  1.00  0.00     0.293 HD
ENDBRANCH   7  27
TORSDOF 7
ENDMDL
