MODEL 1
REMARK VINA RESULT:    -4.539      0.000      0.000
REMARK INTER + INTRA:          -6.124
REMARK INTER:                  -5.865
REMARK INTRA:                  -0.259
REMARK UNBOUND:                -0.259
REMARK SMILES C=CC(=O)CCCCC
REMARK SMILES IDX 6 1 7 2 8 3 9 4 5 5 3 6 4 7 2 8 1 9
REMARK H PARENT
REMARK Flexibility Score: inf
ROOT
ATOM      1  C   UNL     1      20.333 202.095  14.798  1.00  0.00     0.008 C 
ENDROOT
BRANCH   1   2
ATOM      2  C   UNL     1      20.149 201.188  16.023  1.00  0.00     0.000 C 
BRANCH   2   3
ATOM      3  C   UNL     1      20.154 199.710  15.617  1.00  0.00    -0.003 C 
ATOM      4  C   UNL     1      19.088 198.925  16.377  1.00  0.00     0.004 C 
ENDBRANCH   2   3
ENDBRANCH   1   2
BRANCH   1   5
ATOM      5  C   UNL     1      18.999 202.639  14.270  1.00  0.00     0.080 C 
BRANCH   5   6
ATOM      6  C   UNL     1      18.939 204.138  14.337  1.00  0.00     0.155 C 
ATOM      7  O   UNL     1      18.649 204.791  13.297  1.00  0.00    -0.295 OA
BRANCH   6   8
ATOM      8  C   UNL     1      19.247 204.839  15.599  1.00  0.00     0.039 C 
ATOM      9  C   UNL     1      18.608 204.575  16.738  1.00  0.00     0.012 C 
ENDBRANCH   6   8
ENDBRANCH   5   6
ENDBRANCH   1   5
TORSDOF 5
ENDMDL
MODEL 2
REMARK VINA RESULT:    -4.433      1.614      1.722
REMARK INTER + INTRA:          -5.987
REMARK INTER:                  -5.789
REMARK INTRA:                  -0.199
REMARK UNBOUND:                -0.259
REMARK SMILES C=CC(=O)CCCCC
REMARK SMILES IDX 6 1 7 2 8 3 9 4 5 5 3 6 4 7 2 8 1 9
REMARK H PARENT
REMARK Flexibility Score: inf
ROOT
ATOM      1  C   UNL     1      19.444 200.703  14.366  1.00  0.00     0.008 C 
ENDROOT
BRANCH   1   2
ATOM      2  C   UNL     1      19.710 200.337  15.833  1.00  0.00     0.000 C 
BRANCH   2   3
ATOM      3  C   UNL     1      19.851 198.821  16.004  1.00  0.00    -0.003 C 
ATOM      4  C   UNL     1      18.744 198.260  16.893  1.00  0.00     0.004 C 
ENDBRANCH   2   3
ENDBRANCH   1   2
BRANCH   1   5
ATOM      5  C   UNL     1      19.346 202.219  14.152  1.00  0.00     0.080 C 
BRANCH   5   6
ATOM      6  C   UNL     1      20.441 202.957  14.869  1.00  0.00     0.155 C 
ATOM      7  O   UNL     1      21.637 202.789  14.508  1.00  0.00    -0.295 OA
BRANCH   6   8
ATOM      8  C   UNL     1      20.118 203.846  16.003  1.00  0.00     0.039 C 
ATOM      9  C   UNL     1      18.866 204.088  16.389  1.00  0.00     0.012 C 
ENDBRANCH   6   8
ENDBRANCH   5   6
ENDBRANCH   1   5
TORSDOF 5
ENDMDL
MODEL 3
REMARK VINA RESULT:    -4.411      1.593      2.026
REMARK INTER + INTRA:          -5.959
REMARK INTER:                  -5.720
REMARK INTRA:                  -0.239
REMARK UNBOUND:                -0.259
REMARK SMILES C=CC(=O)CCCCC
REMARK SMILES IDX 6 1 7 2 8 3 9 4 5 5 3 6 4 7 2 8 1 9
REMARK H PARENT
REMARK Flexibility Score: inf
ROOT
ATOM      1  C   UNL     1      20.472 201.415  15.229  1.00  0.00     0.008 C 
ENDROOT
BRANCH   1   2
ATOM      2  C   UNL     1      19.460 200.263  15.158  1.00  0.00     0.000 C 
BRANCH   2   3
ATOM      3  C   UNL     1      19.976 199.032  15.910  1.00  0.00    -0.003 C 
ATOM      4  C   UNL     1      18.866 198.380  16.730  1.00  0.00     0.004 C 
ENDBRANCH   2   3
ENDBRANCH   1   2
BRANCH   1   5
ATOM      5  C   UNL     1      20.194 202.365  16.401  1.00  0.00     0.080 C 
BRANCH   5   6
ATOM      6  C   UNL     1      19.145 203.384  16.059  1.00  0.00     0.155 C 
ATOM      7  O   UNL     1      18.408 203.842  16.974  1.00  0.00    -0.295 OA
BRANCH   6   8
ATOM      8  C   UNL     1      18.962 203.821  14.660  1.00  0.00     0.039 C 
ATOM      9  C   UNL     1      19.355 205.018  14.228  1.00  0.00     0.012 C 
ENDBRANCH   6   8
ENDBRANCH   5   6
ENDBRANCH   1   5
TORSDOF 5
ENDMDL
MODEL 4
REMARK VINA RESULT:    -4.381      1.747      4.439
REMARK INTER + INTRA:          -5.921
REMARK INTER:                  -5.658
REMARK INTRA:                  -0.263
REMARK UNBOUND:                -0.259
REMARK SMILES C=CC(=O)CCCCC
REMARK SMILES IDX 6 1 7 2 8 3 9 4 5 5 3 6 4 7 2 8 1 9
REMARK H PARENT
REMARK Flexibility Score: inf
ROOT
ATOM      1  C   UNL     1      19.947 202.676  13.995  1.00  0.00     0.008 C 
ENDROOT
BRANCH   1   2
ATOM      2  C   UNL     1      18.942 203.822  14.178  1.00  0.00     0.000 C 
BRANCH   2   3
ATOM      3  C   UNL     1      19.408 204.793  15.268  1.00  0.00    -0.003 C 
ATOM      4  C   UNL     1      18.616 204.599  16.557  1.00  0.00     0.004 C 
ENDBRANCH   2   3
ENDBRANCH   1   2
BRANCH   1   5
ATOM      5  C   UNL     1      19.341 201.309  14.336  1.00  0.00     0.080 C 
BRANCH   5   6
ATOM      6  C   UNL     1      19.891 200.757  15.620  1.00  0.00     0.155 C 
ATOM      7  O   UNL     1      20.362 201.550  16.480  1.00  0.00    -0.295 OA
BRANCH   6   8
ATOM      8  C   UNL     1      19.907 199.300  15.857  1.00  0.00     0.039 C 
ATOM      9  C   UNL     1      18.996 198.688  16.613  1.00  0.00     0.012 C 
ENDBRANCH   6   8
ENDBRANCH   5   6
ENDBRANCH   1   5
TORSDOF 5
ENDMDL
MODEL 5
REMARK VINA RESULT:    -4.322      1.657      4.446
REMARK INTER + INTRA:          -5.844
REMARK INTER:                  -5.596
REMARK INTRA:                  -0.249
REMARK UNBOUND:                -0.259
REMARK SMILES C=CC(=O)CCCCC
REMARK SMILES IDX 6 1 7 2 8 3 9 4 5 5 3 6 4 7 2 8 1 9
REMARK H PARENT
REMARK Flexibility Score: inf
ROOT
ATOM      1  C   UNL     1      19.046 203.434  16.149  1.00  0.00     0.008 C 
ENDROOT
BRANCH   1   2
ATOM      2  C   UNL     1      18.990 204.953  16.372  1.00  0.00     0.000 C 
BRANCH   2   3
ATOM      3  C   UNL     1      19.786 205.695  15.293  1.00  0.00    -0.003 C 
ATOM      4  C   UNL     1      21.211 205.983  15.759  1.00  0.00     0.004 C 
ENDBRANCH   2   3
ENDBRANCH   1   2
BRANCH   1   5
ATOM      5  C   UNL     1      19.083 203.064  14.660  1.00  0.00     0.080 C 
BRANCH   5   6
ATOM      6  C   UNL     1      19.415 201.614  14.452  1.00  0.00     0.155 C 
ATOM      7  O   UNL     1      19.094 201.058  13.366  1.00  0.00    -0.295 OA
BRANCH   6   8
ATOM      8  C   UNL     1      20.082 200.843  15.520  1.00  0.00     0.039 C 
ATOM      9  C   UNL     1      19.936 199.525  15.648  1.00  0.00     0.012 C 
ENDBRANCH   6   8
ENDBRANCH   5   6
ENDBRANCH   1   5
TORSDOF 5
ENDMDL
MODEL 6
REMARK VINA RESULT:    -4.298      1.730      2.274
REMARK INTER + INTRA:          -5.813
REMARK INTER:                  -5.457
REMARK INTRA:                  -0.356
REMARK UNBOUND:                -0.259
REMARK SMILES C=CC(=O)CCCCC
REMARK SMILES IDX 6 1 7 2 8 3 9 4 5 5 3 6 4 7 2 8 1 9
REMARK H PARENT
REMARK Flexibility Score: inf
ROOT
ATOM      1  C   UNL     1      18.964 202.989  14.371  1.00  0.00     0.008 C 
ENDROOT
BRANCH   1   2
ATOM      2  C   UNL     1      19.377 201.514  14.256  1.00  0.00     0.000 C 
BRANCH   2   3
ATOM      3  C   UNL     1      19.930 200.993  15.586  1.00  0.00    -0.003 C 
ATOM      4  C   UNL     1      19.837 199.471  15.665  1.00  0.00     0.004 C 
ENDBRANCH   2   3
ENDBRANCH   1   2
BRANCH   1   5
ATOM      5  C   UNL     1      18.953 203.479  15.824  1.00  0.00     0.080 C 
BRANCH   5   6
ATOM      6  C   UNL     1      19.772 204.726  16.000  1.00  0.00     0.155 C 
ATOM      7  O   UNL     1      19.237 205.747  16.513  1.00  0.00    -0.295 OA
BRANCH   6   8
ATOM      8  C   UNL     1      21.177 204.763  15.549  1.00  0.00     0.039 C 
ATOM      9  C   UNL     1      21.628 205.676  14.690  1.00  0.00     0.012 C 
ENDBRANCH   6   8
ENDBRANCH   5   6
ENDBRANCH   1   5
TORSDOF 5
ENDMDL
MODEL 7
REMARK VINA RESULT:    -4.268      1.309      1.962
REMARK INTER + INTRA:          -5.775
REMARK INTER:                  -5.647
REMARK INTRA:                  -0.128
REMARK UNBOUND:                -0.259
REMARK SMILES C=CC(=O)CCCCC
REMARK SMILES IDX 6 1 7 2 8 3 9 4 5 5 3 6 4 7 2 8 1 9
REMARK H PARENT
REMARK Flexibility Score: inf
ROOT
ATOM      1  C   UNL     1      19.812 200.797  16.081  1.00  0.00     0.008 C 
ENDROOT
BRANCH   1   2
ATOM      2  C   UNL     1      20.014 199.442  15.386  1.00  0.00     0.000 C 
BRANCH   2   3
ATOM      3  C   UNL     1      19.894 198.288  16.386  1.00  0.00    -0.003 C 
ATOM      4  C   UNL     1      18.527 198.286  17.066  1.00  0.00     0.004 C 
ENDBRANCH   2   3
ENDBRANCH   1   2
BRANCH   1   5
ATOM      5  C   UNL     1      20.534 201.939  15.354  1.00  0.00     0.080 C 
BRANCH   5   6
ATOM      6  C   UNL     1      19.607 202.702  14.452  1.00  0.00     0.155 C 
ATOM      7  O   UNL     1      19.187 202.157  13.395  1.00  0.00    -0.295 OA
BRANCH   6   8
ATOM      8  C   UNL     1      19.216 204.086  14.787  1.00  0.00     0.039 C 
ATOM      9  C   UNL     1      19.030 205.021  13.856  1.00  0.00     0.012 C 
ENDBRANCH   6   8
ENDBRANCH   5   6
ENDBRANCH   1   5
TORSDOF 5
ENDMDL
MODEL 8
REMARK VINA RESULT:    -4.265      2.090      4.555
REMARK INTER + INTRA:          -5.771
REMARK INTER:                  -5.544
REMARK INTRA:                  -0.227
REMARK UNBOUND:                -0.259
REMARK SMILES C=CC(=O)CCCCC
REMARK SMILES IDX 6 1 7 2 8 3 9 4 5 5 3 6 4 7 2 8 1 9
REMARK H PARENT
REMARK Flexibility Score: inf
ROOT
ATOM      1  C   UNL     1      19.848 203.920  15.760  1.00  0.00     0.008 C 
ENDROOT
BRANCH   1   2
ATOM      2  C   UNL     1      21.207 204.483  15.318  1.00  0.00     0.000 C 
BRANCH   2   3
ATOM      3  C   UNL     1      21.034 205.796  14.548  1.00  0.00    -0.003 C 
ATOM      4  C   UNL     1      22.378 206.331  14.060  1.00  0.00     0.004 C 
ENDBRANCH   2   3
ENDBRANCH   1   2
BRANCH   1   5
ATOM      5  C   UNL     1      19.065 203.305  14.593  1.00  0.00     0.080 C 
BRANCH   5   6
ATOM      6  C   UNL     1      19.307 201.827  14.474  1.00  0.00     0.155 C 
ATOM      7  O   UNL     1      19.098 201.255  13.370  1.00  0.00    -0.295 OA
BRANCH   6   8
ATOM      8  C   UNL     1      19.754 201.050  15.648  1.00  0.00     0.039 C 
ATOM      9  C   UNL     1      19.893 199.726  15.617  1.00  0.00     0.012 C 
ENDBRANCH   6   8
ENDBRANCH   5   6
ENDBRANCH   1   5
TORSDOF 5
ENDMDL
MODEL 9
REMARK VINA RESULT:    -4.115      1.482      2.295
REMARK INTER + INTRA:          -5.577
REMARK INTER:                  -5.198
REMARK INTRA:                  -0.379
REMARK UNBOUND:                -0.259
REMARK SMILES C=CC(=O)CCCCC
REMARK SMILES IDX 6 1 7 2 8 3 9 4 5 5 3 6 4 7 2 8 1 9
REMARK H PARENT
REMARK Flexibility Score: inf
ROOT
ATOM      1  C   UNL     1      18.884 203.478  16.396  1.00  0.00     0.008 C 
ENDROOT
BRANCH   1   2
ATOM      2  C   UNL     1      20.193 202.675  16.377  1.00  0.00     0.000 C 
BRANCH   2   3
ATOM      3  C   UNL     1      20.186 201.640  15.248  1.00  0.00    -0.003 C 
ATOM      4  C   UNL     1      19.820 200.254  15.772  1.00  0.00     0.004 C 
ENDBRANCH   2   3
ENDBRANCH   1   2
BRANCH   1   5
ATOM      5  C   UNL     1      19.109 204.966  16.099  1.00  0.00     0.080 C 
BRANCH   5   6
ATOM      6  C   UNL     1      19.411 205.208  14.648  1.00  0.00     0.155 C 
ATOM      7  O   UNL     1      18.731 204.612  13.769  1.00  0.00    -0.295 OA
BRANCH   6   8
ATOM      8  C   UNL     1      20.513 206.111  14.258  1.00  0.00     0.039 C 
ATOM      9  C   UNL     1      21.784 205.864  14.572  1.00  0.00     0.012 C 
ENDBRANCH   6   8
ENDBRANCH   5   6
ENDBRANCH   1   5
TORSDOF 5
ENDMDL
