MODEL 1
REMARK VINA RESULT:    -4.159      0.000      0.000
REMARK INTER + INTRA:          -6.182
REMARK INTER:                  -5.860
REMARK INTRA:                  -0.321
REMARK UNBOUND:                -0.321
REMARK SMILES CCCCCCCCC(=O)[O-]
REMARK SMILES IDX 6 1 7 2 8 3 9 4 10 5 11 6 5 7 4 8 3 9 2 10 1 11
REMARK H PARENT
REMARK Flexibility Score: inf
ROOT
ATOM      1  C   UNL     1       4.370 -18.657   1.044  1.00  0.00     0.000 C 
ENDROOT
BRANCH   1   2
ATOM      2  C   UNL     1       3.704 -19.054   2.375  1.00  0.00     0.006 C 
BRANCH   2   3
ATOM      3  C   UNL     1       4.460 -18.583   3.627  1.00  0.00     0.053 C 
BRANCH   3   4
ATOM      4  C   UNL     1       4.148 -17.158   3.969  1.00  0.00     0.041 C 
ATOM      5  O   UNL     1       3.001 -16.689   3.745  1.00  0.00    -0.550 OA
ATOM      6  O   UNL     1       5.134 -16.339   4.503  1.00  0.00    -0.550 OA
ENDBRANCH   3   4
ENDBRANCH   2   3
ENDBRANCH   1   2
BRANCH   1   7
ATOM      7  C   UNL     1       3.452 -17.816   0.147  1.00  0.00     0.000 C 
BRANCH   7   8
ATOM      8  C   UNL     1       3.842 -17.963  -1.329  1.00  0.00    -0.000 C 
BRANCH   8   9
ATOM      9  C   UNL     1       2.620 -17.803  -2.242  1.00  0.00    -0.000 C 
BRANCH   9  10
ATOM     10  C   UNL     1       2.771 -18.643  -3.515  1.00  0.00    -0.003 C 
ATOM     11  C   UNL     1       3.857 -19.702  -3.350  1.00  0.00     0.004 C 
ENDBRANCH   9  10
ENDBRANCH   8   9
ENDBRANCH   7   8
ENDBRANCH   1   7
TORSDOF 7
ENDMDL
MODEL 2
REMARK VINA RESULT:    -4.156     10.740     12.243
REMARK INTER + INTRA:          -6.178
REMARK INTER:                  -5.889
REMARK INTRA:                  -0.289
REMARK UNBOUND:                -0.321
REMARK SMILES CCCCCCCCC(=O)[O-]
REMARK SMILES IDX 6 1 7 2 8 3 9 4 10 5 11 6 5 7 4 8 3 9 2 10 1 11
REMARK H PARENT
REMARK Flexibility Score: inf
ROOT
ATOM      1  C   UNL     1       8.350 -12.338  -7.817  1.00  0.00     0.000 C 
ENDROOT
BRANCH   1   2
ATOM      2  C   UNL     1       9.724 -11.821  -7.353  1.00  0.00     0.006 C 
BRANCH   2   3
ATOM      3  C   UNL     1      10.083 -10.422  -7.878  1.00  0.00     0.053 C 
BRANCH   3   4
ATOM      4  C   UNL     1      11.558 -10.260  -8.085  1.00  0.00     0.041 C 
ATOM      5  O   UNL     1      12.175 -11.023  -8.875  1.00  0.00    -0.550 OA
ATOM      6  O   UNL     1      12.257  -9.290  -7.379  1.00  0.00    -0.550 OA
ENDBRANCH   3   4
ENDBRANCH   2   3
ENDBRANCH   1   2
BRANCH   1   7
ATOM      7  C   UNL     1       8.286 -13.870  -7.895  1.00  0.00     0.000 C 
BRANCH   7   8
ATOM      8  C   UNL     1       7.365 -14.324  -9.035  1.00  0.00    -0.000 C 
BRANCH   8   9
ATOM      9  C   UNL     1       6.551 -15.558  -8.628  1.00  0.00    -0.000 C 
BRANCH   9  10
ATOM     10  C   UNL     1       5.628 -15.242  -7.445  1.00  0.00    -0.003 C 
ATOM     11  C   UNL     1       4.568 -14.215  -7.833  1.00  0.00     0.004 C 
ENDBRANCH   9  10
ENDBRANCH   8   9
ENDBRANCH   7   8
ENDBRANCH   1   7
TORSDOF 7
ENDMDL
MODEL 3
REMARK VINA RESULT:    -4.122      4.235      7.812
REMARK INTER + INTRA:          -6.131
REMARK INTER:                  -5.864
REMARK INTRA:                  -0.267
REMARK UNBOUND:                -0.321
REMARK SMILES CCCCCCCCC(=O)[O-]
REMARK SMILES IDX 6 1 7 2 8 3 9 4 10 5 11 6 5 7 4 8 3 9 2 10 1 11
REMARK H PARENT
REMARK Flexibility Score: inf
ROOT
ATOM      1  C   UNL     1       6.173 -15.743   4.613  1.00  0.00     0.000 C 
ENDROOT
BRANCH   1   2
ATOM      2  C   UNL     1       5.856 -16.995   3.774  1.00  0.00     0.006 C 
BRANCH   2   3
ATOM      3  C   UNL     1       4.391 -17.454   3.852  1.00  0.00     0.053 C 
BRANCH   3   4
ATOM      4  C   UNL     1       4.218 -18.867   3.386  1.00  0.00     0.041 C 
ATOM      5  O   UNL     1       4.751 -19.814   4.023  1.00  0.00    -0.550 OA
ATOM      6  O   UNL     1       3.499 -19.135   2.229  1.00  0.00    -0.550 OA
ENDBRANCH   3   4
ENDBRANCH   2   3
ENDBRANCH   1   2
BRANCH   1   7
ATOM      7  C   UNL     1       7.612 -15.735   5.149  1.00  0.00     0.000 C 
BRANCH   7   8
ATOM      8  C   UNL     1       7.628 -15.571   6.674  1.00  0.00    -0.000 C 
BRANCH   8   9
ATOM      9  C   UNL     1       8.662 -14.524   7.105  1.00  0.00    -0.000 C 
BRANCH   9  10
ATOM     10  C   UNL     1       8.095 -13.106   6.975  1.00  0.00    -0.003 C 
ATOM     11  C   UNL     1       8.925 -12.268   6.007  1.00  0.00     0.004 C 
ENDBRANCH   9  10
ENDBRANCH   8   9
ENDBRANCH   7   8
ENDBRANCH   1   7
TORSDOF 7
ENDMDL
MODEL 4
REMARK VINA RESULT:    -4.081     13.626     14.795
REMARK INTER + INTRA:          -6.072
REMARK INTER:                  -5.775
REMARK INTRA:                  -0.297
REMARK UNBOUND:                -0.321
REMARK SMILES CCCCCCCCC(=O)[O-]
REMARK SMILES IDX 6 1 7 2 8 3 9 4 10 5 11 6 5 7 4 8 3 9 2 10 1 11
REMARK H PARENT
REMARK Flexibility Score: inf
ROOT
ATOM      1  C   UNL     1      14.038  -8.920  -0.321  1.00  0.00     0.000 C 
ENDROOT
BRANCH   1   2
ATOM      2  C   UNL     1      14.536  -7.756  -1.198  1.00  0.00     0.006 C 
BRANCH   2   3
ATOM      3  C   UNL     1      14.281  -7.944  -2.702  1.00  0.00     0.053 C 
BRANCH   3   4
ATOM      4  C   UNL     1      12.962  -7.374  -3.124  1.00  0.00     0.041 C 
ATOM      5  O   UNL     1      12.354  -6.562  -2.377  1.00  0.00    -0.550 OA
ATOM      6  O   UNL     1      12.387  -7.767  -4.326  1.00  0.00    -0.550 OA
ENDBRANCH   3   4
ENDBRANCH   2   3
ENDBRANCH   1   2
BRANCH   1   7
ATOM      7  C   UNL     1      12.865  -8.522   0.586  1.00  0.00     0.000 C 
BRANCH   7   8
ATOM      8  C   UNL     1      12.960  -9.223   1.947  1.00  0.00    -0.000 C 
BRANCH   8   9
ATOM      9  C   UNL     1      12.232  -8.421   3.033  1.00  0.00    -0.000 C 
BRANCH   9  10
ATOM     10  C   UNL     1      12.551  -8.971   4.428  1.00  0.00    -0.003 C 
ATOM     11  C   UNL     1      13.647 -10.030   4.365  1.00  0.00     0.004 C 
ENDBRANCH   9  10
ENDBRANCH   8   9
ENDBRANCH   7   8
ENDBRANCH   1   7
TORSDOF 7
ENDMDL
MODEL 5
REMARK VINA RESULT:    -4.071     13.874     15.077
REMARK INTER + INTRA:          -6.058
REMARK INTER:                  -5.635
REMARK INTRA:                  -0.423
REMARK UNBOUND:                -0.321
REMARK SMILES CCCCCCCCC(=O)[O-]
REMARK SMILES IDX 6 1 7 2 8 3 9 4 10 5 11 6 5 7 4 8 3 9 2 10 1 11
REMARK H PARENT
REMARK Flexibility Score: inf
ROOT
ATOM      1  C   UNL     1      12.755  -9.165  -3.840  1.00  0.00     0.000 C 
ENDROOT
BRANCH   1   2
ATOM      2  C   UNL     1      12.486  -9.739  -5.243  1.00  0.00     0.006 C 
BRANCH   2   3
ATOM      3  C   UNL     1      11.153  -9.293  -5.864  1.00  0.00     0.053 C 
BRANCH   3   4
ATOM      4  C   UNL     1      11.102  -9.557  -7.337  1.00  0.00     0.041 C 
ATOM      5  O   UNL     1      12.167  -9.622  -8.007  1.00  0.00    -0.550 OA
ATOM      6  O   UNL     1       9.877  -9.694  -7.978  1.00  0.00    -0.550 OA
ENDBRANCH   3   4
ENDBRANCH   2   3
ENDBRANCH   1   2
BRANCH   1   7
ATOM      7  C   UNL     1      12.284  -7.711  -3.692  1.00  0.00     0.000 C 
BRANCH   7   8
ATOM      8  C   UNL     1      13.216  -6.925  -2.759  1.00  0.00    -0.000 C 
BRANCH   8   9
ATOM      9  C   UNL     1      14.466  -7.743  -2.412  1.00  0.00    -0.000 C 
BRANCH   9  10
ATOM     10  C   UNL     1      14.692  -7.783  -0.896  1.00  0.00    -0.003 C 
ATOM     11  C   UNL     1      13.534  -8.477  -0.185  1.00  0.00     0.004 C 
ENDBRANCH   9  10
ENDBRANCH   8   9
ENDBRANCH   7   8
ENDBRANCH   1   7
TORSDOF 7
ENDMDL
MODEL 6
REMARK VINA RESULT:    -4.051      4.019      6.070
REMARK INTER + INTRA:          -6.030
REMARK INTER:                  -5.767
REMARK INTRA:                  -0.264
REMARK UNBOUND:                -0.321
REMARK SMILES CCCCCCCCC(=O)[O-]
REMARK SMILES IDX 6 1 7 2 8 3 9 4 10 5 11 6 5 7 4 8 3 9 2 10 1 11
REMARK H PARENT
REMARK Flexibility Score: inf
ROOT
ATOM      1  C   UNL     1       6.582 -15.367   5.021  1.00  0.00     0.000 C 
ENDROOT
BRANCH   1   2
ATOM      2  C   UNL     1       7.903 -15.724   5.728  1.00  0.00     0.006 C 
BRANCH   2   3
ATOM      3  C   UNL     1       8.176 -14.915   7.005  1.00  0.00     0.053 C 
BRANCH   3   4
ATOM      4  C   UNL     1       8.504 -13.485   6.706  1.00  0.00     0.041 C 
ATOM      5  O   UNL     1       7.813 -12.557   7.205  1.00  0.00    -0.550 OA
ATOM      6  O   UNL     1       9.551 -13.176   5.848  1.00  0.00    -0.550 OA
ENDBRANCH   3   4
ENDBRANCH   2   3
ENDBRANCH   1   2
BRANCH   1   7
ATOM      7  C   UNL     1       5.914 -16.581   4.360  1.00  0.00     0.000 C 
BRANCH   7   8
ATOM      8  C   UNL     1       4.614 -16.174   3.653  1.00  0.00    -0.000 C 
BRANCH   8   9
ATOM      9  C   UNL     1       3.500 -17.194   3.920  1.00  0.00    -0.000 C 
BRANCH   9  10
ATOM     10  C   UNL     1       3.909 -18.592   3.441  1.00  0.00    -0.003 C 
ATOM     11  C   UNL     1       3.933 -18.666   1.917  1.00  0.00     0.004 C 
ENDBRANCH   9  10
ENDBRANCH   8   9
ENDBRANCH   7   8
ENDBRANCH   1   7
TORSDOF 7
ENDMDL
MODEL 7
REMARK VINA RESULT:    -4.039      1.419      2.119
REMARK INTER + INTRA:          -6.013
REMARK INTER:                  -5.628
REMARK INTRA:                  -0.385
REMARK UNBOUND:                -0.321
REMARK SMILES CCCCCCCCC(=O)[O-]
REMARK SMILES IDX 6 1 7 2 8 3 9 4 10 5 11 6 5 7 4 8 3 9 2 10 1 11
REMARK H PARENT
REMARK Flexibility Score: inf
ROOT
ATOM      1  C   UNL     1       4.348 -18.381  -0.783  1.00  0.00     0.000 C 
ENDROOT
BRANCH   1   2
ATOM      2  C   UNL     1       4.774 -18.311   0.695  1.00  0.00     0.006 C 
BRANCH   2   3
ATOM      3  C   UNL     1       3.709 -18.811   1.685  1.00  0.00     0.053 C 
BRANCH   3   4
ATOM      4  C   UNL     1       4.148 -18.658   3.108  1.00  0.00     0.041 C 
ATOM      5  O   UNL     1       5.127 -19.321   3.544  1.00  0.00    -0.550 OA
ATOM      6  O   UNL     1       3.455 -17.812   3.964  1.00  0.00    -0.550 OA
ENDBRANCH   3   4
ENDBRANCH   2   3
ENDBRANCH   1   2
BRANCH   1   7
ATOM      7  C   UNL     1       3.078 -17.570  -1.075  1.00  0.00     0.000 C 
BRANCH   7   8
ATOM      8  C   UNL     1       2.435 -18.015  -2.395  1.00  0.00    -0.000 C 
BRANCH   8   9
ATOM      9  C   UNL     1       3.346 -18.990  -3.151  1.00  0.00    -0.000 C 
BRANCH   9  10
ATOM     10  C   UNL     1       3.456 -18.604  -4.631  1.00  0.00    -0.003 C 
ATOM     11  C   UNL     1       4.229 -17.299  -4.803  1.00  0.00     0.004 C 
ENDBRANCH   9  10
ENDBRANCH   8   9
ENDBRANCH   7   8
ENDBRANCH   1   7
TORSDOF 7
ENDMDL
MODEL 8
REMARK VINA RESULT:    -4.028      8.602     10.985
REMARK INTER + INTRA:          -5.998
REMARK INTER:                  -5.651
REMARK INTRA:                  -0.347
REMARK UNBOUND:                -0.321
REMARK SMILES CCCCCCCCC(=O)[O-]
REMARK SMILES IDX 6 1 7 2 8 3 9 4 10 5 11 6 5 7 4 8 3 9 2 10 1 11
REMARK H PARENT
REMARK Flexibility Score: inf
ROOT
ATOM      1  C   UNL     1       9.981 -12.255   5.314  1.00  0.00     0.000 C 
ENDROOT
BRANCH   1   2
ATOM      2  C   UNL     1      10.822 -11.130   4.684  1.00  0.00     0.006 C 
BRANCH   2   3
ATOM      3  C   UNL     1      12.108 -10.793   5.455  1.00  0.00     0.053 C 
BRANCH   3   4
ATOM      4  C   UNL     1      12.958  -9.798   4.727  1.00  0.00     0.041 C 
ATOM      5  O   UNL     1      12.473  -8.691   4.371  1.00  0.00    -0.550 OA
ATOM      6  O   UNL     1      14.273 -10.107   4.408  1.00  0.00    -0.550 OA
ENDBRANCH   3   4
ENDBRANCH   2   3
ENDBRANCH   1   2
BRANCH   1   7
ATOM      7  C   UNL     1       8.490 -11.902   5.408  1.00  0.00     0.000 C 
BRANCH   7   8
ATOM      8  C   UNL     1       7.761 -12.853   6.366  1.00  0.00    -0.000 C 
BRANCH   8   9
ATOM      9  C   UNL     1       8.721 -13.902   6.940  1.00  0.00    -0.000 C 
BRANCH   9  10
ATOM     10  C   UNL     1       8.053 -15.280   7.007  1.00  0.00    -0.003 C 
ATOM     11  C   UNL     1       7.257 -15.567   5.737  1.00  0.00     0.004 C 
ENDBRANCH   9  10
ENDBRANCH   8   9
ENDBRANCH   7   8
ENDBRANCH   1   7
TORSDOF 7
ENDMDL
MODEL 9
REMARK VINA RESULT:    -4.001     10.345     12.046
REMARK INTER + INTRA:          -5.960
REMARK INTER:                  -5.709
REMARK INTRA:                  -0.250
REMARK UNBOUND:                -0.321
REMARK SMILES CCCCCCCCC(=O)[O-]
REMARK SMILES IDX 6 1 7 2 8 3 9 4 10 5 11 6 5 7 4 8 3 9 2 10 1 11
REMARK H PARENT
REMARK Flexibility Score: inf
ROOT
ATOM      1  C   UNL     1       8.212 -13.662  -7.652  1.00  0.00     0.000 C 
ENDROOT
BRANCH   1   2
ATOM      2  C   UNL     1       7.533 -14.161  -8.940  1.00  0.00     0.006 C 
BRANCH   2   3
ATOM      3  C   UNL     1       6.517 -15.294  -8.721  1.00  0.00     0.053 C 
BRANCH   3   4
ATOM      4  C   UNL     1       5.488 -14.936  -7.694  1.00  0.00     0.041 C 
ATOM      5  O   UNL     1       5.392 -15.607  -6.632  1.00  0.00    -0.550 OA
ATOM      6  O   UNL     1       4.611 -13.884  -7.924  1.00  0.00    -0.550 OA
ENDBRANCH   3   4
ENDBRANCH   2   3
ENDBRANCH   1   2
BRANCH   1   7
ATOM      7  C   UNL     1       8.358 -12.134  -7.610  1.00  0.00     0.000 C 
BRANCH   7   8
ATOM      8  C   UNL     1       9.831 -11.726  -7.482  1.00  0.00    -0.000 C 
BRANCH   8   9
ATOM      9  C   UNL     1      10.058 -10.306  -8.014  1.00  0.00    -0.000 C 
BRANCH   9  10
ATOM     10  C   UNL     1      11.555  -9.985  -8.101  1.00  0.00    -0.003 C 
ATOM     11  C   UNL     1      12.117  -9.606  -6.735  1.00  0.00     0.004 C 
ENDBRANCH   9  10
ENDBRANCH   8   9
ENDBRANCH   7   8
ENDBRANCH   1   7
TORSDOF 7
ENDMDL
