MODEL 1
REMARK VINA RESULT:    -4.043      0.000      0.000
REMARK INTER + INTRA:          -5.809
REMARK INTER:                  -5.698
REMARK INTRA:                  -0.111
REMARK UNBOUND:                -0.111
REMARK SMILES CC1=CCC(=C(C)C)C(=O)CC(C)=CCC1
REMARK SMILES IDX 12 1 14 2 13 3 15 4 16 5 2 6 1 7 3 8 11 10 9 11 10 12 5 13
REMARK SMILES IDX 6 14 7 15 8 16 4 17
REMARK H PARENT
REMARK Flexibility Score: 60.00
ROOT
ATOM      1  C   UNL     1      16.156  17.359  12.576  1.00  0.00    -0.070 C 
ATOM      2  C   UNL     1      16.874  17.341  11.430  1.00  0.00    -0.027 C 
ATOM      3  C   UNL     1      14.689  17.024  12.499  1.00  0.00     0.039 C 
ENDROOT
BRANCH   2   4
ATOM      4  C   UNL     1      18.308  17.790  11.302  1.00  0.00     0.032 C 
BRANCH   4   5
ATOM      5  C   UNL     1      19.219  16.572  11.110  1.00  0.00     0.034 C 
BRANCH   5   6
ATOM      6  C   UNL     1      20.520  16.694  11.878  1.00  0.00    -0.077 C 
ATOM      7  C   UNL     1      21.685  17.391  11.220  1.00  0.00     0.039 C 
ATOM      8  C   UNL     1      20.677  16.276  13.159  1.00  0.00    -0.023 CG0
ATOM      9  G   UNL     1      19.679  15.505  14.006  1.00  0.00     0.000 G0
ENDBRANCH   5   6
ENDBRANCH   4   5
ENDBRANCH   2   4
BRANCH   1  10
ATOM     10  C   UNL     1      16.756  17.680  13.931  1.00  0.00     0.111 C 
BRANCH  10  11
ATOM     11  C   UNL     1      17.352  16.456  14.586  1.00  0.00     0.163 C 
ATOM     12  O   UNL     1      16.573  15.491  14.814  1.00  0.00    -0.294 OA
BRANCH  11  13
ATOM     13  C   UNL     1      18.802  16.327  14.950  1.00  0.00    -0.002 C 
ATOM     14  C   UNL     1      19.263  16.794  16.151  1.00  0.00    -0.069 C 
ATOM     15  C   UNL     1      20.654  16.479  16.653  1.00  0.00     0.039 C 
ATOM     16  C   UNL     1      18.419  17.696  17.023  1.00  0.00     0.039 C 
BRANCH  13  17
ATOM     17  C   UNL     1      19.696  15.504  14.028  1.00  0.00     0.066 CG0
ATOM     18  G   UNL     1      20.667  16.281  13.156  1.00  0.00     0.000 G0
ENDBRANCH  13  17
ENDBRANCH  11  13
ENDBRANCH  10  11
ENDBRANCH   1  10
TORSDOF 0
ENDMDL
MODEL 2
REMARK VINA RESULT:    -4.003     10.027     11.690
REMARK INTER + INTRA:          -5.753
REMARK INTER:                  -6.121
REMARK INTRA:                   0.369
REMARK UNBOUND:                -0.111
REMARK SMILES CC1=CCC(=C(C)C)C(=O)CC(C)=CCC1
REMARK SMILES IDX 12 1 14 2 13 3 15 4 16 5 2 6 1 7 3 8 11 10 9 11 10 12 5 13
REMARK SMILES IDX 6 14 7 15 8 16 4 17
REMARK H PARENT
REMARK Flexibility Score: 60.00
ROOT
ATOM      1  C   UNL     1      15.682  15.465  26.145  1.00  0.00    -0.070 C 
ATOM      2  C   UNL     1      14.621  16.249  26.445  1.00  0.00    -0.027 C 
ATOM      3  C   UNL     1      16.901  15.555  27.025  1.00  0.00     0.039 C 
ENDROOT
BRANCH   2   4
ATOM      4  C   UNL     1      13.385  16.394  25.593  1.00  0.00     0.032 C 
BRANCH   4   5
ATOM      5  C   UNL     1      13.573  17.543  24.596  1.00  0.00     0.034 C 
BRANCH   5   6
ATOM      6  C   UNL     1      13.884  17.052  23.196  1.00  0.00    -0.077 C 
ATOM      7  C   UNL     1      12.743  16.596  22.320  1.00  0.00     0.039 C 
ATOM      8  C   UNL     1      15.128  17.066  22.655  1.00  0.00    -0.023 CG0
ATOM      9  G   UNL     1      16.431  17.422  23.348  1.00  0.00     0.000 G0
ENDBRANCH   5   6
ENDBRANCH   4   5
ENDBRANCH   2   4
BRANCH   1  10
ATOM     10  C   UNL     1      15.696  14.492  24.984  1.00  0.00     0.111 C 
BRANCH  10  11
ATOM     11  C   UNL     1      16.668  14.914  23.907  1.00  0.00     0.163 C 
ATOM     12  O   UNL     1      16.944  14.063  23.018  1.00  0.00    -0.294 OA
BRANCH  11  13
ATOM     13  C   UNL     1      17.290  16.278  23.832  1.00  0.00    -0.002 C 
ATOM     14  C   UNL     1      18.631  16.444  24.048  1.00  0.00    -0.069 C 
ATOM     15  C   UNL     1      19.334  17.750  23.756  1.00  0.00     0.039 C 
ATOM     16  C   UNL     1      19.478  15.340  24.640  1.00  0.00     0.039 C 
BRANCH  13  17
ATOM     17  C   UNL     1      16.422  17.428  23.334  1.00  0.00     0.066 CG0
ATOM     18  G   UNL     1      15.123  17.048  22.647  1.00  0.00     0.000 G0
ENDBRANCH  13  17
ENDBRANCH  11  13
ENDBRANCH  10  11
ENDBRANCH   1  10
TORSDOF 0
ENDMDL
MODEL 3
REMARK VINA RESULT:    -3.973     10.148     11.617
REMARK INTER + INTRA:          -5.710
REMARK INTER:                  -5.904
REMARK INTRA:                   0.195
REMARK UNBOUND:                -0.111
REMARK SMILES CC1=CCC(=C(C)C)C(=O)CC(C)=CCC1
REMARK SMILES IDX 12 1 14 2 13 3 15 4 16 5 2 6 1 7 3 8 11 10 9 11 10 12 5 13
REMARK SMILES IDX 6 14 7 15 8 16 4 17
REMARK H PARENT
REMARK Flexibility Score: 60.00
ROOT
ATOM      1  C   UNL     1      17.400  14.167  25.755  1.00  0.00    -0.070 C 
ATOM      2  C   UNL     1      16.222  14.167  25.088  1.00  0.00    -0.027 C 
ATOM      3  C   UNL     1      18.072  12.843  26.006  1.00  0.00     0.039 C 
ENDROOT
BRANCH   2   4
ATOM      4  C   UNL     1      15.347  15.378  24.881  1.00  0.00     0.032 C 
BRANCH   4   5
ATOM      5  C   UNL     1      15.488  15.881  23.441  1.00  0.00     0.034 C 
BRANCH   5   6
ATOM      6  C   UNL     1      15.959  17.320  23.373  1.00  0.00    -0.077 C 
ATOM      7  C   UNL     1      14.928  18.420  23.400  1.00  0.00     0.039 C 
ATOM      8  C   UNL     1      17.267  17.681  23.363  1.00  0.00    -0.023 CG0
ATOM      9  G   UNL     1      18.476  16.766  23.275  1.00  0.00     0.000 G0
ENDBRANCH   5   6
ENDBRANCH   4   5
ENDBRANCH   2   4
BRANCH   1  10
ATOM     10  C   UNL     1      18.082  15.430  26.242  1.00  0.00     0.111 C 
BRANCH  10  11
ATOM     11  C   UNL     1      19.355  15.712  25.480  1.00  0.00     0.163 C 
ATOM     12  O   UNL     1      20.351  14.985  25.740  1.00  0.00    -0.294 OA
BRANCH  11  13
ATOM     13  C   UNL     1      19.482  16.779  24.432  1.00  0.00    -0.002 C 
ATOM     14  C   UNL     1      20.542  17.643  24.443  1.00  0.00    -0.069 C 
ATOM     15  C   UNL     1      20.832  18.573  23.287  1.00  0.00     0.039 C 
ATOM     16  C   UNL     1      21.458  17.752  25.642  1.00  0.00     0.039 C 
BRANCH  13  17
ATOM     17  C   UNL     1      18.501  16.749  23.264  1.00  0.00     0.066 CG0
ATOM     18  G   UNL     1      17.299  17.671  23.367  1.00  0.00     0.000 G0
ENDBRANCH  13  17
ENDBRANCH  11  13
ENDBRANCH  10  11
ENDBRANCH   1  10
TORSDOF 0
ENDMDL
MODEL 4
REMARK VINA RESULT:    -3.914      1.262      3.719
REMARK INTER + INTRA:          -5.627
REMARK INTER:                  -5.932
REMARK INTRA:                   0.305
REMARK UNBOUND:                -0.111
REMARK SMILES CC1=CCC(=C(C)C)C(=O)CC(C)=CCC1
REMARK SMILES IDX 12 1 14 2 13 3 15 4 16 5 2 6 1 7 3 8 11 10 9 11 10 12 5 13
REMARK SMILES IDX 6 14 7 15 8 16 4 17
REMARK H PARENT
REMARK Flexibility Score: 60.00
ROOT
ATOM      1  C   UNL     1      17.302  17.574  16.379  1.00  0.00    -0.070 C 
ATOM      2  C   UNL     1      18.508  17.592  16.993  1.00  0.00    -0.027 C 
ATOM      3  C   UNL     1      16.075  17.389  17.233  1.00  0.00     0.039 C 
ENDROOT
BRANCH   2   4
ATOM      4  C   UNL     1      19.838  17.619  16.283  1.00  0.00     0.032 C 
BRANCH   4   5
ATOM      5  C   UNL     1      20.168  16.223  15.743  1.00  0.00     0.034 C 
BRANCH   5   6
ATOM      6  C   UNL     1      20.889  16.272  14.410  1.00  0.00    -0.077 C 
ATOM      7  C   UNL     1      22.272  16.872  14.359  1.00  0.00     0.039 C 
ATOM      8  C   UNL     1      20.390  15.738  13.268  1.00  0.00    -0.023 CG0
ATOM      9  G   UNL     1      19.011  15.137  13.056  1.00  0.00     0.000 G0
ENDBRANCH   5   6
ENDBRANCH   4   5
ENDBRANCH   2   4
BRANCH   1  10
ATOM     10  C   UNL     1      17.125  17.751  14.884  1.00  0.00     0.111 C 
BRANCH  10  11
ATOM     11  C   UNL     1      17.055  16.425  14.165  1.00  0.00     0.163 C 
ATOM     12  O   UNL     1      16.280  15.553  14.645  1.00  0.00    -0.294 OA
BRANCH  11  13
ATOM     13  C   UNL     1      17.828  16.109  12.919  1.00  0.00    -0.002 C 
ATOM     14  C   UNL     1      17.585  16.791  11.757  1.00  0.00    -0.069 C 
ATOM     15  C   UNL     1      18.490  16.670  10.552  1.00  0.00     0.039 C 
ATOM     16  C   UNL     1      16.364  17.669  11.598  1.00  0.00     0.039 C 
BRANCH  13  17
ATOM     17  C   UNL     1      19.003  15.144  13.036  1.00  0.00     0.066 CG0
ATOM     18  G   UNL     1      20.370  15.766  13.262  1.00  0.00     0.000 G0
ENDBRANCH  13  17
ENDBRANCH  11  13
ENDBRANCH  10  11
ENDBRANCH   1  10
TORSDOF 0
ENDMDL
MODEL 5
REMARK VINA RESULT:    -3.826     10.424     12.167
REMARK INTER + INTRA:          -5.503
REMARK INTER:                  -6.222
REMARK INTRA:                   0.719
REMARK UNBOUND:                -0.111
REMARK SMILES CC1=CCC(=C(C)C)C(=O)CC(C)=CCC1
REMARK SMILES IDX 12 1 14 2 13 3 15 4 16 5 2 6 1 7 3 8 11 10 9 11 10 12 5 13
REMARK SMILES IDX 6 14 7 15 8 16 4 17
REMARK H PARENT
REMARK Flexibility Score: 60.00
ROOT
ATOM      1  C   UNL     1      20.119  16.795  24.154  1.00  0.00    -0.070 C 
ATOM      2  C   UNL     1      21.078  16.050  24.751  1.00  0.00    -0.027 C 
ATOM      3  C   UNL     1      20.191  18.293  24.302  1.00  0.00     0.039 C 
ENDROOT
BRANCH   2   4
ATOM      4  C   UNL     1      21.077  14.544  24.830  1.00  0.00     0.032 C 
BRANCH   4   5
ATOM      5  C   UNL     1      20.343  14.090  26.097  1.00  0.00     0.034 C 
BRANCH   5   6
ATOM      6  C   UNL     1      19.052  13.358  25.789  1.00  0.00    -0.077 C 
ATOM      7  C   UNL     1      19.110  11.875  25.518  1.00  0.00     0.039 C 
ATOM      8  C   UNL     1      17.831  13.947  25.816  1.00  0.00    -0.023 CG0
ATOM      9  G   UNL     1      17.522  15.422  26.007  1.00  0.00     0.000 G0
ENDBRANCH   5   6
ENDBRANCH   4   5
ENDBRANCH   2   4
BRANCH   1  10
ATOM     10  C   UNL     1      18.992  16.201  23.333  1.00  0.00     0.111 C 
BRANCH  10  11
ATOM     11  C   UNL     1      17.645  16.743  23.751  1.00  0.00     0.163 C 
ATOM     12  O   UNL     1      17.218  17.755  23.133  1.00  0.00    -0.294 OA
BRANCH  11  13
ATOM     13  C   UNL     1      16.797  16.132  24.828  1.00  0.00    -0.002 C 
ATOM     14  C   UNL     1      15.439  16.055  24.685  1.00  0.00    -0.069 C 
ATOM     15  C   UNL     1      14.577  15.246  25.628  1.00  0.00     0.039 C 
ATOM     16  C   UNL     1      14.715  16.818  23.598  1.00  0.00     0.039 C 
BRANCH  13  17
ATOM     17  C   UNL     1      17.509  15.444  25.989  1.00  0.00     0.066 CG0
ATOM     18  G   UNL     1      17.818  13.968  25.814  1.00  0.00     0.000 G0
ENDBRANCH  13  17
ENDBRANCH  11  13
ENDBRANCH  10  11
ENDBRANCH   1  10
TORSDOF 0
ENDMDL
MODEL 6
REMARK VINA RESULT:    -3.822     10.770     13.195
REMARK INTER + INTRA:          -5.497
REMARK INTER:                  -5.463
REMARK INTRA:                  -0.034
REMARK UNBOUND:                -0.111
REMARK SMILES CC1=CCC(=C(C)C)C(=O)CC(C)=CCC1
REMARK SMILES IDX 12 1 14 2 13 3 15 4 16 5 2 6 1 7 3 8 11 10 9 11 10 12 5 13
REMARK SMILES IDX 6 14 7 15 8 16 4 17
REMARK H PARENT
REMARK Flexibility Score: 60.00
ROOT
ATOM      1  C   UNL     1      14.256  17.110  23.990  1.00  0.00    -0.070 C 
ATOM      2  C   UNL     1      14.596  16.251  24.979  1.00  0.00    -0.027 C 
ATOM      3  C   UNL     1      15.363  17.705  23.157  1.00  0.00     0.039 C 
ENDROOT
BRANCH   2   4
ATOM      4  C   UNL     1      13.638  15.682  25.995  1.00  0.00     0.032 C 
BRANCH   4   5
ATOM      5  C   UNL     1      13.030  14.379  25.464  1.00  0.00     0.034 C 
BRANCH   5   6
ATOM      6  C   UNL     1      11.527  14.324  25.647  1.00  0.00    -0.077 C 
ATOM      7  C   UNL     1      10.973  14.188  27.044  1.00  0.00     0.039 C 
ATOM      8  C   UNL     1      10.642  14.464  24.628  1.00  0.00    -0.023 CG0
ATOM      9  G   UNL     1      10.951  14.555  23.144  1.00  0.00     0.000 G0
ENDBRANCH   5   6
ENDBRANCH   4   5
ENDBRANCH   2   4
BRANCH   1  10
ATOM     10  C   UNL     1      12.824  17.488  23.669  1.00  0.00     0.111 C 
BRANCH  10  11
ATOM     11  C   UNL     1      12.281  16.694  22.504  1.00  0.00     0.163 C 
ATOM     12  O   UNL     1      12.993  16.641  21.465  1.00  0.00    -0.294 OA
BRANCH  11  13
ATOM     13  C   UNL     1      10.972  15.961  22.532  1.00  0.00    -0.002 C 
ATOM     14  C   UNL     1       9.876  16.467  21.887  1.00  0.00    -0.069 C 
ATOM     15  C   UNL     1       8.614  15.657  21.694  1.00  0.00     0.039 C 
ATOM     16  C   UNL     1       9.850  17.889  21.373  1.00  0.00     0.039 C 
BRANCH  13  17
ATOM     17  C   UNL     1      10.953  14.562  23.140  1.00  0.00     0.066 CG0
ATOM     18  G   UNL     1      10.621  14.472  24.619  1.00  0.00     0.000 G0
ENDBRANCH  13  17
ENDBRANCH  11  13
ENDBRANCH  10  11
ENDBRANCH   1  10
TORSDOF 0
ENDMDL
MODEL 7
REMARK VINA RESULT:    -3.700     10.714     12.565
REMARK INTER + INTRA:          -5.326
REMARK INTER:                  -6.391
REMARK INTRA:                   1.066
REMARK UNBOUND:                -0.111
REMARK SMILES CC1=CCC(=C(C)C)C(=O)CC(C)=CCC1
REMARK SMILES IDX 12 1 14 2 13 3 15 4 16 5 2 6 1 7 3 8 11 10 9 11 10 12 5 13
REMARK SMILES IDX 6 14 7 15 8 16 4 17
REMARK H PARENT
REMARK Flexibility Score: 60.00
ROOT
ATOM      1  C   UNL     1      15.730  15.807  25.337  1.00  0.00    -0.070 C 
ATOM      2  C   UNL     1      16.006  16.723  24.381  1.00  0.00    -0.027 C 
ATOM      3  C   UNL     1      16.679  15.692  26.503  1.00  0.00     0.039 C 
ENDROOT
BRANCH   2   4
ATOM      4  C   UNL     1      15.252  16.870  23.083  1.00  0.00     0.032 C 
BRANCH   4   5
ATOM      5  C   UNL     1      15.029  18.356  22.776  1.00  0.00     0.034 C 
BRANCH   5   6
ATOM      6  C   UNL     1      13.656  18.836  23.202  1.00  0.00    -0.077 C 
ATOM      7  C   UNL     1      13.477  20.292  23.555  1.00  0.00     0.039 C 
ATOM      8  C   UNL     1      12.555  18.044  23.213  1.00  0.00    -0.023 CG0
ATOM      9  G   UNL     1      12.491  16.549  22.955  1.00  0.00     0.000 G0
ENDBRANCH   5   6
ENDBRANCH   4   5
ENDBRANCH   2   4
BRANCH   1  10
ATOM     10  C   UNL     1      14.511  14.908  25.304  1.00  0.00     0.111 C 
BRANCH  10  11
ATOM     11  C   UNL     1      13.227  15.702  25.277  1.00  0.00     0.163 C 
ATOM     12  O   UNL     1      13.005  16.466  26.256  1.00  0.00    -0.294 OA
BRANCH  11  13
ATOM     13  C   UNL     1      12.233  15.647  24.154  1.00  0.00    -0.002 C 
ATOM     14  C   UNL     1      11.074  14.932  24.285  1.00  0.00    -0.069 C 
ATOM     15  C   UNL     1       9.949  15.036  23.280  1.00  0.00     0.039 C 
ATOM     16  C   UNL     1      10.873  13.955  25.422  1.00  0.00     0.039 C 
BRANCH  13  17
ATOM     17  C   UNL     1      12.471  16.551  22.949  1.00  0.00     0.066 CG0
ATOM     18  G   UNL     1      12.553  18.041  23.227  1.00  0.00     0.000 G0
ENDBRANCH  13  17
ENDBRANCH  11  13
ENDBRANCH  10  11
ENDBRANCH   1  10
TORSDOF 0
ENDMDL
MODEL 8
REMARK VINA RESULT:    -3.562     10.542     12.090
REMARK INTER + INTRA:          -5.131
REMARK INTER:                  -5.584
REMARK INTRA:                   0.453
REMARK UNBOUND:                -0.111
REMARK SMILES CC1=CCC(=C(C)C)C(=O)CC(C)=CCC1
REMARK SMILES IDX 12 1 14 2 13 3 15 4 16 5 2 6 1 7 3 8 11 10 9 11 10 12 5 13
REMARK SMILES IDX 6 14 7 15 8 16 4 17
REMARK H PARENT
REMARK Flexibility Score: 60.00
ROOT
ATOM      1  C   UNL     1      19.004  12.992  25.796  1.00  0.00    -0.070 C 
ATOM      2  C   UNL     1      17.884  13.654  26.167  1.00  0.00    -0.027 C 
ATOM      3  C   UNL     1      18.870  11.547  25.388  1.00  0.00     0.039 C 
ENDROOT
BRANCH   2   4
ATOM      4  C   UNL     1      17.855  15.048  26.741  1.00  0.00     0.032 C 
BRANCH   4   5
ATOM      5  C   UNL     1      16.784  15.882  26.030  1.00  0.00     0.034 C 
BRANCH   5   6
ATOM      6  C   UNL     1      17.057  16.032  24.546  1.00  0.00    -0.077 C 
ATOM      7  C   UNL     1      15.940  15.746  23.573  1.00  0.00     0.039 C 
ATOM      8  C   UNL     1      18.233  16.484  24.042  1.00  0.00    -0.023 CG0
ATOM      9  G   UNL     1      19.511  16.781  24.807  1.00  0.00     0.000 G0
ENDBRANCH   5   6
ENDBRANCH   4   5
ENDBRANCH   2   4
BRANCH   1  10
ATOM     10  C   UNL     1      20.376  13.634  25.751  1.00  0.00     0.111 C 
BRANCH  10  11
ATOM     11  C   UNL     1      20.582  14.433  24.486  1.00  0.00     0.163 C 
ATOM     12  O   UNL     1      20.602  13.792  23.400  1.00  0.00    -0.294 OA
BRANCH  11  13
ATOM     13  C   UNL     1      20.739  15.925  24.458  1.00  0.00    -0.002 C 
ATOM     14  C   UNL     1      21.886  16.496  23.977  1.00  0.00    -0.069 C 
ATOM     15  C   UNL     1      21.994  17.981  23.714  1.00  0.00     0.039 C 
ATOM     16  C   UNL     1      23.131  15.674  23.726  1.00  0.00     0.039 C 
BRANCH  13  17
ATOM     17  C   UNL     1      19.522  16.774  24.807  1.00  0.00     0.066 CG0
ATOM     18  G   UNL     1      18.242  16.466  24.051  1.00  0.00     0.000 G0
ENDBRANCH  13  17
ENDBRANCH  11  13
ENDBRANCH  10  11
ENDBRANCH   1  10
TORSDOF 0
ENDMDL
MODEL 9
REMARK VINA RESULT:    -3.561      9.570     10.669
REMARK INTER + INTRA:          -5.130
REMARK INTER:                  -4.978
REMARK INTRA:                  -0.152
REMARK UNBOUND:                -0.111
REMARK SMILES CC1=CCC(=C(C)C)C(=O)CC(C)=CCC1
REMARK SMILES IDX 12 1 14 2 13 3 15 4 16 5 2 6 1 7 3 8 11 10 9 11 10 12 5 13
REMARK SMILES IDX 6 14 7 15 8 16 4 17
REMARK H PARENT
REMARK Flexibility Score: 60.00
ROOT
ATOM      1  C   UNL     1      17.360  17.371  23.550  1.00  0.00    -0.070 C 
ATOM      2  C   UNL     1      18.429  18.005  23.015  1.00  0.00    -0.027 C 
ATOM      3  C   UNL     1      15.991  17.730  23.032  1.00  0.00     0.039 C 
ENDROOT
BRANCH   2   4
ATOM      4  C   UNL     1      19.846  17.878  23.513  1.00  0.00     0.032 C 
BRANCH   4   5
ATOM      5  C   UNL     1      20.625  16.906  22.620  1.00  0.00     0.034 C 
BRANCH   5   6
ATOM      6  C   UNL     1      21.516  15.973  23.417  1.00  0.00    -0.077 C 
ATOM      7  C   UNL     1      22.845  16.489  23.910  1.00  0.00     0.039 C 
ATOM      8  C   UNL     1      21.154  14.717  23.778  1.00  0.00    -0.023 CG0
ATOM      9  G   UNL     1      19.904  13.961  23.361  1.00  0.00     0.000 G0
ENDBRANCH   5   6
ENDBRANCH   4   5
ENDBRANCH   2   4
BRANCH   1  10
ATOM     10  C   UNL     1      17.472  16.309  24.626  1.00  0.00     0.111 C 
BRANCH  10  11
ATOM     11  C   UNL     1      17.588  14.923  24.037  1.00  0.00     0.163 C 
ATOM     12  O   UNL     1      16.682  14.561  23.239  1.00  0.00    -0.294 OA
BRANCH  11  13
ATOM     13  C   UNL     1      18.720  13.983  24.333  1.00  0.00    -0.002 C 
ATOM     14  C   UNL     1      18.618  13.066  25.344  1.00  0.00    -0.069 C 
ATOM     15  C   UNL     1      19.628  11.956  25.525  1.00  0.00     0.039 C 
ATOM     16  C   UNL     1      17.512  13.145  26.372  1.00  0.00     0.039 C 
BRANCH  13  17
ATOM     17  C   UNL     1      19.897  13.960  23.363  1.00  0.00     0.066 CG0
ATOM     18  G   UNL     1      21.146  14.706  23.798  1.00  0.00     0.000 G0
ENDBRANCH  13  17
ENDBRANCH  11  13
ENDBRANCH  10  11
ENDBRANCH   1  10
TORSDOF 0
ENDMDL
