MODEL 1
REMARK VINA RESULT:    -3.709      0.000      0.000
REMARK INTER + INTRA:          -5.294
REMARK INTER:                  -5.661
REMARK INTRA:                   0.367
REMARK UNBOUND:                 0.367
REMARK SMILES CC1=CCC[C@@H](C)C(=O)C[C@@H](C(C)C)C(=O)C1
REMARK SMILES IDX 8 1 9 2 6 3 7 4 5 5 4 6 3 7 2 8 1 9 10 11 11 12 15 13 16 14
REMARK SMILES IDX 17 15 12 17 13 18 14 19
REMARK H PARENT
REMARK Flexibility Score: 70.00
ROOT
ATOM      1  C   UNL     1      19.817   2.984  23.467  1.00  0.00     0.136 C 
ATOM      2  O   UNL     1      18.627   3.144  23.696  1.00  0.00    -0.299 OA
ENDROOT
BRANCH   1   3
ATOM      3  C   UNL     1      20.789   2.961  24.634  1.00  0.00     0.053 C 
ATOM      4  C   UNL     1      22.004   3.854  24.357  1.00  0.00     0.016 C 
BRANCH   3   5
ATOM      5  C   UNL     1      21.222   1.524  24.979  1.00  0.00     0.015 C 
BRANCH   5   6
ATOM      6  C   UNL     1      20.018   0.567  25.067  1.00  0.00     0.028 C 
BRANCH   6   7
ATOM      7  C   UNL     1      20.281  -0.707  24.307  1.00  0.00    -0.028 C 
ATOM      8  C   UNL     1      19.736  -1.012  23.106  1.00  0.00    -0.070 CG0
ATOM      9  C   UNL     1      20.135  -2.313  22.455  1.00  0.00     0.039 C 
ATOM     10  G   UNL     1      18.740  -0.108  22.394  1.00  0.00     0.000 G0
ENDBRANCH   6   7
ENDBRANCH   5   6
ENDBRANCH   3   5
ENDBRANCH   1   3
BRANCH   1  11
ATOM     11  C   UNL     1      20.267   2.849  22.028  1.00  0.00     0.087 C 
BRANCH  11  12
ATOM     12  C   UNL     1      19.199   2.155  21.140  1.00  0.00     0.066 C 
BRANCH  12  13
ATOM     13  C   UNL     1      19.350   0.646  21.260  1.00  0.00     0.140 C 
ATOM     14  O   UNL     1      19.900   0.024  20.361  1.00  0.00    -0.299 OA
BRANCH  13  15
ATOM     15  C   UNL     1      18.732  -0.108  22.411  1.00  0.00     0.106 CG0
ATOM     16  G   UNL     1      19.737  -1.004  23.119  1.00  0.00     0.000 G0
ENDBRANCH  13  15
ENDBRANCH  12  13
BRANCH  12  17
ATOM     17  C   UNL     1      19.284   2.597  19.641  1.00  0.00    -0.006 C 
ATOM     18  C   UNL     1      17.887   2.900  19.063  1.00  0.00     0.008 C 
ATOM     19  C   UNL     1      20.172   3.842  19.450  1.00  0.00     0.008 C 
ENDBRANCH  12  17
ENDBRANCH  11  12
ENDBRANCH   1  11
TORSDOF 1
ENDMDL
MODEL 2
REMARK VINA RESULT:    -2.963      1.555      4.054
REMARK INTER + INTRA:          -4.155
REMARK INTER:                  -4.561
REMARK INTRA:                   0.406
REMARK UNBOUND:                 0.367
REMARK SMILES CC1=CCC[C@@H](C)C(=O)C[C@@H](C(C)C)C(=O)C1
REMARK SMILES IDX 8 1 9 2 6 3 7 4 5 5 4 6 3 7 2 8 1 9 10 11 11 12 15 13 16 14
REMARK SMILES IDX 17 15 12 17 13 18 14 19
REMARK H PARENT
REMARK Flexibility Score: 70.00
ROOT
ATOM      1  C   UNL     1      19.037   2.189  21.778  1.00  0.00     0.136 C 
ATOM      2  O   UNL     1      17.832   2.064  21.938  1.00  0.00    -0.299 OA
ENDROOT
BRANCH   1   3
ATOM      3  C   UNL     1      19.728   1.332  20.732  1.00  0.00     0.053 C 
ATOM      4  C   UNL     1      19.382   1.804  19.315  1.00  0.00     0.016 C 
BRANCH   3   5
ATOM      5  C   UNL     1      19.395  -0.161  20.916  1.00  0.00     0.015 C 
BRANCH   5   6
ATOM      6  C   UNL     1      19.737  -0.654  22.336  1.00  0.00     0.028 C 
BRANCH   6   7
ATOM      7  C   UNL     1      18.487  -0.914  23.135  1.00  0.00    -0.028 C 
ATOM      8  C   UNL     1      18.254  -0.428  24.377  1.00  0.00    -0.070 CG0
ATOM      9  C   UNL     1      16.931  -0.747  25.026  1.00  0.00     0.039 C 
ATOM     10  G   UNL     1      19.266   0.413  25.141  1.00  0.00     0.000 G0
ENDBRANCH   6   7
ENDBRANCH   5   6
ENDBRANCH   3   5
ENDBRANCH   1   3
BRANCH   1  11
ATOM     11  C   UNL     1      19.787   3.171  22.653  1.00  0.00     0.087 C 
BRANCH  11  12
ATOM     12  C   UNL     1      20.364   2.502  23.929  1.00  0.00     0.066 C 
BRANCH  12  13
ATOM     13  C   UNL     1      19.230   1.871  24.722  1.00  0.00     0.140 C 
ATOM     14  O   UNL     1      18.311   2.575  25.119  1.00  0.00    -0.299 OA
BRANCH  13  15
ATOM     15  C   UNL     1      19.276   0.418  25.123  1.00  0.00     0.106 CG0
ATOM     16  G   UNL     1      18.247  -0.419  24.378  1.00  0.00     0.000 G0
ENDBRANCH  13  15
ENDBRANCH  12  13
BRANCH  12  17
ATOM     17  C   UNL     1      21.166   3.506  24.823  1.00  0.00    -0.006 C 
ATOM     18  C   UNL     1      22.664   3.514  24.455  1.00  0.00     0.008 C 
ATOM     19  C   UNL     1      20.628   4.946  24.711  1.00  0.00     0.008 C 
ENDBRANCH  12  17
ENDBRANCH  11  12
ENDBRANCH   1  11
TORSDOF 1
ENDMDL
MODEL 3
REMARK VINA RESULT:    -2.846      1.587      3.933
REMARK INTER + INTRA:          -3.977
REMARK INTER:                  -4.720
REMARK INTRA:                   0.742
REMARK UNBOUND:                 0.367
REMARK SMILES CC1=CCC[C@@H](C)C(=O)C[C@@H](C(C)C)C(=O)C1
REMARK SMILES IDX 8 1 9 2 6 3 7 4 5 5 4 6 3 7 2 8 1 9 10 11 11 12 15 13 16 14
REMARK SMILES IDX 17 15 12 17 13 18 14 19
REMARK H PARENT
REMARK Flexibility Score: 70.00
ROOT
ATOM      1  C   UNL     1      19.706   2.720  21.384  1.00  0.00     0.136 C 
ATOM      2  O   UNL     1      20.416   3.675  21.662  1.00  0.00    -0.299 OA
ENDROOT
BRANCH   1   3
ATOM      3  C   UNL     1      19.467   2.389  19.921  1.00  0.00     0.053 C 
ATOM      4  C   UNL     1      18.051   2.790  19.489  1.00  0.00     0.016 C 
BRANCH   3   5
ATOM      5  C   UNL     1      19.738   0.902  19.627  1.00  0.00     0.015 C 
BRANCH   5   6
ATOM      6  C   UNL     1      18.842  -0.022  20.474  1.00  0.00     0.028 C 
BRANCH   6   7
ATOM      7  C   UNL     1      19.622  -1.199  21.000  1.00  0.00    -0.028 C 
ATOM      8  C   UNL     1      19.713  -1.538  22.308  1.00  0.00    -0.070 CG0
ATOM      9  C   UNL     1      20.500  -2.773  22.667  1.00  0.00     0.039 C 
ATOM     10  G   UNL     1      19.065  -0.727  23.420  1.00  0.00     0.000 G0
ENDBRANCH   6   7
ENDBRANCH   5   6
ENDBRANCH   3   5
ENDBRANCH   1   3
BRANCH   1  11
ATOM     11  C   UNL     1      19.074   1.933  22.512  1.00  0.00     0.087 C 
BRANCH  11  12
ATOM     12  C   UNL     1      20.055   1.705  23.693  1.00  0.00     0.066 C 
BRANCH  12  13
ATOM     13  C   UNL     1      20.016   0.242  24.104  1.00  0.00     0.140 C 
ATOM     14  O   UNL     1      20.833  -0.177  24.914  1.00  0.00    -0.299 OA
BRANCH  13  15
ATOM     15  C   UNL     1      19.064  -0.725  23.446  1.00  0.00     0.106 CG0
ATOM     16  G   UNL     1      19.727  -1.519  22.331  1.00  0.00     0.000 G0
ENDBRANCH  13  15
ENDBRANCH  12  13
BRANCH  12  17
ATOM     17  C   UNL     1      19.743   2.628  24.919  1.00  0.00    -0.006 C 
ATOM     18  C   UNL     1      20.820   3.719  25.091  1.00  0.00     0.008 C 
ATOM     19  C   UNL     1      18.368   3.314  24.798  1.00  0.00     0.008 C 
ENDBRANCH  12  17
ENDBRANCH  11  12
ENDBRANCH   1  11
TORSDOF 1
ENDMDL
MODEL 4
REMARK VINA RESULT:    -2.842      1.618      3.832
REMARK INTER + INTRA:          -3.971
REMARK INTER:                  -4.953
REMARK INTRA:                   0.982
REMARK UNBOUND:                 0.367
REMARK SMILES CC1=CCC[C@@H](C)C(=O)C[C@@H](C(C)C)C(=O)C1
REMARK SMILES IDX 8 1 9 2 6 3 7 4 5 5 4 6 3 7 2 8 1 9 10 11 11 12 15 13 16 14
REMARK SMILES IDX 17 15 12 17 13 18 14 19
REMARK H PARENT
REMARK Flexibility Score: 70.00
ROOT
ATOM      1  C   UNL     1      19.421  -0.636  21.494  1.00  0.00     0.136 C 
ATOM      2  O   UNL     1      19.356  -1.233  20.430  1.00  0.00    -0.299 OA
ENDROOT
BRANCH   1   3
ATOM      3  C   UNL     1      20.121  -1.303  22.665  1.00  0.00     0.053 C 
ATOM      4  C   UNL     1      20.130  -2.828  22.506  1.00  0.00     0.016 C 
BRANCH   3   5
ATOM      5  C   UNL     1      19.494  -0.888  24.009  1.00  0.00     0.015 C 
BRANCH   5   6
ATOM      6  C   UNL     1      20.356   0.155  24.746  1.00  0.00     0.028 C 
BRANCH   6   7
ATOM      7  C   UNL     1      19.551   1.381  25.088  1.00  0.00    -0.028 C 
ATOM      8  C   UNL     1      19.607   2.551  24.409  1.00  0.00    -0.070 CG0
ATOM      9  C   UNL     1      18.703   3.673  24.854  1.00  0.00     0.039 C 
ATOM     10  G   UNL     1      20.541   2.781  23.230  1.00  0.00     0.000 G0
ENDBRANCH   6   7
ENDBRANCH   5   6
ENDBRANCH   3   5
ENDBRANCH   1   3
BRANCH   1  11
ATOM     11  C   UNL     1      18.773   0.728  21.601  1.00  0.00     0.087 C 
BRANCH  11  12
ATOM     12  C   UNL     1      19.627   1.841  20.936  1.00  0.00     0.066 C 
BRANCH  12  13
ATOM     13  C   UNL     1      19.812   2.986  21.919  1.00  0.00     0.140 C 
ATOM     14  O   UNL     1      19.447   4.112  21.605  1.00  0.00    -0.299 OA
BRANCH  13  15
ATOM     15  C   UNL     1      20.541   2.781  23.223  1.00  0.00     0.106 CG0
ATOM     16  G   UNL     1      19.588   2.539  24.384  1.00  0.00     0.000 G0
ENDBRANCH  13  15
ENDBRANCH  12  13
BRANCH  12  17
ATOM     17  C   UNL     1      19.000   2.361  19.599  1.00  0.00    -0.006 C 
ATOM     18  C   UNL     1      19.790   3.560  19.036  1.00  0.00     0.008 C 
ATOM     19  C   UNL     1      18.942   1.264  18.517  1.00  0.00     0.008 C 
ENDBRANCH  12  17
ENDBRANCH  11  12
ENDBRANCH   1  11
TORSDOF 1
ENDMDL
MODEL 5
REMARK VINA RESULT:    -2.616      1.686      4.179
REMARK INTER + INTRA:          -3.626
REMARK INTER:                  -4.754
REMARK INTRA:                   1.128
REMARK UNBOUND:                 0.367
REMARK SMILES CC1=CCC[C@@H](C)C(=O)C[C@@H](C(C)C)C(=O)C1
REMARK SMILES IDX 8 1 9 2 6 3 7 4 5 5 4 6 3 7 2 8 1 9 10 11 11 12 15 13 16 14
REMARK SMILES IDX 17 15 12 17 13 18 14 19
REMARK H PARENT
REMARK Flexibility Score: 70.00
ROOT
ATOM      1  C   UNL     1      19.469   0.310  24.410  1.00  0.00     0.136 C 
ATOM      2  O   UNL     1      20.559   0.040  24.893  1.00  0.00    -0.299 OA
ENDROOT
BRANCH   1   3
ATOM      3  C   UNL     1      18.678   1.467  24.993  1.00  0.00     0.053 C 
ATOM      4  C   UNL     1      17.185   1.125  25.083  1.00  0.00     0.016 C 
BRANCH   3   5
ATOM      5  C   UNL     1      18.903   2.764  24.194  1.00  0.00     0.015 C 
BRANCH   5   6
ATOM      6  C   UNL     1      20.256   2.757  23.457  1.00  0.00     0.028 C 
BRANCH   6   7
ATOM      7  C   UNL     1      20.124   3.335  22.073  1.00  0.00    -0.028 C 
ATOM      8  C   UNL     1      19.372   2.795  21.084  1.00  0.00    -0.070 CG0
ATOM      9  C   UNL     1      19.312   3.521  19.763  1.00  0.00     0.039 C 
ATOM     10  G   UNL     1      18.599   1.495  21.246  1.00  0.00     0.000 G0
ENDBRANCH   6   7
ENDBRANCH   5   6
ENDBRANCH   3   5
ENDBRANCH   1   3
BRANCH   1  11
ATOM     11  C   UNL     1      18.948  -0.545  23.274  1.00  0.00     0.087 C 
BRANCH  11  12
ATOM     12  C   UNL     1      19.942  -0.612  22.083  1.00  0.00     0.066 C 
BRANCH  12  13
ATOM     13  C   UNL     1      19.432   0.267  20.952  1.00  0.00     0.140 C 
ATOM     14  O   UNL     1      19.782   0.031  19.803  1.00  0.00    -0.299 OA
BRANCH  13  15
ATOM     15  C   UNL     1      18.595   1.490  21.235  1.00  0.00     0.106 CG0
ATOM     16  G   UNL     1      19.385   2.779  21.068  1.00  0.00     0.000 G0
ENDBRANCH  13  15
ENDBRANCH  12  13
BRANCH  12  17
ATOM     17  C   UNL     1      20.177  -2.076  21.578  1.00  0.00    -0.006 C 
ATOM     18  C   UNL     1      20.092  -3.091  22.736  1.00  0.00     0.008 C 
ATOM     19  C   UNL     1      19.163  -2.487  20.493  1.00  0.00     0.008 C 
ENDBRANCH  12  17
ENDBRANCH  11  12
ENDBRANCH   1  11
TORSDOF 1
ENDMDL
MODEL 6
REMARK VINA RESULT:    -2.601      1.741      4.133
REMARK INTER + INTRA:          -3.603
REMARK INTER:                  -4.727
REMARK INTRA:                   1.124
REMARK UNBOUND:                 0.367
REMARK SMILES CC1=CCC[C@@H](C)C(=O)C[C@@H](C(C)C)C(=O)C1
REMARK SMILES IDX 8 1 9 2 6 3 7 4 5 5 4 6 3 7 2 8 1 9 10 11 11 12 15 13 16 14
REMARK SMILES IDX 17 15 12 17 13 18 14 19
REMARK H PARENT
REMARK Flexibility Score: 70.00
ROOT
ATOM      1  C   UNL     1      20.233   1.516  24.810  1.00  0.00     0.136 C 
ATOM      2  O   UNL     1      21.414   1.390  25.099  1.00  0.00    -0.299 OA
ENDROOT
BRANCH   1   3
ATOM      3  C   UNL     1      19.586   2.882  24.956  1.00  0.00     0.053 C 
ATOM      4  C   UNL     1      18.058   2.780  24.878  1.00  0.00     0.016 C 
BRANCH   3   5
ATOM      5  C   UNL     1      20.130   3.878  23.916  1.00  0.00     0.015 C 
BRANCH   5   6
ATOM      6  C   UNL     1      20.672   3.162  22.664  1.00  0.00     0.028 C 
BRANCH   6   7
ATOM      7  C   UNL     1      19.956   3.625  21.421  1.00  0.00    -0.028 C 
ATOM      8  C   UNL     1      19.365   2.801  20.524  1.00  0.00    -0.070 CG0
ATOM      9  C   UNL     1      18.651   3.427  19.352  1.00  0.00     0.039 C 
ATOM     10  G   UNL     1      19.395   1.285  20.645  1.00  0.00     0.000 G0
ENDBRANCH   6   7
ENDBRANCH   5   6
ENDBRANCH   3   5
ENDBRANCH   1   3
BRANCH   1  11
ATOM     11  C   UNL     1      19.465   0.294  24.350  1.00  0.00     0.087 C 
BRANCH  11  12
ATOM     12  C   UNL     1      19.754  -0.058  22.866  1.00  0.00     0.066 C 
BRANCH  12  13
ATOM     13  C   UNL     1      18.871   0.793  21.966  1.00  0.00     0.140 C 
ATOM     14  O   UNL     1      17.710   1.004  22.290  1.00  0.00    -0.299 OA
BRANCH  13  15
ATOM     15  C   UNL     1      19.368   1.285  20.630  1.00  0.00     0.106 CG0
ATOM     16  G   UNL     1      19.353   2.803  20.532  1.00  0.00     0.000 G0
ENDBRANCH  13  15
ENDBRANCH  12  13
BRANCH  12  17
ATOM     17  C   UNL     1      19.546  -1.579  22.558  1.00  0.00    -0.006 C 
ATOM     18  C   UNL     1      19.750  -1.884  21.060  1.00  0.00     0.008 C 
ATOM     19  C   UNL     1      20.500  -2.475  23.373  1.00  0.00     0.008 C 
ENDBRANCH  12  17
ENDBRANCH  11  12
ENDBRANCH   1  11
TORSDOF 1
ENDMDL
MODEL 7
REMARK VINA RESULT:    -2.463      1.862      4.645
REMARK INTER + INTRA:          -3.393
REMARK INTER:                  -4.310
REMARK INTRA:                   0.917
REMARK UNBOUND:                 0.367
REMARK SMILES CC1=CCC[C@@H](C)C(=O)C[C@@H](C(C)C)C(=O)C1
REMARK SMILES IDX 8 1 9 2 6 3 7 4 5 5 4 6 3 7 2 8 1 9 10 11 11 12 15 13 16 14
REMARK SMILES IDX 17 15 12 17 13 18 14 19
REMARK H PARENT
REMARK Flexibility Score: 70.00
ROOT
ATOM      1  C   UNL     1      19.120  -0.458  23.483  1.00  0.00     0.136 C 
ATOM      2  O   UNL     1      18.002  -0.442  23.976  1.00  0.00    -0.299 OA
ENDROOT
BRANCH   1   3
ATOM      3  C   UNL     1      19.481  -1.582  22.528  1.00  0.00     0.053 C 
ATOM      4  C   UNL     1      20.500  -2.538  23.160  1.00  0.00     0.016 C 
BRANCH   3   5
ATOM      5  C   UNL     1      19.992  -1.037  21.181  1.00  0.00     0.015 C 
BRANCH   5   6
ATOM      6  C   UNL     1      18.870  -0.351  20.377  1.00  0.00     0.028 C 
BRANCH   6   7
ATOM      7  C   UNL     1      19.398   0.835  19.614  1.00  0.00    -0.028 C 
ATOM      8  C   UNL     1      19.353   2.115  20.055  1.00  0.00    -0.070 CG0
ATOM      9  C   UNL     1      19.964   3.186  19.188  1.00  0.00     0.039 C 
ATOM     10  G   UNL     1      18.711   2.513  21.376  1.00  0.00     0.000 G0
ENDBRANCH   6   7
ENDBRANCH   5   6
ENDBRANCH   3   5
ENDBRANCH   1   3
BRANCH   1  11
ATOM     11  C   UNL     1      20.101   0.627  23.873  1.00  0.00     0.087 C 
BRANCH  11  12
ATOM     12  C   UNL     1      19.457   2.039  23.852  1.00  0.00     0.066 C 
BRANCH  12  13
ATOM     13  C   UNL     1      19.698   2.681  22.495  1.00  0.00     0.140 C 
ATOM     14  O   UNL     1      20.665   3.417  22.342  1.00  0.00    -0.299 OA
BRANCH  13  15
ATOM     15  C   UNL     1      18.706   2.518  21.370  1.00  0.00     0.106 CG0
ATOM     16  G   UNL     1      19.376   2.114  20.065  1.00  0.00     0.000 G0
ENDBRANCH  13  15
ENDBRANCH  12  13
BRANCH  12  17
ATOM     17  C   UNL     1      19.993   2.961  24.998  1.00  0.00    -0.006 C 
ATOM     18  C   UNL     1      21.534   2.965  25.044  1.00  0.00     0.008 C 
ATOM     19  C   UNL     1      19.505   4.416  24.851  1.00  0.00     0.008 C 
ENDBRANCH  12  17
ENDBRANCH  11  12
ENDBRANCH   1  11
TORSDOF 1
ENDMDL
MODEL 8
REMARK VINA RESULT:    -2.390      1.728      4.437
REMARK INTER + INTRA:          -3.281
REMARK INTER:                  -4.213
REMARK INTRA:                   0.932
REMARK UNBOUND:                 0.367
REMARK SMILES CC1=CCC[C@@H](C)C(=O)C[C@@H](C(C)C)C(=O)C1
REMARK SMILES IDX 8 1 9 2 6 3 7 4 5 5 4 6 3 7 2 8 1 9 10 11 11 12 15 13 16 14
REMARK SMILES IDX 17 15 12 17 13 18 14 19
REMARK H PARENT
REMARK Flexibility Score: 70.00
ROOT
ATOM      1  C   UNL     1      19.360   1.248  20.667  1.00  0.00     0.136 C 
ATOM      2  O   UNL     1      19.125   0.674  19.614  1.00  0.00    -0.299 OA
ENDROOT
BRANCH   1   3
ATOM      3  C   UNL     1      19.086   2.737  20.764  1.00  0.00     0.053 C 
ATOM      4  C   UNL     1      18.701   3.318  19.398  1.00  0.00     0.016 C 
BRANCH   3   5
ATOM      5  C   UNL     1      20.282   3.493  21.372  1.00  0.00     0.015 C 
BRANCH   5   6
ATOM      6  C   UNL     1      20.486   3.144  22.859  1.00  0.00     0.028 C 
BRANCH   6   7
ATOM      7  C   UNL     1      19.189   3.234  23.620  1.00  0.00    -0.028 C 
ATOM      8  C   UNL     1      18.681   2.244  24.391  1.00  0.00    -0.070 CG0
ATOM      9  C   UNL     1      17.389   2.508  25.123  1.00  0.00     0.039 C 
ATOM     10  G   UNL     1      19.350   0.886  24.543  1.00  0.00     0.000 G0
ENDBRANCH   6   7
ENDBRANCH   5   6
ENDBRANCH   3   5
ENDBRANCH   1   3
BRANCH   1  11
ATOM     11  C   UNL     1      19.943   0.449  21.813  1.00  0.00     0.087 C 
BRANCH  11  12
ATOM     12  C   UNL     1      18.936  -0.586  22.384  1.00  0.00     0.066 C 
BRANCH  12  13
ATOM     13  C   UNL     1      18.584  -0.208  23.814  1.00  0.00     0.140 C 
ATOM     14  O   UNL     1      17.615  -0.728  24.351  1.00  0.00    -0.299 OA
BRANCH  13  15
ATOM     15  C   UNL     1      19.340   0.877  24.540  1.00  0.00     0.106 CG0
ATOM     16  G   UNL     1      18.685   2.241  24.379  1.00  0.00     0.000 G0
ENDBRANCH  13  15
ENDBRANCH  12  13
BRANCH  12  17
ATOM     17  C   UNL     1      19.480  -2.052  22.321  1.00  0.00    -0.006 C 
ATOM     18  C   UNL     1      20.085  -2.370  20.938  1.00  0.00     0.008 C 
ATOM     19  C   UNL     1      20.551  -2.323  23.396  1.00  0.00     0.008 C 
ENDBRANCH  12  17
ENDBRANCH  11  12
ENDBRANCH   1  11
TORSDOF 1
ENDMDL
MODEL 9
REMARK VINA RESULT:    -2.177      2.070      3.984
REMARK INTER + INTRA:          -2.955
REMARK INTER:                  -3.982
REMARK INTRA:                   1.027
REMARK UNBOUND:                 0.367
REMARK SMILES CC1=CCC[C@@H](C)C(=O)C[C@@H](C(C)C)C(=O)C1
REMARK SMILES IDX 8 1 9 2 6 3 7 4 5 5 4 6 3 7 2 8 1 9 10 11 11 12 15 13 16 14
REMARK SMILES IDX 17 15 12 17 13 18 14 19
REMARK H PARENT
REMARK Flexibility Score: 70.00
ROOT
ATOM      1  C   UNL     1      18.450  -0.104  22.799  1.00  0.00     0.136 C 
ATOM      2  O   UNL     1      19.153  -1.023  22.404  1.00  0.00    -0.299 OA
ENDROOT
BRANCH   1   3
ATOM      3  C   UNL     1      17.812  -0.210  24.172  1.00  0.00     0.053 C 
ATOM      4  C   UNL     1      16.282  -0.181  24.074  1.00  0.00     0.016 C 
BRANCH   3   5
ATOM      5  C   UNL     1      18.328   0.886  25.122  1.00  0.00     0.015 C 
BRANCH   5   6
ATOM      6  C   UNL     1      17.678   2.252  24.828  1.00  0.00     0.028 C 
BRANCH   6   7
ATOM      7  C   UNL     1      18.636   3.380  25.110  1.00  0.00    -0.028 C 
ATOM      8  C   UNL     1      19.863   3.504  24.551  1.00  0.00    -0.070 CG0
ATOM      9  C   UNL     1      20.684   4.718  24.907  1.00  0.00     0.039 C 
ATOM     10  G   UNL     1      20.445   2.476  23.593  1.00  0.00     0.000 G0
ENDBRANCH   6   7
ENDBRANCH   5   6
ENDBRANCH   3   5
ENDBRANCH   1   3
BRANCH   1  11
ATOM     11  C   UNL     1      18.226   1.082  21.884  1.00  0.00     0.087 C 
BRANCH  11  12
ATOM     12  C   UNL     1      19.551   1.622  21.283  1.00  0.00     0.066 C 
BRANCH  12  13
ATOM     13  C   UNL     1      20.077   2.749  22.158  1.00  0.00     0.140 C 
ATOM     14  O   UNL     1      20.274   3.851  21.663  1.00  0.00    -0.299 OA
BRANCH  13  15
ATOM     15  C   UNL     1      20.467   2.502  23.594  1.00  0.00     0.106 CG0
ATOM     16  G   UNL     1      19.857   3.524  24.541  1.00  0.00     0.000 G0
ENDBRANCH  13  15
ENDBRANCH  12  13
BRANCH  12  17
ATOM     17  C   UNL     1      19.387   2.106  19.804  1.00  0.00    -0.006 C 
ATOM     18  C   UNL     1      19.409   0.921  18.817  1.00  0.00     0.008 C 
ATOM     19  C   UNL     1      18.079   2.895  19.591  1.00  0.00     0.008 C 
ENDBRANCH  12  17
ENDBRANCH  11  12
ENDBRANCH   1  11
TORSDOF 1
ENDMDL
