MODEL 1
REMARK VINA RESULT:    -3.841      0.000      0.000
REMARK INTER + INTRA:          -5.893
REMARK INTER:                  -5.637
REMARK INTRA:                  -0.257
REMARK UNBOUND:                -0.257
REMARK SMILES O=C([O-])CCCCCCCC(=O)[O-]
REMARK SMILES IDX 7 1 6 2 5 3 4 4 2 5 1 6 3 7 8 8 9 9 10 10 11 11 12 12 13 13
REMARK H PARENT
REMARK Flexibility Score: inf
ROOT
ATOM      1  C   UNL     1      35.584 104.406 264.045  1.00  0.00     0.000 C 
ENDROOT
BRANCH   1   2
ATOM      2  C   UNL     1      35.548 105.856 263.539  1.00  0.00     0.000 C 
BRANCH   2   3
ATOM      3  C   UNL     1      36.534 106.056 262.378  1.00  0.00     0.006 C 
BRANCH   3   4
ATOM      4  C   UNL     1      36.291 105.064 261.233  1.00  0.00     0.053 C 
BRANCH   4   5
ATOM      5  C   UNL     1      37.141 105.374 260.038  1.00  0.00     0.041 C 
ATOM      6  O   UNL     1      36.619 105.857 258.999  1.00  0.00    -0.550 OA
ATOM      7  O   UNL     1      38.502 105.097 260.060  1.00  0.00    -0.550 OA
ENDBRANCH   4   5
ENDBRANCH   3   4
ENDBRANCH   2   3
ENDBRANCH   1   2
BRANCH   1   8
ATOM      8  C   UNL     1      34.924 104.246 265.424  1.00  0.00     0.000 C 
BRANCH   8   9
ATOM      9  C   UNL     1      34.896 105.561 266.223  1.00  0.00     0.006 C 
BRANCH   9  10
ATOM     10  C   UNL     1      34.877 105.317 267.739  1.00  0.00     0.053 C 
BRANCH  10  11
ATOM     11  C   UNL     1      35.008 106.595 268.509  1.00  0.00     0.041 C 
ATOM     12  O   UNL     1      34.883 107.703 267.923  1.00  0.00    -0.550 OA
ATOM     13  O   UNL     1      35.233 106.563 269.879  1.00  0.00    -0.550 OA
ENDBRANCH  10  11
ENDBRANCH   9  10
ENDBRANCH   8   9
ENDBRANCH   1   8
TORSDOF 8
ENDMDL
MODEL 2
REMARK VINA RESULT:    -3.538      0.945      7.231
REMARK INTER + INTRA:          -5.449
REMARK INTER:                  -5.180
REMARK INTRA:                  -0.269
REMARK UNBOUND:                -0.257
REMARK SMILES O=C([O-])CCCCCCCC(=O)[O-]
REMARK SMILES IDX 7 1 6 2 5 3 4 4 2 5 1 6 3 7 8 8 9 9 10 10 11 11 12 12 13 13
REMARK H PARENT
REMARK Flexibility Score: inf
ROOT
ATOM      1  C   UNL     1      35.549 104.675 263.450  1.00  0.00     0.000 C 
ENDROOT
BRANCH   1   2
ATOM      2  C   UNL     1      35.331 104.599 264.969  1.00  0.00     0.000 C 
BRANCH   2   3
ATOM      3  C   UNL     1      34.884 105.958 265.527  1.00  0.00     0.006 C 
BRANCH   3   4
ATOM      4  C   UNL     1      34.877 105.982 267.061  1.00  0.00     0.053 C 
BRANCH   4   5
ATOM      5  C   UNL     1      35.090 107.365 267.598  1.00  0.00     0.041 C 
ATOM      6  O   UNL     1      35.494 108.283 266.837  1.00  0.00    -0.550 OA
ATOM      7  O   UNL     1      34.875 107.631 268.944  1.00  0.00    -0.550 OA
ENDBRANCH   4   5
ENDBRANCH   3   4
ENDBRANCH   2   3
ENDBRANCH   1   2
BRANCH   1   8
ATOM      8  C   UNL     1      36.051 106.055 262.994  1.00  0.00     0.000 C 
BRANCH   8   9
ATOM      9  C   UNL     1      37.015 105.969 261.798  1.00  0.00     0.006 C 
BRANCH   9  10
ATOM     10  C   UNL     1      36.416 105.177 260.627  1.00  0.00     0.053 C 
BRANCH  10  11
ATOM     11  C   UNL     1      37.455 104.819 259.609  1.00  0.00     0.041 C 
ATOM     12  O   UNL     1      37.363 105.254 258.431  1.00  0.00    -0.550 OA
ATOM     13  O   UNL     1      38.543 104.035 259.970  1.00  0.00    -0.550 OA
ENDBRANCH  10  11
ENDBRANCH   9  10
ENDBRANCH   8   9
ENDBRANCH   1   8
TORSDOF 8
ENDMDL
MODEL 3
REMARK VINA RESULT:    -3.471      0.633      7.110
REMARK INTER + INTRA:          -5.351
REMARK INTER:                  -5.059
REMARK INTRA:                  -0.292
REMARK UNBOUND:                -0.257
REMARK SMILES O=C([O-])CCCCCCCC(=O)[O-]
REMARK SMILES IDX 7 1 6 2 5 3 4 4 2 5 1 6 3 7 8 8 9 9 10 10 11 11 12 12 13 13
REMARK H PARENT
REMARK Flexibility Score: inf
ROOT
ATOM      1  C   UNL     1      35.393 104.146 264.306  1.00  0.00     0.000 C 
ENDROOT
BRANCH   1   2
ATOM      2  C   UNL     1      35.493 104.038 265.835  1.00  0.00     0.000 C 
BRANCH   2   3
ATOM      3  C   UNL     1      34.947 105.304 266.511  1.00  0.00     0.006 C 
BRANCH   3   4
ATOM      4  C   UNL     1      34.875 105.163 268.037  1.00  0.00     0.053 C 
BRANCH   4   5
ATOM      5  C   UNL     1      35.340 106.406 268.734  1.00  0.00     0.041 C 
ATOM      6  O   UNL     1      36.055 106.322 269.767  1.00  0.00    -0.550 OA
ATOM      7  O   UNL     1      34.954 107.654 268.263  1.00  0.00    -0.550 OA
ENDBRANCH   4   5
ENDBRANCH   3   4
ENDBRANCH   2   3
ENDBRANCH   1   2
BRANCH   1   8
ATOM      8  C   UNL     1      35.025 105.563 263.837  1.00  0.00     0.000 C 
BRANCH   8   9
ATOM      9  C   UNL     1      36.007 106.114 262.788  1.00  0.00     0.006 C 
BRANCH   9  10
ATOM     10  C   UNL     1      36.334 105.079 261.702  1.00  0.00     0.053 C 
BRANCH  10  11
ATOM     11  C   UNL     1      37.044 105.700 260.539  1.00  0.00     0.041 C 
ATOM     12  O   UNL     1      36.440 105.871 259.447  1.00  0.00    -0.550 OA
ATOM     13  O   UNL     1      38.361 106.123 260.671  1.00  0.00    -0.550 OA
ENDBRANCH  10  11
ENDBRANCH   9  10
ENDBRANCH   8   9
ENDBRANCH   1   8
TORSDOF 8
ENDMDL
MODEL 4
REMARK VINA RESULT:    -3.443      0.960      7.531
REMARK INTER + INTRA:          -5.310
REMARK INTER:                  -5.089
REMARK INTRA:                  -0.221
REMARK UNBOUND:                -0.257
REMARK SMILES O=C([O-])CCCCCCCC(=O)[O-]
REMARK SMILES IDX 7 1 6 2 5 3 4 4 2 5 1 6 3 7 8 8 9 9 10 10 11 11 12 12 13 13
REMARK H PARENT
REMARK Flexibility Score: inf
ROOT
ATOM      1  C   UNL     1      35.404 106.058 263.132  1.00  0.00     0.000 C 
ENDROOT
BRANCH   1   2
ATOM      2  C   UNL     1      34.909 105.493 264.472  1.00  0.00     0.000 C 
BRANCH   2   3
ATOM      3  C   UNL     1      34.919 106.575 265.561  1.00  0.00     0.006 C 
BRANCH   3   4
ATOM      4  C   UNL     1      34.875 105.979 266.974  1.00  0.00     0.053 C 
BRANCH   4   5
ATOM      5  C   UNL     1      35.092 107.023 268.027  1.00  0.00     0.041 C 
ATOM      6  O   UNL     1      34.881 106.753 269.238  1.00  0.00    -0.550 OA
ATOM      7  O   UNL     1      35.494 108.303 267.666  1.00  0.00    -0.550 OA
ENDBRANCH   4   5
ENDBRANCH   3   4
ENDBRANCH   2   3
ENDBRANCH   1   2
BRANCH   1   8
ATOM      8  C   UNL     1      36.938 106.091 263.036  1.00  0.00     0.000 C 
BRANCH   8   9
ATOM      9  C   UNL     1      37.437 106.289 261.593  1.00  0.00     0.006 C 
BRANCH   9  10
ATOM     10  C   UNL     1      36.794 105.294 260.617  1.00  0.00     0.053 C 
BRANCH  10  11
ATOM     11  C   UNL     1      37.327 105.456 259.227  1.00  0.00     0.041 C 
ATOM     12  O   UNL     1      38.347 104.815 258.861  1.00  0.00    -0.550 OA
ATOM     13  O   UNL     1      36.677 106.289 258.324  1.00  0.00    -0.550 OA
ENDBRANCH  10  11
ENDBRANCH   9  10
ENDBRANCH   8   9
ENDBRANCH   1   8
TORSDOF 8
ENDMDL
MODEL 5
REMARK VINA RESULT:    -3.112      1.265      1.737
REMARK INTER + INTRA:          -4.824
REMARK INTER:                  -4.543
REMARK INTRA:                  -0.282
REMARK UNBOUND:                -0.257
REMARK SMILES O=C([O-])CCCCCCCC(=O)[O-]
REMARK SMILES IDX 7 1 6 2 5 3 4 4 2 5 1 6 3 7 8 8 9 9 10 10 11 11 12 12 13 13
REMARK H PARENT
REMARK Flexibility Score: inf
ROOT
ATOM      1  C   UNL     1      35.522 106.188 264.944  1.00  0.00     0.000 C 
ENDROOT
BRANCH   1   2
ATOM      2  C   UNL     1      34.947 106.199 263.520  1.00  0.00     0.000 C 
BRANCH   2   3
ATOM      3  C   UNL     1      35.863 105.436 262.553  1.00  0.00     0.006 C 
BRANCH   3   4
ATOM      4  C   UNL     1      37.075 106.271 262.118  1.00  0.00     0.053 C 
BRANCH   4   5
ATOM      5  C   UNL     1      37.467 105.989 260.700  1.00  0.00     0.041 C 
ATOM      6  O   UNL     1      36.665 106.233 259.761  1.00  0.00    -0.550 OA
ATOM      7  O   UNL     1      38.705 105.423 260.419  1.00  0.00    -0.550 OA
ENDBRANCH   4   5
ENDBRANCH   3   4
ENDBRANCH   2   3
ENDBRANCH   1   2
BRANCH   1   8
ATOM      8  C   UNL     1      35.293 107.516 265.684  1.00  0.00     0.000 C 
BRANCH   8   9
ATOM      9  C   UNL     1      34.888 107.312 267.155  1.00  0.00     0.006 C 
BRANCH   9  10
ATOM     10  C   UNL     1      34.897 105.830 267.558  1.00  0.00     0.053 C 
BRANCH  10  11
ATOM     11  C   UNL     1      35.035 105.658 269.039  1.00  0.00     0.041 C 
ATOM     12  O   UNL     1      34.875 104.524 269.563  1.00  0.00    -0.550 OA
ATOM     13  O   UNL     1      35.376 106.743 269.838  1.00  0.00    -0.550 OA
ENDBRANCH  10  11
ENDBRANCH   9  10
ENDBRANCH   8   9
ENDBRANCH   1   8
TORSDOF 8
ENDMDL
MODEL 6
REMARK VINA RESULT:    -3.037      1.179      1.747
REMARK INTER + INTRA:          -4.714
REMARK INTER:                  -4.511
REMARK INTRA:                  -0.203
REMARK UNBOUND:                -0.257
REMARK SMILES O=C([O-])CCCCCCCC(=O)[O-]
REMARK SMILES IDX 7 1 6 2 5 3 4 4 2 5 1 6 3 7 8 8 9 9 10 10 11 11 12 12 13 13
REMARK H PARENT
REMARK Flexibility Score: inf
ROOT
ATOM      1  C   UNL     1      36.113 106.104 264.130  1.00  0.00     0.000 C 
ENDROOT
BRANCH   1   2
ATOM      2  C   UNL     1      35.793 105.413 262.796  1.00  0.00     0.000 C 
BRANCH   2   3
ATOM      3  C   UNL     1      36.451 106.153 261.623  1.00  0.00     0.006 C 
BRANCH   3   4
ATOM      4  C   UNL     1      37.349 105.234 260.785  1.00  0.00     0.053 C 
BRANCH   4   5
ATOM      5  C   UNL     1      37.279 105.566 259.326  1.00  0.00     0.041 C 
ATOM      6  O   UNL     1      38.015 104.961 258.503  1.00  0.00    -0.550 OA
ATOM      7  O   UNL     1      36.427 106.568 258.879  1.00  0.00    -0.550 OA
ENDBRANCH   4   5
ENDBRANCH   3   4
ENDBRANCH   2   3
ENDBRANCH   1   2
BRANCH   1   8
ATOM      8  C   UNL     1      34.942 106.955 264.650  1.00  0.00     0.000 C 
BRANCH   8   9
ATOM      9  C   UNL     1      34.961 107.116 266.181  1.00  0.00     0.006 C 
BRANCH   9  10
ATOM     10  C   UNL     1      34.875 105.765 266.906  1.00  0.00     0.053 C 
BRANCH  10  11
ATOM     11  C   UNL     1      34.902 105.931 268.394  1.00  0.00     0.041 C 
ATOM     12  O   UNL     1      34.979 104.921 269.142  1.00  0.00    -0.550 OA
ATOM     13  O   UNL     1      34.879 107.203 268.954  1.00  0.00    -0.550 OA
ENDBRANCH  10  11
ENDBRANCH   9  10
ENDBRANCH   8   9
ENDBRANCH   1   8
TORSDOF 8
ENDMDL
MODEL 7
REMARK VINA RESULT:    -2.191      1.190      7.473
REMARK INTER + INTRA:          -3.473
REMARK INTER:                  -3.254
REMARK INTRA:                  -0.218
REMARK UNBOUND:                -0.257
REMARK SMILES O=C([O-])CCCCCCCC(=O)[O-]
REMARK SMILES IDX 7 1 6 2 5 3 4 4 2 5 1 6 3 7 8 8 9 9 10 10 11 11 12 12 13 13
REMARK H PARENT
REMARK Flexibility Score: inf
ROOT
ATOM      1  C   UNL     1      36.069 106.742 264.712  1.00  0.00     0.000 C 
ENDROOT
BRANCH   1   2
ATOM      2  C   UNL     1      34.879 107.293 265.512  1.00  0.00     0.000 C 
BRANCH   2   3
ATOM      3  C   UNL     1      35.153 107.224 267.021  1.00  0.00     0.006 C 
BRANCH   3   4
ATOM      4  C   UNL     1      34.876 105.831 267.599  1.00  0.00     0.053 C 
BRANCH   4   5
ATOM      5  C   UNL     1      34.966 105.820 269.095  1.00  0.00     0.041 C 
ATOM      6  O   UNL     1      34.961 106.903 269.737  1.00  0.00    -0.550 OA
ATOM      7  O   UNL     1      35.089 104.615 269.777  1.00  0.00    -0.550 OA
ENDBRANCH   4   5
ENDBRANCH   3   4
ENDBRANCH   2   3
ENDBRANCH   1   2
BRANCH   1   8
ATOM      8  C   UNL     1      35.642 105.712 263.653  1.00  0.00     0.000 C 
BRANCH   8   9
ATOM      9  C   UNL     1      36.010 106.147 262.223  1.00  0.00     0.006 C 
BRANCH   9  10
ATOM     10  C   UNL     1      36.279 104.946 261.305  1.00  0.00     0.053 C 
BRANCH  10  11
ATOM     11  C   UNL     1      37.420 105.206 260.371  1.00  0.00     0.041 C 
ATOM     12  O   UNL     1      38.447 105.810 260.779  1.00  0.00    -0.550 OA
ATOM     13  O   UNL     1      37.365 104.751 259.060  1.00  0.00    -0.550 OA
ENDBRANCH  10  11
ENDBRANCH   9  10
ENDBRANCH   8   9
ENDBRANCH   1   8
TORSDOF 8
ENDMDL
