MODEL 1
REMARK VINA RESULT:    -5.260      0.000      0.000
REMARK INTER + INTRA:          -6.793
REMARK INTER:                  -6.490
REMARK INTRA:                  -0.302
REMARK UNBOUND:                -0.302
REMARK SMILES CCCCCc1ccccc1
REMARK SMILES IDX 4 1 3 2 2 3 1 4 5 5 6 6 7 7 11 8 8 9 10 10 9 11
REMARK H PARENT
REMARK Flexibility Score: inf
ROOT
ATOM      1  C   UNL     1       2.062  24.290  45.583  1.00  0.00     0.005 C 
ENDROOT
BRANCH   1   2
ATOM      2  C   UNL     1       0.934  24.377  46.622  1.00  0.00     0.000 C 
BRANCH   2   3
ATOM      3  C   UNL     1       1.367  25.102  47.905  1.00  0.00    -0.003 C 
ATOM      4  C   UNL     1       1.916  24.117  48.933  1.00  0.00     0.004 C 
ENDBRANCH   2   3
ENDBRANCH   1   2
BRANCH   1   5
ATOM      5  C   UNL     1       2.545  22.851  45.352  1.00  0.00     0.035 C 
BRANCH   5   6
ATOM      6  C   UNL     1       2.487  22.505  43.887  1.00  0.00    -0.048 A 
ATOM      7  C   UNL     1       1.690  21.437  43.442  1.00  0.00     0.004 A 
ATOM      8  C   UNL     1       3.184  23.282  42.947  1.00  0.00     0.004 A 
ATOM      9  C   UNL     1       1.613  21.137  42.078  1.00  0.00     0.000 A 
ATOM     10  C   UNL     1       3.104  22.979  41.585  1.00  0.00     0.000 A 
ATOM     11  C   UNL     1       2.320  21.905  41.151  1.00  0.00     0.000 A 
ENDBRANCH   5   6
ENDBRANCH   1   5
TORSDOF 4
ENDMDL
MODEL 2
REMARK VINA RESULT:    -4.912      1.680      2.630
REMARK INTER + INTRA:          -6.362
REMARK INTER:                  -5.853
REMARK INTRA:                  -0.510
REMARK UNBOUND:                -0.302
REMARK SMILES CCCCCc1ccccc1
REMARK SMILES IDX 4 1 3 2 2 3 1 4 5 5 6 6 7 7 11 8 8 9 10 10 9 11
REMARK H PARENT
REMARK Flexibility Score: inf
ROOT
ATOM      1  C   UNL     1       1.540  25.672  47.605  1.00  0.00     0.005 C 
ENDROOT
BRANCH   1   2
ATOM      2  C   UNL     1       2.237  25.280  48.916  1.00  0.00     0.000 C 
BRANCH   2   3
ATOM      3  C   UNL     1       1.641  24.013  49.546  1.00  0.00    -0.003 C 
ATOM      4  C   UNL     1       2.720  22.963  49.796  1.00  0.00     0.004 C 
ENDBRANCH   2   3
ENDBRANCH   1   2
BRANCH   1   5
ATOM      5  C   UNL     1       1.045  24.456  46.810  1.00  0.00     0.035 C 
BRANCH   5   6
ATOM      6  C   UNL     1       1.972  24.166  45.659  1.00  0.00    -0.048 A 
ATOM      7  C   UNL     1       2.416  22.855  45.419  1.00  0.00     0.004 A 
ATOM      8  C   UNL     1       2.355  25.193  44.781  1.00  0.00     0.004 A 
ATOM      9  C   UNL     1       3.251  22.583  44.331  1.00  0.00     0.000 A 
ATOM     10  C   UNL     1       3.190  24.917  43.694  1.00  0.00     0.000 A 
ATOM     11  C   UNL     1       3.639  23.612  43.471  1.00  0.00     0.000 A 
ENDBRANCH   5   6
ENDBRANCH   1   5
TORSDOF 4
ENDMDL
MODEL 3
REMARK VINA RESULT:    -4.841      1.898      6.583
REMARK INTER + INTRA:          -6.275
REMARK INTER:                  -5.872
REMARK INTRA:                  -0.403
REMARK UNBOUND:                -0.302
REMARK SMILES CCCCCc1ccccc1
REMARK SMILES IDX 4 1 3 2 2 3 1 4 5 5 6 6 7 7 11 8 8 9 10 10 9 11
REMARK H PARENT
REMARK Flexibility Score: inf
ROOT
ATOM      1  C   UNL     1       0.940  24.517  47.073  1.00  0.00     0.005 C 
ENDROOT
BRANCH   1   2
ATOM      2  C   UNL     1       1.572  24.215  45.706  1.00  0.00     0.000 C 
BRANCH   2   3
ATOM      3  C   UNL     1       2.447  22.953  45.725  1.00  0.00    -0.003 C 
ATOM      4  C   UNL     1       3.167  22.765  44.393  1.00  0.00     0.004 C 
ENDBRANCH   2   3
ENDBRANCH   1   2
BRANCH   1   5
ATOM      5  C   UNL     1       1.979  24.908  48.133  1.00  0.00     0.035 C 
BRANCH   5   6
ATOM      6  C   UNL     1       1.842  24.036  49.353  1.00  0.00    -0.048 A 
ATOM      7  C   UNL     1       2.679  22.921  49.525  1.00  0.00     0.004 A 
ATOM      8  C   UNL     1       0.914  24.362  50.356  1.00  0.00     0.004 A 
ATOM      9  C   UNL     1       2.571  22.131  50.674  1.00  0.00     0.000 A 
ATOM     10  C   UNL     1       0.809  23.569  51.503  1.00  0.00     0.000 A 
ATOM     11  C   UNL     1       1.636  22.453  51.661  1.00  0.00     0.000 A 
ENDBRANCH   5   6
ENDBRANCH   1   5
TORSDOF 4
ENDMDL
MODEL 4
REMARK VINA RESULT:    -4.818      2.015      6.644
REMARK INTER + INTRA:          -6.247
REMARK INTER:                  -5.835
REMARK INTRA:                  -0.411
REMARK UNBOUND:                -0.302
REMARK SMILES CCCCCc1ccccc1
REMARK SMILES IDX 4 1 3 2 2 3 1 4 5 5 6 6 7 7 11 8 8 9 10 10 9 11
REMARK H PARENT
REMARK Flexibility Score: inf
ROOT
ATOM      1  C   UNL     1       0.880  24.688  47.413  1.00  0.00     0.005 C 
ENDROOT
BRANCH   1   2
ATOM      2  C   UNL     1       1.233  24.124  46.029  1.00  0.00     0.000 C 
BRANCH   2   3
ATOM      3  C   UNL     1       2.358  23.080  46.084  1.00  0.00    -0.003 C 
ATOM      4  C   UNL     1       2.734  22.604  44.684  1.00  0.00     0.004 C 
ENDBRANCH   2   3
ENDBRANCH   1   2
BRANCH   1   5
ATOM      5  C   UNL     1       2.099  24.786  48.341  1.00  0.00     0.035 C 
BRANCH   5   6
ATOM      6  C   UNL     1       1.902  23.927  49.562  1.00  0.00    -0.048 A 
ATOM      7  C   UNL     1       0.865  24.207  50.467  1.00  0.00     0.004 A 
ATOM      8  C   UNL     1       2.718  22.804  49.777  1.00  0.00     0.004 A 
ATOM      9  C   UNL     1       0.664  23.389  51.583  1.00  0.00     0.000 A 
ATOM     10  C   UNL     1       2.514  21.988  50.894  1.00  0.00     0.000 A 
ATOM     11  C   UNL     1       1.488  22.282  51.798  1.00  0.00     0.000 A 
ENDBRANCH   5   6
ENDBRANCH   1   5
TORSDOF 4
ENDMDL
MODEL 5
REMARK VINA RESULT:    -4.701      1.479      2.349
REMARK INTER + INTRA:          -6.103
REMARK INTER:                  -5.545
REMARK INTRA:                  -0.558
REMARK UNBOUND:                -0.302
REMARK SMILES CCCCCc1ccccc1
REMARK SMILES IDX 4 1 3 2 2 3 1 4 5 5 6 6 7 7 11 8 8 9 10 10 9 11
REMARK H PARENT
REMARK Flexibility Score: inf
ROOT
ATOM      1  C   UNL     1       1.822  24.500  45.290  1.00  0.00     0.005 C 
ENDROOT
BRANCH   1   2
ATOM      2  C   UNL     1       2.695  25.724  45.604  1.00  0.00     0.000 C 
BRANCH   2   3
ATOM      3  C   UNL     1       2.983  26.580  44.362  1.00  0.00    -0.003 C 
ATOM      4  C   UNL     1       4.458  26.513  43.979  1.00  0.00     0.004 C 
ENDBRANCH   2   3
ENDBRANCH   1   2
BRANCH   1   5
ATOM      5  C   UNL     1       2.640  23.209  45.150  1.00  0.00     0.035 C 
BRANCH   5   6
ATOM      6  C   UNL     1       2.524  22.660  43.752  1.00  0.00    -0.048 A 
ATOM      7  C   UNL     1       1.707  21.547  43.493  1.00  0.00     0.004 A 
ATOM      8  C   UNL     1       3.186  23.290  42.686  1.00  0.00     0.004 A 
ATOM      9  C   UNL     1       1.575  21.059  42.189  1.00  0.00     0.000 A 
ATOM     10  C   UNL     1       3.052  22.800  41.384  1.00  0.00     0.000 A 
ATOM     11  C   UNL     1       2.248  21.683  41.136  1.00  0.00     0.000 A 
ENDBRANCH   5   6
ENDBRANCH   1   5
TORSDOF 4
ENDMDL
MODEL 6
REMARK VINA RESULT:    -4.642      6.084      8.344
REMARK INTER + INTRA:          -6.030
REMARK INTER:                  -5.399
REMARK INTRA:                  -0.631
REMARK UNBOUND:                -0.302
REMARK SMILES CCCCCc1ccccc1
REMARK SMILES IDX 4 1 3 2 2 3 1 4 5 5 6 6 7 7 11 8 8 9 10 10 9 11
REMARK H PARENT
REMARK Flexibility Score: inf
ROOT
ATOM      1  C   UNL     1       1.675  22.190  52.559  1.00  0.00     0.005 C 
ENDROOT
BRANCH   1   2
ATOM      2  C   UNL     1       0.657  22.740  51.548  1.00  0.00     0.000 C 
BRANCH   2   3
ATOM      3  C   UNL     1       0.960  24.187  51.133  1.00  0.00    -0.003 C 
ATOM      4  C   UNL     1       1.538  24.244  49.722  1.00  0.00     0.004 C 
ENDBRANCH   2   3
ENDBRANCH   1   2
BRANCH   1   5
ATOM      5  C   UNL     1       2.870  21.503  51.883  1.00  0.00     0.035 C 
BRANCH   5   6
ATOM      6  C   UNL     1       4.101  22.363  51.989  1.00  0.00    -0.048 A 
ATOM      7  C   UNL     1       4.536  22.829  53.241  1.00  0.00     0.004 A 
ATOM      8  C   UNL     1       4.857  22.661  50.844  1.00  0.00     0.004 A 
ATOM      9  C   UNL     1       5.697  23.601  53.340  1.00  0.00     0.000 A 
ATOM     10  C   UNL     1       6.018  23.434  50.947  1.00  0.00     0.000 A 
ATOM     11  C   UNL     1       6.436  23.905  52.195  1.00  0.00     0.000 A 
ENDBRANCH   5   6
ENDBRANCH   1   5
TORSDOF 4
ENDMDL
MODEL 7
REMARK VINA RESULT:    -4.624      1.068      5.946
REMARK INTER + INTRA:          -6.008
REMARK INTER:                  -5.711
REMARK INTRA:                  -0.297
REMARK UNBOUND:                -0.302
REMARK SMILES CCCCCc1ccccc1
REMARK SMILES IDX 4 1 3 2 2 3 1 4 5 5 6 6 7 7 11 8 8 9 10 10 9 11
REMARK H PARENT
REMARK Flexibility Score: inf
ROOT
ATOM      1  C   UNL     1       2.422  22.831  45.586  1.00  0.00     0.005 C 
ENDROOT
BRANCH   1   2
ATOM      2  C   UNL     1       3.352  22.977  44.372  1.00  0.00     0.000 C 
BRANCH   2   3
ATOM      3  C   UNL     1       2.730  22.422  43.082  1.00  0.00    -0.003 C 
ATOM      4  C   UNL     1       1.669  21.370  43.392  1.00  0.00     0.004 C 
ENDBRANCH   2   3
ENDBRANCH   1   2
BRANCH   1   5
ATOM      5  C   UNL     1       1.556  24.075  45.823  1.00  0.00     0.035 C 
BRANCH   5   6
ATOM      6  C   UNL     1       1.520  24.421  47.289  1.00  0.00    -0.048 A 
ATOM      7  C   UNL     1       2.104  23.562  48.234  1.00  0.00     0.004 A 
ATOM      8  C   UNL     1       0.952  25.632  47.717  1.00  0.00     0.004 A 
ATOM      9  C   UNL     1       2.098  23.901  49.591  1.00  0.00     0.000 A 
ATOM     10  C   UNL     1       0.948  25.967  49.075  1.00  0.00     0.000 A 
ATOM     11  C   UNL     1       1.519  25.100  50.011  1.00  0.00     0.000 A 
ENDBRANCH   5   6
ENDBRANCH   1   5
TORSDOF 4
ENDMDL
MODEL 8
REMARK VINA RESULT:    -4.537      1.126      5.330
REMARK INTER + INTRA:          -5.900
REMARK INTER:                  -5.431
REMARK INTRA:                  -0.469
REMARK UNBOUND:                -0.302
REMARK SMILES CCCCCc1ccccc1
REMARK SMILES IDX 4 1 3 2 2 3 1 4 5 5 6 6 7 7 11 8 8 9 10 10 9 11
REMARK H PARENT
REMARK Flexibility Score: inf
ROOT
ATOM      1  C   UNL     1       3.546  23.146  43.213  1.00  0.00     0.005 C 
ENDROOT
BRANCH   1   2
ATOM      2  C   UNL     1       2.863  22.824  41.876  1.00  0.00     0.000 C 
BRANCH   2   3
ATOM      3  C   UNL     1       2.276  21.405  41.839  1.00  0.00    -0.003 C 
ATOM      4  C   UNL     1       1.370  21.154  43.041  1.00  0.00     0.004 C 
ENDBRANCH   2   3
ENDBRANCH   1   2
BRANCH   1   5
ATOM      5  C   UNL     1       3.527  24.645  43.543  1.00  0.00     0.035 C 
BRANCH   5   6
ATOM      6  C   UNL     1       2.843  24.886  44.863  1.00  0.00    -0.048 A 
ATOM      7  C   UNL     1       3.071  26.077  45.573  1.00  0.00     0.004 A 
ATOM      8  C   UNL     1       1.929  23.947  45.369  1.00  0.00     0.004 A 
ATOM      9  C   UNL     1       2.410  26.312  46.783  1.00  0.00     0.000 A 
ATOM     10  C   UNL     1       1.271  24.186  46.579  1.00  0.00     0.000 A 
ATOM     11  C   UNL     1       1.513  25.367  47.287  1.00  0.00     0.000 A 
ENDBRANCH   5   6
ENDBRANCH   1   5
TORSDOF 4
ENDMDL
MODEL 9
REMARK VINA RESULT:    -4.251      5.506      7.597
REMARK INTER + INTRA:          -5.547
REMARK INTER:                  -4.816
REMARK INTRA:                  -0.731
REMARK UNBOUND:                -0.302
REMARK SMILES CCCCCc1ccccc1
REMARK SMILES IDX 4 1 3 2 2 3 1 4 5 5 6 6 7 7 11 8 8 9 10 10 9 11
REMARK H PARENT
REMARK Flexibility Score: inf
ROOT
ATOM      1  C   UNL     1       4.060  21.802  52.183  1.00  0.00     0.005 C 
ENDROOT
BRANCH   1   2
ATOM      2  C   UNL     1       4.594  22.918  53.094  1.00  0.00     0.000 C 
BRANCH   2   3
ATOM      3  C   UNL     1       5.579  23.850  52.373  1.00  0.00    -0.003 C 
ATOM      4  C   UNL     1       5.896  23.334  50.972  1.00  0.00     0.004 C 
ENDBRANCH   2   3
ENDBRANCH   1   2
BRANCH   1   5
ATOM      5  C   UNL     1       2.529  21.808  52.074  1.00  0.00     0.035 C 
BRANCH   5   6
ATOM      6  C   UNL     1       2.066  22.962  51.224  1.00  0.00    -0.048 A 
ATOM      7  C   UNL     1       1.284  23.986  51.783  1.00  0.00     0.004 A 
ATOM      8  C   UNL     1       2.458  23.052  49.878  1.00  0.00     0.004 A 
ATOM      9  C   UNL     1       0.882  25.073  50.999  1.00  0.00     0.000 A 
ATOM     10  C   UNL     1       2.054  24.140  49.098  1.00  0.00     0.000 A 
ATOM     11  C   UNL     1       1.264  25.148  49.658  1.00  0.00     0.000 A 
ENDBRANCH   5   6
ENDBRANCH   1   5
TORSDOF 4
ENDMDL
