MODEL 1
REMARK VINA RESULT:    -5.128      0.000      0.000
REMARK INTER + INTRA:         -12.629
REMARK INTER:                 -11.123
REMARK INTRA:                  -1.506
REMARK UNBOUND:                -1.506
REMARK SMILES CCCCCCCCCCCCCCCCCCCCCC(=O)[O-]
REMARK SMILES IDX 12 1 11 2 10 3 9 4 8 5 7 6 6 7 5 8 4 9 3 10 2 11 1 12 13 13
REMARK SMILES IDX 14 14 15 15 16 16 17 17 18 18 19 19 20 20 21 21 22 22 23 23
REMARK SMILES IDX 24 24
REMARK H PARENT
REMARK Flexibility Score: inf
ROOT
ATOM      1  C   UNL     1      -8.744  -8.758  -4.746  1.00  0.00     0.000 C 
ENDROOT
BRANCH   1   2
ATOM      2  C   UNL     1      -9.015  -7.782  -5.903  1.00  0.00     0.000 C 
BRANCH   2   3
ATOM      3  C   UNL     1      -9.992  -6.663  -5.506  1.00  0.00     0.000 C 
BRANCH   3   4
ATOM      4  C   UNL     1     -11.463  -7.106  -5.601  1.00  0.00    -0.000 C 
BRANCH   4   5
ATOM      5  C   UNL     1     -12.443  -5.995  -5.194  1.00  0.00    -0.000 C 
BRANCH   5   6
ATOM      6  C   UNL     1     -12.745  -5.012  -6.337  1.00  0.00    -0.000 C 
BRANCH   6   7
ATOM      7  C   UNL     1     -12.011  -3.683  -6.121  1.00  0.00    -0.000 C 
BRANCH   7   8
ATOM      8  C   UNL     1     -10.778  -3.578  -7.031  1.00  0.00    -0.000 C 
BRANCH   8   9
ATOM      9  C   UNL     1     -11.117  -3.844  -8.507  1.00  0.00    -0.000 C 
BRANCH   9  10
ATOM     10  C   UNL     1     -10.414  -5.096  -9.057  1.00  0.00    -0.000 C 
BRANCH  10  11
ATOM     11  C   UNL     1     -11.242  -5.802 -10.142  1.00  0.00    -0.003 C 
ATOM     12  C   UNL     1     -11.889  -4.818 -11.118  1.00  0.00     0.004 C 
ENDBRANCH  10  11
ENDBRANCH   9  10
ENDBRANCH   8   9
ENDBRANCH   7   8
ENDBRANCH   6   7
ENDBRANCH   5   6
ENDBRANCH   4   5
ENDBRANCH   3   4
ENDBRANCH   2   3
ENDBRANCH   1   2
BRANCH   1  13
ATOM     13  C   UNL     1      -9.266 -10.162  -5.074  1.00  0.00     0.000 C 
BRANCH  13  14
ATOM     14  C   UNL     1      -8.130 -11.060  -5.586  1.00  0.00     0.000 C 
BRANCH  14  15
ATOM     15  C   UNL     1      -6.737 -10.549  -5.185  1.00  0.00     0.000 C 
BRANCH  15  16
ATOM     16  C   UNL     1      -5.864 -10.198  -6.402  1.00  0.00     0.000 C 
BRANCH  16  17
ATOM     17  C   UNL     1      -4.769 -11.246  -6.663  1.00  0.00     0.000 C 
BRANCH  17  18
ATOM     18  C   UNL     1      -3.546 -11.068  -5.745  1.00  0.00     0.000 C 
BRANCH  18  19
ATOM     19  C   UNL     1      -2.876 -12.403  -5.387  1.00  0.00     0.000 C 
BRANCH  19  20
ATOM     20  C   UNL     1      -2.210 -12.378  -3.999  1.00  0.00     0.006 C 
BRANCH  20  21
ATOM     21  C   UNL     1      -1.272 -13.573  -3.786  1.00  0.00     0.053 C 
BRANCH  21  22
ATOM     22  C   UNL     1       0.159 -13.209  -4.036  1.00  0.00     0.041 C 
ATOM     23  O   UNL     1       0.595 -13.123  -5.215  1.00  0.00    -0.550 OA
ATOM     24  O   UNL     1       1.022 -13.002  -2.967  1.00  0.00    -0.550 OA
ENDBRANCH  21  22
ENDBRANCH  20  21
ENDBRANCH  19  20
ENDBRANCH  18  19
ENDBRANCH  17  18
ENDBRANCH  16  17
ENDBRANCH  15  16
ENDBRANCH  14  15
ENDBRANCH  13  14
ENDBRANCH   1  13
TORSDOF 20
ENDMDL
MODEL 2
REMARK VINA RESULT:    -5.094      5.034      6.998
REMARK INTER + INTRA:         -12.555
REMARK INTER:                  -9.990
REMARK INTRA:                  -2.566
REMARK UNBOUND:                -1.506
REMARK SMILES CCCCCCCCCCCCCCCCCCCCCC(=O)[O-]
REMARK SMILES IDX 12 1 11 2 10 3 9 4 8 5 7 6 6 7 5 8 4 9 3 10 2 11 1 12 13 13
REMARK SMILES IDX 14 14 15 15 16 16 17 17 18 18 19 19 20 20 21 21 22 22 23 23
REMARK SMILES IDX 24 24
REMARK H PARENT
REMARK Flexibility Score: inf
ROOT
ATOM      1  C   UNL     1      -8.132  -9.046  -4.911  1.00  0.00     0.000 C 
ENDROOT
BRANCH   1   2
ATOM      2  C   UNL     1      -9.634  -9.286  -5.131  1.00  0.00     0.000 C 
BRANCH   2   3
ATOM      3  C   UNL     1     -10.383  -7.997  -5.508  1.00  0.00     0.000 C 
BRANCH   3   4
ATOM      4  C   UNL     1      -9.518  -6.738  -5.321  1.00  0.00    -0.000 C 
BRANCH   4   5
ATOM      5  C   UNL     1      -9.248  -6.004  -6.643  1.00  0.00    -0.000 C 
BRANCH   5   6
ATOM      6  C   UNL     1     -10.189  -6.444  -7.776  1.00  0.00    -0.000 C 
BRANCH   6   7
ATOM      7  C   UNL     1     -10.647  -5.236  -8.604  1.00  0.00    -0.000 C 
BRANCH   7   8
ATOM      8  C   UNL     1     -10.882  -4.009  -7.710  1.00  0.00    -0.000 C 
BRANCH   8   9
ATOM      9  C   UNL     1     -12.284  -4.007  -7.079  1.00  0.00    -0.000 C 
BRANCH   9  10
ATOM     10  C   UNL     1     -12.247  -4.231  -5.558  1.00  0.00    -0.000 C 
BRANCH  10  11
ATOM     11  C   UNL     1     -13.000  -5.503  -5.136  1.00  0.00    -0.003 C 
ATOM     12  C   UNL     1     -13.379  -5.495  -3.654  1.00  0.00     0.004 C 
ENDBRANCH  10  11
ENDBRANCH   9  10
ENDBRANCH   8   9
ENDBRANCH   7   8
ENDBRANCH   6   7
ENDBRANCH   5   6
ENDBRANCH   4   5
ENDBRANCH   3   4
ENDBRANCH   2   3
ENDBRANCH   1   2
BRANCH   1  13
ATOM     13  C   UNL     1      -7.304 -10.243  -5.393  1.00  0.00     0.000 C 
BRANCH  13  14
ATOM     14  C   UNL     1      -8.168 -11.511  -5.462  1.00  0.00     0.000 C 
BRANCH  14  15
ATOM     15  C   UNL     1      -8.076 -12.222  -6.821  1.00  0.00     0.000 C 
BRANCH  15  16
ATOM     16  C   UNL     1      -9.333 -13.050  -7.141  1.00  0.00     0.000 C 
BRANCH  16  17
ATOM     17  C   UNL     1     -10.462 -12.824  -6.121  1.00  0.00     0.000 C 
BRANCH  17  18
ATOM     18  C   UNL     1     -10.875 -14.117  -5.397  1.00  0.00     0.000 C 
BRANCH  18  19
ATOM     19  C   UNL     1     -11.208 -13.885  -3.915  1.00  0.00     0.000 C 
BRANCH  19  20
ATOM     20  C   UNL     1     -11.409 -12.395  -3.580  1.00  0.00     0.006 C 
BRANCH  20  21
ATOM     21  C   UNL     1     -12.869 -12.072  -3.238  1.00  0.00     0.053 C 
BRANCH  21  22
ATOM     22  C   UNL     1     -13.114 -12.100  -1.761  1.00  0.00     0.041 C 
ATOM     23  O   UNL     1     -13.861 -12.981  -1.258  1.00  0.00    -0.550 OA
ATOM     24  O   UNL     1     -12.549 -11.130  -0.943  1.00  0.00    -0.550 OA
ENDBRANCH  21  22
ENDBRANCH  20  21
ENDBRANCH  19  20
ENDBRANCH  18  19
ENDBRANCH  17  18
ENDBRANCH  16  17
ENDBRANCH  15  16
ENDBRANCH  14  15
ENDBRANCH  13  14
ENDBRANCH   1  13
TORSDOF 20
ENDMDL
MODEL 3
REMARK VINA RESULT:    -5.085      4.694     10.599
REMARK INTER + INTRA:         -12.536
REMARK INTER:                 -10.547
REMARK INTRA:                  -1.989
REMARK UNBOUND:                -1.506
REMARK SMILES CCCCCCCCCCCCCCCCCCCCCC(=O)[O-]
REMARK SMILES IDX 12 1 11 2 10 3 9 4 8 5 7 6 6 7 5 8 4 9 3 10 2 11 1 12 13 13
REMARK SMILES IDX 14 14 15 15 16 16 17 17 18 18 19 19 20 20 21 21 22 22 23 23
REMARK SMILES IDX 24 24
REMARK H PARENT
REMARK Flexibility Score: inf
ROOT
ATOM      1  C   UNL     1      -8.611  -8.395  -4.791  1.00  0.00     0.000 C 
ENDROOT
BRANCH   1   2
ATOM      2  C   UNL     1      -9.192  -9.744  -5.248  1.00  0.00     0.000 C 
BRANCH   2   3
ATOM      3  C   UNL     1      -8.170 -10.887  -5.140  1.00  0.00     0.000 C 
BRANCH   3   4
ATOM      4  C   UNL     1      -6.717 -10.388  -5.238  1.00  0.00    -0.000 C 
BRANCH   4   5
ATOM      5  C   UNL     1      -6.110 -10.605  -6.633  1.00  0.00    -0.000 C 
BRANCH   5   6
ATOM      6  C   UNL     1      -6.766 -11.766  -7.398  1.00  0.00    -0.000 C 
BRANCH   6   7
ATOM      7  C   UNL     1      -5.721 -12.819  -7.790  1.00  0.00    -0.000 C 
BRANCH   7   8
ATOM      8  C   UNL     1      -4.367 -12.529  -7.126  1.00  0.00    -0.000 C 
BRANCH   8   9
ATOM      9  C   UNL     1      -3.538 -13.805  -6.908  1.00  0.00    -0.000 C 
BRANCH   9  10
ATOM     10  C   UNL     1      -2.396 -13.601  -5.898  1.00  0.00    -0.000 C 
BRANCH  10  11
ATOM     11  C   UNL     1      -2.369 -12.174  -5.327  1.00  0.00    -0.003 C 
ATOM     12  C   UNL     1      -2.459 -12.153  -3.801  1.00  0.00     0.004 C 
ENDBRANCH  10  11
ENDBRANCH   9  10
ENDBRANCH   8   9
ENDBRANCH   7   8
ENDBRANCH   6   7
ENDBRANCH   5   6
ENDBRANCH   4   5
ENDBRANCH   3   4
ENDBRANCH   2   3
ENDBRANCH   1   2
BRANCH   1  13
ATOM     13  C   UNL     1      -9.574  -7.244  -5.103  1.00  0.00     0.000 C 
BRANCH  13  14
ATOM     14  C   UNL     1     -10.088  -7.339  -6.547  1.00  0.00     0.000 C 
BRANCH  14  15
ATOM     15  C   UNL     1      -9.632  -6.159  -7.421  1.00  0.00     0.000 C 
BRANCH  15  16
ATOM     16  C   UNL     1     -10.571  -5.913  -8.615  1.00  0.00     0.000 C 
BRANCH  16  17
ATOM     17  C   UNL     1     -10.889  -4.422  -8.817  1.00  0.00     0.000 C 
BRANCH  17  18
ATOM     18  C   UNL     1     -10.828  -3.619  -7.505  1.00  0.00     0.000 C 
BRANCH  18  19
ATOM     19  C   UNL     1     -12.218  -3.359  -6.905  1.00  0.00     0.000 C 
BRANCH  19  20
ATOM     20  C   UNL     1     -12.868  -4.636  -6.342  1.00  0.00     0.006 C 
BRANCH  20  21
ATOM     21  C   UNL     1     -12.375  -4.958  -4.926  1.00  0.00     0.053 C 
BRANCH  21  22
ATOM     22  C   UNL     1     -13.253  -5.963  -4.246  1.00  0.00     0.041 C 
ATOM     23  O   UNL     1     -13.885  -5.651  -3.203  1.00  0.00    -0.550 OA
ATOM     24  O   UNL     1     -13.343  -7.258  -4.744  1.00  0.00    -0.550 OA
ENDBRANCH  21  22
ENDBRANCH  20  21
ENDBRANCH  19  20
ENDBRANCH  18  19
ENDBRANCH  17  18
ENDBRANCH  16  17
ENDBRANCH  15  16
ENDBRANCH  14  15
ENDBRANCH  13  14
ENDBRANCH   1  13
TORSDOF 20
ENDMDL
MODEL 4
REMARK VINA RESULT:    -5.041      4.642     11.666
REMARK INTER + INTRA:         -12.441
REMARK INTER:                 -11.309
REMARK INTRA:                  -1.132
REMARK UNBOUND:                -1.506
REMARK SMILES CCCCCCCCCCCCCCCCCCCCCC(=O)[O-]
REMARK SMILES IDX 12 1 11 2 10 3 9 4 8 5 7 6 6 7 5 8 4 9 3 10 2 11 1 12 13 13
REMARK SMILES IDX 14 14 15 15 16 16 17 17 18 18 19 19 20 20 21 21 22 22 23 23
REMARK SMILES IDX 24 24
REMARK H PARENT
REMARK Flexibility Score: inf
ROOT
ATOM      1  C   UNL     1      -6.757 -10.073  -5.330  1.00  0.00     0.000 C 
ENDROOT
BRANCH   1   2
ATOM      2  C   UNL     1      -6.102 -10.345  -6.694  1.00  0.00     0.000 C 
BRANCH   2   3
ATOM      3  C   UNL     1      -5.027 -11.442  -6.618  1.00  0.00     0.000 C 
BRANCH   3   4
ATOM      4  C   UNL     1      -3.740 -10.957  -5.925  1.00  0.00    -0.000 C 
BRANCH   4   5
ATOM      5  C   UNL     1      -2.843 -12.116  -5.467  1.00  0.00    -0.000 C 
BRANCH   5   6
ATOM      6  C   UNL     1      -2.620 -12.139  -3.946  1.00  0.00    -0.000 C 
BRANCH   6   7
ATOM      7  C   UNL     1      -2.214 -13.541  -3.475  1.00  0.00    -0.000 C 
BRANCH   7   8
ATOM      8  C   UNL     1      -1.261 -13.466  -2.272  1.00  0.00    -0.000 C 
BRANCH   8   9
ATOM      9  C   UNL     1       0.189 -13.807  -2.654  1.00  0.00    -0.000 C 
BRANCH   9  10
ATOM     10  C   UNL     1       0.345 -14.123  -4.151  1.00  0.00    -0.000 C 
BRANCH  10  11
ATOM     11  C   UNL     1       0.853 -12.914  -4.954  1.00  0.00    -0.003 C 
ATOM     12  C   UNL     1       0.977 -13.213  -6.448  1.00  0.00     0.004 C 
ENDBRANCH  10  11
ENDBRANCH   9  10
ENDBRANCH   8   9
ENDBRANCH   7   8
ENDBRANCH   6   7
ENDBRANCH   5   6
ENDBRANCH   4   5
ENDBRANCH   3   4
ENDBRANCH   2   3
ENDBRANCH   1   2
BRANCH   1  13
ATOM     13  C   UNL     1      -8.172 -10.659  -5.269  1.00  0.00     0.000 C 
BRANCH  13  14
ATOM     14  C   UNL     1      -9.220  -9.542  -5.155  1.00  0.00     0.000 C 
BRANCH  14  15
ATOM     15  C   UNL     1      -8.603  -8.176  -4.813  1.00  0.00     0.000 C 
BRANCH  15  16
ATOM     16  C   UNL     1      -9.205  -7.031  -5.645  1.00  0.00     0.000 C 
BRANCH  16  17
ATOM     17  C   UNL     1     -10.743  -7.045  -5.641  1.00  0.00     0.000 C 
BRANCH  17  18
ATOM     18  C   UNL     1     -11.348  -5.727  -5.127  1.00  0.00     0.000 C 
BRANCH  18  19
ATOM     19  C   UNL     1     -12.493  -5.215  -6.015  1.00  0.00     0.000 C 
BRANCH  19  20
ATOM     20  C   UNL     1     -12.057  -4.059  -6.935  1.00  0.00     0.006 C 
BRANCH  20  21
ATOM     21  C   UNL     1     -10.863  -4.444  -7.819  1.00  0.00     0.053 C 
BRANCH  21  22
ATOM     22  C   UNL     1     -11.112  -4.125  -9.260  1.00  0.00     0.041 C 
ATOM     23  O   UNL     1     -10.452  -4.705 -10.162  1.00  0.00    -0.550 OA
ATOM     24  O   UNL     1     -12.047  -3.157  -9.608  1.00  0.00    -0.550 OA
ENDBRANCH  21  22
ENDBRANCH  20  21
ENDBRANCH  19  20
ENDBRANCH  18  19
ENDBRANCH  17  18
ENDBRANCH  16  17
ENDBRANCH  15  16
ENDBRANCH  14  15
ENDBRANCH  13  14
ENDBRANCH   1  13
TORSDOF 20
ENDMDL
MODEL 5
REMARK VINA RESULT:    -5.030      4.663     10.773
REMARK INTER + INTRA:         -12.417
REMARK INTER:                 -10.545
REMARK INTRA:                  -1.872
REMARK UNBOUND:                -1.506
REMARK SMILES CCCCCCCCCCCCCCCCCCCCCC(=O)[O-]
REMARK SMILES IDX 12 1 11 2 10 3 9 4 8 5 7 6 6 7 5 8 4 9 3 10 2 11 1 12 13 13
REMARK SMILES IDX 14 14 15 15 16 16 17 17 18 18 19 19 20 20 21 21 22 22 23 23
REMARK SMILES IDX 24 24
REMARK H PARENT
REMARK Flexibility Score: inf
ROOT
ATOM      1  C   UNL     1      -9.088  -8.457  -4.833  1.00  0.00     0.000 C 
ENDROOT
BRANCH   1   2
ATOM      2  C   UNL     1      -9.521  -9.893  -5.170  1.00  0.00     0.000 C 
BRANCH   2   3
ATOM      3  C   UNL     1      -8.326 -10.799  -5.508  1.00  0.00     0.000 C 
BRANCH   3   4
ATOM      4  C   UNL     1      -6.978 -10.164  -5.120  1.00  0.00    -0.000 C 
BRANCH   4   5
ATOM      5  C   UNL     1      -5.989 -10.112  -6.294  1.00  0.00    -0.000 C 
BRANCH   5   6
ATOM      6  C   UNL     1      -5.835 -11.464  -7.010  1.00  0.00    -0.000 C 
BRANCH   6   7
ATOM      7  C   UNL     1      -4.412 -12.012  -6.841  1.00  0.00    -0.000 C 
BRANCH   7   8
ATOM      8  C   UNL     1      -3.561 -11.079  -5.966  1.00  0.00    -0.000 C 
BRANCH   8   9
ATOM      9  C   UNL     1      -2.942 -11.811  -4.763  1.00  0.00    -0.000 C 
BRANCH   9  10
ATOM     10  C   UNL     1      -1.521 -12.321  -5.051  1.00  0.00    -0.000 C 
BRANCH  10  11
ATOM     11  C   UNL     1      -0.964 -13.179  -3.904  1.00  0.00    -0.003 C 
ATOM     12  C   UNL     1      -2.043 -13.588  -2.901  1.00  0.00     0.004 C 
ENDBRANCH  10  11
ENDBRANCH   9  10
ENDBRANCH   8   9
ENDBRANCH   7   8
ENDBRANCH   6   7
ENDBRANCH   5   6
ENDBRANCH   4   5
ENDBRANCH   3   4
ENDBRANCH   2   3
ENDBRANCH   1   2
BRANCH   1  13
ATOM     13  C   UNL     1      -9.728  -7.446  -5.792  1.00  0.00     0.000 C 
BRANCH  13  14
ATOM     14  C   UNL     1     -11.138  -7.899  -6.200  1.00  0.00     0.000 C 
BRANCH  14  15
ATOM     15  C   UNL     1     -12.208  -7.531  -5.161  1.00  0.00     0.000 C 
BRANCH  15  16
ATOM     16  C   UNL     1     -13.026  -6.294  -5.569  1.00  0.00     0.000 C 
BRANCH  16  17
ATOM     17  C   UNL     1     -12.530  -5.008  -4.887  1.00  0.00     0.000 C 
BRANCH  17  18
ATOM     18  C   UNL     1     -11.550  -4.211  -5.765  1.00  0.00     0.000 C 
BRANCH  18  19
ATOM     19  C   UNL     1     -12.088  -3.969  -7.184  1.00  0.00     0.000 C 
BRANCH  19  20
ATOM     20  C   UNL     1     -10.980  -4.014  -8.252  1.00  0.00     0.006 C 
BRANCH  20  21
ATOM     21  C   UNL     1     -10.930  -5.366  -8.975  1.00  0.00     0.053 C 
BRANCH  21  22
ATOM     22  C   UNL     1     -11.124  -5.216 -10.452  1.00  0.00     0.041 C 
ATOM     23  O   UNL     1     -10.475  -4.347 -11.092  1.00  0.00    -0.550 OA
ATOM     24  O   UNL     1     -12.051  -6.010 -11.117  1.00  0.00    -0.550 OA
ENDBRANCH  21  22
ENDBRANCH  20  21
ENDBRANCH  19  20
ENDBRANCH  18  19
ENDBRANCH  17  18
ENDBRANCH  16  17
ENDBRANCH  15  16
ENDBRANCH  14  15
ENDBRANCH  13  14
ENDBRANCH   1  13
TORSDOF 20
ENDMDL
MODEL 6
REMARK VINA RESULT:    -4.963      5.403      9.770
REMARK INTER + INTRA:         -12.271
REMARK INTER:                  -9.482
REMARK INTRA:                  -2.790
REMARK UNBOUND:                -1.506
REMARK SMILES CCCCCCCCCCCCCCCCCCCCCC(=O)[O-]
REMARK SMILES IDX 12 1 11 2 10 3 9 4 8 5 7 6 6 7 5 8 4 9 3 10 2 11 1 12 13 13
REMARK SMILES IDX 14 14 15 15 16 16 17 17 18 18 19 19 20 20 21 21 22 22 23 23
REMARK SMILES IDX 24 24
REMARK H PARENT
REMARK Flexibility Score: inf
ROOT
ATOM      1  C   UNL     1      -8.986  -9.267  -5.111  1.00  0.00     0.000 C 
ENDROOT
BRANCH   1   2
ATOM      2  C   UNL     1      -7.617  -9.916  -5.371  1.00  0.00     0.000 C 
BRANCH   2   3
ATOM      3  C   UNL     1      -7.743 -11.327  -5.970  1.00  0.00     0.000 C 
BRANCH   3   4
ATOM      4  C   UNL     1      -9.145 -11.929  -5.767  1.00  0.00    -0.000 C 
BRANCH   4   5
ATOM      5  C   UNL     1      -9.635 -12.714  -6.993  1.00  0.00    -0.000 C 
BRANCH   5   6
ATOM      6  C   UNL     1     -11.158 -12.638  -7.186  1.00  0.00    -0.000 C 
BRANCH   6   7
ATOM      7  C   UNL     1     -11.673 -11.222  -6.897  1.00  0.00    -0.000 C 
BRANCH   7   8
ATOM      8  C   UNL     1     -13.070 -11.261  -6.260  1.00  0.00    -0.000 C 
BRANCH   8   9
ATOM      9  C   UNL     1     -13.113 -12.142  -5.000  1.00  0.00    -0.000 C 
BRANCH   9  10
ATOM     10  C   UNL     1     -12.286 -11.555  -3.843  1.00  0.00    -0.000 C 
BRANCH  10  11
ATOM     11  C   UNL     1     -11.628 -12.647  -2.984  1.00  0.00    -0.003 C 
ATOM     12  C   UNL     1     -11.486 -13.974  -3.730  1.00  0.00     0.004 C 
ENDBRANCH  10  11
ENDBRANCH   9  10
ENDBRANCH   8   9
ENDBRANCH   7   8
ENDBRANCH   6   7
ENDBRANCH   5   6
ENDBRANCH   4   5
ENDBRANCH   3   4
ENDBRANCH   2   3
ENDBRANCH   1   2
BRANCH   1  13
ATOM     13  C   UNL     1      -8.837  -7.784  -4.751  1.00  0.00     0.000 C 
BRANCH  13  14
ATOM     14  C   UNL     1      -9.810  -6.923  -5.570  1.00  0.00     0.000 C 
BRANCH  14  15
ATOM     15  C   UNL     1     -11.108  -7.665  -5.926  1.00  0.00     0.000 C 
BRANCH  15  16
ATOM     16  C   UNL     1     -12.367  -6.868  -5.543  1.00  0.00     0.000 C 
BRANCH  16  17
ATOM     17  C   UNL     1     -12.044  -5.427  -5.113  1.00  0.00     0.000 C 
BRANCH  17  18
ATOM     18  C   UNL     1     -12.629  -4.375  -6.073  1.00  0.00     0.000 C 
BRANCH  18  19
ATOM     19  C   UNL     1     -11.581  -3.356  -6.545  1.00  0.00     0.000 C 
BRANCH  19  20
ATOM     20  C   UNL     1     -10.741  -3.876  -7.726  1.00  0.00     0.006 C 
BRANCH  20  21
ATOM     21  C   UNL     1     -11.447  -3.668  -9.072  1.00  0.00     0.053 C 
BRANCH  21  22
ATOM     22  C   UNL     1     -11.050  -4.706 -10.075  1.00  0.00     0.041 C 
ATOM     23  O   UNL     1     -11.455  -5.892  -9.956  1.00  0.00    -0.550 OA
ATOM     24  O   UNL     1     -10.199  -4.372 -11.123  1.00  0.00    -0.550 OA
ENDBRANCH  21  22
ENDBRANCH  20  21
ENDBRANCH  19  20
ENDBRANCH  18  19
ENDBRANCH  17  18
ENDBRANCH  16  17
ENDBRANCH  15  16
ENDBRANCH  14  15
ENDBRANCH  13  14
ENDBRANCH   1  13
TORSDOF 20
ENDMDL
MODEL 7
REMARK VINA RESULT:    -4.962      5.256      9.767
REMARK INTER + INTRA:         -12.270
REMARK INTER:                  -9.883
REMARK INTRA:                  -2.387
REMARK UNBOUND:                -1.506
REMARK SMILES CCCCCCCCCCCCCCCCCCCCCC(=O)[O-]
REMARK SMILES IDX 12 1 11 2 10 3 9 4 8 5 7 6 6 7 5 8 4 9 3 10 2 11 1 12 13 13
REMARK SMILES IDX 14 14 15 15 16 16 17 17 18 18 19 19 20 20 21 21 22 22 23 23
REMARK SMILES IDX 24 24
REMARK H PARENT
REMARK Flexibility Score: inf
ROOT
ATOM      1  C   UNL     1      -7.942  -9.101  -4.947  1.00  0.00     0.000 C 
ENDROOT
BRANCH   1   2
ATOM      2  C   UNL     1      -7.057 -10.346  -5.123  1.00  0.00     0.000 C 
BRANCH   2   3
ATOM      3  C   UNL     1      -6.238 -10.303  -6.423  1.00  0.00     0.000 C 
BRANCH   3   4
ATOM      4  C   UNL     1      -6.523 -11.509  -7.338  1.00  0.00    -0.000 C 
BRANCH   4   5
ATOM      5  C   UNL     1      -7.745 -12.321  -6.881  1.00  0.00    -0.000 C 
BRANCH   5   6
ATOM      6  C   UNL     1      -8.060 -13.504  -7.811  1.00  0.00    -0.000 C 
BRANCH   6   7
ATOM      7  C   UNL     1      -9.534 -13.913  -7.692  1.00  0.00    -0.000 C 
BRANCH   7   8
ATOM      8  C   UNL     1     -10.385 -12.761  -7.138  1.00  0.00    -0.000 C 
BRANCH   8   9
ATOM      9  C   UNL     1     -11.271 -13.203  -5.961  1.00  0.00    -0.000 C 
BRANCH   9  10
ATOM     10  C   UNL     1     -10.711 -12.755  -4.601  1.00  0.00    -0.000 C 
BRANCH  10  11
ATOM     11  C   UNL     1     -11.810 -12.243  -3.656  1.00  0.00    -0.003 C 
ATOM     12  C   UNL     1     -12.713 -11.202  -4.318  1.00  0.00     0.004 C 
ENDBRANCH  10  11
ENDBRANCH   9  10
ENDBRANCH   8   9
ENDBRANCH   7   8
ENDBRANCH   6   7
ENDBRANCH   5   6
ENDBRANCH   4   5
ENDBRANCH   3   4
ENDBRANCH   2   3
ENDBRANCH   1   2
BRANCH   1  13
ATOM     13  C   UNL     1      -9.416  -9.428  -5.212  1.00  0.00     0.000 C 
BRANCH  13  14
ATOM     14  C   UNL     1     -10.213  -8.149  -5.512  1.00  0.00     0.000 C 
BRANCH  14  15
ATOM     15  C   UNL     1      -9.333  -6.890  -5.542  1.00  0.00     0.000 C 
BRANCH  15  16
ATOM     16  C   UNL     1      -9.269  -6.248  -6.938  1.00  0.00     0.000 C 
BRANCH  16  17
ATOM     17  C   UNL     1     -10.648  -6.167  -7.613  1.00  0.00     0.000 C 
BRANCH  17  18
ATOM     18  C   UNL     1     -11.035  -4.729  -8.003  1.00  0.00     0.000 C 
BRANCH  18  19
ATOM     19  C   UNL     1     -11.493  -3.892  -6.798  1.00  0.00     0.000 C 
BRANCH  19  20
ATOM     20  C   UNL     1     -12.686  -4.523  -6.058  1.00  0.00     0.006 C 
BRANCH  20  21
ATOM     21  C   UNL     1     -12.263  -5.189  -4.743  1.00  0.00     0.053 C 
BRANCH  21  22
ATOM     22  C   UNL     1     -13.366  -6.015  -4.157  1.00  0.00     0.041 C 
ATOM     23  O   UNL     1     -14.102  -5.541  -3.252  1.00  0.00    -0.550 OA
ATOM     24  O   UNL     1     -13.559  -7.323  -4.584  1.00  0.00    -0.550 OA
ENDBRANCH  21  22
ENDBRANCH  20  21
ENDBRANCH  19  20
ENDBRANCH  18  19
ENDBRANCH  17  18
ENDBRANCH  16  17
ENDBRANCH  15  16
ENDBRANCH  14  15
ENDBRANCH  13  14
ENDBRANCH   1  13
TORSDOF 20
ENDMDL
MODEL 8
REMARK VINA RESULT:    -4.957      4.882      7.015
REMARK INTER + INTRA:         -12.258
REMARK INTER:                  -9.718
REMARK INTRA:                  -2.539
REMARK UNBOUND:                -1.506
REMARK SMILES CCCCCCCCCCCCCCCCCCCCCC(=O)[O-]
REMARK SMILES IDX 12 1 11 2 10 3 9 4 8 5 7 6 6 7 5 8 4 9 3 10 2 11 1 12 13 13
REMARK SMILES IDX 14 14 15 15 16 16 17 17 18 18 19 19 20 20 21 21 22 22 23 23
REMARK SMILES IDX 24 24
REMARK H PARENT
REMARK Flexibility Score: inf
ROOT
ATOM      1  C   UNL     1      -7.626  -9.989  -5.201  1.00  0.00     0.000 C 
ENDROOT
BRANCH   1   2
ATOM      2  C   UNL     1      -8.957  -9.293  -4.871  1.00  0.00     0.000 C 
BRANCH   2   3
ATOM      3  C   UNL     1      -8.810  -7.765  -4.776  1.00  0.00     0.000 C 
BRANCH   3   4
ATOM      4  C   UNL     1      -9.592  -7.029  -5.879  1.00  0.00    -0.000 C 
BRANCH   4   5
ATOM      5  C   UNL     1     -11.001  -7.605  -6.089  1.00  0.00    -0.000 C 
BRANCH   5   6
ATOM      6  C   UNL     1     -12.104  -6.731  -5.470  1.00  0.00    -0.000 C 
BRANCH   6   7
ATOM      7  C   UNL     1     -11.614  -5.291  -5.275  1.00  0.00    -0.000 C 
BRANCH   7   8
ATOM      8  C   UNL     1     -12.595  -4.284  -5.894  1.00  0.00    -0.000 C 
BRANCH   8   9
ATOM      9  C   UNL     1     -12.270  -3.981  -7.366  1.00  0.00    -0.000 C 
BRANCH   9  10
ATOM     10  C   UNL     1     -10.768  -4.100  -7.675  1.00  0.00    -0.000 C 
BRANCH  10  11
ATOM     11  C   UNL     1     -10.494  -4.961  -8.919  1.00  0.00    -0.003 C 
ATOM     12  C   UNL     1     -11.193  -4.424 -10.169  1.00  0.00     0.004 C 
ENDBRANCH  10  11
ENDBRANCH   9  10
ENDBRANCH   8   9
ENDBRANCH   7   8
ENDBRANCH   6   7
ENDBRANCH   5   6
ENDBRANCH   4   5
ENDBRANCH   3   4
ENDBRANCH   2   3
ENDBRANCH   1   2
BRANCH   1  13
ATOM     13  C   UNL     1      -7.862 -11.317  -5.930  1.00  0.00     0.000 C 
BRANCH  13  14
ATOM     14  C   UNL     1      -9.327 -11.760  -5.795  1.00  0.00     0.000 C 
BRANCH  14  15
ATOM     15  C   UNL     1      -9.793 -12.645  -6.962  1.00  0.00     0.000 C 
BRANCH  15  16
ATOM     16  C   UNL     1     -11.300 -12.512  -7.239  1.00  0.00     0.000 C 
BRANCH  16  17
ATOM     17  C   UNL     1     -11.826 -11.093  -6.966  1.00  0.00     0.000 C 
BRANCH  17  18
ATOM     18  C   UNL     1     -12.949 -11.067  -5.914  1.00  0.00     0.000 C 
BRANCH  18  19
ATOM     19  C   UNL     1     -13.334 -12.472  -5.426  1.00  0.00     0.000 C 
BRANCH  19  20
ATOM     20  C   UNL     1     -13.801 -12.481  -3.958  1.00  0.00     0.006 C 
BRANCH  20  21
ATOM     21  C   UNL     1     -12.627 -12.611  -2.980  1.00  0.00     0.053 C 
BRANCH  21  22
ATOM     22  C   UNL     1     -12.772 -11.688  -1.810  1.00  0.00     0.041 C 
ATOM     23  O   UNL     1     -13.860 -11.087  -1.607  1.00  0.00    -0.550 OA
ATOM     24  O   UNL     1     -11.693 -11.461  -0.964  1.00  0.00    -0.550 OA
ENDBRANCH  21  22
ENDBRANCH  20  21
ENDBRANCH  19  20
ENDBRANCH  18  19
ENDBRANCH  17  18
ENDBRANCH  16  17
ENDBRANCH  15  16
ENDBRANCH  14  15
ENDBRANCH  13  14
ENDBRANCH   1  13
TORSDOF 20
ENDMDL
MODEL 9
REMARK VINA RESULT:    -4.874      5.190      9.547
REMARK INTER + INTRA:         -12.078
REMARK INTER:                  -9.849
REMARK INTRA:                  -2.230
REMARK UNBOUND:                -1.506
REMARK SMILES CCCCCCCCCCCCCCCCCCCCCC(=O)[O-]
REMARK SMILES IDX 12 1 11 2 10 3 9 4 8 5 7 6 6 7 5 8 4 9 3 10 2 11 1 12 13 13
REMARK SMILES IDX 14 14 15 15 16 16 17 17 18 18 19 19 20 20 21 21 22 22 23 23
REMARK SMILES IDX 24 24
REMARK H PARENT
REMARK Flexibility Score: inf
ROOT
ATOM      1  C   UNL     1      -5.145 -10.711  -6.252  1.00  0.00     0.000 C 
ENDROOT
BRANCH   1   2
ATOM      2  C   UNL     1      -5.007 -11.969  -7.126  1.00  0.00     0.000 C 
BRANCH   2   3
ATOM      3  C   UNL     1      -6.265 -12.237  -7.968  1.00  0.00     0.000 C 
BRANCH   3   4
ATOM      4  C   UNL     1      -6.842 -13.645  -7.733  1.00  0.00    -0.000 C 
BRANCH   4   5
ATOM      5  C   UNL     1      -8.358 -13.710  -7.975  1.00  0.00    -0.000 C 
BRANCH   5   6
ATOM      6  C   UNL     1      -9.160 -12.840  -6.993  1.00  0.00    -0.000 C 
BRANCH   6   7
ATOM      7  C   UNL     1     -10.666 -12.973  -7.253  1.00  0.00    -0.000 C 
BRANCH   7   8
ATOM      8  C   UNL     1     -11.403 -11.667  -6.919  1.00  0.00    -0.000 C 
BRANCH   8   9
ATOM      9  C   UNL     1     -12.432 -11.848  -5.791  1.00  0.00    -0.000 C 
BRANCH   9  10
ATOM     10  C   UNL     1     -11.939 -11.286  -4.447  1.00  0.00    -0.000 C 
BRANCH  10  11
ATOM     11  C   UNL     1     -11.882 -12.361  -3.350  1.00  0.00    -0.003 C 
ATOM     12  C   UNL     1     -10.800 -13.410  -3.612  1.00  0.00     0.004 C 
ENDBRANCH  10  11
ENDBRANCH   9  10
ENDBRANCH   8   9
ENDBRANCH   7   8
ENDBRANCH   6   7
ENDBRANCH   5   6
ENDBRANCH   4   5
ENDBRANCH   3   4
ENDBRANCH   2   3
ENDBRANCH   1   2
BRANCH   1  13
ATOM     13  C   UNL     1      -6.564 -10.135  -6.332  1.00  0.00     0.000 C 
BRANCH  13  14
ATOM     14  C   UNL     1      -7.282 -10.264  -4.981  1.00  0.00     0.000 C 
BRANCH  14  15
ATOM     15  C   UNL     1      -8.720  -9.724  -5.015  1.00  0.00     0.000 C 
BRANCH  15  16
ATOM     16  C   UNL     1      -8.774  -8.187  -4.976  1.00  0.00     0.000 C 
BRANCH  16  17
ATOM     17  C   UNL     1     -10.082  -7.628  -5.560  1.00  0.00     0.000 C 
BRANCH  17  18
ATOM     18  C   UNL     1     -10.222  -6.109  -5.355  1.00  0.00     0.000 C 
BRANCH  18  19
ATOM     19  C   UNL     1     -11.170  -5.459  -6.376  1.00  0.00     0.000 C 
BRANCH  19  20
ATOM     20  C   UNL     1     -10.417  -4.796  -7.543  1.00  0.00     0.006 C 
BRANCH  20  21
ATOM     21  C   UNL     1     -10.596  -5.566  -8.857  1.00  0.00     0.053 C 
BRANCH  21  22
ATOM     22  C   UNL     1     -11.178  -4.703  -9.934  1.00  0.00     0.041 C 
ATOM     23  O   UNL     1     -11.583  -5.217 -11.010  1.00  0.00    -0.550 OA
ATOM     24  O   UNL     1     -11.239  -3.325  -9.765  1.00  0.00    -0.550 OA
ENDBRANCH  21  22
ENDBRANCH  20  21
ENDBRANCH  19  20
ENDBRANCH  18  19
ENDBRANCH  17  18
ENDBRANCH  16  17
ENDBRANCH  15  16
ENDBRANCH  14  15
ENDBRANCH  13  14
ENDBRANCH   1  13
TORSDOF 20
ENDMDL
