MODEL 1
REMARK VINA RESULT:     7.432      0.000      0.000
REMARK INTER + INTRA:           9.760
REMARK INTER:                  10.039
REMARK INTRA:                  -0.279
REMARK UNBOUND:                -0.279
REMARK SMILES COc1ccc(-c2cc(=O)c3c(OC)c(OC)c(OC)cc3o2)cc1OC
REMARK SMILES IDX 7 1 8 2 9 3 10 4 11 5 12 6 15 7 18 8 21 9 22 10 23 11 6 12
REMARK SMILES IDX 3 13 25 14 4 15 24 16 5 17 2 18 1 19 26 20 27 21 13 22 14 23
REMARK SMILES IDX 19 24 20 25 16 26 17 27
REMARK H PARENT
REMARK Flexibility Score: inf
ROOT
ATOM      1  C   UNL     1     167.423 163.796 152.486  1.00  0.00     0.138 A 
ATOM      2  C   UNL     1     168.306 162.963 151.784  1.00  0.00     0.100 A 
ATOM      3  C   UNL     1     168.295 162.973 150.389  1.00  0.00     0.197 A 
ATOM      4  O   UNL     1     169.095 162.216 149.775  1.00  0.00    -0.289 OA
ATOM      5  C   UNL     1     167.395 163.819 149.698  1.00  0.00     0.111 A 
ATOM      6  C   UNL     1     167.327 163.888 148.283  1.00  0.00     0.179 A 
ATOM      7  C   UNL     1     166.385 164.762 147.665  1.00  0.00     0.204 A 
ATOM      8  C   UNL     1     165.528 165.554 148.475  1.00  0.00     0.168 A 
ATOM      9  C   UNL     1     165.619 165.466 149.872  1.00  0.00     0.098 A 
ATOM     10  C   UNL     1     166.534 164.616 150.480  1.00  0.00     0.146 A 
ATOM     11  O   UNL     1     166.581 164.572 151.808  1.00  0.00    -0.456 OA
ENDROOT
BRANCH   1  12
ATOM     12  C   UNL     1     167.386 163.828 153.969  1.00  0.00     0.021 A 
ATOM     13  C   UNL     1     167.287 163.837 156.792  1.00  0.00     0.160 A 
ATOM     14  C   UNL     1     167.419 165.046 156.094  1.00  0.00     0.161 A 
ATOM     15  C   UNL     1     167.194 162.630 156.076  1.00  0.00     0.051 A 
ATOM     16  C   UNL     1     167.464 165.039 154.685  1.00  0.00     0.062 A 
ATOM     17  C   UNL     1     167.239 162.628 154.681  1.00  0.00     0.016 A 
BRANCH  13  18
ATOM     18  O   UNL     1     167.248 163.876 158.195  1.00  0.00    -0.493 OA
ATOM     19  C   UNL     1     167.208 162.726 159.033  1.00  0.00     0.278 C 
ENDBRANCH  13  18
BRANCH  14  20
ATOM     20  O   UNL     1     167.499 166.236 156.836  1.00  0.00    -0.493 OA
ATOM     21  C   UNL     1     167.038 167.505 156.381  1.00  0.00     0.278 C 
ENDBRANCH  14  20
ENDBRANCH   1  12
BRANCH   6  22
ATOM     22  O   UNL     1     168.212 163.072 147.545  1.00  0.00    -0.492 OA
ATOM     23  C   UNL     1     169.168 163.483 146.574  1.00  0.00     0.278 C 
ENDBRANCH   6  22
BRANCH   8  24
ATOM     24  O   UNL     1     164.596 166.419 147.877  1.00  0.00    -0.493 OA
ATOM     25  C   UNL     1     164.792 167.812 147.655  1.00  0.00     0.278 C 
ENDBRANCH   8  24
BRANCH   7  26
ATOM     26  O   UNL     1     166.339 164.805 146.258  1.00  0.00    -0.490 OA
ATOM     27  C   UNL     1     165.936 163.766 145.372  1.00  0.00     0.278 C 
ENDBRANCH   7  26
TORSDOF 6
ENDMDL
MODEL 2
REMARK VINA RESULT:     7.950      0.954      2.042
REMARK INTER + INTRA:          10.460
REMARK INTER:                   9.904
REMARK INTRA:                   0.556
REMARK UNBOUND:                -0.279
REMARK SMILES COc1ccc(-c2cc(=O)c3c(OC)c(OC)c(OC)cc3o2)cc1OC
REMARK SMILES IDX 7 1 8 2 9 3 10 4 11 5 12 6 15 7 18 8 21 9 22 10 23 11 6 12
REMARK SMILES IDX 3 13 25 14 4 15 24 16 5 17 2 18 1 19 26 20 27 21 13 22 14 23
REMARK SMILES IDX 19 24 20 25 16 26 17 27
REMARK H PARENT
REMARK Flexibility Score: inf
ROOT
ATOM      1  C   UNL     1     167.445 163.539 152.724  1.00  0.00     0.138 A 
ATOM      2  C   UNL     1     168.420 162.823 152.014  1.00  0.00     0.100 A 
ATOM      3  C   UNL     1     168.468 162.923 150.624  1.00  0.00     0.197 A 
ATOM      4  O   UNL     1     169.350 162.270 150.003  1.00  0.00    -0.289 OA
ATOM      5  C   UNL     1     167.534 163.740 149.944  1.00  0.00     0.111 A 
ATOM      6  C   UNL     1     167.521 163.895 148.535  1.00  0.00     0.179 A 
ATOM      7  C   UNL     1     166.540 164.734 147.927  1.00  0.00     0.204 A 
ATOM      8  C   UNL     1     165.590 165.404 148.743  1.00  0.00     0.168 A 
ATOM      9  C   UNL     1     165.628 165.233 150.134  1.00  0.00     0.098 A 
ATOM     10  C   UNL     1     166.581 164.417 150.731  1.00  0.00     0.146 A 
ATOM     11  O   UNL     1     166.575 164.290 152.055  1.00  0.00    -0.456 OA
ENDROOT
BRANCH   1  12
ATOM     12  C   UNL     1     167.342 163.472 154.202  1.00  0.00     0.021 A 
ATOM     13  C   UNL     1     167.177 163.393 157.021  1.00  0.00     0.160 A 
ATOM     14  C   UNL     1     167.054 162.209 156.281  1.00  0.00     0.161 A 
ATOM     15  C   UNL     1     167.393 164.610 156.350  1.00  0.00     0.051 A 
ATOM     16  C   UNL     1     167.140 162.250 154.875  1.00  0.00     0.062 A 
ATOM     17  C   UNL     1     167.479 164.646 154.958  1.00  0.00     0.016 A 
BRANCH  13  18
ATOM     18  O   UNL     1     167.084 163.320 158.420  1.00  0.00    -0.493 OA
ATOM     19  C   UNL     1     166.029 162.675 159.125  1.00  0.00     0.278 C 
ENDBRANCH  13  18
BRANCH  14  20
ATOM     20  O   UNL     1     166.849 161.008 156.979  1.00  0.00    -0.493 OA
ATOM     21  C   UNL     1     167.885 160.104 157.355  1.00  0.00     0.278 C 
ENDBRANCH  14  20
ENDBRANCH   1  12
BRANCH   6  22
ATOM     22  O   UNL     1     168.498 163.199 147.790  1.00  0.00    -0.492 OA
ATOM     23  C   UNL     1     169.125 163.609 146.580  1.00  0.00     0.278 C 
ENDBRANCH   6  22
BRANCH   8  24
ATOM     24  O   UNL     1     164.619 166.232 148.155  1.00  0.00    -0.493 OA
ATOM     25  C   UNL     1     164.799 167.607 147.829  1.00  0.00     0.278 C 
ENDBRANCH   8  24
BRANCH   7  26
ATOM     26  O   UNL     1     166.551 164.864 146.525  1.00  0.00    -0.490 OA
ATOM     27  C   UNL     1     166.026 163.954 145.566  1.00  0.00     0.278 C 
ENDBRANCH   7  26
TORSDOF 6
ENDMDL
MODEL 3
REMARK VINA RESULT:     8.492      1.617      8.622
REMARK INTER + INTRA:          11.192
REMARK INTER:                  10.965
REMARK INTRA:                   0.227
REMARK UNBOUND:                -0.279
REMARK SMILES COc1ccc(-c2cc(=O)c3c(OC)c(OC)c(OC)cc3o2)cc1OC
REMARK SMILES IDX 7 1 8 2 9 3 10 4 11 5 12 6 15 7 18 8 21 9 22 10 23 11 6 12
REMARK SMILES IDX 3 13 25 14 4 15 24 16 5 17 2 18 1 19 26 20 27 21 13 22 14 23
REMARK SMILES IDX 19 24 20 25 16 26 17 27
REMARK H PARENT
REMARK Flexibility Score: inf
ROOT
ATOM      1  C   UNL     1     166.971 164.027 152.398  1.00  0.00     0.138 A 
ATOM      2  C   UNL     1     167.326 165.110 153.216  1.00  0.00     0.100 A 
ATOM      3  C   UNL     1     167.405 164.930 154.597  1.00  0.00     0.197 A 
ATOM      4  O   UNL     1     167.724 165.915 155.315  1.00  0.00    -0.289 OA
ATOM      5  C   UNL     1     167.125 163.662 155.158  1.00  0.00     0.111 A 
ATOM      6  C   UNL     1     167.187 163.399 156.550  1.00  0.00     0.179 A 
ATOM      7  C   UNL     1     166.882 162.093 157.036  1.00  0.00     0.204 A 
ATOM      8  C   UNL     1     166.521 161.071 156.117  1.00  0.00     0.168 A 
ATOM      9  C   UNL     1     166.469 161.359 154.745  1.00  0.00     0.098 A 
ATOM     10  C   UNL     1     166.765 162.630 154.267  1.00  0.00     0.146 A 
ATOM     11  O   UNL     1     166.703 162.850 152.957  1.00  0.00    -0.456 OA
ENDROOT
BRANCH   1  12
ATOM     12  C   UNL     1     166.869 164.157 150.924  1.00  0.00     0.021 A 
ATOM     13  C   UNL     1     166.727 164.384 148.112  1.00  0.00     0.160 A 
ATOM     14  C   UNL     1     165.913 165.190 148.919  1.00  0.00     0.161 A 
ATOM     15  C   UNL     1     167.617 163.475 148.713  1.00  0.00     0.051 A 
ATOM     16  C   UNL     1     165.988 165.078 150.322  1.00  0.00     0.062 A 
ATOM     17  C   UNL     1     167.688 163.368 150.102  1.00  0.00     0.016 A 
BRANCH  13  18
ATOM     18  O   UNL     1     166.627 164.517 146.718  1.00  0.00    -0.493 OA
ATOM     19  C   UNL     1     166.038 163.550 145.856  1.00  0.00     0.278 C 
ENDBRANCH  13  18
BRANCH  14  20
ATOM     20  O   UNL     1     165.042 166.095 148.290  1.00  0.00    -0.493 OA
ATOM     21  C   UNL     1     165.247 167.504 148.229  1.00  0.00     0.278 C 
ENDBRANCH  14  20
ENDBRANCH   1  12
BRANCH   6  22
ATOM     22  O   UNL     1     167.555 164.464 157.402  1.00  0.00    -0.492 OA
ATOM     23  C   UNL     1     168.148 164.381 158.692  1.00  0.00     0.278 C 
ENDBRANCH   6  22
BRANCH   8  24
ATOM     24  O   UNL     1     166.218 159.781 156.583  1.00  0.00    -0.493 OA
ATOM     25  C   UNL     1     167.162 158.731 156.769  1.00  0.00     0.278 C 
ENDBRANCH   8  24
BRANCH   7  26
ATOM     26  O   UNL     1     166.949 161.866 158.423  1.00  0.00    -0.490 OA
ATOM     27  C   UNL     1     167.883 161.053 159.125  1.00  0.00     0.278 C 
ENDBRANCH   7  26
TORSDOF 6
ENDMDL
MODEL 4
REMARK VINA RESULT:     9.017     10.536     13.484
REMARK INTER + INTRA:          11.902
REMARK INTER:                  11.898
REMARK INTRA:                   0.004
REMARK UNBOUND:                -0.279
REMARK SMILES COc1ccc(-c2cc(=O)c3c(OC)c(OC)c(OC)cc3o2)cc1OC
REMARK SMILES IDX 7 1 8 2 9 3 10 4 11 5 12 6 15 7 18 8 21 9 22 10 23 11 6 12
REMARK SMILES IDX 3 13 25 14 4 15 24 16 5 17 2 18 1 19 26 20 27 21 13 22 14 23
REMARK SMILES IDX 19 24 20 25 16 26 17 27
REMARK H PARENT
REMARK Flexibility Score: inf
ROOT
ATOM      1  C   UNL     1     155.840 165.258 154.721  1.00  0.00     0.138 A 
ATOM      2  C   UNL     1     154.715 164.713 155.355  1.00  0.00     0.100 A 
ATOM      3  C   UNL     1     154.860 163.579 156.154  1.00  0.00     0.197 A 
ATOM      4  O   UNL     1     153.837 163.102 156.715  1.00  0.00    -0.289 OA
ATOM      5  C   UNL     1     156.137 162.990 156.314  1.00  0.00     0.111 A 
ATOM      6  C   UNL     1     156.366 161.839 157.112  1.00  0.00     0.179 A 
ATOM      7  C   UNL     1     157.684 161.304 157.215  1.00  0.00     0.204 A 
ATOM      8  C   UNL     1     158.751 161.931 156.517  1.00  0.00     0.168 A 
ATOM      9  C   UNL     1     158.495 163.068 155.737  1.00  0.00     0.098 A 
ATOM     10  C   UNL     1     157.213 163.594 155.633  1.00  0.00     0.146 A 
ATOM     11  O   UNL     1     157.024 164.675 154.882  1.00  0.00    -0.456 OA
ENDROOT
BRANCH   1  12
ATOM     12  C   UNL     1     155.748 166.461 153.857  1.00  0.00     0.021 A 
ATOM     13  C   UNL     1     155.602 168.723 152.171  1.00  0.00     0.160 A 
ATOM     14  C   UNL     1     155.487 168.878 153.560  1.00  0.00     0.161 A 
ATOM     15  C   UNL     1     155.800 167.439 151.632  1.00  0.00     0.051 A 
ATOM     16  C   UNL     1     155.564 167.748 154.399  1.00  0.00     0.062 A 
ATOM     17  C   UNL     1     155.876 166.324 152.467  1.00  0.00     0.016 A 
BRANCH  13  18
ATOM     18  O   UNL     1     155.518 169.866 151.362  1.00  0.00    -0.493 OA
ATOM     19  C   UNL     1     156.223 170.042 150.138  1.00  0.00     0.278 C 
ENDBRANCH  13  18
BRANCH  14  20
ATOM     20  O   UNL     1     155.301 170.173 154.070  1.00  0.00    -0.493 OA
ATOM     21  C   UNL     1     156.250 170.871 154.872  1.00  0.00     0.278 C 
ENDBRANCH  14  20
ENDBRANCH   1  12
BRANCH   6  22
ATOM     22  O   UNL     1     155.257 161.272 157.777  1.00  0.00    -0.492 OA
ATOM     23  C   UNL     1     154.851 161.481 159.125  1.00  0.00     0.278 C 
ENDBRANCH   6  22
BRANCH   8  24
ATOM     24  O   UNL     1     160.053 161.412 156.610  1.00  0.00    -0.493 OA
ATOM     25  C   UNL     1     161.170 161.853 155.844  1.00  0.00     0.278 C 
ENDBRANCH   8  24
BRANCH   7  26
ATOM     26  O   UNL     1     157.877 160.159 158.011  1.00  0.00    -0.490 OA
ATOM     27  C   UNL     1     158.982 159.870 158.861  1.00  0.00     0.278 C 
ENDBRANCH   7  26
TORSDOF 6
ENDMDL
MODEL 5
REMARK VINA RESULT:    10.166      1.748      2.339
REMARK INTER + INTRA:          13.453
REMARK INTER:                  13.292
REMARK INTRA:                   0.161
REMARK UNBOUND:                -0.279
REMARK SMILES COc1ccc(-c2cc(=O)c3c(OC)c(OC)c(OC)cc3o2)cc1OC
REMARK SMILES IDX 7 1 8 2 9 3 10 4 11 5 12 6 15 7 18 8 21 9 22 10 23 11 6 12
REMARK SMILES IDX 3 13 25 14 4 15 24 16 5 17 2 18 1 19 26 20 27 21 13 22 14 23
REMARK SMILES IDX 19 24 20 25 16 26 17 27
REMARK H PARENT
REMARK Flexibility Score: inf
ROOT
ATOM      1  C   UNL     1     166.813 163.021 153.154  1.00  0.00     0.138 A 
ATOM      2  C   UNL     1     167.976 162.861 152.387  1.00  0.00     0.100 A 
ATOM      3  C   UNL     1     168.034 163.407 151.105  1.00  0.00     0.197 A 
ATOM      4  O   UNL     1     169.087 163.251 150.431  1.00  0.00    -0.289 OA
ATOM      5  C   UNL     1     166.921 164.114 150.591  1.00  0.00     0.111 A 
ATOM      6  C   UNL     1     166.904 164.701 149.300  1.00  0.00     0.179 A 
ATOM      7  C   UNL     1     165.737 165.391 148.854  1.00  0.00     0.204 A 
ATOM      8  C   UNL     1     164.608 165.482 149.711  1.00  0.00     0.168 A 
ATOM      9  C   UNL     1     164.654 164.893 150.984  1.00  0.00     0.098 A 
ATOM     10  C   UNL     1     165.787 164.220 151.423  1.00  0.00     0.146 A 
ATOM     11  O   UNL     1     165.780 163.681 152.638  1.00  0.00    -0.456 OA
ENDROOT
BRANCH   1  12
ATOM     12  C   UNL     1     166.692 162.461 154.523  1.00  0.00     0.021 A 
ATOM     13  C   UNL     1     166.408 161.372 157.113  1.00  0.00     0.160 A 
ATOM     14  C   UNL     1     167.263 162.464 156.904  1.00  0.00     0.161 A 
ATOM     15  C   UNL     1     165.690 160.836 156.029  1.00  0.00     0.051 A 
ATOM     16  C   UNL     1     167.399 163.007 155.611  1.00  0.00     0.062 A 
ATOM     17  C   UNL     1     165.829 161.378 154.751  1.00  0.00     0.016 A 
BRANCH  13  18
ATOM     18  O   UNL     1     166.295 160.851 158.412  1.00  0.00    -0.493 OA
ATOM     19  C   UNL     1     166.344 159.465 158.732  1.00  0.00     0.278 C 
ENDBRANCH  13  18
BRANCH  14  20
ATOM     20  O   UNL     1     167.958 162.984 158.008  1.00  0.00    -0.493 OA
ATOM     21  C   UNL     1     167.344 163.641 159.114  1.00  0.00     0.278 C 
ENDBRANCH  14  20
ENDBRANCH   1  12
BRANCH   6  22
ATOM     22  O   UNL     1     168.064 164.570 148.506  1.00  0.00    -0.492 OA
ATOM     23  C   UNL     1     168.319 163.610 147.488  1.00  0.00     0.278 C 
ENDBRANCH   6  22
BRANCH   8  24
ATOM     24  O   UNL     1     163.454 166.158 149.283  1.00  0.00    -0.493 OA
ATOM     25  C   UNL     1     162.150 165.987 149.830  1.00  0.00     0.278 C 
ENDBRANCH   8  24
BRANCH   7  26
ATOM     26  O   UNL     1     165.751 165.958 147.566  1.00  0.00    -0.490 OA
ATOM     27  C   UNL     1     165.362 167.276 147.195  1.00  0.00     0.278 C 
ENDBRANCH   7  26
TORSDOF 6
ENDMDL
