MODEL 1
REMARK VINA RESULT:    -6.804      0.000      0.000
REMARK INTER + INTRA:          -9.027
REMARK INTER:                  -8.395
REMARK INTRA:                  -0.632
REMARK UNBOUND:                -0.632
REMARK SMILES CC(C)=CCC[C@H](C)c1ccc(C)cc1
REMARK SMILES IDX 6 1 7 2 8 3 9 4 13 5 12 6 11 7 14 8 10 9 15 10 5 11 4 12
REMARK SMILES IDX 2 13 1 14 3 15
REMARK H PARENT
REMARK Flexibility Score: inf
ROOT
ATOM      1  C   UNL     1       4.471   4.896  22.621  1.00  0.00     0.012 C 
ENDROOT
BRANCH   1   2
ATOM      2  C   UNL     1       3.705   6.240  22.676  1.00  0.00     0.016 C 
ATOM      3  C   UNL     1       3.268   6.728  21.286  1.00  0.00     0.013 C 
BRANCH   2   4
ATOM      4  C   UNL     1       4.550   7.296  23.366  1.00  0.00    -0.045 A 
ATOM      5  C   UNL     1       6.948  10.337  25.278  1.00  0.00     0.044 C 
ATOM      6  C   UNL     1       6.132   9.260  24.629  1.00  0.00    -0.051 A 
ATOM      7  C   UNL     1       4.933   8.830  25.218  1.00  0.00     0.004 A 
ATOM      8  C   UNL     1       6.522   8.724  23.393  1.00  0.00     0.004 A 
ATOM      9  C   UNL     1       4.152   7.853  24.596  1.00  0.00     0.004 A 
ATOM     10  C   UNL     1       5.741   7.747  22.769  1.00  0.00     0.004 A 
ENDBRANCH   2   4
ENDBRANCH   1   2
BRANCH   1  11
ATOM     11  C   UNL     1       3.590   3.692  22.228  1.00  0.00     0.028 C 
BRANCH  11  12
ATOM     12  C   UNL     1       4.366   2.636  21.475  1.00  0.00    -0.028 C 
ATOM     13  C   UNL     1       4.422   2.543  20.128  1.00  0.00    -0.080 C 
ATOM     14  C   UNL     1       5.226   1.423  19.520  1.00  0.00     0.039 C 
ATOM     15  C   UNL     1       3.733   3.540  19.224  1.00  0.00     0.039 C 
ENDBRANCH  11  12
ENDBRANCH   1  11
TORSDOF 4
ENDMDL
MODEL 2
REMARK VINA RESULT:    -6.745      0.186      1.260
REMARK INTER + INTRA:          -8.955
REMARK INTER:                  -8.316
REMARK INTRA:                  -0.639
REMARK UNBOUND:                -0.632
REMARK SMILES CC(C)=CCC[C@H](C)c1ccc(C)cc1
REMARK SMILES IDX 6 1 7 2 8 3 9 4 13 5 12 6 11 7 14 8 10 9 15 10 5 11 4 12
REMARK SMILES IDX 2 13 1 14 3 15
REMARK H PARENT
REMARK Flexibility Score: inf
ROOT
ATOM      1  C   UNL     1       4.425   4.853  22.560  1.00  0.00     0.012 C 
ENDROOT
BRANCH   1   2
ATOM      2  C   UNL     1       3.701   6.217  22.460  1.00  0.00     0.016 C 
ATOM      3  C   UNL     1       3.428   6.636  21.008  1.00  0.00     0.013 C 
BRANCH   2   4
ATOM      4  C   UNL     1       4.502   7.288  23.179  1.00  0.00    -0.045 A 
ATOM      5  C   UNL     1       6.796  10.292  25.270  1.00  0.00     0.044 C 
ATOM      6  C   UNL     1       5.982   9.271  24.532  1.00  0.00    -0.051 A 
ATOM      7  C   UNL     1       6.367   8.853  23.250  1.00  0.00     0.004 A 
ATOM      8  C   UNL     1       4.872   8.674  25.146  1.00  0.00     0.004 A 
ATOM      9  C   UNL     1       5.631   7.874  22.576  1.00  0.00     0.004 A 
ATOM     10  C   UNL     1       4.135   7.695  24.473  1.00  0.00     0.004 A 
ENDBRANCH   2   4
ENDBRANCH   1   2
BRANCH   1  11
ATOM     11  C   UNL     1       3.544   3.649  22.169  1.00  0.00     0.028 C 
BRANCH  11  12
ATOM     12  C   UNL     1       4.332   2.565  21.469  1.00  0.00    -0.028 C 
ATOM     13  C   UNL     1       4.456   2.455  20.127  1.00  0.00    -0.080 C 
ATOM     14  C   UNL     1       5.262   1.309  19.574  1.00  0.00     0.039 C 
ATOM     15  C   UNL     1       3.840   3.458  19.179  1.00  0.00     0.039 C 
ENDBRANCH  11  12
ENDBRANCH   1  11
TORSDOF 4
ENDMDL
MODEL 3
REMARK VINA RESULT:    -6.569      1.258      6.467
REMARK INTER + INTRA:          -8.738
REMARK INTER:                  -7.906
REMARK INTRA:                  -0.832
REMARK UNBOUND:                -0.632
REMARK SMILES CC(C)=CCC[C@H](C)c1ccc(C)cc1
REMARK SMILES IDX 6 1 7 2 8 3 9 4 13 5 12 6 11 7 14 8 10 9 15 10 5 11 4 12
REMARK SMILES IDX 2 13 1 14 3 15
REMARK H PARENT
REMARK Flexibility Score: inf
ROOT
ATOM      1  C   UNL     1       4.159   7.885  20.810  1.00  0.00     0.012 C 
ENDROOT
BRANCH   1   2
ATOM      2  C   UNL     1       3.003   6.928  20.430  1.00  0.00     0.016 C 
ATOM      3  C   UNL     1       1.862   6.942  21.457  1.00  0.00     0.013 C 
BRANCH   2   4
ATOM      4  C   UNL     1       3.533   5.517  20.247  1.00  0.00    -0.045 A 
ATOM      5  C   UNL     1       4.987   1.479  19.753  1.00  0.00     0.044 C 
ATOM      6  C   UNL     1       4.511   2.891  19.926  1.00  0.00    -0.051 A 
ATOM      7  C   UNL     1       4.285   3.703  18.805  1.00  0.00     0.004 A 
ATOM      8  C   UNL     1       4.221   3.387  21.205  1.00  0.00     0.004 A 
ATOM      9  C   UNL     1       3.805   5.006  18.963  1.00  0.00     0.004 A 
ATOM     10  C   UNL     1       3.741   4.690  21.365  1.00  0.00     0.004 A 
ENDBRANCH   2   4
ENDBRANCH   1   2
BRANCH   1  11
ATOM     11  C   UNL     1       3.758   8.972  21.829  1.00  0.00     0.028 C 
BRANCH  11  12
ATOM     12  C   UNL     1       4.828   9.203  22.871  1.00  0.00    -0.028 C 
ATOM     13  C   UNL     1       4.911   8.534  24.043  1.00  0.00    -0.080 C 
ATOM     14  C   UNL     1       6.028   8.887  24.992  1.00  0.00     0.039 C 
ATOM     15  C   UNL     1       3.944   7.433  24.410  1.00  0.00     0.039 C 
ENDBRANCH  11  12
ENDBRANCH   1  11
TORSDOF 4
ENDMDL
MODEL 4
REMARK VINA RESULT:    -6.558      2.008      3.941
REMARK INTER + INTRA:          -8.724
REMARK INTER:                  -7.421
REMARK INTRA:                  -1.304
REMARK UNBOUND:                -0.632
REMARK SMILES CC(C)=CCC[C@H](C)c1ccc(C)cc1
REMARK SMILES IDX 6 1 7 2 8 3 9 4 13 5 12 6 11 7 14 8 10 9 15 10 5 11 4 12
REMARK SMILES IDX 2 13 1 14 3 15
REMARK H PARENT
REMARK Flexibility Score: inf
ROOT
ATOM      1  C   UNL     1       5.941   7.048  23.896  1.00  0.00     0.012 C 
ENDROOT
BRANCH   1   2
ATOM      2  C   UNL     1       6.035   8.555  23.558  1.00  0.00     0.016 C 
ATOM      3  C   UNL     1       5.648   9.452  24.744  1.00  0.00     0.013 C 
BRANCH   2   4
ATOM      4  C   UNL     1       5.172   8.874  22.350  1.00  0.00    -0.045 A 
ATOM      5  C   UNL     1       2.716   9.719  18.899  1.00  0.00     0.044 C 
ATOM      6  C   UNL     1       3.581   9.453  20.094  1.00  0.00    -0.051 A 
ATOM      7  C   UNL     1       3.128   9.778  21.381  1.00  0.00     0.004 A 
ATOM      8  C   UNL     1       4.819   8.812  19.941  1.00  0.00     0.004 A 
ATOM      9  C   UNL     1       3.918   9.497  22.499  1.00  0.00     0.004 A 
ATOM     10  C   UNL     1       5.610   8.530  21.059  1.00  0.00     0.004 A 
ENDBRANCH   2   4
ENDBRANCH   1   2
BRANCH   1  11
ATOM     11  C   UNL     1       4.523   6.461  23.743  1.00  0.00     0.028 C 
BRANCH  11  12
ATOM     12  C   UNL     1       4.491   5.271  22.812  1.00  0.00    -0.028 C 
ATOM     13  C   UNL     1       3.592   5.102  21.818  1.00  0.00    -0.080 C 
ATOM     14  C   UNL     1       3.676   3.852  20.980  1.00  0.00     0.039 C 
ATOM     15  C   UNL     1       2.535   6.136  21.506  1.00  0.00     0.039 C 
ENDBRANCH  11  12
ENDBRANCH   1  11
TORSDOF 4
ENDMDL
MODEL 5
REMARK VINA RESULT:    -6.517      2.337      5.839
REMARK INTER + INTRA:          -8.673
REMARK INTER:                  -8.120
REMARK INTRA:                  -0.554
REMARK UNBOUND:                -0.632
REMARK SMILES CC(C)=CCC[C@H](C)c1ccc(C)cc1
REMARK SMILES IDX 6 1 7 2 8 3 9 4 13 5 12 6 11 7 14 8 10 9 15 10 5 11 4 12
REMARK SMILES IDX 2 13 1 14 3 15
REMARK H PARENT
REMARK Flexibility Score: inf
ROOT
ATOM      1  C   UNL     1       6.904   8.528  23.611  1.00  0.00     0.012 C 
ENDROOT
BRANCH   1   2
ATOM      2  C   UNL     1       5.389   8.666  23.899  1.00  0.00     0.016 C 
ATOM      3  C   UNL     1       5.069   8.635  25.401  1.00  0.00     0.013 C 
BRANCH   2   4
ATOM      4  C   UNL     1       4.618   7.579  23.171  1.00  0.00    -0.045 A 
ATOM      5  C   UNL     1       2.408   4.463  21.157  1.00  0.00     0.044 C 
ATOM      6  C   UNL     1       3.194   5.546  21.832  1.00  0.00    -0.051 A 
ATOM      7  C   UNL     1       2.827   6.890  21.671  1.00  0.00     0.004 A 
ATOM      8  C   UNL     1       4.257   5.221  22.686  1.00  0.00     0.004 A 
ATOM      9  C   UNL     1       3.535   7.899  22.330  1.00  0.00     0.004 A 
ATOM     10  C   UNL     1       4.967   6.229  23.346  1.00  0.00     0.004 A 
ENDBRANCH   2   4
ENDBRANCH   1   2
BRANCH   1  11
ATOM     11  C   UNL     1       7.271   8.673  22.120  1.00  0.00     0.028 C 
BRANCH  11  12
ATOM     12  C   UNL     1       8.750   8.901  21.913  1.00  0.00    -0.028 C 
ATOM     13  C   UNL     1       9.353   8.959  20.704  1.00  0.00    -0.080 C 
ATOM     14  C   UNL     1      10.843   9.177  20.657  1.00  0.00     0.039 C 
ATOM     15  C   UNL     1       8.577   8.843  19.413  1.00  0.00     0.039 C 
ENDBRANCH  11  12
ENDBRANCH   1  11
TORSDOF 4
ENDMDL
MODEL 6
REMARK VINA RESULT:    -6.410      1.281      2.154
REMARK INTER + INTRA:          -8.541
REMARK INTER:                  -7.847
REMARK INTRA:                  -0.694
REMARK UNBOUND:                -0.632
REMARK SMILES CC(C)=CCC[C@H](C)c1ccc(C)cc1
REMARK SMILES IDX 6 1 7 2 8 3 9 4 13 5 12 6 11 7 14 8 10 9 15 10 5 11 4 12
REMARK SMILES IDX 2 13 1 14 3 15
REMARK H PARENT
REMARK Flexibility Score: inf
ROOT
ATOM      1  C   UNL     1       3.912   6.276  19.722  1.00  0.00     0.012 C 
ENDROOT
BRANCH   1   2
ATOM      2  C   UNL     1       3.336   7.572  20.344  1.00  0.00     0.016 C 
ATOM      3  C   UNL     1       3.569   8.805  19.458  1.00  0.00     0.013 C 
BRANCH   2   4
ATOM      4  C   UNL     1       3.924   7.794  21.726  1.00  0.00    -0.045 A 
ATOM      5  C   UNL     1       5.583   8.488  25.653  1.00  0.00     0.044 C 
ATOM      6  C   UNL     1       5.026   8.223  24.286  1.00  0.00    -0.051 A 
ATOM      7  C   UNL     1       3.911   7.387  24.128  1.00  0.00     0.004 A 
ATOM      8  C   UNL     1       5.570   8.865  23.165  1.00  0.00     0.004 A 
ATOM      9  C   UNL     1       3.367   7.170  22.858  1.00  0.00     0.004 A 
ATOM     10  C   UNL     1       5.027   8.648  21.895  1.00  0.00     0.004 A 
ENDBRANCH   2   4
ENDBRANCH   1   2
BRANCH   1  11
ATOM     11  C   UNL     1       2.975   5.057  19.843  1.00  0.00     0.028 C 
BRANCH  11  12
ATOM     12  C   UNL     1       3.649   3.771  19.424  1.00  0.00    -0.028 C 
ATOM     13  C   UNL     1       4.297   2.937  20.268  1.00  0.00    -0.080 C 
ATOM     14  C   UNL     1       4.936   1.697  19.700  1.00  0.00     0.039 C 
ATOM     15  C   UNL     1       4.369   3.196  21.755  1.00  0.00     0.039 C 
ENDBRANCH  11  12
ENDBRANCH   1  11
TORSDOF 4
ENDMDL
MODEL 7
REMARK VINA RESULT:    -6.357     13.410     15.233
REMARK INTER + INTRA:          -8.475
REMARK INTER:                  -7.905
REMARK INTRA:                  -0.571
REMARK UNBOUND:                -0.632
REMARK SMILES CC(C)=CCC[C@H](C)c1ccc(C)cc1
REMARK SMILES IDX 6 1 7 2 8 3 9 4 13 5 12 6 11 7 14 8 10 9 15 10 5 11 4 12
REMARK SMILES IDX 2 13 1 14 3 15
REMARK H PARENT
REMARK Flexibility Score: inf
ROOT
ATOM      1  C   UNL     1      16.680  -3.873  24.048  1.00  0.00     0.012 C 
ENDROOT
BRANCH   1   2
ATOM      2  C   UNL     1      16.774  -4.687  25.362  1.00  0.00     0.016 C 
ATOM      3  C   UNL     1      15.842  -5.908  25.368  1.00  0.00     0.013 C 
BRANCH   2   4
ATOM      4  C   UNL     1      16.483  -3.792  26.552  1.00  0.00    -0.045 A 
ATOM      5  C   UNL     1      15.709  -1.263  29.968  1.00  0.00     0.044 C 
ATOM      6  C   UNL     1      15.947  -2.144  28.778  1.00  0.00    -0.051 A 
ATOM      7  C   UNL     1      16.096  -1.582  27.502  1.00  0.00     0.004 A 
ATOM      8  C   UNL     1      16.095  -3.529  28.942  1.00  0.00     0.004 A 
ATOM      9  C   UNL     1      16.356  -2.398  26.397  1.00  0.00     0.004 A 
ATOM     10  C   UNL     1      16.355  -4.346  27.838  1.00  0.00     0.004 A 
ENDBRANCH   2   4
ENDBRANCH   1   2
BRANCH   1  11
ATOM     11  C   UNL     1      16.028  -4.644  22.882  1.00  0.00     0.028 C 
BRANCH  11  12
ATOM     12  C   UNL     1      16.080  -3.873  21.584  1.00  0.00    -0.028 C 
ATOM     13  C   UNL     1      15.074  -3.106  21.109  1.00  0.00    -0.080 C 
ATOM     14  C   UNL     1      15.267  -2.408  19.787  1.00  0.00     0.039 C 
ATOM     15  C   UNL     1      13.786  -2.907  21.874  1.00  0.00     0.039 C 
ENDBRANCH  11  12
ENDBRANCH   1  11
TORSDOF 4
ENDMDL
MODEL 8
REMARK VINA RESULT:    -6.332      3.156      5.601
REMARK INTER + INTRA:          -8.445
REMARK INTER:                  -7.319
REMARK INTRA:                  -1.125
REMARK UNBOUND:                -0.632
REMARK SMILES CC(C)=CCC[C@H](C)c1ccc(C)cc1
REMARK SMILES IDX 6 1 7 2 8 3 9 4 13 5 12 6 11 7 14 8 10 9 15 10 5 11 4 12
REMARK SMILES IDX 2 13 1 14 3 15
REMARK H PARENT
REMARK Flexibility Score: inf
ROOT
ATOM      1  C   UNL     1       4.112   9.552  20.753  1.00  0.00     0.012 C 
ENDROOT
BRANCH   1   2
ATOM      2  C   UNL     1       4.767   8.736  19.612  1.00  0.00     0.016 C 
ATOM      3  C   UNL     1       4.312   7.269  19.599  1.00  0.00     0.013 C 
BRANCH   2   4
ATOM      4  C   UNL     1       6.279   8.820  19.710  1.00  0.00    -0.045 A 
ATOM      5  C   UNL     1      10.584   9.005  20.023  1.00  0.00     0.044 C 
ATOM      6  C   UNL     1       9.088   8.971  19.914  1.00  0.00    -0.051 A 
ATOM      7  C   UNL     1       8.472   8.920  18.655  1.00  0.00     0.004 A 
ATOM      8  C   UNL     1       8.297   8.919  21.070  1.00  0.00     0.004 A 
ATOM      9  C   UNL     1       7.080   8.851  18.553  1.00  0.00     0.004 A 
ATOM     10  C   UNL     1       6.904   8.849  20.969  1.00  0.00     0.004 A 
ENDBRANCH   2   4
ENDBRANCH   1   2
BRANCH   1  11
ATOM     11  C   UNL     1       3.402   8.684  21.812  1.00  0.00     0.028 C 
BRANCH  11  12
ATOM     12  C   UNL     1       3.991   8.865  23.192  1.00  0.00    -0.028 C 
ATOM     13  C   UNL     1       4.683   7.914  23.858  1.00  0.00    -0.080 C 
ATOM     14  C   UNL     1       5.197   8.237  25.238  1.00  0.00     0.039 C 
ATOM     15  C   UNL     1       4.978   6.562  23.252  1.00  0.00     0.039 C 
ENDBRANCH  11  12
ENDBRANCH   1  11
TORSDOF 4
ENDMDL
MODEL 9
REMARK VINA RESULT:    -6.252      2.616      4.035
REMARK INTER + INTRA:          -8.346
REMARK INTER:                  -7.505
REMARK INTRA:                  -0.841
REMARK UNBOUND:                -0.632
REMARK SMILES CC(C)=CCC[C@H](C)c1ccc(C)cc1
REMARK SMILES IDX 6 1 7 2 8 3 9 4 13 5 12 6 11 7 14 8 10 9 15 10 5 11 4 12
REMARK SMILES IDX 2 13 1 14 3 15
REMARK H PARENT
REMARK Flexibility Score: inf
ROOT
ATOM      1  C   UNL     1       5.530   7.530  23.542  1.00  0.00     0.012 C 
ENDROOT
BRANCH   1   2
ATOM      2  C   UNL     1       5.326   8.789  22.665  1.00  0.00     0.016 C 
ATOM      3  C   UNL     1       3.914   8.868  22.064  1.00  0.00     0.013 C 
BRANCH   2   4
ATOM      4  C   UNL     1       6.372   8.836  21.567  1.00  0.00    -0.045 A 
ATOM      5  C   UNL     1       9.375   8.913  18.462  1.00  0.00     0.044 C 
ATOM      6  C   UNL     1       8.332   8.917  19.540  1.00  0.00    -0.051 A 
ATOM      7  C   UNL     1       6.971   8.873  19.206  1.00  0.00     0.004 A 
ATOM      8  C   UNL     1       8.710   8.892  20.890  1.00  0.00     0.004 A 
ATOM      9  C   UNL     1       5.999   8.838  20.209  1.00  0.00     0.004 A 
ATOM     10  C   UNL     1       7.739   8.857  21.895  1.00  0.00     0.004 A 
ENDBRANCH   2   4
ENDBRANCH   1   2
BRANCH   1  11
ATOM     11  C   UNL     1       4.305   6.593  23.583  1.00  0.00     0.028 C 
BRANCH  11  12
ATOM     12  C   UNL     1       4.604   5.233  22.995  1.00  0.00    -0.028 C 
ATOM     13  C   UNL     1       3.879   4.648  22.015  1.00  0.00    -0.080 C 
ATOM     14  C   UNL     1       4.290   3.279  21.541  1.00  0.00     0.039 C 
ATOM     15  C   UNL     1       2.699   5.337  21.368  1.00  0.00     0.039 C 
ENDBRANCH  11  12
ENDBRANCH   1  11
TORSDOF 4
ENDMDL
