MODEL 1
REMARK VINA RESULT:    -4.560      0.000      0.000
REMARK INTER + INTRA:          -4.859
REMARK INTER:                  -4.826
REMARK INTRA:                  -0.033
REMARK UNBOUND:                -0.033
REMARK SMILES COc1ccc2ccc(=O)oc2c1
REMARK SMILES IDX 3 1 13 2 12 3 6 4 5 5 4 6 7 7 8 8 9 9 10 10 11 11 2 12 1 13
REMARK H PARENT
REMARK Flexibility Score: inf
ROOT
ATOM      1  C   UNL     1       6.436 -19.341   8.219  1.00  0.00     0.122 A 
ATOM      2  C   UNL     1       7.515 -20.007   7.604  1.00  0.00     0.094 A 
ATOM      3  C   UNL     1       8.765 -19.385   7.506  1.00  0.00     0.142 A 
ATOM      4  C   UNL     1       8.945 -18.085   8.026  1.00  0.00     0.018 A 
ATOM      5  C   UNL     1       7.873 -17.423   8.639  1.00  0.00     0.016 A 
ATOM      6  C   UNL     1       6.628 -18.051   8.732  1.00  0.00     0.047 A 
ATOM      7  C   UNL     1      10.205 -17.489   7.914  1.00  0.00     0.019 A 
ATOM      8  C   UNL     1      11.240 -18.191   7.297  1.00  0.00     0.094 A 
ATOM      9  C   UNL     1      10.989 -19.476   6.803  1.00  0.00     0.336 A 
ATOM     10  O   UNL     1      11.910 -20.125   6.243  1.00  0.00    -0.246 OA
ATOM     11  O   UNL     1       9.780 -20.019   6.924  1.00  0.00    -0.423 OA
ENDROOT
BRANCH   1  12
ATOM     12  O   UNL     1       5.165 -19.923   8.340  1.00  0.00    -0.497 OA
ATOM     13  C   UNL     1       4.486 -20.121   9.575  1.00  0.00     0.278 C 
ENDBRANCH   1  12
TORSDOF 1
ENDMDL
MODEL 2
REMARK VINA RESULT:    -4.326      1.826      5.273
REMARK INTER + INTRA:          -4.612
REMARK INTER:                  -4.578
REMARK INTRA:                  -0.034
REMARK UNBOUND:                -0.033
REMARK SMILES COc1ccc2ccc(=O)oc2c1
REMARK SMILES IDX 3 1 13 2 12 3 6 4 5 5 4 6 7 7 8 8 9 9 10 10 11 11 2 12 1 13
REMARK H PARENT
REMARK Flexibility Score: inf
ROOT
ATOM      1  C   UNL     1      11.408 -17.553   8.008  1.00  0.00     0.122 A 
ATOM      2  C   UNL     1      10.102 -17.348   8.497  1.00  0.00     0.094 A 
ATOM      3  C   UNL     1       9.064 -18.207   8.120  1.00  0.00     0.142 A 
ATOM      4  C   UNL     1       9.326 -19.283   7.245  1.00  0.00     0.018 A 
ATOM      5  C   UNL     1      10.624 -19.488   6.759  1.00  0.00     0.016 A 
ATOM      6  C   UNL     1      11.655 -18.626   7.140  1.00  0.00     0.047 A 
ATOM      7  C   UNL     1       8.268 -20.125   6.886  1.00  0.00     0.019 A 
ATOM      8  C   UNL     1       6.995 -19.878   7.398  1.00  0.00     0.094 A 
ATOM      9  C   UNL     1       6.809 -18.792   8.260  1.00  0.00     0.336 A 
ATOM     10  O   UNL     1       5.667 -18.554   8.733  1.00  0.00    -0.246 OA
ATOM     11  O   UNL     1       7.833 -18.008   8.585  1.00  0.00    -0.423 OA
ENDROOT
BRANCH   1  12
ATOM     12  O   UNL     1      12.481 -16.719   8.357  1.00  0.00    -0.497 OA
ATOM     13  C   UNL     1      13.034 -15.722   7.504  1.00  0.00     0.278 C 
ENDBRANCH   1  12
TORSDOF 1
ENDMDL
MODEL 3
REMARK VINA RESULT:    -4.297      2.215      2.845
REMARK INTER + INTRA:          -4.581
REMARK INTER:                  -4.544
REMARK INTRA:                  -0.037
REMARK UNBOUND:                -0.033
REMARK SMILES COc1ccc2ccc(=O)oc2c1
REMARK SMILES IDX 3 1 13 2 12 3 6 4 5 5 4 6 7 7 8 8 9 9 10 10 11 11 2 12 1 13
REMARK H PARENT
REMARK Flexibility Score: inf
ROOT
ATOM      1  C   UNL     1       8.180 -19.195   7.582  1.00  0.00     0.122 A 
ATOM      2  C   UNL     1       8.888 -18.042   7.187  1.00  0.00     0.094 A 
ATOM      3  C   UNL     1      10.172 -17.798   7.686  1.00  0.00     0.142 A 
ATOM      4  C   UNL     1      10.761 -18.709   8.588  1.00  0.00     0.018 A 
ATOM      5  C   UNL     1      10.057 -19.855   8.981  1.00  0.00     0.016 A 
ATOM      6  C   UNL     1       8.775 -20.092   8.478  1.00  0.00     0.047 A 
ATOM      7  C   UNL     1      12.045 -18.438   9.069  1.00  0.00     0.019 A 
ATOM      8  C   UNL     1      12.703 -17.284   8.647  1.00  0.00     0.094 A 
ATOM      9  C   UNL     1      12.058 -16.424   7.750  1.00  0.00     0.336 A 
ATOM     10  O   UNL     1      12.637 -15.378   7.358  1.00  0.00    -0.246 OA
ATOM     11  O   UNL     1      10.836 -16.707   7.309  1.00  0.00    -0.423 OA
ENDROOT
BRANCH   1  12
ATOM     12  O   UNL     1       6.890 -19.483   7.110  1.00  0.00    -0.497 OA
ATOM     13  C   UNL     1       5.862 -20.081   7.893  1.00  0.00     0.278 C 
ENDBRANCH   1  12
TORSDOF 1
ENDMDL
MODEL 4
REMARK VINA RESULT:    -4.208      2.081      2.469
REMARK INTER + INTRA:          -4.487
REMARK INTER:                  -4.455
REMARK INTRA:                  -0.032
REMARK UNBOUND:                -0.033
REMARK SMILES COc1ccc2ccc(=O)oc2c1
REMARK SMILES IDX 3 1 13 2 12 3 6 4 5 5 4 6 7 7 8 8 9 9 10 10 11 11 2 12 1 13
REMARK H PARENT
REMARK Flexibility Score: inf
ROOT
ATOM      1  C   UNL     1       8.086 -19.252   8.190  1.00  0.00     0.122 A 
ATOM      2  C   UNL     1       9.293 -19.201   8.916  1.00  0.00     0.094 A 
ATOM      3  C   UNL     1      10.306 -18.314   8.537  1.00  0.00     0.142 A 
ATOM      4  C   UNL     1      10.119 -17.466   7.424  1.00  0.00     0.018 A 
ATOM      5  C   UNL     1       8.919 -17.517   6.702  1.00  0.00     0.016 A 
ATOM      6  C   UNL     1       7.912 -18.406   7.087  1.00  0.00     0.047 A 
ATOM      7  C   UNL     1      11.149 -16.590   7.070  1.00  0.00     0.019 A 
ATOM      8  C   UNL     1      12.324 -16.578   7.821  1.00  0.00     0.094 A 
ATOM      9  C   UNL     1      12.441 -17.446   8.912  1.00  0.00     0.336 A 
ATOM     10  O   UNL     1      13.493 -17.449   9.602  1.00  0.00    -0.246 OA
ATOM     11  O   UNL     1      11.444 -18.269   9.227  1.00  0.00    -0.423 OA
ENDROOT
BRANCH   1  12
ATOM     12  O   UNL     1       7.041 -20.125   8.531  1.00  0.00    -0.497 OA
ATOM     13  C   UNL     1       5.754 -19.705   8.972  1.00  0.00     0.278 C 
ENDBRANCH   1  12
TORSDOF 1
ENDMDL
MODEL 5
REMARK VINA RESULT:    -4.065      2.435      5.467
REMARK INTER + INTRA:          -4.336
REMARK INTER:                  -4.299
REMARK INTRA:                  -0.037
REMARK UNBOUND:                -0.033
REMARK SMILES COc1ccc2ccc(=O)oc2c1
REMARK SMILES IDX 3 1 13 2 12 3 6 4 5 5 4 6 7 7 8 8 9 9 10 10 11 11 2 12 1 13
REMARK H PARENT
REMARK Flexibility Score: inf
ROOT
ATOM      1  C   UNL     1      12.194 -16.469   7.825  1.00  0.00     0.122 A 
ATOM      2  C   UNL     1      10.949 -16.736   7.222  1.00  0.00     0.094 A 
ATOM      3  C   UNL     1      10.210 -17.862   7.601  1.00  0.00     0.142 A 
ATOM      4  C   UNL     1      10.714 -18.734   8.590  1.00  0.00     0.018 A 
ATOM      5  C   UNL     1      11.952 -18.468   9.189  1.00  0.00     0.016 A 
ATOM      6  C   UNL     1      12.684 -17.342   8.805  1.00  0.00     0.047 A 
ATOM      7  C   UNL     1       9.953 -19.852   8.947  1.00  0.00     0.019 A 
ATOM      8  C   UNL     1       8.726 -20.071   8.321  1.00  0.00     0.094 A 
ATOM      9  C   UNL     1       8.289 -19.165   7.348  1.00  0.00     0.336 A 
ATOM     10  O   UNL     1       7.184 -19.346   6.773  1.00  0.00    -0.246 OA
ATOM     11  O   UNL     1       9.033 -18.110   7.028  1.00  0.00    -0.423 OA
ENDROOT
BRANCH   1  12
ATOM     12  O   UNL     1      12.972 -15.353   7.479  1.00  0.00    -0.497 OA
ATOM     13  C   UNL     1      14.393 -15.359   7.392  1.00  0.00     0.278 C 
ENDBRANCH   1  12
TORSDOF 1
ENDMDL
MODEL 6
REMARK VINA RESULT:    -3.922      1.836      5.173
REMARK INTER + INTRA:          -4.184
REMARK INTER:                  -4.145
REMARK INTRA:                  -0.039
REMARK UNBOUND:                -0.033
REMARK SMILES COc1ccc2ccc(=O)oc2c1
REMARK SMILES IDX 3 1 13 2 12 3 6 4 5 5 4 6 7 7 8 8 9 9 10 10 11 11 2 12 1 13
REMARK H PARENT
REMARK Flexibility Score: inf
ROOT
ATOM      1  C   UNL     1      10.375 -17.578   7.997  1.00  0.00     0.122 A 
ATOM      2  C   UNL     1       9.117 -17.498   8.626  1.00  0.00     0.094 A 
ATOM      3  C   UNL     1       8.077 -18.348   8.235  1.00  0.00     0.142 A 
ATOM      4  C   UNL     1       8.289 -19.289   7.204  1.00  0.00     0.018 A 
ATOM      5  C   UNL     1       9.539 -19.368   6.578  1.00  0.00     0.016 A 
ATOM      6  C   UNL     1      10.573 -18.516   6.975  1.00  0.00     0.047 A 
ATOM      7  C   UNL     1       7.230 -20.125   6.834  1.00  0.00     0.019 A 
ATOM      8  C   UNL     1       6.005 -20.006   7.489  1.00  0.00     0.094 A 
ATOM      9  C   UNL     1       5.867 -19.050   8.502  1.00  0.00     0.336 A 
ATOM     10  O   UNL     1       4.769 -18.929   9.105  1.00  0.00    -0.246 OA
ATOM     11  O   UNL     1       6.891 -18.269   8.833  1.00  0.00    -0.423 OA
ENDROOT
BRANCH   1  12
ATOM     12  O   UNL     1      11.448 -16.747   8.354  1.00  0.00    -0.497 OA
ATOM     13  C   UNL     1      12.545 -16.439   7.501  1.00  0.00     0.278 C 
ENDBRANCH   1  12
TORSDOF 1
ENDMDL
MODEL 7
REMARK VINA RESULT:    -2.392      1.896      2.313
REMARK INTER + INTRA:          -2.565
REMARK INTER:                  -2.525
REMARK INTRA:                  -0.040
REMARK UNBOUND:                -0.033
REMARK SMILES COc1ccc2ccc(=O)oc2c1
REMARK SMILES IDX 3 1 13 2 12 3 6 4 5 5 4 6 7 7 8 8 9 9 10 10 11 11 2 12 1 13
REMARK H PARENT
REMARK Flexibility Score: inf
ROOT
ATOM      1  C   UNL     1       6.027 -20.124   9.599  1.00  0.00     0.122 A 
ATOM      2  C   UNL     1       7.436 -20.123   9.630  1.00  0.00     0.094 A 
ATOM      3  C   UNL     1       8.167 -20.123   8.437  1.00  0.00     0.142 A 
ATOM      4  C   UNL     1       7.491 -20.124   7.198  1.00  0.00     0.018 A 
ATOM      5  C   UNL     1       6.091 -20.125   7.168  1.00  0.00     0.016 A 
ATOM      6  C   UNL     1       5.368 -20.125   8.363  1.00  0.00     0.047 A 
ATOM      7  C   UNL     1       8.250 -20.124   6.023  1.00  0.00     0.019 A 
ATOM      8  C   UNL     1       9.642 -20.123   6.109  1.00  0.00     0.094 A 
ATOM      9  C   UNL     1      10.244 -20.122   7.371  1.00  0.00     0.336 A 
ATOM     10  O   UNL     1      11.499 -20.120   7.468  1.00  0.00    -0.246 OA
ATOM     11  O   UNL     1       9.498 -20.122   8.472  1.00  0.00    -0.423 OA
ENDROOT
BRANCH   1  12
ATOM     12  O   UNL     1       5.250 -20.125  10.768  1.00  0.00    -0.497 OA
ATOM     13  C   UNL     1       3.827 -20.125  10.787  1.00  0.00     0.278 C 
ENDBRANCH   1  12
TORSDOF 1
ENDMDL
