MODEL 1
REMARK VINA RESULT:    -3.114      0.000      0.000
REMARK INTER + INTRA:          -6.162
REMARK INTER:                  -4.935
REMARK INTRA:                  -1.226
REMARK UNBOUND:                -1.226
REMARK SMILES CCCCCCCCCCCC(=O)[O-]
REMARK SMILES IDX 7 1 8 2 9 3 10 4 11 5 12 6 13 7 14 8 6 9 5 10 4 11 3 12 2 13
REMARK SMILES IDX 1 14
REMARK H PARENT
REMARK Flexibility Score: inf
ROOT
ATOM      1  C   UNL     1     -24.764   2.482 -34.537  1.00  0.00     0.000 C 
ENDROOT
BRANCH   1   2
ATOM      2  C   UNL     1     -24.994   2.475 -33.017  1.00  0.00     0.000 C 
BRANCH   2   3
ATOM      3  C   UNL     1     -25.121   3.889 -32.431  1.00  0.00     0.000 C 
BRANCH   3   4
ATOM      4  C   UNL     1     -25.677   4.869 -33.476  1.00  0.00     0.006 C 
BRANCH   4   5
ATOM      5  C   UNL     1     -27.179   5.125 -33.292  1.00  0.00     0.053 C 
BRANCH   5   6
ATOM      6  C   UNL     1     -28.000   4.357 -34.283  1.00  0.00     0.041 C 
ATOM      7  O   UNL     1     -28.701   3.383 -33.904  1.00  0.00    -0.550 OA
ATOM      8  O   UNL     1     -28.018   4.739 -35.618  1.00  0.00    -0.550 OA
ENDBRANCH   5   6
ENDBRANCH   4   5
ENDBRANCH   3   4
ENDBRANCH   2   3
ENDBRANCH   1   2
BRANCH   1   9
ATOM      9  C   UNL     1     -23.293   2.251 -34.914  1.00  0.00     0.000 C 
BRANCH   9  10
ATOM     10  C   UNL     1     -22.463   3.521 -34.692  1.00  0.00    -0.000 C 
BRANCH  10  11
ATOM     11  C   UNL     1     -22.755   4.567 -35.773  1.00  0.00    -0.000 C 
BRANCH  11  12
ATOM     12  C   UNL     1     -22.638   3.955 -37.177  1.00  0.00    -0.000 C 
BRANCH  12  13
ATOM     13  C   UNL     1     -23.847   4.284 -38.066  1.00  0.00    -0.003 C 
ATOM     14  C   UNL     1     -25.013   4.884 -37.283  1.00  0.00     0.004 C 
ENDBRANCH  12  13
ENDBRANCH  11  12
ENDBRANCH  10  11
ENDBRANCH   9  10
ENDBRANCH   1   9
TORSDOF 10
ENDMDL
MODEL 2
REMARK VINA RESULT:    -3.084      2.705      4.799
REMARK INTER + INTRA:          -6.113
REMARK INTER:                  -4.822
REMARK INTRA:                  -1.291
REMARK UNBOUND:                -1.226
REMARK SMILES CCCCCCCCCCCC(=O)[O-]
REMARK SMILES IDX 7 1 8 2 9 3 10 4 11 5 12 6 13 7 14 8 6 9 5 10 4 11 3 12 2 13
REMARK SMILES IDX 1 14
REMARK H PARENT
REMARK Flexibility Score: inf
ROOT
ATOM      1  C   UNL     1     -23.647   2.145 -33.624  1.00  0.00     0.000 C 
ENDROOT
BRANCH   1   2
ATOM      2  C   UNL     1     -23.416   2.470 -35.109  1.00  0.00     0.000 C 
BRANCH   2   3
ATOM      3  C   UNL     1     -22.465   3.657 -35.314  1.00  0.00     0.000 C 
BRANCH   3   4
ATOM      4  C   UNL     1     -23.185   4.824 -36.009  1.00  0.00     0.006 C 
BRANCH   4   5
ATOM      5  C   UNL     1     -24.046   4.356 -37.189  1.00  0.00     0.053 C 
BRANCH   5   6
ATOM      6  C   UNL     1     -23.212   4.022 -38.389  1.00  0.00     0.041 C 
ATOM      7  O   UNL     1     -22.563   4.924 -38.979  1.00  0.00    -0.550 OA
ATOM      8  O   UNL     1     -23.124   2.709 -38.833  1.00  0.00    -0.550 OA
ENDBRANCH   5   6
ENDBRANCH   4   5
ENDBRANCH   3   4
ENDBRANCH   2   3
ENDBRANCH   1   2
BRANCH   1   9
ATOM      9  C   UNL     1     -25.045   2.557 -33.137  1.00  0.00     0.000 C 
BRANCH   9  10
ATOM     10  C   UNL     1     -24.978   3.836 -32.293  1.00  0.00    -0.000 C 
BRANCH  10  11
ATOM     11  C   UNL     1     -25.509   5.042 -33.077  1.00  0.00    -0.000 C 
BRANCH  11  12
ATOM     12  C   UNL     1     -26.413   4.592 -34.234  1.00  0.00    -0.000 C 
BRANCH  12  13
ATOM     13  C   UNL     1     -27.895   4.907 -33.981  1.00  0.00    -0.003 C 
ATOM     14  C   UNL     1     -28.803   3.697 -34.197  1.00  0.00     0.004 C 
ENDBRANCH  12  13
ENDBRANCH  11  12
ENDBRANCH  10  11
ENDBRANCH   9  10
ENDBRANCH   1   9
TORSDOF 10
ENDMDL
MODEL 3
REMARK VINA RESULT:    -2.744     14.255     16.185
REMARK INTER + INTRA:          -5.574
REMARK INTER:                  -4.784
REMARK INTRA:                  -0.790
REMARK UNBOUND:                -1.226
REMARK SMILES CCCCCCCCCCCC(=O)[O-]
REMARK SMILES IDX 7 1 8 2 9 3 10 4 11 5 12 6 13 7 14 8 6 9 5 10 4 11 3 12 2 13
REMARK SMILES IDX 1 14
REMARK H PARENT
REMARK Flexibility Score: inf
ROOT
ATOM      1  C   UNL     1      -9.649   1.230 -35.939  1.00  0.00     0.000 C 
ENDROOT
BRANCH   1   2
ATOM      2  C   UNL     1     -10.376   0.201 -36.819  1.00  0.00     0.000 C 
BRANCH   2   3
ATOM      3  C   UNL     1     -10.211  -1.237 -36.308  1.00  0.00     0.000 C 
BRANCH   3   4
ATOM      4  C   UNL     1      -9.190  -2.009 -37.158  1.00  0.00     0.006 C 
BRANCH   4   5
ATOM      5  C   UNL     1      -9.858  -2.807 -38.287  1.00  0.00     0.053 C 
BRANCH   5   6
ATOM      6  C   UNL     1     -10.000  -4.256 -37.935  1.00  0.00     0.041 C 
ATOM      7  O   UNL     1      -9.177  -5.099 -38.380  1.00  0.00    -0.550 OA
ATOM      8  O   UNL     1     -11.019  -4.671 -37.087  1.00  0.00    -0.550 OA
ENDBRANCH   5   6
ENDBRANCH   4   5
ENDBRANCH   3   4
ENDBRANCH   2   3
ENDBRANCH   1   2
BRANCH   1   9
ATOM      9  C   UNL     1      -9.148   2.444 -36.736  1.00  0.00     0.000 C 
BRANCH   9  10
ATOM     10  C   UNL     1      -9.483   3.753 -36.011  1.00  0.00    -0.000 C 
BRANCH  10  11
ATOM     11  C   UNL     1     -10.803   4.344 -36.519  1.00  0.00    -0.000 C 
BRANCH  11  12
ATOM     12  C   UNL     1     -10.800   4.462 -38.050  1.00  0.00    -0.000 C 
BRANCH  12  13
ATOM     13  C   UNL     1     -12.069   3.877 -38.690  1.00  0.00    -0.003 C 
ATOM     14  C   UNL     1     -12.719   2.793 -37.833  1.00  0.00     0.004 C 
ENDBRANCH  12  13
ENDBRANCH  11  12
ENDBRANCH  10  11
ENDBRANCH   9  10
ENDBRANCH   1   9
TORSDOF 10
ENDMDL
MODEL 4
REMARK VINA RESULT:    -2.462      2.741      5.263
REMARK INTER + INTRA:          -5.127
REMARK INTER:                  -4.435
REMARK INTRA:                  -0.692
REMARK UNBOUND:                -1.226
REMARK SMILES CCCCCCCCCCCC(=O)[O-]
REMARK SMILES IDX 7 1 8 2 9 3 10 4 11 5 12 6 13 7 14 8 6 9 5 10 4 11 3 12 2 13
REMARK SMILES IDX 1 14
REMARK H PARENT
REMARK Flexibility Score: inf
ROOT
ATOM      1  C   UNL     1     -25.875   4.273 -35.724  1.00  0.00     0.000 C 
ENDROOT
BRANCH   1   2
ATOM      2  C   UNL     1     -25.088   5.109 -36.747  1.00  0.00     0.000 C 
BRANCH   2   3
ATOM      3  C   UNL     1     -23.579   5.125 -36.462  1.00  0.00     0.000 C 
BRANCH   3   4
ATOM      4  C   UNL     1     -22.777   4.809 -37.734  1.00  0.00     0.006 C 
BRANCH   4   5
ATOM      5  C   UNL     1     -23.463   3.748 -38.606  1.00  0.00     0.053 C 
BRANCH   5   6
ATOM      6  C   UNL     1     -23.052   2.360 -38.219  1.00  0.00     0.041 C 
ATOM      7  O   UNL     1     -22.608   2.130 -37.064  1.00  0.00    -0.550 OA
ATOM      8  O   UNL     1     -23.193   1.315 -39.123  1.00  0.00    -0.550 OA
ENDBRANCH   5   6
ENDBRANCH   4   5
ENDBRANCH   3   4
ENDBRANCH   2   3
ENDBRANCH   1   2
BRANCH   1   9
ATOM      9  C   UNL     1     -26.367   5.107 -34.531  1.00  0.00     0.000 C 
BRANCH   9  10
ATOM     10  C   UNL     1     -26.510   4.237 -33.276  1.00  0.00    -0.000 C 
BRANCH  10  11
ATOM     11  C   UNL     1     -25.949   2.830 -33.513  1.00  0.00    -0.000 C 
BRANCH  11  12
ATOM     12  C   UNL     1     -24.644   2.618 -32.731  1.00  0.00    -0.000 C 
BRANCH  12  13
ATOM     13  C   UNL     1     -23.397   2.970 -33.558  1.00  0.00    -0.003 C 
ATOM     14  C   UNL     1     -22.523   1.753 -33.858  1.00  0.00     0.004 C 
ENDBRANCH  12  13
ENDBRANCH  11  12
ENDBRANCH  10  11
ENDBRANCH   9  10
ENDBRANCH   1   9
TORSDOF 10
ENDMDL
MODEL 5
REMARK VINA RESULT:    -2.443     14.729     16.779
REMARK INTER + INTRA:          -5.098
REMARK INTER:                  -4.328
REMARK INTRA:                  -0.770
REMARK UNBOUND:                -1.226
REMARK SMILES CCCCCCCCCCCC(=O)[O-]
REMARK SMILES IDX 7 1 8 2 9 3 10 4 11 5 12 6 13 7 14 8 6 9 5 10 4 11 3 12 2 13
REMARK SMILES IDX 1 14
REMARK H PARENT
REMARK Flexibility Score: inf
ROOT
ATOM      1  C   UNL     1     -10.660   0.433 -36.601  1.00  0.00     0.000 C 
ENDROOT
BRANCH   1   2
ATOM      2  C   UNL     1      -9.846  -0.818 -36.971  1.00  0.00     0.000 C 
BRANCH   2   3
ATOM      3  C   UNL     1      -9.657  -0.974 -38.487  1.00  0.00     0.000 C 
BRANCH   3   4
ATOM      4  C   UNL     1      -8.915  -2.278 -38.816  1.00  0.00     0.006 C 
BRANCH   4   5
ATOM      5  C   UNL     1      -8.997  -3.299 -37.673  1.00  0.00     0.053 C 
BRANCH   5   6
ATOM      6  C   UNL     1      -9.769  -4.520 -38.071  1.00  0.00     0.041 C 
ATOM      7  O   UNL     1      -9.231  -5.400 -38.793  1.00  0.00    -0.550 OA
ATOM      8  O   UNL     1     -11.068  -4.702 -37.616  1.00  0.00    -0.550 OA
ENDBRANCH   5   6
ENDBRANCH   4   5
ENDBRANCH   3   4
ENDBRANCH   2   3
ENDBRANCH   1   2
BRANCH   1   9
ATOM      9  C   UNL     1     -10.425   1.601 -37.570  1.00  0.00     0.000 C 
BRANCH   9  10
ATOM     10  C   UNL     1     -11.548   2.640 -37.460  1.00  0.00    -0.000 C 
BRANCH  10  11
ATOM     11  C   UNL     1     -11.005   3.990 -36.975  1.00  0.00    -0.000 C 
BRANCH  11  12
ATOM     12  C   UNL     1      -9.469   3.997 -36.977  1.00  0.00    -0.000 C 
BRANCH  12  13
ATOM     13  C   UNL     1      -8.879   4.392 -35.614  1.00  0.00    -0.003 C 
ATOM     14  C   UNL     1      -8.971   3.270 -34.582  1.00  0.00     0.004 C 
ENDBRANCH  12  13
ENDBRANCH  11  12
ENDBRANCH  10  11
ENDBRANCH   9  10
ENDBRANCH   1   9
TORSDOF 10
ENDMDL
MODEL 6
REMARK VINA RESULT:    -2.436     14.700     16.160
REMARK INTER + INTRA:          -5.086
REMARK INTER:                  -4.504
REMARK INTRA:                  -0.582
REMARK UNBOUND:                -1.226
REMARK SMILES CCCCCCCCCCCC(=O)[O-]
REMARK SMILES IDX 7 1 8 2 9 3 10 4 11 5 12 6 13 7 14 8 6 9 5 10 4 11 3 12 2 13
REMARK SMILES IDX 1 14
REMARK H PARENT
REMARK Flexibility Score: inf
ROOT
ATOM      1  C   UNL     1     -10.203   1.360 -36.650  1.00  0.00     0.000 C 
ENDROOT
BRANCH   1   2
ATOM      2  C   UNL     1     -11.085   2.203 -37.586  1.00  0.00     0.000 C 
BRANCH   2   3
ATOM      3  C   UNL     1     -11.207   3.663 -37.128  1.00  0.00     0.000 C 
BRANCH   3   4
ATOM      4  C   UNL     1      -9.982   4.084 -36.301  1.00  0.00     0.006 C 
BRANCH   4   5
ATOM      5  C   UNL     1     -10.372   4.864 -35.039  1.00  0.00     0.053 C 
BRANCH   5   6
ATOM      6  C   UNL     1      -9.675   4.339 -33.821  1.00  0.00     0.041 C 
ATOM      7  O   UNL     1      -9.123   3.208 -33.847  1.00  0.00    -0.550 OA
ATOM      8  O   UNL     1      -9.605   5.112 -32.670  1.00  0.00    -0.550 OA
ENDBRANCH   5   6
ENDBRANCH   4   5
ENDBRANCH   3   4
ENDBRANCH   2   3
ENDBRANCH   1   2
BRANCH   1   9
ATOM      9  C   UNL     1      -9.036   0.684 -37.385  1.00  0.00     0.000 C 
BRANCH   9  10
ATOM     10  C   UNL     1      -9.523  -0.022 -38.656  1.00  0.00    -0.000 C 
BRANCH  10  11
ATOM     11  C   UNL     1      -8.893  -1.413 -38.790  1.00  0.00    -0.000 C 
BRANCH  11  12
ATOM     12  C   UNL     1      -9.593  -2.425 -37.870  1.00  0.00    -0.000 C 
BRANCH  12  13
ATOM     13  C   UNL     1     -10.059  -3.681 -38.622  1.00  0.00    -0.003 C 
ATOM     14  C   UNL     1     -10.878  -4.626 -37.744  1.00  0.00     0.004 C 
ENDBRANCH  12  13
ENDBRANCH  11  12
ENDBRANCH  10  11
ENDBRANCH   9  10
ENDBRANCH   1   9
TORSDOF 10
ENDMDL
MODEL 7
REMARK VINA RESULT:    -2.400      2.416      4.826
REMARK INTER + INTRA:          -5.029
REMARK INTER:                  -4.451
REMARK INTRA:                  -0.577
REMARK UNBOUND:                -1.226
REMARK SMILES CCCCCCCCCCCC(=O)[O-]
REMARK SMILES IDX 7 1 8 2 9 3 10 4 11 5 12 6 13 7 14 8 6 9 5 10 4 11 3 12 2 13
REMARK SMILES IDX 1 14
REMARK H PARENT
REMARK Flexibility Score: inf
ROOT
ATOM      1  C   UNL     1     -25.183   2.353 -33.873  1.00  0.00     0.000 C 
ENDROOT
BRANCH   1   2
ATOM      2  C   UNL     1     -23.728   2.476 -33.393  1.00  0.00     0.000 C 
BRANCH   2   3
ATOM      3  C   UNL     1     -22.844   3.256 -34.376  1.00  0.00     0.000 C 
BRANCH   3   4
ATOM      4  C   UNL     1     -22.849   2.594 -35.763  1.00  0.00     0.006 C 
BRANCH   4   5
ATOM      5  C   UNL     1     -22.382   3.552 -36.867  1.00  0.00     0.053 C 
BRANCH   5   6
ATOM      6  C   UNL     1     -23.384   3.653 -37.977  1.00  0.00     0.041 C 
ATOM      7  O   UNL     1     -23.341   2.846 -38.942  1.00  0.00    -0.550 OA
ATOM      8  O   UNL     1     -24.384   4.615 -37.928  1.00  0.00    -0.550 OA
ENDBRANCH   5   6
ENDBRANCH   4   5
ENDBRANCH   3   4
ENDBRANCH   2   3
ENDBRANCH   1   2
BRANCH   1   9
ATOM      9  C   UNL     1     -25.893   3.712 -33.969  1.00  0.00     0.000 C 
BRANCH   9  10
ATOM     10  C   UNL     1     -27.400   3.562 -33.731  1.00  0.00    -0.000 C 
BRANCH  10  11
ATOM     11  C   UNL     1     -28.179   4.705 -34.393  1.00  0.00    -0.000 C 
BRANCH  11  12
ATOM     12  C   UNL     1     -29.077   4.178 -35.522  1.00  0.00    -0.000 C 
BRANCH  12  13
ATOM     13  C   UNL     1     -29.122   5.125 -36.731  1.00  0.00    -0.003 C 
ATOM     14  C   UNL     1     -27.872   5.032 -37.604  1.00  0.00     0.004 C 
ENDBRANCH  12  13
ENDBRANCH  11  12
ENDBRANCH  10  11
ENDBRANCH   9  10
ENDBRANCH   1   9
TORSDOF 10
ENDMDL
MODEL 8
REMARK VINA RESULT:    -2.366      1.801      4.542
REMARK INTER + INTRA:          -4.976
REMARK INTER:                  -4.434
REMARK INTRA:                  -0.542
REMARK UNBOUND:                -1.226
REMARK SMILES CCCCCCCCCCCC(=O)[O-]
REMARK SMILES IDX 7 1 8 2 9 3 10 4 11 5 12 6 13 7 14 8 6 9 5 10 4 11 3 12 2 13
REMARK SMILES IDX 1 14
REMARK H PARENT
REMARK Flexibility Score: inf
ROOT
ATOM      1  C   UNL     1     -22.433   2.231 -34.846  1.00  0.00     0.000 C 
ENDROOT
BRANCH   1   2
ATOM      2  C   UNL     1     -23.061   1.769 -36.171  1.00  0.00     0.000 C 
BRANCH   2   3
ATOM      3  C   UNL     1     -22.693   2.681 -37.350  1.00  0.00     0.000 C 
BRANCH   3   4
ATOM      4  C   UNL     1     -22.560   4.142 -36.894  1.00  0.00     0.006 C 
BRANCH   4   5
ATOM      5  C   UNL     1     -23.163   5.125 -37.906  1.00  0.00     0.053 C 
BRANCH   5   6
ATOM      6  C   UNL     1     -24.651   4.975 -38.008  1.00  0.00     0.041 C 
ATOM      7  O   UNL     1     -25.190   4.759 -39.125  1.00  0.00    -0.550 OA
ATOM      8  O   UNL     1     -25.438   5.039 -36.865  1.00  0.00    -0.550 OA
ENDBRANCH   5   6
ENDBRANCH   4   5
ENDBRANCH   3   4
ENDBRANCH   2   3
ENDBRANCH   1   2
BRANCH   1   9
ATOM      9  C   UNL     1     -23.363   2.017 -33.643  1.00  0.00     0.000 C 
BRANCH   9  10
ATOM     10  C   UNL     1     -24.029   3.333 -33.222  1.00  0.00    -0.000 C 
BRANCH  10  11
ATOM     11  C   UNL     1     -25.184   3.693 -34.164  1.00  0.00    -0.000 C 
BRANCH  11  12
ATOM     12  C   UNL     1     -26.536   3.303 -33.550  1.00  0.00    -0.000 C 
BRANCH  12  13
ATOM     13  C   UNL     1     -27.624   4.359 -33.798  1.00  0.00    -0.003 C 
ATOM     14  C   UNL     1     -28.952   3.749 -34.241  1.00  0.00     0.004 C 
ENDBRANCH  12  13
ENDBRANCH  11  12
ENDBRANCH  10  11
ENDBRANCH   9  10
ENDBRANCH   1   9
TORSDOF 10
ENDMDL
MODEL 9
REMARK VINA RESULT:    -1.003     13.792     15.767
REMARK INTER + INTRA:          -2.815
REMARK INTER:                  -2.201
REMARK INTRA:                  -0.614
REMARK UNBOUND:                -1.226
REMARK SMILES CCCCCCCCCCCC(=O)[O-]
REMARK SMILES IDX 7 1 8 2 9 3 10 4 11 5 12 6 13 7 14 8 6 9 5 10 4 11 3 12 2 13
REMARK SMILES IDX 1 14
REMARK H PARENT
REMARK Flexibility Score: inf
ROOT
ATOM      1  C   UNL     1     -10.320   0.730 -36.116  1.00  0.00     0.000 C 
ENDROOT
BRANCH   1   2
ATOM      2  C   UNL     1      -9.019   1.425 -35.684  1.00  0.00     0.000 C 
BRANCH   2   3
ATOM      3  C   UNL     1      -8.893   2.849 -36.245  1.00  0.00     0.000 C 
BRANCH   3   4
ATOM      4  C   UNL     1     -10.269   3.525 -36.338  1.00  0.00     0.006 C 
BRANCH   4   5
ATOM      5  C   UNL     1     -10.602   3.972 -37.768  1.00  0.00     0.053 C 
BRANCH   5   6
ATOM      6  C   UNL     1     -12.066   3.847 -38.064  1.00  0.00     0.041 C 
ATOM      7  O   UNL     1     -12.653   4.735 -38.736  1.00  0.00    -0.550 OA
ATOM      8  O   UNL     1     -12.772   2.733 -37.628  1.00  0.00    -0.550 OA
ENDBRANCH   5   6
ENDBRANCH   4   5
ENDBRANCH   3   4
ENDBRANCH   2   3
ENDBRANCH   1   2
BRANCH   1   9
ATOM      9  C   UNL     1     -10.068  -0.554 -36.920  1.00  0.00     0.000 C 
BRANCH   9  10
ATOM     10  C   UNL     1      -9.281  -0.254 -38.201  1.00  0.00    -0.000 C 
BRANCH  10  11
ATOM     11  C   UNL     1      -8.875  -1.548 -38.916  1.00  0.00    -0.000 C 
BRANCH  11  12
ATOM     12  C   UNL     1     -10.015  -2.577 -38.879  1.00  0.00    -0.000 C 
BRANCH  12  13
ATOM     13  C   UNL     1      -9.685  -3.792 -37.998  1.00  0.00    -0.003 C 
ATOM     14  C   UNL     1     -10.900  -4.677 -37.730  1.00  0.00     0.004 C 
ENDBRANCH  12  13
ENDBRANCH  11  12
ENDBRANCH  10  11
ENDBRANCH   9  10
ENDBRANCH   1   9
TORSDOF 10
ENDMDL
