MODEL 1
REMARK VINA RESULT:    -5.344      0.000      0.000
REMARK INTER + INTRA:          -6.031
REMARK INTER:                  -5.656
REMARK INTRA:                  -0.375
REMARK UNBOUND:                -0.375
REMARK SMILES C=C(C)[C@H]1CC[C@H](C)[C@]12CC=C(C)CC2
REMARK SMILES IDX 8 1 7 2 6 3 5 4 4 5 9 6 15 7 14 8 12 9 11 10 10 11 13 12
REMARK SMILES IDX 2 13 1 14 3 15
REMARK H PARENT
REMARK Flexibility Score: inf
ROOT
ATOM      1  C   UNL     1     138.759 143.431 136.486  1.00  0.00     0.008 C 
ATOM      2  C   UNL     1     139.241 142.411 135.429  1.00  0.00    -0.007 C 
ATOM      3  C   UNL     1     138.059 141.526 134.992  1.00  0.00     0.004 C 
ATOM      4  C   UNL     1     137.632 141.997 133.601  1.00  0.00     0.009 C 
ATOM      5  C   UNL     1     138.477 143.240 133.290  1.00  0.00     0.021 C 
ATOM      6  C   UNL     1     139.791 143.035 134.102  1.00  0.00    -0.017 C 
ATOM      7  C   UNL     1     140.739 141.975 133.399  1.00  0.00     0.012 C 
ATOM      8  C   UNL     1     142.226 142.356 133.445  1.00  0.00     0.031 C 
ATOM      9  C   UNL     1     142.392 143.742 132.876  1.00  0.00    -0.077 C 
ATOM     10  C   UNL     1     141.559 144.703 133.298  1.00  0.00    -0.027 C 
ATOM     11  C   UNL     1     140.545 144.387 134.365  1.00  0.00     0.035 C 
ATOM     12  C   UNL     1     143.399 144.031 131.797  1.00  0.00     0.039 C 
ENDROOT
BRANCH   5  13
ATOM     13  C   UNL     1     138.629 143.571 131.799  1.00  0.00    -0.077 C 
ATOM     14  C   UNL     1     138.579 144.856 131.405  1.00  0.00     0.008 C 
ATOM     15  C   UNL     1     138.633 142.494 130.735  1.00  0.00     0.039 C 
ENDBRANCH   5  13
TORSDOF 1
ENDMDL
MODEL 2
REMARK VINA RESULT:    -5.332      2.947      4.462
REMARK INTER + INTRA:          -6.018
REMARK INTER:                  -5.633
REMARK INTRA:                  -0.386
REMARK UNBOUND:                -0.375
REMARK SMILES C=C(C)[C@H]1CC[C@H](C)[C@]12CC=C(C)CC2
REMARK SMILES IDX 8 1 7 2 6 3 5 4 4 5 9 6 15 7 14 8 12 9 11 10 10 11 13 12
REMARK SMILES IDX 2 13 1 14 3 15
REMARK H PARENT
REMARK Flexibility Score: inf
ROOT
ATOM      1  C   UNL     1     143.542 143.318 136.504  1.00  0.00     0.008 C 
ATOM      2  C   UNL     1     142.494 142.855 135.465  1.00  0.00    -0.007 C 
ATOM      3  C   UNL     1     141.607 144.049 135.064  1.00  0.00     0.004 C 
ATOM      4  C   UNL     1     142.048 144.489 133.667  1.00  0.00     0.009 C 
ATOM      5  C   UNL     1     143.277 143.639 133.317  1.00  0.00     0.021 C 
ATOM      6  C   UNL     1     143.082 142.317 134.118  1.00  0.00    -0.017 C 
ATOM      7  C   UNL     1     141.999 141.384 133.430  1.00  0.00     0.012 C 
ATOM      8  C   UNL     1     142.369 139.895 133.449  1.00  0.00     0.031 C 
ATOM      9  C   UNL     1     143.740 139.726 132.844  1.00  0.00    -0.077 C 
ATOM     10  C   UNL     1     144.718 140.547 133.254  1.00  0.00    -0.027 C 
ATOM     11  C   UNL     1     144.435 141.551 134.339  1.00  0.00     0.035 C 
ATOM     12  C   UNL     1     143.996 138.730 131.747  1.00  0.00     0.039 C 
ENDROOT
BRANCH   5  13
ATOM     13  C   UNL     1     143.571 143.503 131.817  1.00  0.00    -0.077 C 
ATOM     14  C   UNL     1     144.841 143.597 131.387  1.00  0.00     0.008 C 
ATOM     15  C   UNL     1     142.466 143.465 130.783  1.00  0.00     0.039 C 
ENDBRANCH   5  13
TORSDOF 1
ENDMDL
MODEL 3
REMARK VINA RESULT:    -5.329      2.876      4.370
REMARK INTER + INTRA:          -6.016
REMARK INTER:                  -5.629
REMARK INTRA:                  -0.387
REMARK UNBOUND:                -0.375
REMARK SMILES C=C(C)[C@H]1CC[C@H](C)[C@]12CC=C(C)CC2
REMARK SMILES IDX 8 1 7 2 6 3 5 4 4 5 9 6 15 7 14 8 12 9 11 10 10 11 13 12
REMARK SMILES IDX 2 13 1 14 3 15
REMARK H PARENT
REMARK Flexibility Score: inf
ROOT
ATOM      1  C   UNL     1     138.756 138.780 136.463  1.00  0.00     0.008 C 
ATOM      2  C   UNL     1     139.775 139.254 135.400  1.00  0.00    -0.007 C 
ATOM      3  C   UNL     1     140.631 138.059 134.941  1.00  0.00     0.004 C 
ATOM      4  C   UNL     1     140.138 137.659 133.550  1.00  0.00     0.009 C 
ATOM      5  C   UNL     1     138.909 138.532 133.262  1.00  0.00     0.021 C 
ATOM      6  C   UNL     1     139.150 139.832 134.087  1.00  0.00    -0.017 C 
ATOM      7  C   UNL     1     140.222 140.767 133.384  1.00  0.00     0.012 C 
ATOM      8  C   UNL     1     139.872 142.260 133.451  1.00  0.00     0.031 C 
ATOM      9  C   UNL     1     138.484 142.461 132.897  1.00  0.00    -0.077 C 
ATOM     10  C   UNL     1     137.510 141.643 133.320  1.00  0.00    -0.027 C 
ATOM     11  C   UNL     1     137.815 140.610 134.372  1.00  0.00     0.035 C 
ATOM     12  C   UNL     1     138.206 143.486 131.834  1.00  0.00     0.039 C 
ENDROOT
BRANCH   5  13
ATOM     13  C   UNL     1     138.567 138.708 131.776  1.00  0.00    -0.077 C 
ATOM     14  C   UNL     1     137.281 138.649 131.389  1.00  0.00     0.008 C 
ATOM     15  C   UNL     1     139.636 138.747 130.706  1.00  0.00     0.039 C 
ENDBRANCH   5  13
TORSDOF 1
ENDMDL
MODEL 4
REMARK VINA RESULT:    -5.317      3.784      6.212
REMARK INTER + INTRA:          -6.003
REMARK INTER:                  -5.619
REMARK INTRA:                  -0.384
REMARK UNBOUND:                -0.375
REMARK SMILES C=C(C)[C@H]1CC[C@H](C)[C@]12CC=C(C)CC2
REMARK SMILES IDX 8 1 7 2 6 3 5 4 4 5 9 6 15 7 14 8 12 9 11 10 10 11 13 12
REMARK SMILES IDX 2 13 1 14 3 15
REMARK H PARENT
REMARK Flexibility Score: inf
ROOT
ATOM      1  C   UNL     1     143.615 138.966 136.420  1.00  0.00     0.008 C 
ATOM      2  C   UNL     1     143.127 139.964 135.344  1.00  0.00    -0.007 C 
ATOM      3  C   UNL     1     144.317 140.808 134.849  1.00  0.00     0.004 C 
ATOM      4  C   UNL     1     144.696 140.285 133.463  1.00  0.00     0.009 C 
ATOM      5  C   UNL     1     143.816 139.053 133.214  1.00  0.00     0.021 C 
ATOM      6  C   UNL     1     142.528 139.313 134.052  1.00  0.00    -0.017 C 
ATOM      7  C   UNL     1     141.586 140.372 133.341  1.00  0.00     0.012 C 
ATOM      8  C   UNL     1     140.093 140.027 133.437  1.00  0.00     0.031 C 
ATOM      9  C   UNL     1     139.881 138.628 132.916  1.00  0.00    -0.077 C 
ATOM     10  C   UNL     1     140.704 137.661 133.347  1.00  0.00    -0.027 C 
ATOM     11  C   UNL     1     141.753 137.986 134.377  1.00  0.00     0.035 C 
ATOM     12  C   UNL     1     138.840 138.329 131.873  1.00  0.00     0.039 C 
ENDROOT
BRANCH   5  13
ATOM     13  C   UNL     1     143.617 138.679 131.738  1.00  0.00    -0.077 C 
ATOM     14  C   UNL     1     143.662 137.385 131.378  1.00  0.00     0.008 C 
ATOM     15  C   UNL     1     143.572 139.726 130.645  1.00  0.00     0.039 C 
ENDBRANCH   5  13
TORSDOF 1
ENDMDL
MODEL 5
REMARK VINA RESULT:    -5.177      1.321      4.582
REMARK INTER + INTRA:          -5.854
REMARK INTER:                  -5.465
REMARK INTRA:                  -0.389
REMARK UNBOUND:                -0.375
REMARK SMILES C=C(C)[C@H]1CC[C@H](C)[C@]12CC=C(C)CC2
REMARK SMILES IDX 8 1 7 2 6 3 5 4 4 5 9 6 15 7 14 8 12 9 11 10 10 11 13 12
REMARK SMILES IDX 2 13 1 14 3 15
REMARK H PARENT
REMARK Flexibility Score: inf
ROOT
ATOM      1  C   UNL     1     138.778 144.736 131.758  1.00  0.00     0.008 C 
ATOM      2  C   UNL     1     139.907 143.854 132.339  1.00  0.00    -0.007 C 
ATOM      3  C   UNL     1     141.045 144.752 132.859  1.00  0.00     0.004 C 
ATOM      4  C   UNL     1     140.956 144.753 134.386  1.00  0.00     0.009 C 
ATOM      5  C   UNL     1     139.687 143.968 134.744  1.00  0.00     0.021 C 
ATOM      6  C   UNL     1     139.499 142.967 133.564  1.00  0.00    -0.017 C 
ATOM      7  C   UNL     1     140.515 141.755 133.673  1.00  0.00     0.012 C 
ATOM      8  C   UNL     1     139.897 140.400 133.299  1.00  0.00     0.031 C 
ATOM      9  C   UNL     1     138.655 140.185 134.127  1.00  0.00    -0.077 C 
ATOM     10  C   UNL     1     137.774 141.192 134.219  1.00  0.00    -0.027 C 
ATOM     11  C   UNL     1     138.017 142.460 133.445  1.00  0.00     0.035 C 
ATOM     12  C   UNL     1     138.443 138.917 134.907  1.00  0.00     0.039 C 
ENDROOT
BRANCH   5  13
ATOM     13  C   UNL     1     139.660 143.380 136.161  1.00  0.00    -0.077 C 
ATOM     14  C   UNL     1     138.534 143.477 136.890  1.00  0.00     0.008 C 
ATOM     15  C   UNL     1     140.913 142.872 136.842  1.00  0.00     0.039 C 
ENDBRANCH   5  13
TORSDOF 1
ENDMDL
MODEL 6
REMARK VINA RESULT:    -5.173      2.175      5.390
REMARK INTER + INTRA:          -5.851
REMARK INTER:                  -5.463
REMARK INTRA:                  -0.387
REMARK UNBOUND:                -0.375
REMARK SMILES C=C(C)[C@H]1CC[C@H](C)[C@]12CC=C(C)CC2
REMARK SMILES IDX 8 1 7 2 6 3 5 4 4 5 9 6 15 7 14 8 12 9 11 10 10 11 13 12
REMARK SMILES IDX 2 13 1 14 3 15
REMARK H PARENT
REMARK Flexibility Score: inf
ROOT
ATOM      1  C   UNL     1     144.777 143.284 131.808  1.00  0.00     0.008 C 
ATOM      2  C   UNL     1     143.890 142.169 132.410  1.00  0.00    -0.007 C 
ATOM      3  C   UNL     1     144.783 141.053 132.982  1.00  0.00     0.004 C 
ATOM      4  C   UNL     1     144.758 141.192 134.505  1.00  0.00     0.009 C 
ATOM      5  C   UNL     1     143.960 142.467 134.807  1.00  0.00     0.021 C 
ATOM      6  C   UNL     1     142.980 142.613 133.605  1.00  0.00    -0.017 C 
ATOM      7  C   UNL     1     141.770 141.594 133.726  1.00  0.00     0.012 C 
ATOM      8  C   UNL     1     140.420 142.193 133.308  1.00  0.00     0.031 C 
ATOM      9  C   UNL     1     140.185 143.460 134.092  1.00  0.00    -0.077 C 
ATOM     10  C   UNL     1     141.186 144.348 134.173  1.00  0.00    -0.027 C 
ATOM     11  C   UNL     1     142.469 144.087 133.430  1.00  0.00     0.035 C 
ATOM     12  C   UNL     1     138.903 143.691 134.842  1.00  0.00     0.039 C 
ENDROOT
BRANCH   5  13
ATOM     13  C   UNL     1     143.347 142.537 136.213  1.00  0.00    -0.077 C 
ATOM     14  C   UNL     1     143.419 143.689 136.903  1.00  0.00     0.008 C 
ATOM     15  C   UNL     1     142.841 141.303 136.929  1.00  0.00     0.039 C 
ENDBRANCH   5  13
TORSDOF 1
ENDMDL
MODEL 7
REMARK VINA RESULT:    -5.164      3.034      5.180
REMARK INTER + INTRA:          -5.841
REMARK INTER:                  -5.451
REMARK INTRA:                  -0.390
REMARK UNBOUND:                -0.375
REMARK SMILES C=C(C)[C@H]1CC[C@H](C)[C@]12CC=C(C)CC2
REMARK SMILES IDX 8 1 7 2 6 3 5 4 4 5 9 6 15 7 14 8 12 9 11 10 10 11 13 12
REMARK SMILES IDX 2 13 1 14 3 15
REMARK H PARENT
REMARK Flexibility Score: inf
ROOT
ATOM      1  C   UNL     1     137.288 138.936 131.675  1.00  0.00     0.008 C 
ATOM      2  C   UNL     1     138.215 140.032 132.251  1.00  0.00    -0.007 C 
ATOM      3  C   UNL     1     137.362 141.154 132.870  1.00  0.00     0.004 C 
ATOM      4  C   UNL     1     137.446 141.000 134.389  1.00  0.00     0.009 C 
ATOM      5  C   UNL     1     138.236 139.710 134.647  1.00  0.00     0.021 C 
ATOM      6  C   UNL     1     139.165 139.563 133.404  1.00  0.00    -0.017 C 
ATOM      7  C   UNL     1     140.394 140.563 133.486  1.00  0.00     0.012 C 
ATOM      8  C   UNL     1     141.717 139.949 133.009  1.00  0.00     0.031 C 
ATOM      9  C   UNL     1     141.965 138.671 133.770  1.00  0.00    -0.077 C 
ATOM     10  C   UNL     1     140.955 137.796 133.882  1.00  0.00    -0.027 C 
ATOM     11  C   UNL     1     139.647 138.083 133.194  1.00  0.00     0.035 C 
ATOM     12  C   UNL     1     143.273 138.414 134.465  1.00  0.00     0.039 C 
ENDROOT
BRANCH   5  13
ATOM     13  C   UNL     1     138.904 139.617 136.025  1.00  0.00    -0.077 C 
ATOM     14  C   UNL     1     138.831 138.464 136.712  1.00  0.00     0.008 C 
ATOM     15  C   UNL     1     139.470 140.835 136.726  1.00  0.00     0.039 C 
ENDBRANCH   5  13
TORSDOF 1
ENDMDL
MODEL 8
REMARK VINA RESULT:    -5.163      3.722      5.910
REMARK INTER + INTRA:          -5.840
REMARK INTER:                  -5.452
REMARK INTRA:                  -0.388
REMARK UNBOUND:                -0.375
REMARK SMILES C=C(C)[C@H]1CC[C@H](C)[C@]12CC=C(C)CC2
REMARK SMILES IDX 8 1 7 2 6 3 5 4 4 5 9 6 15 7 14 8 12 9 11 10 10 11 13 12
REMARK SMILES IDX 2 13 1 14 3 15
REMARK H PARENT
REMARK Flexibility Score: inf
ROOT
ATOM      1  C   UNL     1     143.195 137.325 131.761  1.00  0.00     0.008 C 
ATOM      2  C   UNL     1     142.102 138.240 132.360  1.00  0.00    -0.007 C 
ATOM      3  C   UNL     1     140.983 137.374 132.967  1.00  0.00     0.004 C 
ATOM      4  C   UNL     1     141.144 137.429 134.488  1.00  0.00     0.009 C 
ATOM      5  C   UNL     1     142.435 138.214 134.754  1.00  0.00     0.021 C 
ATOM      6  C   UNL     1     142.576 139.168 133.530  1.00  0.00    -0.017 C 
ATOM      7  C   UNL     1     141.576 140.394 133.641  1.00  0.00     0.012 C 
ATOM      8  C   UNL     1     142.188 141.727 133.187  1.00  0.00     0.031 C 
ATOM      9  C   UNL     1     143.469 141.960 133.947  1.00  0.00    -0.077 C 
ATOM     10  C   UNL     1     144.345 140.949 134.035  1.00  0.00    -0.027 C 
ATOM     11  C   UNL     1     144.055 139.654 133.323  1.00  0.00     0.035 C 
ATOM     12  C   UNL     1     143.729 143.254 134.667  1.00  0.00     0.039 C 
ENDROOT
BRANCH   5  13
ATOM     13  C   UNL     1     142.534 138.855 136.146  1.00  0.00    -0.077 C 
ATOM     14  C   UNL     1     143.691 138.770 136.825  1.00  0.00     0.008 C 
ATOM     15  C   UNL     1     141.320 139.405 136.864  1.00  0.00     0.039 C 
ENDBRANCH   5  13
TORSDOF 1
ENDMDL
MODEL 9
REMARK VINA RESULT:    -4.923      2.848      5.876
REMARK INTER + INTRA:          -5.585
REMARK INTER:                  -5.195
REMARK INTRA:                  -0.391
REMARK UNBOUND:                -0.375
REMARK SMILES C=C(C)[C@H]1CC[C@H](C)[C@]12CC=C(C)CC2
REMARK SMILES IDX 8 1 7 2 6 3 5 4 4 5 9 6 15 7 14 8 12 9 11 10 10 11 13 12
REMARK SMILES IDX 2 13 1 14 3 15
REMARK H PARENT
REMARK Flexibility Score: inf
ROOT
ATOM      1  C   UNL     1     144.678 143.145 131.970  1.00  0.00     0.008 C 
ATOM      2  C   UNL     1     143.568 142.150 132.382  1.00  0.00    -0.007 C 
ATOM      3  C   UNL     1     143.938 140.736 131.896  1.00  0.00     0.004 C 
ATOM      4  C   UNL     1     144.396 139.944 133.121  1.00  0.00     0.009 C 
ATOM      5  C   UNL     1     144.420 140.937 134.291  1.00  0.00     0.021 C 
ATOM      6  C   UNL     1     143.343 142.002 133.924  1.00  0.00    -0.017 C 
ATOM      7  C   UNL     1     141.879 141.446 134.172  1.00  0.00     0.012 C 
ATOM      8  C   UNL     1     140.922 142.483 134.777  1.00  0.00     0.031 C 
ATOM      9  C   UNL     1     141.543 143.046 136.031  1.00  0.00    -0.077 C 
ATOM     10  C   UNL     1     142.825 143.434 135.983  1.00  0.00    -0.027 C 
ATOM     11  C   UNL     1     143.572 143.361 134.677  1.00  0.00     0.035 C 
ATOM     12  C   UNL     1     140.785 143.091 137.329  1.00  0.00     0.039 C 
ENDROOT
BRANCH   5  13
ATOM     13  C   UNL     1     144.322 140.305 135.686  1.00  0.00    -0.077 C 
ATOM     14  C   UNL     1     145.133 140.746 136.664  1.00  0.00     0.008 C 
ATOM     15  C   UNL     1     143.486 139.071 135.951  1.00  0.00     0.039 C 
ENDBRANCH   5  13
TORSDOF 1
ENDMDL
