MODEL 1
REMARK VINA RESULT:    -2.291      0.000      0.000
REMARK INTER + INTRA:          -2.969
REMARK INTER:                  -2.760
REMARK INTRA:                  -0.209
REMARK UNBOUND:                -0.209
REMARK SMILES C=CCc1ccc(O)c(OC)c1
REMARK SMILES IDX 9 1 7 2 6 3 5 4 4 5 12 6 10 7 11 8 8 9 3 11 2 12 1 13
REMARK H PARENT 8 10
REMARK Flexibility Score: inf
ROOT
ATOM      1  C   UNL     1     126.604 112.710 136.420  1.00  0.00     0.160 A 
ATOM      2  C   UNL     1     126.100 112.066 137.564  1.00  0.00     0.157 A 
ATOM      3  C   UNL     1     125.831 110.694 137.534  1.00  0.00     0.050 A 
ATOM      4  C   UNL     1     126.056 109.955 136.373  1.00  0.00     0.008 A 
ATOM      5  C   UNL     1     126.547 110.581 135.220  1.00  0.00    -0.040 A 
ATOM      6  C   UNL     1     126.829 111.958 135.249  1.00  0.00     0.054 A 
ENDROOT
BRANCH   1   7
ATOM      7  O   UNL     1     126.872 114.088 136.479  1.00  0.00    -0.493 OA
ATOM      8  C   UNL     1     127.125 114.911 135.346  1.00  0.00     0.278 C 
ENDBRANCH   1   7
BRANCH   2   9
ATOM      9  O   UNL     1     125.862 112.774 138.743  1.00  0.00    -0.504 OA
ATOM     10  H   UNL     1     126.576 112.899 139.451  1.00  0.00     0.293 HD
ENDBRANCH   2   9
BRANCH   5  11
ATOM     11  C   UNL     1     126.817 109.774 133.977  1.00  0.00     0.062 C 
BRANCH  11  12
ATOM     12  C   UNL     1     126.630 108.307 134.245  1.00  0.00    -0.030 C 
ATOM     13  C   UNL     1     127.124 107.374 133.426  1.00  0.00     0.004 C 
ENDBRANCH  11  12
ENDBRANCH   5  11
TORSDOF 4
ENDMDL
MODEL 2
REMARK VINA RESULT:    -2.236      2.144      3.159
REMARK INTER + INTRA:          -2.903
REMARK INTER:                  -2.655
REMARK INTRA:                  -0.248
REMARK UNBOUND:                -0.209
REMARK SMILES C=CCc1ccc(O)c(OC)c1
REMARK SMILES IDX 9 1 7 2 6 3 5 4 4 5 12 6 10 7 11 8 8 9 3 11 2 12 1 13
REMARK H PARENT 8 10
REMARK Flexibility Score: inf
ROOT
ATOM      1  C   UNL     1     125.832 109.873 136.691  1.00  0.00     0.160 A 
ATOM      2  C   UNL     1     125.618 108.500 136.910  1.00  0.00     0.157 A 
ATOM      3  C   UNL     1     125.888 107.579 135.893  1.00  0.00     0.050 A 
ATOM      4  C   UNL     1     126.368 108.012 134.656  1.00  0.00     0.008 A 
ATOM      5  C   UNL     1     126.576 109.376 134.416  1.00  0.00    -0.040 A 
ATOM      6  C   UNL     1     126.315 110.304 135.439  1.00  0.00     0.054 A 
ENDROOT
BRANCH   1   7
ATOM      7  O   UNL     1     125.558 110.775 137.732  1.00  0.00    -0.493 OA
ATOM      8  C   UNL     1     126.545 111.534 138.423  1.00  0.00     0.278 C 
ENDBRANCH   1   7
BRANCH   2   9
ATOM      9  O   UNL     1     125.140 108.031 138.133  1.00  0.00    -0.504 OA
ATOM     10  H   UNL     1     124.152 107.890 138.309  1.00  0.00     0.293 HD
ENDBRANCH   2   9
BRANCH   5  11
ATOM     11  C   UNL     1     127.122 109.837 133.091  1.00  0.00     0.062 C 
BRANCH  11  12
ATOM     12  C   UNL     1     127.125 108.710 132.096  1.00  0.00    -0.030 C 
ATOM     13  C   UNL     1     126.436 108.779 130.953  1.00  0.00     0.004 C 
ENDBRANCH  11  12
ENDBRANCH   5  11
TORSDOF 4
ENDMDL
MODEL 3
REMARK VINA RESULT:    -2.233      2.075      3.541
REMARK INTER + INTRA:          -2.899
REMARK INTER:                  -2.689
REMARK INTRA:                  -0.210
REMARK UNBOUND:                -0.209
REMARK SMILES C=CCc1ccc(O)c(OC)c1
REMARK SMILES IDX 9 1 7 2 6 3 5 4 4 5 12 6 10 7 11 8 8 9 3 11 2 12 1 13
REMARK H PARENT 8 10
REMARK Flexibility Score: inf
ROOT
ATOM      1  C   UNL     1     126.088 111.241 134.893  1.00  0.00     0.160 A 
ATOM      2  C   UNL     1     126.772 111.024 133.684  1.00  0.00     0.157 A 
ATOM      3  C   UNL     1     127.122 109.725 133.300  1.00  0.00     0.050 A 
ATOM      4  C   UNL     1     126.798 108.637 134.112  1.00  0.00     0.008 A 
ATOM      5  C   UNL     1     126.126 108.836 135.326  1.00  0.00    -0.040 A 
ATOM      6  C   UNL     1     125.764 110.138 135.710  1.00  0.00     0.054 A 
ENDROOT
BRANCH   1   7
ATOM      7  O   UNL     1     125.744 112.555 135.251  1.00  0.00    -0.493 OA
ATOM      8  C   UNL     1     126.465 113.354 136.182  1.00  0.00     0.278 C 
ENDBRANCH   1   7
BRANCH   2   9
ATOM      9  O   UNL     1     127.113 112.087 132.847  1.00  0.00    -0.504 OA
ATOM     10  H   UNL     1     128.070 112.398 132.732  1.00  0.00     0.293 HD
ENDBRANCH   2   9
BRANCH   5  11
ATOM     11  C   UNL     1     125.752 107.656 136.184  1.00  0.00     0.062 C 
BRANCH  11  12
ATOM     12  C   UNL     1     126.017 107.948 137.635  1.00  0.00    -0.030 C 
ATOM     13  C   UNL     1     126.644 107.073 138.425  1.00  0.00     0.004 C 
ENDBRANCH  11  12
ENDBRANCH   5  11
TORSDOF 4
ENDMDL
MODEL 4
REMARK VINA RESULT:    -2.229      1.785      3.341
REMARK INTER + INTRA:          -2.894
REMARK INTER:                  -2.630
REMARK INTRA:                  -0.264
REMARK UNBOUND:                -0.209
REMARK SMILES C=CCc1ccc(O)c(OC)c1
REMARK SMILES IDX 9 1 7 2 6 3 5 4 4 5 12 6 10 7 11 8 8 9 3 11 2 12 1 13
REMARK H PARENT 8 10
REMARK Flexibility Score: inf
ROOT
ATOM      1  C   UNL     1     125.974 110.074 136.036  1.00  0.00     0.160 A 
ATOM      2  C   UNL     1     126.369 111.247 135.367  1.00  0.00     0.157 A 
ATOM      3  C   UNL     1     126.940 111.168 134.093  1.00  0.00     0.050 A 
ATOM      4  C   UNL     1     127.124 109.929 133.476  1.00  0.00     0.008 A 
ATOM      5  C   UNL     1     126.747 108.750 134.132  1.00  0.00    -0.040 A 
ATOM      6  C   UNL     1     126.164 108.826 135.408  1.00  0.00     0.054 A 
ENDROOT
BRANCH   1   7
ATOM      7  O   UNL     1     125.398 110.183 137.312  1.00  0.00    -0.493 OA
ATOM      8  C   UNL     1     125.922 109.578 138.489  1.00  0.00     0.278 C 
ENDBRANCH   1   7
BRANCH   2   9
ATOM      9  O   UNL     1     126.201 112.502 135.953  1.00  0.00    -0.504 OA
ATOM     10  H   UNL     1     125.744 112.623 136.849  1.00  0.00     0.293 HD
ENDBRANCH   2   9
BRANCH   5  11
ATOM     11  C   UNL     1     126.919 107.418 133.451  1.00  0.00     0.062 C 
BRANCH  11  12
ATOM     12  C   UNL     1     125.593 106.875 132.999  1.00  0.00    -0.030 C 
ATOM     13  C   UNL     1     125.041 107.243 131.840  1.00  0.00     0.004 C 
ENDBRANCH  11  12
ENDBRANCH   5  11
TORSDOF 4
ENDMDL
MODEL 5
REMARK VINA RESULT:    -2.229      1.930      3.538
REMARK INTER + INTRA:          -2.894
REMARK INTER:                  -2.699
REMARK INTRA:                  -0.195
REMARK UNBOUND:                -0.209
REMARK SMILES C=CCc1ccc(O)c(OC)c1
REMARK SMILES IDX 9 1 7 2 6 3 5 4 4 5 12 6 10 7 11 8 8 9 3 11 2 12 1 13
REMARK H PARENT 8 10
REMARK Flexibility Score: inf
ROOT
ATOM      1  C   UNL     1     125.564 109.198 137.127  1.00  0.00     0.160 A 
ATOM      2  C   UNL     1     125.620 110.580 137.382  1.00  0.00     0.157 A 
ATOM      3  C   UNL     1     126.057 111.459 136.387  1.00  0.00     0.050 A 
ATOM      4  C   UNL     1     126.444 110.975 135.136  1.00  0.00     0.008 A 
ATOM      5  C   UNL     1     126.406 109.601 134.868  1.00  0.00    -0.040 A 
ATOM      6  C   UNL     1     125.957 108.715 135.862  1.00  0.00     0.054 A 
ENDROOT
BRANCH   1   7
ATOM      7  O   UNL     1     125.114 108.338 138.142  1.00  0.00    -0.493 OA
ATOM      8  C   UNL     1     125.874 107.265 138.687  1.00  0.00     0.278 C 
ENDBRANCH   1   7
BRANCH   2   9
ATOM      9  O   UNL     1     125.241 111.100 138.620  1.00  0.00    -0.504 OA
ATOM     10  H   UNL     1     125.081 112.090 138.765  1.00  0.00     0.293 HD
ENDBRANCH   2   9
BRANCH   5  11
ATOM     11  C   UNL     1     126.796 109.086 133.507  1.00  0.00     0.062 C 
BRANCH  11  12
ATOM     12  C   UNL     1     126.922 107.588 133.521  1.00  0.00    -0.030 C 
ATOM     13  C   UNL     1     127.125 106.889 132.401  1.00  0.00     0.004 C 
ENDBRANCH  11  12
ENDBRANCH   5  11
TORSDOF 4
ENDMDL
MODEL 6
REMARK VINA RESULT:    -2.106      1.245      2.768
REMARK INTER + INTRA:          -2.746
REMARK INTER:                  -2.538
REMARK INTRA:                  -0.209
REMARK UNBOUND:                -0.209
REMARK SMILES C=CCc1ccc(O)c(OC)c1
REMARK SMILES IDX 9 1 7 2 6 3 5 4 4 5 12 6 10 7 11 8 8 9 3 11 2 12 1 13
REMARK H PARENT 8 10
REMARK Flexibility Score: inf
ROOT
ATOM      1  C   UNL     1     126.368 111.860 135.818  1.00  0.00     0.160 A 
ATOM      2  C   UNL     1     126.746 112.782 134.825  1.00  0.00     0.157 A 
ATOM      3  C   UNL     1     127.120 112.331 133.556  1.00  0.00     0.050 A 
ATOM      4  C   UNL     1     127.125 110.966 133.264  1.00  0.00     0.008 A 
ATOM      5  C   UNL     1     126.762 110.032 134.243  1.00  0.00    -0.040 A 
ATOM      6  C   UNL     1     126.375 110.482 135.517  1.00  0.00     0.054 A 
ENDROOT
BRANCH   1   7
ATOM      7  O   UNL     1     125.990 112.341 137.082  1.00  0.00    -0.493 OA
ATOM      8  C   UNL     1     126.616 111.974 138.307  1.00  0.00     0.278 C 
ENDBRANCH   1   7
BRANCH   2   9
ATOM      9  O   UNL     1     126.754 114.153 135.082  1.00  0.00    -0.504 OA
ATOM     10  H   UNL     1     126.965 114.836 134.363  1.00  0.00     0.293 HD
ENDBRANCH   2   9
BRANCH   5  11
ATOM     11  C   UNL     1     126.739 108.563 133.915  1.00  0.00     0.062 C 
BRANCH  11  12
ATOM     12  C   UNL     1     126.077 107.781 135.016  1.00  0.00    -0.030 C 
ATOM     13  C   UNL     1     125.130 106.875 134.763  1.00  0.00     0.004 C 
ENDBRANCH  11  12
ENDBRANCH   5  11
TORSDOF 4
ENDMDL
MODEL 7
REMARK VINA RESULT:    -2.061      1.210      1.633
REMARK INTER + INTRA:          -2.692
REMARK INTER:                  -2.506
REMARK INTRA:                  -0.187
REMARK UNBOUND:                -0.209
REMARK SMILES C=CCc1ccc(O)c(OC)c1
REMARK SMILES IDX 9 1 7 2 6 3 5 4 4 5 12 6 10 7 11 8 8 9 3 11 2 12 1 13
REMARK H PARENT 8 10
REMARK Flexibility Score: inf
ROOT
ATOM      1  C   UNL     1     125.944 111.451 136.847  1.00  0.00     0.160 A 
ATOM      2  C   UNL     1     126.038 111.241 138.235  1.00  0.00     0.157 A 
ATOM      3  C   UNL     1     126.102 109.940 138.744  1.00  0.00     0.050 A 
ATOM      4  C   UNL     1     126.069 108.842 137.883  1.00  0.00     0.008 A 
ATOM      5  C   UNL     1     125.964 109.031 136.499  1.00  0.00    -0.040 A 
ATOM      6  C   UNL     1     125.910 110.337 135.983  1.00  0.00     0.054 A 
ENDROOT
BRANCH   1   7
ATOM      7  O   UNL     1     125.888 112.768 136.363  1.00  0.00    -0.493 OA
ATOM      8  C   UNL     1     126.047 113.133 134.996  1.00  0.00     0.278 C 
ENDBRANCH   1   7
BRANCH   2   9
ATOM      9  O   UNL     1     126.073 112.315 139.125  1.00  0.00    -0.504 OA
ATOM     10  H   UNL     1     126.376 112.210 140.086  1.00  0.00     0.293 HD
ENDBRANCH   2   9
BRANCH   5  11
ATOM     11  C   UNL     1     125.960 107.844 135.572  1.00  0.00     0.062 C 
BRANCH  11  12
ATOM     12  C   UNL     1     126.423 108.240 134.198  1.00  0.00    -0.030 C 
ATOM     13  C   UNL     1     127.092 107.393 133.411  1.00  0.00     0.004 C 
ENDBRANCH  11  12
ENDBRANCH   5  11
TORSDOF 4
ENDMDL
MODEL 8
REMARK VINA RESULT:    -2.061      2.819      4.959
REMARK INTER + INTRA:          -2.692
REMARK INTER:                  -2.449
REMARK INTRA:                  -0.243
REMARK UNBOUND:                -0.209
REMARK SMILES C=CCc1ccc(O)c(OC)c1
REMARK SMILES IDX 9 1 7 2 6 3 5 4 4 5 12 6 10 7 11 8 8 9 3 11 2 12 1 13
REMARK H PARENT 8 10
REMARK Flexibility Score: inf
ROOT
ATOM      1  C   UNL     1     125.938 109.040 135.743  1.00  0.00     0.160 A 
ATOM      2  C   UNL     1     126.292 108.253 134.632  1.00  0.00     0.157 A 
ATOM      3  C   UNL     1     126.883 108.848 133.513  1.00  0.00     0.050 A 
ATOM      4  C   UNL     1     127.123 110.222 133.487  1.00  0.00     0.008 A 
ATOM      5  C   UNL     1     126.766 111.023 134.580  1.00  0.00    -0.040 A 
ATOM      6  C   UNL     1     126.182 110.428 135.710  1.00  0.00     0.054 A 
ENDROOT
BRANCH   1   7
ATOM      7  O   UNL     1     125.352 108.415 136.856  1.00  0.00    -0.493 OA
ATOM      8  C   UNL     1     126.064 107.992 138.014  1.00  0.00     0.278 C 
ENDBRANCH   1   7
BRANCH   2   9
ATOM      9  O   UNL     1     126.067 106.876 134.623  1.00  0.00    -0.504 OA
ATOM     10  H   UNL     1     126.276 106.289 135.422  1.00  0.00     0.293 HD
ENDBRANCH   2   9
BRANCH   5  11
ATOM     11  C   UNL     1     127.054 112.501 134.560  1.00  0.00     0.062 C 
BRANCH  11  12
ATOM     12  C   UNL     1     125.882 113.279 135.088  1.00  0.00    -0.030 C 
ATOM     13  C   UNL     1     125.003 113.866 134.272  1.00  0.00     0.004 C 
ENDBRANCH  11  12
ENDBRANCH   5  11
TORSDOF 4
ENDMDL
MODEL 9
REMARK VINA RESULT:    -1.246      1.595      2.158
REMARK INTER + INTRA:          -1.711
REMARK INTER:                  -1.531
REMARK INTRA:                  -0.180
REMARK UNBOUND:                -0.209
REMARK SMILES C=CCc1ccc(O)c(OC)c1
REMARK SMILES IDX 9 1 7 2 6 3 5 4 4 5 12 6 10 7 11 8 8 9 3 11 2 12 1 13
REMARK H PARENT 8 10
REMARK Flexibility Score: inf
ROOT
ATOM      1  C   UNL     1     126.416 111.028 135.446  1.00  0.00     0.160 A 
ATOM      2  C   UNL     1     125.867 110.311 136.525  1.00  0.00     0.157 A 
ATOM      3  C   UNL     1     125.727 108.922 136.444  1.00  0.00     0.050 A 
ATOM      4  C   UNL     1     126.127 108.237 135.296  1.00  0.00     0.008 A 
ATOM      5  C   UNL     1     126.665 108.935 134.207  1.00  0.00    -0.040 A 
ATOM      6  C   UNL     1     126.817 110.330 134.288  1.00  0.00     0.054 A 
ENDROOT
BRANCH   1   7
ATOM      7  O   UNL     1     126.551 112.422 135.556  1.00  0.00    -0.493 OA
ATOM      8  C   UNL     1     126.971 113.279 134.500  1.00  0.00     0.278 C 
ENDBRANCH   1   7
BRANCH   2   9
ATOM      9  O   UNL     1     125.456 110.963 137.688  1.00  0.00    -0.504 OA
ATOM     10  H   UNL     1     125.652 111.943 137.856  1.00  0.00     0.293 HD
ENDBRANCH   2   9
BRANCH   5  11
ATOM     11  C   UNL     1     127.123 108.189 132.982  1.00  0.00     0.062 C 
BRANCH  11  12
ATOM     12  C   UNL     1     127.125 109.090 131.779  1.00  0.00    -0.030 C 
ATOM     13  C   UNL     1     127.066 108.604 130.537  1.00  0.00     0.004 C 
ENDBRANCH  11  12
ENDBRANCH   5  11
TORSDOF 4
ENDMDL
