MODEL 1
REMARK VINA RESULT:    -6.269      0.000      0.000
REMARK INTER + INTRA:          -7.683
REMARK INTER:                  -7.369
REMARK INTRA:                  -0.314
REMARK UNBOUND:                -0.314
REMARK SMILES O=c1c(O)c(-c2ccc(O)c(O)c2)oc2cc(O)ccc12
REMARK SMILES IDX 5 1 3 2 2 3 1 4 21 5 15 6 14 7 16 8 17 9 19 10 20 11 6 12
REMARK SMILES IDX 7 13 8 14 9 15 13 16 11 17 10 18 12 20 4 22 18 24
REMARK H PARENT 10 19 12 21 4 23 18 25
REMARK Flexibility Score: inf
ROOT
ATOM      1  C   UNL     1      32.291 -65.309  -6.612  1.00  0.00     0.180 A 
ATOM      2  C   UNL     1      31.210 -65.469  -5.719  1.00  0.00     0.208 A 
ATOM      3  C   UNL     1      30.649 -66.744  -5.556  1.00  0.00     0.235 A 
ATOM      4  O   UNL     1      29.675 -66.909  -4.772  1.00  0.00    -0.285 OA
ATOM      5  C   UNL     1      31.185 -67.829  -6.267  1.00  0.00     0.069 A 
ATOM      6  C   UNL     1      32.282 -67.592  -7.124  1.00  0.00     0.142 A 
ATOM      7  O   UNL     1      32.779 -66.368  -7.256  1.00  0.00    -0.452 OA
ATOM      8  C   UNL     1      32.851 -68.651  -7.842  1.00  0.00     0.094 A 
ATOM      9  C   UNL     1      32.337 -69.945  -7.717  1.00  0.00     0.119 A 
ATOM     10  C   UNL     1      31.246 -70.184  -6.869  1.00  0.00     0.047 A 
ATOM     11  C   UNL     1      30.672 -69.134  -6.147  1.00  0.00     0.020 A 
ENDROOT
BRANCH   1  12
ATOM     12  C   UNL     1      32.925 -63.993  -6.853  1.00  0.00     0.025 A 
ATOM     13  C   UNL     1      33.956 -63.514  -6.025  1.00  0.00     0.016 A 
ATOM     14  C   UNL     1      34.522 -62.258  -6.258  1.00  0.00     0.051 A 
ATOM     15  C   UNL     1      34.060 -61.459  -7.312  1.00  0.00     0.157 A 
ATOM     16  C   UNL     1      32.451 -63.179  -7.895  1.00  0.00     0.062 A 
ATOM     17  C   UNL     1      33.021 -61.919  -8.131  1.00  0.00     0.158 A 
BRANCH  15  18
ATOM     18  O   UNL     1      34.624 -60.208  -7.549  1.00  0.00    -0.504 OA
ATOM     19  H   UNL     1      34.105 -59.352  -7.389  1.00  0.00     0.293 HD
ENDBRANCH  15  18
BRANCH  17  20
ATOM     20  O   UNL     1      32.558 -61.119  -9.173  1.00  0.00    -0.504 OA
ATOM     21  H   UNL     1      31.664 -61.294  -9.619  1.00  0.00     0.293 HD
ENDBRANCH  17  20
ENDBRANCH   1  12
BRANCH   2  22
ATOM     22  O   UNL     1      30.730 -64.379  -4.988  1.00  0.00    -0.502 OA
ATOM     23  H   UNL     1      30.490 -63.497  -5.424  1.00  0.00     0.293 HD
ENDBRANCH   2  22
BRANCH   9  24
ATOM     24  O   UNL     1      32.915 -70.986  -8.439  1.00  0.00    -0.508 OA
ATOM     25  H   UNL     1      32.784 -71.073  -9.440  1.00  0.00     0.293 HD
ENDBRANCH   9  24
TORSDOF 5
ENDMDL
MODEL 2
REMARK VINA RESULT:    -5.859      2.749      4.028
REMARK INTER + INTRA:          -7.201
REMARK INTER:                  -6.877
REMARK INTRA:                  -0.324
REMARK UNBOUND:                -0.314
REMARK SMILES O=c1c(O)c(-c2ccc(O)c(O)c2)oc2cc(O)ccc12
REMARK SMILES IDX 5 1 3 2 2 3 1 4 21 5 15 6 14 7 16 8 17 9 19 10 20 11 6 12
REMARK SMILES IDX 7 13 8 14 9 15 13 16 11 17 10 18 12 20 4 22 18 24
REMARK H PARENT 10 19 12 21 4 23 18 25
REMARK Flexibility Score: inf
ROOT
ATOM      1  C   UNL     1      32.846 -67.229  -6.568  1.00  0.00     0.180 A 
ATOM      2  C   UNL     1      32.417 -68.308  -7.369  1.00  0.00     0.208 A 
ATOM      3  C   UNL     1      32.959 -69.581  -7.135  1.00  0.00     0.235 A 
ATOM      4  O   UNL     1      32.600 -70.560  -7.845  1.00  0.00    -0.285 OA
ATOM      5  C   UNL     1      33.896 -69.753  -6.104  1.00  0.00     0.069 A 
ATOM      6  C   UNL     1      34.256 -68.628  -5.332  1.00  0.00     0.142 A 
ATOM      7  O   UNL     1      33.725 -67.438  -5.591  1.00  0.00    -0.452 OA
ATOM      8  C   UNL     1      35.178 -68.761  -4.288  1.00  0.00     0.094 A 
ATOM      9  C   UNL     1      35.749 -70.005  -4.005  1.00  0.00     0.119 A 
ATOM     10  C   UNL     1      35.396 -71.125  -4.771  1.00  0.00     0.047 A 
ATOM     11  C   UNL     1      34.475 -71.003  -5.815  1.00  0.00     0.020 A 
ENDROOT
BRANCH   1  12
ATOM     12  C   UNL     1      32.335 -65.853  -6.765  1.00  0.00     0.025 A 
ATOM     13  C   UNL     1      32.961 -64.958  -7.651  1.00  0.00     0.016 A 
ATOM     14  C   UNL     1      32.475 -63.657  -7.802  1.00  0.00     0.051 A 
ATOM     15  C   UNL     1      31.367 -63.227  -7.062  1.00  0.00     0.157 A 
ATOM     16  C   UNL     1      31.237 -65.410  -6.010  1.00  0.00     0.062 A 
ATOM     17  C   UNL     1      30.747 -64.104  -6.162  1.00  0.00     0.158 A 
BRANCH  15  18
ATOM     18  O   UNL     1      30.878 -61.931  -7.212  1.00  0.00    -0.504 OA
ATOM     19  H   UNL     1      30.490 -61.416  -6.430  1.00  0.00     0.293 HD
ENDBRANCH  15  18
BRANCH  17  20
ATOM     20  O   UNL     1      29.649 -63.671  -5.422  1.00  0.00    -0.504 OA
ATOM     21  H   UNL     1      29.764 -63.152  -4.558  1.00  0.00     0.293 HD
ENDBRANCH  17  20
ENDBRANCH   1  12
BRANCH   2  22
ATOM     22  O   UNL     1      31.447 -68.116  -8.356  1.00  0.00    -0.502 OA
ATOM     23  H   UNL     1      30.529 -68.540  -8.304  1.00  0.00     0.293 HD
ENDBRANCH   2  22
BRANCH   9  24
ATOM     24  O   UNL     1      36.666 -70.120  -2.963  1.00  0.00    -0.508 OA
ATOM     25  H   UNL     1      37.417 -69.451  -2.842  1.00  0.00     0.293 HD
ENDBRANCH   9  24
TORSDOF 5
ENDMDL
MODEL 3
REMARK VINA RESULT:    -5.858      0.611      1.470
REMARK INTER + INTRA:          -7.200
REMARK INTER:                  -6.888
REMARK INTRA:                  -0.312
REMARK UNBOUND:                -0.314
REMARK SMILES O=c1c(O)c(-c2ccc(O)c(O)c2)oc2cc(O)ccc12
REMARK SMILES IDX 5 1 3 2 2 3 1 4 21 5 15 6 14 7 16 8 17 9 19 10 20 11 6 12
REMARK SMILES IDX 7 13 8 14 9 15 13 16 11 17 10 18 12 20 4 22 18 24
REMARK H PARENT 10 19 12 21 4 23 18 25
REMARK Flexibility Score: inf
ROOT
ATOM      1  C   UNL     1      32.200 -65.287  -6.583  1.00  0.00     0.180 A 
ATOM      2  C   UNL     1      31.141 -65.453  -5.665  1.00  0.00     0.208 A 
ATOM      3  C   UNL     1      30.619 -66.738  -5.459  1.00  0.00     0.235 A 
ATOM      4  O   UNL     1      29.665 -66.910  -4.652  1.00  0.00    -0.285 OA
ATOM      5  C   UNL     1      31.171 -67.827  -6.153  1.00  0.00     0.069 A 
ATOM      6  C   UNL     1      32.245 -67.582  -7.037  1.00  0.00     0.142 A 
ATOM      7  O   UNL     1      32.705 -66.348  -7.209  1.00  0.00    -0.452 OA
ATOM      8  C   UNL     1      32.830 -68.642  -7.738  1.00  0.00     0.094 A 
ATOM      9  C   UNL     1      32.354 -69.947  -7.571  1.00  0.00     0.119 A 
ATOM     10  C   UNL     1      31.287 -70.193  -6.697  1.00  0.00     0.047 A 
ATOM     11  C   UNL     1      30.697 -69.142  -5.990  1.00  0.00     0.020 A 
ENDROOT
BRANCH   1  12
ATOM     12  C   UNL     1      32.792 -63.961  -6.868  1.00  0.00     0.025 A 
ATOM     13  C   UNL     1      32.189 -63.068  -7.772  1.00  0.00     0.016 A 
ATOM     14  C   UNL     1      32.780 -61.831  -8.044  1.00  0.00     0.051 A 
ATOM     15  C   UNL     1      33.986 -61.474  -7.427  1.00  0.00     0.157 A 
ATOM     16  C   UNL     1      34.012 -63.606  -6.269  1.00  0.00     0.062 A 
ATOM     17  C   UNL     1      34.605 -62.364  -6.540  1.00  0.00     0.158 A 
BRANCH  15  18
ATOM     18  O   UNL     1      34.576 -60.240  -7.694  1.00  0.00    -0.504 OA
ATOM     19  H   UNL     1      34.025 -59.395  -7.776  1.00  0.00     0.293 HD
ENDBRANCH  15  18
BRANCH  17  20
ATOM     20  O   UNL     1      35.808 -62.009  -5.935  1.00  0.00    -0.504 OA
ATOM     21  H   UNL     1      36.559 -61.575  -6.461  1.00  0.00     0.293 HD
ENDBRANCH  17  20
ENDBRANCH   1  12
BRANCH   2  22
ATOM     22  O   UNL     1      30.644 -64.358  -4.953  1.00  0.00    -0.502 OA
ATOM     23  H   UNL     1      31.040 -63.431  -5.038  1.00  0.00     0.293 HD
ENDBRANCH   2  22
BRANCH   9  24
ATOM     24  O   UNL     1      32.948 -70.990  -8.278  1.00  0.00    -0.508 OA
ATOM     25  H   UNL     1      32.888 -71.047  -9.288  1.00  0.00     0.293 HD
ENDBRANCH   9  24
TORSDOF 5
ENDMDL
MODEL 4
REMARK VINA RESULT:    -5.779      9.193     12.407
REMARK INTER + INTRA:          -7.107
REMARK INTER:                  -6.964
REMARK INTRA:                  -0.143
REMARK UNBOUND:                -0.314
REMARK SMILES O=c1c(O)c(-c2ccc(O)c(O)c2)oc2cc(O)ccc12
REMARK SMILES IDX 5 1 3 2 2 3 1 4 21 5 15 6 14 7 16 8 17 9 19 10 20 11 6 12
REMARK SMILES IDX 7 13 8 14 9 15 13 16 11 17 10 18 12 20 4 22 18 24
REMARK H PARENT 10 19 12 21 4 23 18 25
REMARK Flexibility Score: inf
ROOT
ATOM      1  C   UNL     1      30.843 -57.042 -12.855  1.00  0.00     0.180 A 
ATOM      2  C   UNL     1      31.777 -55.987 -12.900  1.00  0.00     0.208 A 
ATOM      3  C   UNL     1      31.412 -54.737 -12.378  1.00  0.00     0.235 A 
ATOM      4  O   UNL     1      32.227 -53.774 -12.417  1.00  0.00    -0.285 OA
ATOM      5  C   UNL     1      30.140 -54.572 -11.809  1.00  0.00     0.069 A 
ATOM      6  C   UNL     1      29.270 -55.683 -11.781  1.00  0.00     0.142 A 
ATOM      7  O   UNL     1      29.651 -56.848 -12.293  1.00  0.00    -0.452 OA
ATOM      8  C   UNL     1      27.997 -55.562 -11.212  1.00  0.00     0.094 A 
ATOM      9  C   UNL     1      27.578 -54.342 -10.671  1.00  0.00     0.119 A 
ATOM     10  C   UNL     1      28.438 -53.235 -10.700  1.00  0.00     0.047 A 
ATOM     11  C   UNL     1      29.712 -53.346 -11.264  1.00  0.00     0.020 A 
ENDROOT
BRANCH   1  12
ATOM     12  C   UNL     1      31.145 -58.385 -13.402  1.00  0.00     0.025 A 
ATOM     13  C   UNL     1      32.176 -59.178 -12.868  1.00  0.00     0.016 A 
ATOM     14  C   UNL     1      32.459 -60.432 -13.416  1.00  0.00     0.051 A 
ATOM     15  C   UNL     1      31.725 -60.905 -14.512  1.00  0.00     0.157 A 
ATOM     16  C   UNL     1      30.428 -58.855 -14.514  1.00  0.00     0.062 A 
ATOM     17  C   UNL     1      30.709 -60.114 -15.064  1.00  0.00     0.158 A 
BRANCH  15  18
ATOM     18  O   UNL     1      32.003 -62.155 -15.060  1.00  0.00    -0.504 OA
ATOM     19  H   UNL     1      32.357 -62.255 -16.004  1.00  0.00     0.293 HD
ENDBRANCH  15  18
BRANCH  17  20
ATOM     20  O   UNL     1      29.987 -60.584 -16.159  1.00  0.00    -0.504 OA
ATOM     21  H   UNL     1      30.327 -60.468 -17.107  1.00  0.00     0.293 HD
ENDBRANCH  17  20
ENDBRANCH   1  12
BRANCH   2  22
ATOM     22  O   UNL     1      33.054 -56.194 -13.429  1.00  0.00    -0.502 OA
ATOM     23  H   UNL     1      33.884 -56.212 -12.850  1.00  0.00     0.293 HD
ENDBRANCH   2  22
BRANCH   9  24
ATOM     24  O   UNL     1      26.308 -54.239 -10.110  1.00  0.00    -0.508 OA
ATOM     25  H   UNL     1      25.681 -53.482 -10.356  1.00  0.00     0.293 HD
ENDBRANCH   9  24
TORSDOF 5
ENDMDL
MODEL 5
REMARK VINA RESULT:    -5.710     10.537     13.782
REMARK INTER + INTRA:          -7.026
REMARK INTER:                  -6.900
REMARK INTRA:                  -0.125
REMARK UNBOUND:                -0.314
REMARK SMILES O=c1c(O)c(-c2ccc(O)c(O)c2)oc2cc(O)ccc12
REMARK SMILES IDX 5 1 3 2 2 3 1 4 21 5 15 6 14 7 16 8 17 9 19 10 20 11 6 12
REMARK SMILES IDX 7 13 8 14 9 15 13 16 11 17 10 18 12 20 4 22 18 24
REMARK H PARENT 10 19 12 21 4 23 18 25
REMARK Flexibility Score: inf
ROOT
ATOM      1  C   UNL     1      29.416 -53.309 -11.432  1.00  0.00     0.180 A 
ATOM      2  C   UNL     1      30.505 -52.524 -11.865  1.00  0.00     0.208 A 
ATOM      3  C   UNL     1      31.620 -53.163 -12.424  1.00  0.00     0.235 A 
ATOM      4  O   UNL     1      32.611 -52.483 -12.809  1.00  0.00    -0.285 OA
ATOM      5  C   UNL     1      31.621 -54.561 -12.557  1.00  0.00     0.069 A 
ATOM      6  C   UNL     1      30.483 -55.274 -12.121  1.00  0.00     0.142 A 
ATOM      7  O   UNL     1      29.450 -54.631 -11.590  1.00  0.00    -0.452 OA
ATOM      8  C   UNL     1      30.440 -56.667 -12.246  1.00  0.00     0.094 A 
ATOM      9  C   UNL     1      31.521 -57.360 -12.800  1.00  0.00     0.119 A 
ATOM     10  C   UNL     1      32.654 -56.656 -13.231  1.00  0.00     0.047 A 
ATOM     11  C   UNL     1      32.706 -55.264 -13.113  1.00  0.00     0.020 A 
ENDROOT
BRANCH   1  12
ATOM     12  C   UNL     1      28.210 -52.711 -10.815  1.00  0.00     0.025 A 
ATOM     13  C   UNL     1      28.294 -51.937  -9.644  1.00  0.00     0.016 A 
ATOM     14  C   UNL     1      27.140 -51.402  -9.066  1.00  0.00     0.051 A 
ATOM     15  C   UNL     1      25.886 -51.643  -9.642  1.00  0.00     0.157 A 
ATOM     16  C   UNL     1      26.949 -52.966 -11.376  1.00  0.00     0.062 A 
ATOM     17  C   UNL     1      25.789 -52.428 -10.798  1.00  0.00     0.158 A 
BRANCH  15  18
ATOM     18  O   UNL     1      24.733 -51.109  -9.070  1.00  0.00    -0.504 OA
ATOM     19  H   UNL     1      24.683 -50.889  -8.083  1.00  0.00     0.293 HD
ENDBRANCH  15  18
BRANCH  17  20
ATOM     20  O   UNL     1      24.539 -52.672 -11.364  1.00  0.00    -0.504 OA
ATOM     21  H   UNL     1      23.739 -52.088 -11.151  1.00  0.00     0.293 HD
ENDBRANCH  17  20
ENDBRANCH   1  12
BRANCH   2  22
ATOM     22  O   UNL     1      30.456 -51.130 -11.766  1.00  0.00    -0.502 OA
ATOM     23  H   UNL     1      30.668 -50.524 -12.547  1.00  0.00     0.293 HD
ENDBRANCH   2  22
BRANCH   9  24
ATOM     24  O   UNL     1      31.462 -58.747 -12.916  1.00  0.00    -0.508 OA
ATOM     25  H   UNL     1      32.300 -59.316 -12.900  1.00  0.00     0.293 HD
ENDBRANCH   9  24
TORSDOF 5
ENDMDL
MODEL 6
REMARK VINA RESULT:    -5.639      1.936      2.174
REMARK INTER + INTRA:          -6.943
REMARK INTER:                  -6.642
REMARK INTRA:                  -0.300
REMARK UNBOUND:                -0.314
REMARK SMILES O=c1c(O)c(-c2ccc(O)c(O)c2)oc2cc(O)ccc12
REMARK SMILES IDX 5 1 3 2 2 3 1 4 21 5 15 6 14 7 16 8 17 9 19 10 20 11 6 12
REMARK SMILES IDX 7 13 8 14 9 15 13 16 11 17 10 18 12 20 4 22 18 24
REMARK H PARENT 10 19 12 21 4 23 18 25
REMARK Flexibility Score: inf
ROOT
ATOM      1  C   UNL     1      32.716 -65.771  -6.248  1.00  0.00     0.180 A 
ATOM      2  C   UNL     1      33.220 -65.911  -4.938  1.00  0.00     0.208 A 
ATOM      3  C   UNL     1      32.944 -67.090  -4.230  1.00  0.00     0.235 A 
ATOM      4  O   UNL     1      33.374 -67.235  -3.053  1.00  0.00    -0.285 OA
ATOM      5  C   UNL     1      32.193 -68.105  -4.844  1.00  0.00     0.069 A 
ATOM      6  C   UNL     1      31.744 -67.898  -6.167  1.00  0.00     0.142 A 
ATOM      7  O   UNL     1      32.021 -66.763  -6.800  1.00  0.00    -0.452 OA
ATOM      8  C   UNL     1      31.003 -68.890  -6.818  1.00  0.00     0.094 A 
ATOM      9  C   UNL     1      30.700 -70.088  -6.164  1.00  0.00     0.119 A 
ATOM     10  C   UNL     1      31.141 -70.297  -4.850  1.00  0.00     0.047 A 
ATOM     11  C   UNL     1      31.884 -69.313  -4.191  1.00  0.00     0.020 A 
ENDROOT
BRANCH   1  12
ATOM     12  C   UNL     1      32.948 -64.550  -7.053  1.00  0.00     0.025 A 
ATOM     13  C   UNL     1      34.148 -64.355  -7.760  1.00  0.00     0.016 A 
ATOM     14  C   UNL     1      34.354 -63.183  -8.493  1.00  0.00     0.051 A 
ATOM     15  C   UNL     1      33.370 -62.186  -8.522  1.00  0.00     0.157 A 
ATOM     16  C   UNL     1      31.974 -63.538  -7.069  1.00  0.00     0.062 A 
ATOM     17  C   UNL     1      32.179 -62.362  -7.806  1.00  0.00     0.158 A 
BRANCH  15  18
ATOM     18  O   UNL     1      33.570 -61.019  -9.255  1.00  0.00    -0.504 OA
ATOM     19  H   UNL     1      34.441 -60.502  -9.203  1.00  0.00     0.293 HD
ENDBRANCH  15  18
BRANCH  17  20
ATOM     20  O   UNL     1      31.205 -61.366  -7.831  1.00  0.00    -0.504 OA
ATOM     21  H   UNL     1      30.531 -61.266  -7.081  1.00  0.00     0.293 HD
ENDBRANCH  17  20
ENDBRANCH   1  12
BRANCH   2  22
ATOM     22  O   UNL     1      34.005 -64.905  -4.370  1.00  0.00    -0.502 OA
ATOM     23  H   UNL     1      33.690 -64.351  -3.584  1.00  0.00     0.293 HD
ENDBRANCH   2  22
BRANCH   9  24
ATOM     24  O   UNL     1      29.960 -71.064  -6.826  1.00  0.00    -0.508 OA
ATOM     25  H   UNL     1      29.795 -71.975  -6.414  1.00  0.00     0.293 HD
ENDBRANCH   9  24
TORSDOF 5
ENDMDL
MODEL 7
REMARK VINA RESULT:    -5.618     13.770     15.473
REMARK INTER + INTRA:          -6.918
REMARK INTER:                  -6.638
REMARK INTRA:                  -0.280
REMARK UNBOUND:                -0.314
REMARK SMILES O=c1c(O)c(-c2ccc(O)c(O)c2)oc2cc(O)ccc12
REMARK SMILES IDX 5 1 3 2 2 3 1 4 21 5 15 6 14 7 16 8 17 9 19 10 20 11 6 12
REMARK SMILES IDX 7 13 8 14 9 15 13 16 11 17 10 18 12 20 4 22 18 24
REMARK H PARENT 10 19 12 21 4 23 18 25
REMARK Flexibility Score: inf
ROOT
ATOM      1  C   UNL     1      30.550 -51.861 -11.144  1.00  0.00     0.180 A 
ATOM      2  C   UNL     1      31.359 -51.676 -10.003  1.00  0.00     0.208 A 
ATOM      3  C   UNL     1      32.750 -51.599 -10.164  1.00  0.00     0.235 A 
ATOM      4  O   UNL     1      33.495 -51.444  -9.158  1.00  0.00    -0.285 OA
ATOM      5  C   UNL     1      33.301 -51.688 -11.452  1.00  0.00     0.069 A 
ATOM      6  C   UNL     1      32.423 -51.850 -12.546  1.00  0.00     0.142 A 
ATOM      7  O   UNL     1      31.112 -51.926 -12.349  1.00  0.00    -0.452 OA
ATOM      8  C   UNL     1      32.933 -51.932 -13.847  1.00  0.00     0.094 A 
ATOM      9  C   UNL     1      34.311 -51.857 -14.071  1.00  0.00     0.119 A 
ATOM     10  C   UNL     1      35.186 -51.699 -12.987  1.00  0.00     0.047 A 
ATOM     11  C   UNL     1      34.687 -51.614 -11.684  1.00  0.00     0.020 A 
ENDROOT
BRANCH   1  12
ATOM     12  C   UNL     1      29.077 -51.972 -11.054  1.00  0.00     0.025 A 
ATOM     13  C   UNL     1      28.241 -50.875 -11.332  1.00  0.00     0.016 A 
ATOM     14  C   UNL     1      26.854 -50.997 -11.217  1.00  0.00     0.051 A 
ATOM     15  C   UNL     1      26.283 -52.210 -10.811  1.00  0.00     0.157 A 
ATOM     16  C   UNL     1      28.499 -53.179 -10.628  1.00  0.00     0.062 A 
ATOM     17  C   UNL     1      27.107 -53.303 -10.514  1.00  0.00     0.158 A 
BRANCH  15  18
ATOM     18  O   UNL     1      24.900 -52.335 -10.698  1.00  0.00    -0.504 OA
ATOM     19  H   UNL     1      24.273 -51.957 -11.399  1.00  0.00     0.293 HD
ENDBRANCH  15  18
BRANCH  17  20
ATOM     20  O   UNL     1      26.536 -54.506 -10.104  1.00  0.00    -0.504 OA
ATOM     21  H   UNL     1      26.586 -55.339 -10.679  1.00  0.00     0.293 HD
ENDBRANCH  17  20
ENDBRANCH   1  12
BRANCH   2  22
ATOM     22  O   UNL     1      30.779 -51.542  -8.738  1.00  0.00    -0.502 OA
ATOM     23  H   UNL     1      29.833 -51.842  -8.542  1.00  0.00     0.293 HD
ENDBRANCH   2  22
BRANCH   9  24
ATOM     24  O   UNL     1      34.801 -51.941 -15.372  1.00  0.00    -0.508 OA
ATOM     25  H   UNL     1      35.796 -51.978 -15.562  1.00  0.00     0.293 HD
ENDBRANCH   9  24
TORSDOF 5
ENDMDL
MODEL 8
REMARK VINA RESULT:    -5.615     10.332     13.138
REMARK INTER + INTRA:          -6.914
REMARK INTER:                  -7.022
REMARK INTRA:                   0.108
REMARK UNBOUND:                -0.314
REMARK SMILES O=c1c(O)c(-c2ccc(O)c(O)c2)oc2cc(O)ccc12
REMARK SMILES IDX 5 1 3 2 2 3 1 4 21 5 15 6 14 7 16 8 17 9 19 10 20 11 6 12
REMARK SMILES IDX 7 13 8 14 9 15 13 16 11 17 10 18 12 20 4 22 18 24
REMARK H PARENT 10 19 12 21 4 23 18 25
REMARK Flexibility Score: inf
ROOT
ATOM      1  C   UNL     1      29.551 -56.160 -12.485  1.00  0.00     0.180 A 
ATOM      2  C   UNL     1      28.369 -55.950 -11.744  1.00  0.00     0.208 A 
ATOM      3  C   UNL     1      28.229 -54.759 -11.017  1.00  0.00     0.235 A 
ATOM      4  O   UNL     1      27.186 -54.553 -10.338  1.00  0.00    -0.285 OA
ATOM      5  C   UNL     1      29.253 -53.800 -11.059  1.00  0.00     0.069 A 
ATOM      6  C   UNL     1      30.394 -54.074 -11.843  1.00  0.00     0.142 A 
ATOM      7  O   UNL     1      30.492 -55.218 -12.510  1.00  0.00    -0.452 OA
ATOM      8  C   UNL     1      31.432 -53.139 -11.920  1.00  0.00     0.094 A 
ATOM      9  C   UNL     1      31.347 -51.930 -11.220  1.00  0.00     0.119 A 
ATOM     10  C   UNL     1      30.216 -51.655 -10.439  1.00  0.00     0.047 A 
ATOM     11  C   UNL     1      29.173 -52.582 -10.357  1.00  0.00     0.020 A 
ENDROOT
BRANCH   1  12
ATOM     12  C   UNL     1      29.783 -57.399 -13.262  1.00  0.00     0.025 A 
ATOM     13  C   UNL     1      31.025 -58.058 -13.237  1.00  0.00     0.016 A 
ATOM     14  C   UNL     1      31.227 -59.213 -13.998  1.00  0.00     0.051 A 
ATOM     15  C   UNL     1      30.197 -59.718 -14.802  1.00  0.00     0.157 A 
ATOM     16  C   UNL     1      28.761 -57.898 -14.086  1.00  0.00     0.062 A 
ATOM     17  C   UNL     1      28.962 -59.058 -14.849  1.00  0.00     0.158 A 
BRANCH  15  18
ATOM     18  O   UNL     1      30.394 -60.870 -15.560  1.00  0.00    -0.504 OA
ATOM     19  H   UNL     1      29.631 -61.501 -15.774  1.00  0.00     0.293 HD
ENDBRANCH  15  18
BRANCH  17  20
ATOM     20  O   UNL     1      27.943 -59.559 -15.655  1.00  0.00    -0.504 OA
ATOM     21  H   UNL     1      27.476 -58.976 -16.341  1.00  0.00     0.293 HD
ENDBRANCH  17  20
ENDBRANCH   1  12
BRANCH   2  22
ATOM     22  O   UNL     1      27.346 -56.901 -11.760  1.00  0.00    -0.502 OA
ATOM     23  H   UNL     1      26.378 -56.659 -11.588  1.00  0.00     0.293 HD
ENDBRANCH   2  22
BRANCH   9  24
ATOM     24  O   UNL     1      32.389 -51.011 -11.307  1.00  0.00    -0.508 OA
ATOM     25  H   UNL     1      32.258 -50.037 -11.062  1.00  0.00     0.293 HD
ENDBRANCH   9  24
TORSDOF 5
ENDMDL
