MODEL 1
REMARK VINA RESULT:    -5.936      0.000      0.000
REMARK INTER + INTRA:          -7.415
REMARK INTER:                  -8.365
REMARK INTRA:                   0.951
REMARK UNBOUND:                 0.951
REMARK SMILES CC1=CCC(=C(C)C)C(=O)CC(C)=CCC1
REMARK SMILES IDX 12 1 14 2 13 3 15 4 16 5 2 6 1 7 3 8 11 10 9 11 10 12 5 13
REMARK SMILES IDX 6 14 7 15 8 16 4 17
REMARK H PARENT
REMARK Flexibility Score: 60.00
ROOT
ATOM      1  C   UNL     1      -8.308  30.248  44.012  1.00  0.00    -0.070 C 
ATOM      2  C   UNL     1      -7.811  29.213  43.296  1.00  0.00    -0.027 C 
ATOM      3  C   UNL     1      -7.626  30.608  45.307  1.00  0.00     0.039 C 
ENDROOT
BRANCH   2   4
ATOM      4  C   UNL     1      -8.273  28.814  41.918  1.00  0.00     0.032 C 
BRANCH   4   5
ATOM      5  C   UNL     1      -7.788  29.841  40.890  1.00  0.00     0.034 C 
BRANCH   5   6
ATOM      6  C   UNL     1      -8.706  29.936  39.687  1.00  0.00    -0.077 C 
ATOM      7  C   UNL     1      -8.545  28.930  38.574  1.00  0.00     0.039 C 
ATOM      8  C   UNL     1      -9.623  30.922  39.519  1.00  0.00    -0.023 CG0
ATOM      9  G   UNL     1     -10.006  32.003  40.512  1.00  0.00     0.000 G0
ENDBRANCH   5   6
ENDBRANCH   4   5
ENDBRANCH   2   4
BRANCH   1  10
ATOM     10  C   UNL     1      -9.523  31.049  43.585  1.00  0.00     0.111 C 
BRANCH  10  11
ATOM     11  C   UNL     1      -9.136  32.356  42.934  1.00  0.00     0.163 C 
ATOM     12  O   UNL     1      -8.990  33.353  43.691  1.00  0.00    -0.294 OA
BRANCH  11  13
ATOM     13  C   UNL     1      -8.943  32.526  41.456  1.00  0.00    -0.002 C 
ATOM     14  C   UNL     1      -7.897  33.264  40.970  1.00  0.00    -0.069 C 
ATOM     15  C   UNL     1      -7.798  33.653  39.513  1.00  0.00     0.039 C 
ATOM     16  C   UNL     1      -6.752  33.690  41.861  1.00  0.00     0.039 C 
BRANCH  13  17
ATOM     17  C   UNL     1     -10.040  32.010  40.530  1.00  0.00     0.066 CG0
ATOM     18  G   UNL     1      -9.637  30.942  39.532  1.00  0.00     0.000 G0
ENDBRANCH  13  17
ENDBRANCH  11  13
ENDBRANCH  10  11
ENDBRANCH   1  10
TORSDOF 0
ENDMDL
MODEL 2
REMARK VINA RESULT:    -5.781      1.517      2.010
REMARK INTER + INTRA:          -7.196
REMARK INTER:                  -7.083
REMARK INTRA:                  -0.113
REMARK UNBOUND:                 0.951
REMARK SMILES CC1=CCC(=C(C)C)C(=O)CC(C)=CCC1
REMARK SMILES IDX 12 1 14 2 13 3 15 4 16 5 2 6 1 7 3 8 11 10 9 11 10 12 5 13
REMARK SMILES IDX 6 14 7 15 8 16 4 17
REMARK H PARENT
REMARK Flexibility Score: 60.00
ROOT
ATOM      1  C   UNL     1      -7.950  29.191  42.061  1.00  0.00    -0.070 C 
ATOM      2  C   UNL     1      -8.109  28.497  40.910  1.00  0.00    -0.027 C 
ATOM      3  C   UNL     1      -8.100  28.448  43.364  1.00  0.00     0.039 C 
ENDROOT
BRANCH   2   4
ATOM      4  C   UNL     1      -7.851  29.043  39.529  1.00  0.00     0.032 C 
BRANCH   4   5
ATOM      5  C   UNL     1      -9.148  29.612  38.945  1.00  0.00     0.034 C 
BRANCH   5   6
ATOM      6  C   UNL     1      -8.945  30.963  38.286  1.00  0.00    -0.077 C 
ATOM      7  C   UNL     1      -8.225  31.020  36.962  1.00  0.00     0.039 C 
ATOM      8  C   UNL     1      -9.312  32.138  38.857  1.00  0.00    -0.023 CG0
ATOM      9  G   UNL     1     -10.093  32.335  40.143  1.00  0.00     0.000 G0
ENDBRANCH   5   6
ENDBRANCH   4   5
ENDBRANCH   2   4
BRANCH   1  10
ATOM     10  C   UNL     1      -7.648  30.676  42.103  1.00  0.00     0.111 C 
BRANCH  10  11
ATOM     11  C   UNL     1      -8.899  31.501  42.289  1.00  0.00     0.163 C 
ATOM     12  O   UNL     1      -9.664  31.179  43.238  1.00  0.00    -0.294 OA
BRANCH  11  13
ATOM     13  C   UNL     1      -9.279  32.651  41.403  1.00  0.00    -0.002 C 
ATOM     14  C   UNL     1      -9.045  33.941  41.797  1.00  0.00    -0.069 C 
ATOM     15  C   UNL     1      -9.616  35.124  41.049  1.00  0.00     0.039 C 
ATOM     16  C   UNL     1      -8.154  34.256  42.978  1.00  0.00     0.039 C 
BRANCH  13  17
ATOM     17  C   UNL     1     -10.091  32.346  40.149  1.00  0.00     0.066 CG0
ATOM     18  G   UNL     1      -9.306  32.148  38.866  1.00  0.00     0.000 G0
ENDBRANCH  13  17
ENDBRANCH  11  13
ENDBRANCH  10  11
ENDBRANCH   1  10
TORSDOF 0
ENDMDL
MODEL 3
REMARK VINA RESULT:    -5.772      1.782      3.968
REMARK INTER + INTRA:          -7.183
REMARK INTER:                  -7.537
REMARK INTRA:                   0.354
REMARK UNBOUND:                 0.951
REMARK SMILES CC1=CCC(=C(C)C)C(=O)CC(C)=CCC1
REMARK SMILES IDX 12 1 14 2 13 3 15 4 16 5 2 6 1 7 3 8 11 10 9 11 10 12 5 13
REMARK SMILES IDX 6 14 7 15 8 16 4 17
REMARK H PARENT
REMARK Flexibility Score: 60.00
ROOT
ATOM      1  C   UNL     1      -8.528  28.736  39.964  1.00  0.00    -0.070 C 
ATOM      2  C   UNL     1      -9.004  29.514  38.963  1.00  0.00    -0.027 C 
ATOM      3  C   UNL     1      -8.987  27.302  40.026  1.00  0.00     0.039 C 
ENDROOT
BRANCH   2   4
ATOM      4  C   UNL     1      -8.541  30.917  38.665  1.00  0.00     0.032 C 
BRANCH   4   5
ATOM      5  C   UNL     1      -9.701  31.899  38.862  1.00  0.00     0.034 C 
BRANCH   5   6
ATOM      6  C   UNL     1      -9.402  32.945  39.918  1.00  0.00    -0.077 C 
ATOM      7  C   UNL     1      -8.982  34.323  39.473  1.00  0.00     0.039 C 
ATOM      8  C   UNL     1      -9.423  32.691  41.252  1.00  0.00    -0.023 CG0
ATOM      9  G   UNL     1      -9.864  31.414  41.941  1.00  0.00     0.000 G0
ENDBRANCH   5   6
ENDBRANCH   4   5
ENDBRANCH   2   4
BRANCH   1  10
ATOM     10  C   UNL     1      -7.576  29.240  41.030  1.00  0.00     0.111 C 
BRANCH  10  11
ATOM     11  C   UNL     1      -8.262  29.411  42.364  1.00  0.00     0.163 C 
ATOM     12  O   UNL     1      -8.354  28.390  43.097  1.00  0.00    -0.294 OA
BRANCH  11  13
ATOM     13  C   UNL     1      -8.846  30.708  42.842  1.00  0.00    -0.002 C 
ATOM     14  C   UNL     1      -8.592  31.162  44.108  1.00  0.00    -0.069 C 
ATOM     15  C   UNL     1      -9.339  32.333  44.705  1.00  0.00     0.039 C 
ATOM     16  C   UNL     1      -7.507  30.547  44.964  1.00  0.00     0.039 C 
BRANCH  13  17
ATOM     17  C   UNL     1      -9.868  31.401  41.946  1.00  0.00     0.066 CG0
ATOM     18  G   UNL     1      -9.415  32.679  41.266  1.00  0.00     0.000 G0
ENDBRANCH  13  17
ENDBRANCH  11  13
ENDBRANCH  10  11
ENDBRANCH   1  10
TORSDOF 0
ENDMDL
MODEL 4
REMARK VINA RESULT:    -5.392      1.966      4.016
REMARK INTER + INTRA:          -6.648
REMARK INTER:                  -7.030
REMARK INTRA:                   0.382
REMARK UNBOUND:                 0.951
REMARK SMILES CC1=CCC(=C(C)C)C(=O)CC(C)=CCC1
REMARK SMILES IDX 12 1 14 2 13 3 15 4 16 5 2 6 1 7 3 8 11 10 9 11 10 12 5 13
REMARK SMILES IDX 6 14 7 15 8 16 4 17
REMARK H PARENT
REMARK Flexibility Score: 60.00
ROOT
ATOM      1  C   UNL     1      -8.721  29.717  39.423  1.00  0.00    -0.070 C 
ATOM      2  C   UNL     1      -8.626  30.187  38.157  1.00  0.00    -0.027 C 
ATOM      3  C   UNL     1      -8.164  28.347  39.715  1.00  0.00     0.039 C 
ENDROOT
BRANCH   2   4
ATOM      4  C   UNL     1      -8.994  31.583  37.724  1.00  0.00     0.032 C 
BRANCH   4   5
ATOM      5  C   UNL     1      -7.927  32.573  38.202  1.00  0.00     0.034 C 
BRANCH   5   6
ATOM      6  C   UNL     1      -8.526  33.787  38.886  1.00  0.00    -0.077 C 
ATOM      7  C   UNL     1      -9.416  34.703  38.083  1.00  0.00     0.039 C 
ATOM      8  C   UNL     1      -8.250  34.139  40.167  1.00  0.00    -0.023 CG0
ATOM      9  G   UNL     1      -7.438  33.358  41.183  1.00  0.00     0.000 G0
ENDBRANCH   5   6
ENDBRANCH   4   5
ENDBRANCH   2   4
BRANCH   1  10
ATOM     10  C   UNL     1      -9.372  30.490  40.552  1.00  0.00     0.111 C 
BRANCH  10  11
ATOM     11  C   UNL     1      -8.364  30.943  41.581  1.00  0.00     0.163 C 
ATOM     12  O   UNL     1      -7.607  30.061  42.070  1.00  0.00    -0.294 OA
BRANCH  11  13
ATOM     13  C   UNL     1      -8.235  32.361  42.056  1.00  0.00    -0.002 C 
ATOM     14  C   UNL     1      -8.937  32.796  43.148  1.00  0.00    -0.069 C 
ATOM     15  C   UNL     1      -9.018  34.259  43.518  1.00  0.00     0.039 C 
ATOM     16  C   UNL     1      -9.630  31.826  44.078  1.00  0.00     0.039 C 
BRANCH  13  17
ATOM     17  C   UNL     1      -7.451  33.336  41.184  1.00  0.00     0.066 CG0
ATOM     18  G   UNL     1      -8.252  34.132  40.170  1.00  0.00     0.000 G0
ENDBRANCH  13  17
ENDBRANCH  11  13
ENDBRANCH  10  11
ENDBRANCH   1  10
TORSDOF 0
ENDMDL
MODEL 5
REMARK VINA RESULT:    -5.324      1.749      3.735
REMARK INTER + INTRA:          -6.552
REMARK INTER:                  -6.820
REMARK INTRA:                   0.268
REMARK UNBOUND:                 0.951
REMARK SMILES CC1=CCC(=C(C)C)C(=O)CC(C)=CCC1
REMARK SMILES IDX 12 1 14 2 13 3 15 4 16 5 2 6 1 7 3 8 11 10 9 11 10 12 5 13
REMARK SMILES IDX 6 14 7 15 8 16 4 17
REMARK H PARENT
REMARK Flexibility Score: 60.00
ROOT
ATOM      1  C   UNL     1      -8.396  31.664  43.757  1.00  0.00    -0.070 C 
ATOM      2  C   UNL     1      -8.302  32.966  43.402  1.00  0.00    -0.027 C 
ATOM      3  C   UNL     1      -7.500  31.164  44.862  1.00  0.00     0.039 C 
ENDROOT
BRANCH   2   4
ATOM      4  C   UNL     1      -9.217  33.664  42.428  1.00  0.00     0.032 C 
BRANCH   4   5
ATOM      5  C   UNL     1      -8.443  34.026  41.156  1.00  0.00     0.034 C 
BRANCH   5   6
ATOM      6  C   UNL     1      -9.042  33.397  39.913  1.00  0.00    -0.077 C 
ATOM      7  C   UNL     1      -9.999  34.212  39.081  1.00  0.00     0.039 C 
ATOM      8  C   UNL     1      -8.820  32.110  39.542  1.00  0.00    -0.023 CG0
ATOM      9  G   UNL     1      -7.864  31.119  40.178  1.00  0.00     0.000 G0
ENDBRANCH   5   6
ENDBRANCH   4   5
ENDBRANCH   2   4
BRANCH   1  10
ATOM     10  C   UNL     1      -9.341  30.684  43.091  1.00  0.00     0.111 C 
BRANCH  10  11
ATOM     11  C   UNL     1      -8.606  29.697  42.215  1.00  0.00     0.163 C 
ATOM     12  O   UNL     1      -8.055  28.720  42.790  1.00  0.00    -0.294 OA
BRANCH  11  13
ATOM     13  C   UNL     1      -8.483  29.832  40.726  1.00  0.00    -0.002 C 
ATOM     14  C   UNL     1      -8.759  28.772  39.905  1.00  0.00    -0.069 C 
ATOM     15  C   UNL     1      -8.428  28.792  38.431  1.00  0.00     0.039 C 
ATOM     16  C   UNL     1      -9.459  27.535  40.422  1.00  0.00     0.039 C 
BRANCH  13  17
ATOM     17  C   UNL     1      -7.873  31.117  40.176  1.00  0.00     0.066 CG0
ATOM     18  G   UNL     1      -8.830  32.093  39.518  1.00  0.00     0.000 G0
ENDBRANCH  13  17
ENDBRANCH  11  13
ENDBRANCH  10  11
ENDBRANCH   1  10
TORSDOF 0
ENDMDL
MODEL 6
REMARK VINA RESULT:    -5.261      2.058      3.893
REMARK INTER + INTRA:          -6.463
REMARK INTER:                  -6.555
REMARK INTRA:                   0.091
REMARK UNBOUND:                 0.951
REMARK SMILES CC1=CCC(=C(C)C)C(=O)CC(C)=CCC1
REMARK SMILES IDX 12 1 14 2 13 3 15 4 16 5 2 6 1 7 3 8 11 10 9 11 10 12 5 13
REMARK SMILES IDX 6 14 7 15 8 16 4 17
REMARK H PARENT
REMARK Flexibility Score: 60.00
ROOT
ATOM      1  C   UNL     1      -8.382  29.124  40.909  1.00  0.00    -0.070 C 
ATOM      2  C   UNL     1      -8.045  29.138  42.220  1.00  0.00    -0.027 C 
ATOM      3  C   UNL     1      -7.716  28.108  40.017  1.00  0.00     0.039 C 
ENDROOT
BRANCH   2   4
ATOM      4  C   UNL     1      -8.715  29.980  43.275  1.00  0.00     0.032 C 
BRANCH   4   5
ATOM      5  C   UNL     1      -7.930  31.281  43.477  1.00  0.00     0.034 C 
BRANCH   5   6
ATOM      6  C   UNL     1      -8.806  32.512  43.357  1.00  0.00    -0.077 C 
ATOM      7  C   UNL     1      -9.692  32.885  44.520  1.00  0.00     0.039 C 
ATOM      8  C   UNL     1      -8.893  33.264  42.231  1.00  0.00    -0.023 CG0
ATOM      9  G   UNL     1      -8.069  33.126  40.964  1.00  0.00     0.000 G0
ENDBRANCH   5   6
ENDBRANCH   4   5
ENDBRANCH   2   4
BRANCH   1  10
ATOM     10  C   UNL     1      -9.379  30.087  40.295  1.00  0.00     0.111 C 
BRANCH  10  11
ATOM     11  C   UNL     1      -8.700  31.134  39.444  1.00  0.00     0.163 C 
ATOM     12  O   UNL     1      -8.018  30.725  38.466  1.00  0.00    -0.294 OA
BRANCH  11  13
ATOM     13  C   UNL     1      -8.780  32.608  39.713  1.00  0.00    -0.002 C 
ATOM     14  C   UNL     1      -9.330  33.456  38.790  1.00  0.00    -0.069 C 
ATOM     15  C   UNL     1      -9.221  34.958  38.916  1.00  0.00     0.039 C 
ATOM     16  C   UNL     1     -10.125  32.934  37.614  1.00  0.00     0.039 C 
BRANCH  13  17
ATOM     17  C   UNL     1      -8.071  33.145  40.952  1.00  0.00     0.066 CG0
ATOM     18  G   UNL     1      -8.906  33.261  42.213  1.00  0.00     0.000 G0
ENDBRANCH  13  17
ENDBRANCH  11  13
ENDBRANCH  10  11
ENDBRANCH   1  10
TORSDOF 0
ENDMDL
MODEL 7
REMARK VINA RESULT:    -4.978      1.801      2.582
REMARK INTER + INTRA:          -6.064
REMARK INTER:                  -6.862
REMARK INTRA:                   0.798
REMARK UNBOUND:                 0.951
REMARK SMILES CC1=CCC(=C(C)C)C(=O)CC(C)=CCC1
REMARK SMILES IDX 12 1 14 2 13 3 15 4 16 5 2 6 1 7 3 8 11 10 9 11 10 12 5 13
REMARK SMILES IDX 6 14 7 15 8 16 4 17
REMARK H PARENT
REMARK Flexibility Score: 60.00
ROOT
ATOM      1  C   UNL     1      -8.386  31.992  42.588  1.00  0.00    -0.070 C 
ATOM      2  C   UNL     1      -7.875  30.828  43.052  1.00  0.00    -0.027 C 
ATOM      3  C   UNL     1      -7.691  33.274  42.970  1.00  0.00     0.039 C 
ENDROOT
BRANCH   2   4
ATOM      4  C   UNL     1      -8.351  29.455  42.652  1.00  0.00     0.032 C 
BRANCH   4   5
ATOM      5  C   UNL     1      -7.618  29.000  41.385  1.00  0.00     0.034 C 
BRANCH   5   6
ATOM      6  C   UNL     1      -8.540  28.904  40.185  1.00  0.00    -0.077 C 
ATOM      7  C   UNL     1      -9.349  27.645  39.993  1.00  0.00     0.039 C 
ATOM      8  C   UNL     1      -8.627  29.862  39.228  1.00  0.00    -0.023 CG0
ATOM      9  G   UNL     1      -7.964  31.227  39.226  1.00  0.00     0.000 G0
ENDBRANCH   5   6
ENDBRANCH   4   5
ENDBRANCH   2   4
BRANCH   1  10
ATOM     10  C   UNL     1      -9.627  32.070  41.721  1.00  0.00     0.111 C 
BRANCH  10  11
ATOM     11  C   UNL     1      -9.418  32.956  40.516  1.00  0.00     0.163 C 
ATOM     12  O   UNL     1      -9.749  34.167  40.631  1.00  0.00    -0.294 OA
BRANCH  11  13
ATOM     13  C   UNL     1      -8.867  32.470  39.208  1.00  0.00    -0.002 C 
ATOM     14  C   UNL     1      -9.298  33.011  38.026  1.00  0.00    -0.069 C 
ATOM     15  C   UNL     1      -8.948  32.399  36.689  1.00  0.00     0.039 C 
ATOM     16  C   UNL     1     -10.111  34.285  37.992  1.00  0.00     0.039 C 
BRANCH  13  17
ATOM     17  C   UNL     1      -7.960  31.245  39.229  1.00  0.00     0.066 CG0
ATOM     18  G   UNL     1      -8.648  29.892  39.232  1.00  0.00     0.000 G0
ENDBRANCH  13  17
ENDBRANCH  11  13
ENDBRANCH  10  11
ENDBRANCH   1  10
TORSDOF 0
ENDMDL
MODEL 8
REMARK VINA RESULT:    -4.724      1.766      3.639
REMARK INTER + INTRA:          -5.706
REMARK INTER:                  -7.036
REMARK INTRA:                   1.330
REMARK UNBOUND:                 0.951
REMARK SMILES CC1=CCC(=C(C)C)C(=O)CC(C)=CCC1
REMARK SMILES IDX 12 1 14 2 13 3 15 4 16 5 2 6 1 7 3 8 11 10 9 11 10 12 5 13
REMARK SMILES IDX 6 14 7 15 8 16 4 17
REMARK H PARENT
REMARK Flexibility Score: 60.00
ROOT
ATOM      1  C   UNL     1      -8.077  29.571  42.749  1.00  0.00    -0.070 C 
ATOM      2  C   UNL     1      -8.985  30.283  43.456  1.00  0.00    -0.027 C 
ATOM      3  C   UNL     1      -7.494  28.335  43.385  1.00  0.00     0.039 C 
ENDROOT
BRANCH   2   4
ATOM      4  C   UNL     1      -9.773  31.452  42.922  1.00  0.00     0.032 C 
BRANCH   4   5
ATOM      5  C   UNL     1      -9.146  32.764  43.404  1.00  0.00     0.034 C 
BRANCH   5   6
ATOM      6  C   UNL     1      -8.433  33.509  42.293  1.00  0.00    -0.077 C 
ATOM      7  C   UNL     1      -7.365  34.509  42.662  1.00  0.00     0.039 C 
ATOM      8  C   UNL     1      -8.750  33.381  40.980  1.00  0.00    -0.023 CG0
ATOM      9  G   UNL     1      -9.738  32.410  40.360  1.00  0.00     0.000 G0
ENDBRANCH   5   6
ENDBRANCH   4   5
ENDBRANCH   2   4
BRANCH   1  10
ATOM     10  C   UNL     1      -7.608  29.964  41.362  1.00  0.00     0.111 C 
BRANCH  10  11
ATOM     11  C   UNL     1      -8.748  30.012  40.373  1.00  0.00     0.163 C 
ATOM     12  O   UNL     1      -9.402  28.948  40.200  1.00  0.00    -0.294 OA
BRANCH  11  13
ATOM     13  C   UNL     1      -9.120  31.234  39.587  1.00  0.00    -0.002 C 
ATOM     14  C   UNL     1      -8.765  31.349  38.269  1.00  0.00    -0.069 C 
ATOM     15  C   UNL     1      -8.912  32.648  37.510  1.00  0.00     0.039 C 
ATOM     16  C   UNL     1      -8.252  30.163  37.484  1.00  0.00     0.039 C 
BRANCH  13  17
ATOM     17  C   UNL     1      -9.735  32.407  40.342  1.00  0.00     0.066 CG0
ATOM     18  G   UNL     1      -8.766  33.382  40.985  1.00  0.00     0.000 G0
ENDBRANCH  13  17
ENDBRANCH  11  13
ENDBRANCH  10  11
ENDBRANCH   1  10
TORSDOF 0
ENDMDL
MODEL 9
REMARK VINA RESULT:    -4.698      1.678      3.957
REMARK INTER + INTRA:          -5.670
REMARK INTER:                  -7.078
REMARK INTRA:                   1.408
REMARK UNBOUND:                 0.951
REMARK SMILES CC1=CCC(=C(C)C)C(=O)CC(C)=CCC1
REMARK SMILES IDX 12 1 14 2 13 3 15 4 16 5 2 6 1 7 3 8 11 10 9 11 10 12 5 13
REMARK SMILES IDX 6 14 7 15 8 16 4 17
REMARK H PARENT
REMARK Flexibility Score: 60.00
ROOT
ATOM      1  C   UNL     1      -9.349  33.093  39.108  1.00  0.00    -0.070 C 
ATOM      2  C   UNL     1      -8.615  32.373  38.228  1.00  0.00    -0.027 C 
ATOM      3  C   UNL     1      -9.689  34.517  38.748  1.00  0.00     0.039 C 
ENDROOT
BRANCH   2   4
ATOM      4  C   UNL     1      -8.311  30.902  38.358  1.00  0.00     0.032 C 
BRANCH   4   5
ATOM      5  C   UNL     1      -9.288  30.254  39.344  1.00  0.00     0.034 C 
BRANCH   5   6
ATOM      6  C   UNL     1      -8.664  29.105  40.110  1.00  0.00    -0.077 C 
ATOM      7  C   UNL     1      -9.035  27.694  39.726  1.00  0.00     0.039 C 
ATOM      8  C   UNL     1      -7.839  29.273  41.174  1.00  0.00    -0.023 CG0
ATOM      9  G   UNL     1      -7.279  30.577  41.711  1.00  0.00     0.000 G0
ENDBRANCH   5   6
ENDBRANCH   4   5
ENDBRANCH   2   4
BRANCH   1  10
ATOM     10  C   UNL     1      -9.828  32.547  40.438  1.00  0.00     0.111 C 
BRANCH  10  11
ATOM     11  C   UNL     1      -8.783  32.693  41.518  1.00  0.00     0.163 C 
ATOM     12  O   UNL     1      -8.299  33.843  41.696  1.00  0.00    -0.294 OA
BRANCH  11  13
ATOM     13  C   UNL     1      -8.287  31.553  42.358  1.00  0.00    -0.002 C 
ATOM     14  C   UNL     1      -8.598  31.482  43.689  1.00  0.00    -0.069 C 
ATOM     15  C   UNL     1      -7.934  30.489  44.616  1.00  0.00     0.039 C 
ATOM     16  C   UNL     1      -9.664  32.364  44.299  1.00  0.00     0.039 C 
BRANCH  13  17
ATOM     17  C   UNL     1      -7.286  30.588  41.730  1.00  0.00     0.066 CG0
ATOM     18  G   UNL     1      -7.849  29.288  41.186  1.00  0.00     0.000 G0
ENDBRANCH  13  17
ENDBRANCH  11  13
ENDBRANCH  10  11
ENDBRANCH   1  10
TORSDOF 0
ENDMDL
