MODEL 1
REMARK VINA RESULT:    20.690      0.000      0.000
REMARK INTER + INTRA:          39.309
REMARK INTER:                  40.043
REMARK INTRA:                  -0.734
REMARK UNBOUND:                -0.734
REMARK SMILES CCCCCCCCCCCCCCCCCC(=O)[O-]
REMARK SMILES IDX 10 1 11 2 12 3 13 4 14 5 15 6 16 7 17 8 18 9 19 10 20 11
REMARK SMILES IDX 9 12 8 13 7 14 6 15 5 16 4 17 3 18 2 19 1 20
REMARK H PARENT
REMARK Flexibility Score: inf
ROOT
ATOM      1  C   UNL     1     -37.092  26.248 -21.304  1.00  0.00     0.000 C 
ENDROOT
BRANCH   1   2
ATOM      2  C   UNL     1     -37.717  27.544 -21.853  1.00  0.00     0.000 C 
BRANCH   2   3
ATOM      3  C   UNL     1     -37.487  28.798 -20.991  1.00  0.00     0.000 C 
BRANCH   3   4
ATOM      4  C   UNL     1     -38.690  29.755 -20.990  1.00  0.00     0.000 C 
BRANCH   4   5
ATOM      5  C   UNL     1     -39.880  29.137 -21.738  1.00  0.00     0.000 C 
BRANCH   5   6
ATOM      6  C   UNL     1     -41.199  29.881 -21.472  1.00  0.00     0.000 C 
BRANCH   6   7
ATOM      7  C   UNL     1     -41.858  30.399 -22.763  1.00  0.00     0.006 C 
BRANCH   7   8
ATOM      8  C   UNL     1     -43.386  30.466 -22.646  1.00  0.00     0.053 C 
BRANCH   8   9
ATOM      9  C   UNL     1     -43.835  31.681 -21.894  1.00  0.00     0.041 C 
ATOM     10  O   UNL     1     -44.258  32.691 -22.516  1.00  0.00    -0.550 OA
ATOM     11  O   UNL     1     -43.816  31.688 -20.505  1.00  0.00    -0.550 OA
ENDBRANCH   8   9
ENDBRANCH   7   8
ENDBRANCH   6   7
ENDBRANCH   5   6
ENDBRANCH   4   5
ENDBRANCH   3   4
ENDBRANCH   2   3
ENDBRANCH   1   2
BRANCH   1  12
ATOM     12  C   UNL     1     -38.101  25.091 -21.210  1.00  0.00     0.000 C 
BRANCH  12  13
ATOM     13  C   UNL     1     -37.576  23.916 -20.369  1.00  0.00    -0.000 C 
BRANCH  13  14
ATOM     14  C   UNL     1     -38.477  23.602 -19.162  1.00  0.00    -0.000 C 
BRANCH  14  15
ATOM     15  C   UNL     1     -38.591  22.093 -18.896  1.00  0.00    -0.000 C 
BRANCH  15  16
ATOM     16  C   UNL     1     -40.012  21.673 -18.477  1.00  0.00    -0.000 C 
BRANCH  16  17
ATOM     17  C   UNL     1     -40.994  22.864 -18.486  1.00  0.00    -0.000 C 
BRANCH  17  18
ATOM     18  C   UNL     1     -42.031  22.815 -17.351  1.00  0.00    -0.000 C 
BRANCH  18  19
ATOM     19  C   UNL     1     -41.876  23.966 -16.349  1.00  0.00    -0.003 C 
ATOM     20  C   UNL     1     -42.722  23.727 -15.101  1.00  0.00     0.004 C 
ENDBRANCH  18  19
ENDBRANCH  17  18
ENDBRANCH  16  17
ENDBRANCH  15  16
ENDBRANCH  14  15
ENDBRANCH  13  14
ENDBRANCH  12  13
ENDBRANCH   1  12
TORSDOF 16
ENDMDL
MODEL 2
REMARK VINA RESULT:    20.787      0.919      1.600
REMARK INTER + INTRA:          39.497
REMARK INTER:                  39.241
REMARK INTRA:                   0.256
REMARK UNBOUND:                -0.734
REMARK SMILES CCCCCCCCCCCCCCCCCC(=O)[O-]
REMARK SMILES IDX 10 1 11 2 12 3 13 4 14 5 15 6 16 7 17 8 18 9 19 10 20 11
REMARK SMILES IDX 9 12 8 13 7 14 6 15 5 16 4 17 3 18 2 19 1 20
REMARK H PARENT
REMARK Flexibility Score: inf
ROOT
ATOM      1  C   UNL     1     -36.922  27.572 -20.840  1.00  0.00     0.000 C 
ENDROOT
BRANCH   1   2
ATOM      2  C   UNL     1     -37.769  27.890 -22.086  1.00  0.00     0.000 C 
BRANCH   2   3
ATOM      3  C   UNL     1     -38.476  29.258 -22.065  1.00  0.00     0.000 C 
BRANCH   3   4
ATOM      4  C   UNL     1     -38.826  29.730 -20.645  1.00  0.00     0.000 C 
BRANCH   4   5
ATOM      5  C   UNL     1     -40.297  30.166 -20.561  1.00  0.00     0.000 C 
BRANCH   5   6
ATOM      6  C   UNL     1     -41.162  29.552 -21.674  1.00  0.00     0.000 C 
BRANCH   6   7
ATOM      7  C   UNL     1     -41.711  30.610 -22.649  1.00  0.00     0.006 C 
BRANCH   7   8
ATOM      8  C   UNL     1     -43.244  30.629 -22.678  1.00  0.00     0.053 C 
BRANCH   8   9
ATOM      9  C   UNL     1     -43.806  31.707 -21.802  1.00  0.00     0.041 C 
ATOM     10  O   UNL     1     -44.751  32.430 -22.215  1.00  0.00    -0.550 OA
ATOM     11  O   UNL     1     -43.306  31.894 -20.520  1.00  0.00    -0.550 OA
ENDBRANCH   8   9
ENDBRANCH   7   8
ENDBRANCH   6   7
ENDBRANCH   5   6
ENDBRANCH   4   5
ENDBRANCH   3   4
ENDBRANCH   2   3
ENDBRANCH   1   2
BRANCH   1  12
ATOM     12  C   UNL     1     -36.584  26.076 -20.713  1.00  0.00     0.000 C 
BRANCH  12  13
ATOM     13  C   UNL     1     -37.785  25.171 -21.035  1.00  0.00    -0.000 C 
BRANCH  13  14
ATOM     14  C   UNL     1     -37.573  23.720 -20.568  1.00  0.00    -0.000 C 
BRANCH  14  15
ATOM     15  C   UNL     1     -38.451  23.362 -19.358  1.00  0.00    -0.000 C 
BRANCH  15  16
ATOM     16  C   UNL     1     -37.999  22.065 -18.663  1.00  0.00    -0.000 C 
BRANCH  16  17
ATOM     17  C   UNL     1     -38.970  20.895 -18.930  1.00  0.00    -0.000 C 
BRANCH  17  18
ATOM     18  C   UNL     1     -40.438  21.232 -18.621  1.00  0.00    -0.000 C 
BRANCH  18  19
ATOM     19  C   UNL     1     -40.633  22.681 -18.153  1.00  0.00    -0.003 C 
ATOM     20  C   UNL     1     -42.020  22.882 -17.550  1.00  0.00     0.004 C 
ENDBRANCH  18  19
ENDBRANCH  17  18
ENDBRANCH  16  17
ENDBRANCH  15  16
ENDBRANCH  14  15
ENDBRANCH  13  14
ENDBRANCH  12  13
ENDBRANCH   1  12
TORSDOF 16
ENDMDL
MODEL 3
REMARK VINA RESULT:    20.923      0.671      1.569
REMARK INTER + INTRA:          39.760
REMARK INTER:                  40.502
REMARK INTRA:                  -0.742
REMARK UNBOUND:                -0.734
REMARK SMILES CCCCCCCCCCCCCCCCCC(=O)[O-]
REMARK SMILES IDX 10 1 11 2 12 3 13 4 14 5 15 6 16 7 17 8 18 9 19 10 20 11
REMARK SMILES IDX 9 12 8 13 7 14 6 15 5 16 4 17 3 18 2 19 1 20
REMARK H PARENT
REMARK Flexibility Score: inf
ROOT
ATOM      1  C   UNL     1     -38.378  24.676 -20.758  1.00  0.00     0.000 C 
ENDROOT
BRANCH   1   2
ATOM      2  C   UNL     1     -37.552  25.893 -21.214  1.00  0.00     0.000 C 
BRANCH   2   3
ATOM      3  C   UNL     1     -38.271  26.844 -22.189  1.00  0.00     0.000 C 
BRANCH   3   4
ATOM      4  C   UNL     1     -37.762  28.291 -22.099  1.00  0.00     0.000 C 
BRANCH   4   5
ATOM      5  C   UNL     1     -38.746  29.169 -21.311  1.00  0.00     0.000 C 
BRANCH   5   6
ATOM      6  C   UNL     1     -40.198  29.011 -21.791  1.00  0.00     0.000 C 
BRANCH   6   7
ATOM      7  C   UNL     1     -41.071  30.231 -21.447  1.00  0.00     0.006 C 
BRANCH   7   8
ATOM      8  C   UNL     1     -42.201  30.438 -22.463  1.00  0.00     0.053 C 
BRANCH   8   9
ATOM      9  C   UNL     1     -43.283  31.323 -21.922  1.00  0.00     0.041 C 
ATOM     10  O   UNL     1     -43.935  32.072 -22.696  1.00  0.00    -0.550 OA
ATOM     11  O   UNL     1     -43.591  31.297 -20.568  1.00  0.00    -0.550 OA
ENDBRANCH   8   9
ENDBRANCH   7   8
ENDBRANCH   6   7
ENDBRANCH   5   6
ENDBRANCH   4   5
ENDBRANCH   3   4
ENDBRANCH   2   3
ENDBRANCH   1   2
BRANCH   1  12
ATOM     12  C   UNL     1     -37.502  23.491 -20.316  1.00  0.00     0.000 C 
BRANCH  12  13
ATOM     13  C   UNL     1     -37.957  22.887 -18.977  1.00  0.00    -0.000 C 
BRANCH  13  14
ATOM     14  C   UNL     1     -38.595  21.496 -19.142  1.00  0.00    -0.000 C 
BRANCH  14  15
ATOM     15  C   UNL     1     -40.028  21.443 -18.589  1.00  0.00    -0.000 C 
BRANCH  15  16
ATOM     16  C   UNL     1     -40.489  22.793 -18.010  1.00  0.00    -0.000 C 
BRANCH  16  17
ATOM     17  C   UNL     1     -41.981  22.775 -17.614  1.00  0.00    -0.000 C 
BRANCH  17  18
ATOM     18  C   UNL     1     -42.343  23.810 -16.536  1.00  0.00    -0.000 C 
BRANCH  18  19
ATOM     19  C   UNL     1     -42.858  23.169 -15.241  1.00  0.00    -0.003 C 
ATOM     20  C   UNL     1     -42.419  23.969 -14.018  1.00  0.00     0.004 C 
ENDBRANCH  18  19
ENDBRANCH  17  18
ENDBRANCH  16  17
ENDBRANCH  15  16
ENDBRANCH  14  15
ENDBRANCH  13  14
ENDBRANCH  12  13
ENDBRANCH   1  12
TORSDOF 16
ENDMDL
MODEL 4
REMARK VINA RESULT:    21.685      7.340     10.656
REMARK INTER + INTRA:          41.234
REMARK INTER:                  41.897
REMARK INTRA:                  -0.662
REMARK UNBOUND:                -0.734
REMARK SMILES CCCCCCCCCCCCCCCCCC(=O)[O-]
REMARK SMILES IDX 10 1 11 2 12 3 13 4 14 5 15 6 16 7 17 8 18 9 19 10 20 11
REMARK SMILES IDX 9 12 8 13 7 14 6 15 5 16 4 17 3 18 2 19 1 20
REMARK H PARENT
REMARK Flexibility Score: inf
ROOT
ATOM      1  C   UNL     1     -35.296  32.071 -18.438  1.00  0.00     0.000 C 
ENDROOT
BRANCH   1   2
ATOM      2  C   UNL     1     -34.374  30.844 -18.321  1.00  0.00     0.000 C 
BRANCH   2   3
ATOM      3  C   UNL     1     -32.867  31.158 -18.278  1.00  0.00     0.000 C 
BRANCH   3   4
ATOM      4  C   UNL     1     -31.993  29.958 -18.676  1.00  0.00     0.000 C 
BRANCH   4   5
ATOM      5  C   UNL     1     -30.963  29.645 -17.580  1.00  0.00     0.000 C 
BRANCH   5   6
ATOM      6  C   UNL     1     -31.614  29.146 -16.279  1.00  0.00     0.000 C 
BRANCH   6   7
ATOM      7  C   UNL     1     -31.341  27.655 -16.015  1.00  0.00     0.006 C 
BRANCH   7   8
ATOM      8  C   UNL     1     -29.841  27.336 -15.997  1.00  0.00     0.053 C 
BRANCH   8   9
ATOM      9  C   UNL     1     -29.560  26.007 -15.363  1.00  0.00     0.041 C 
ATOM     10  O   UNL     1     -29.953  25.770 -14.190  1.00  0.00    -0.550 OA
ATOM     11  O   UNL     1     -28.893  25.022 -16.078  1.00  0.00    -0.550 OA
ENDBRANCH   8   9
ENDBRANCH   7   8
ENDBRANCH   6   7
ENDBRANCH   5   6
ENDBRANCH   4   5
ENDBRANCH   3   4
ENDBRANCH   2   3
ENDBRANCH   1   2
BRANCH   1  12
ATOM     12  C   UNL     1     -36.436  31.868 -19.451  1.00  0.00     0.000 C 
BRANCH  12  13
ATOM     13  C   UNL     1     -36.879  30.399 -19.554  1.00  0.00    -0.000 C 
BRANCH  13  14
ATOM     14  C   UNL     1     -38.349  30.253 -19.984  1.00  0.00    -0.000 C 
BRANCH  14  15
ATOM     15  C   UNL     1     -38.492  29.567 -21.352  1.00  0.00    -0.000 C 
BRANCH  15  16
ATOM     16  C   UNL     1     -39.934  29.112 -21.638  1.00  0.00    -0.000 C 
BRANCH  16  17
ATOM     17  C   UNL     1     -40.954  30.251 -21.424  1.00  0.00    -0.000 C 
BRANCH  17  18
ATOM     18  C   UNL     1     -42.040  30.316 -22.512  1.00  0.00    -0.000 C 
BRANCH  18  19
ATOM     19  C   UNL     1     -42.998  31.500 -22.330  1.00  0.00    -0.003 C 
ATOM     20  C   UNL     1     -43.749  31.402 -21.004  1.00  0.00     0.004 C 
ENDBRANCH  18  19
ENDBRANCH  17  18
ENDBRANCH  16  17
ENDBRANCH  15  16
ENDBRANCH  14  15
ENDBRANCH  13  14
ENDBRANCH  12  13
ENDBRANCH   1  12
TORSDOF 16
ENDMDL
MODEL 5
REMARK VINA RESULT:    21.772      5.439      7.765
REMARK INTER + INTRA:          41.403
REMARK INTER:                  42.063
REMARK INTRA:                  -0.660
REMARK UNBOUND:                -0.734
REMARK SMILES CCCCCCCCCCCCCCCCCC(=O)[O-]
REMARK SMILES IDX 10 1 11 2 12 3 13 4 14 5 15 6 16 7 17 8 18 9 19 10 20 11
REMARK SMILES IDX 9 12 8 13 7 14 6 15 5 16 4 17 3 18 2 19 1 20
REMARK H PARENT
REMARK Flexibility Score: inf
ROOT
ATOM      1  C   UNL     1     -34.998  31.688 -18.177  1.00  0.00     0.000 C 
ENDROOT
BRANCH   1   2
ATOM      2  C   UNL     1     -36.040  31.603 -19.308  1.00  0.00     0.000 C 
BRANCH   2   3
ATOM      3  C   UNL     1     -36.809  30.272 -19.390  1.00  0.00     0.000 C 
BRANCH   3   4
ATOM      4  C   UNL     1     -37.641  30.138 -20.676  1.00  0.00     0.000 C 
BRANCH   4   5
ATOM      5  C   UNL     1     -39.137  30.022 -20.349  1.00  0.00     0.000 C 
BRANCH   5   6
ATOM      6  C   UNL     1     -39.977  29.588 -21.562  1.00  0.00     0.000 C 
BRANCH   6   7
ATOM      7  C   UNL     1     -41.488  29.762 -21.328  1.00  0.00     0.006 C 
BRANCH   7   8
ATOM      8  C   UNL     1     -42.152  30.596 -22.431  1.00  0.00     0.053 C 
BRANCH   8   9
ATOM      9  C   UNL     1     -43.281  31.427 -21.900  1.00  0.00     0.041 C 
ATOM     10  O   UNL     1     -43.634  31.319 -20.696  1.00  0.00    -0.550 OA
ATOM     11  O   UNL     1     -43.921  32.341 -22.726  1.00  0.00    -0.550 OA
ENDBRANCH   8   9
ENDBRANCH   7   8
ENDBRANCH   6   7
ENDBRANCH   5   6
ENDBRANCH   4   5
ENDBRANCH   3   4
ENDBRANCH   2   3
ENDBRANCH   1   2
BRANCH   1  12
ATOM     12  C   UNL     1     -33.559  31.832 -18.700  1.00  0.00     0.000 C 
BRANCH  12  13
ATOM     13  C   UNL     1     -32.550  31.004 -17.888  1.00  0.00    -0.000 C 
BRANCH  13  14
ATOM     14  C   UNL     1     -31.780  29.992 -18.755  1.00  0.00    -0.000 C 
BRANCH  14  15
ATOM     15  C   UNL     1     -30.846  29.100 -17.921  1.00  0.00    -0.000 C 
BRANCH  15  16
ATOM     16  C   UNL     1     -31.039  29.297 -16.406  1.00  0.00    -0.000 C 
BRANCH  16  17
ATOM     17  C   UNL     1     -31.144  27.953 -15.655  1.00  0.00    -0.000 C 
BRANCH  17  18
ATOM     18  C   UNL     1     -30.564  26.764 -16.439  1.00  0.00    -0.000 C 
BRANCH  18  19
ATOM     19  C   UNL     1     -29.285  26.198 -15.807  1.00  0.00    -0.003 C 
ATOM     20  C   UNL     1     -29.612  25.139 -14.758  1.00  0.00     0.004 C 
ENDBRANCH  18  19
ENDBRANCH  17  18
ENDBRANCH  16  17
ENDBRANCH  15  16
ENDBRANCH  14  15
ENDBRANCH  13  14
ENDBRANCH  12  13
ENDBRANCH   1  12
TORSDOF 16
ENDMDL
MODEL 6
REMARK VINA RESULT:    21.925      3.220      8.100
REMARK INTER + INTRA:          41.699
REMARK INTER:                  42.231
REMARK INTRA:                  -0.532
REMARK UNBOUND:                -0.734
REMARK SMILES CCCCCCCCCCCCCCCCCC(=O)[O-]
REMARK SMILES IDX 10 1 11 2 12 3 13 4 14 5 15 6 16 7 17 8 18 9 19 10 20 11
REMARK SMILES IDX 9 12 8 13 7 14 6 15 5 16 4 17 3 18 2 19 1 20
REMARK H PARENT
REMARK Flexibility Score: inf
ROOT
ATOM      1  C   UNL     1     -38.198  26.030 -21.614  1.00  0.00     0.000 C 
ENDROOT
BRANCH   1   2
ATOM      2  C   UNL     1     -37.400  25.005 -20.787  1.00  0.00     0.000 C 
BRANCH   2   3
ATOM      3  C   UNL     1     -38.251  23.955 -20.050  1.00  0.00     0.000 C 
BRANCH   3   4
ATOM      4  C   UNL     1     -37.489  22.647 -19.782  1.00  0.00     0.000 C 
BRANCH   4   5
ATOM      5  C   UNL     1     -38.084  21.904 -18.577  1.00  0.00     0.000 C 
BRANCH   5   6
ATOM      6  C   UNL     1     -39.153  20.875 -18.980  1.00  0.00     0.000 C 
BRANCH   6   7
ATOM      7  C   UNL     1     -40.583  21.359 -18.682  1.00  0.00     0.006 C 
BRANCH   7   8
ATOM      8  C   UNL     1     -40.620  22.837 -18.274  1.00  0.00     0.053 C 
BRANCH   8   9
ATOM      9  C   UNL     1     -41.745  23.126 -17.327  1.00  0.00     0.041 C 
ATOM     10  O   UNL     1     -42.719  22.334 -17.241  1.00  0.00    -0.550 OA
ATOM     11  O   UNL     1     -41.702  24.255 -16.518  1.00  0.00    -0.550 OA
ENDBRANCH   8   9
ENDBRANCH   7   8
ENDBRANCH   6   7
ENDBRANCH   5   6
ENDBRANCH   4   5
ENDBRANCH   3   4
ENDBRANCH   2   3
ENDBRANCH   1   2
BRANCH   1  12
ATOM     12  C   UNL     1     -37.384  27.293 -21.946  1.00  0.00     0.000 C 
BRANCH  12  13
ATOM     13  C   UNL     1     -38.275  28.490 -22.314  1.00  0.00    -0.000 C 
BRANCH  13  14
ATOM     14  C   UNL     1     -38.322  29.556 -21.205  1.00  0.00    -0.000 C 
BRANCH  14  15
ATOM     15  C   UNL     1     -39.755  29.836 -20.725  1.00  0.00    -0.000 C 
BRANCH  15  16
ATOM     16  C   UNL     1     -40.817  29.151 -21.605  1.00  0.00    -0.000 C 
BRANCH  16  17
ATOM     17  C   UNL     1     -41.793  30.169 -22.233  1.00  0.00    -0.000 C 
BRANCH  17  18
ATOM     18  C   UNL     1     -43.096  30.344 -21.435  1.00  0.00    -0.000 C 
BRANCH  18  19
ATOM     19  C   UNL     1     -43.727  31.731 -21.619  1.00  0.00    -0.003 C 
ATOM     20  C   UNL     1     -43.031  32.509 -22.733  1.00  0.00     0.004 C 
ENDBRANCH  18  19
ENDBRANCH  17  18
ENDBRANCH  16  17
ENDBRANCH  15  16
ENDBRANCH  14  15
ENDBRANCH  13  14
ENDBRANCH  12  13
ENDBRANCH   1  12
TORSDOF 16
ENDMDL
MODEL 7
REMARK VINA RESULT:    22.282      3.995      9.260
REMARK INTER + INTRA:          42.389
REMARK INTER:                  43.136
REMARK INTRA:                  -0.746
REMARK UNBOUND:                -0.734
REMARK SMILES CCCCCCCCCCCCCCCCCC(=O)[O-]
REMARK SMILES IDX 10 1 11 2 12 3 13 4 14 5 15 6 16 7 17 8 18 9 19 10 20 11
REMARK SMILES IDX 9 12 8 13 7 14 6 15 5 16 4 17 3 18 2 19 1 20
REMARK H PARENT
REMARK Flexibility Score: inf
ROOT
ATOM      1  C   UNL     1     -37.884  25.539 -21.321  1.00  0.00     0.000 C 
ENDROOT
BRANCH   1   2
ATOM      2  C   UNL     1     -37.396  24.615 -20.191  1.00  0.00     0.000 C 
BRANCH   2   3
ATOM      3  C   UNL     1     -38.017  23.207 -20.183  1.00  0.00     0.000 C 
BRANCH   3   4
ATOM      4  C   UNL     1     -38.135  22.611 -18.771  1.00  0.00     0.000 C 
BRANCH   4   5
ATOM      5  C   UNL     1     -38.927  21.296 -18.797  1.00  0.00     0.000 C 
BRANCH   5   6
ATOM      6  C   UNL     1     -40.446  21.515 -18.697  1.00  0.00     0.000 C 
BRANCH   6   7
ATOM      7  C   UNL     1     -40.809  22.891 -18.111  1.00  0.00     0.006 C 
BRANCH   7   8
ATOM      8  C   UNL     1     -42.118  22.852 -17.312  1.00  0.00     0.053 C 
BRANCH   8   9
ATOM      9  C   UNL     1     -42.051  23.716 -16.089  1.00  0.00     0.041 C 
ATOM     10  O   UNL     1     -41.214  24.654 -16.022  1.00  0.00    -0.550 OA
ATOM     11  O   UNL     1     -42.933  23.503 -15.038  1.00  0.00    -0.550 OA
ENDBRANCH   8   9
ENDBRANCH   7   8
ENDBRANCH   6   7
ENDBRANCH   5   6
ENDBRANCH   4   5
ENDBRANCH   3   4
ENDBRANCH   2   3
ENDBRANCH   1   2
BRANCH   1  12
ATOM     12  C   UNL     1     -37.155  26.894 -21.342  1.00  0.00     0.000 C 
BRANCH  12  13
ATOM     13  C   UNL     1     -37.745  27.867 -22.376  1.00  0.00    -0.000 C 
BRANCH  13  14
ATOM     14  C   UNL     1     -37.822  29.312 -21.853  1.00  0.00    -0.000 C 
BRANCH  14  15
ATOM     15  C   UNL     1     -37.245  30.326 -22.853  1.00  0.00    -0.000 C 
BRANCH  15  16
ATOM     16  C   UNL     1     -36.654  29.651 -24.104  1.00  0.00    -0.000 C 
BRANCH  16  17
ATOM     17  C   UNL     1     -36.883  30.491 -25.379  1.00  0.00    -0.000 C 
BRANCH  17  18
ATOM     18  C   UNL     1     -35.810  31.570 -25.606  1.00  0.00    -0.000 C 
BRANCH  18  19
ATOM     19  C   UNL     1     -36.406  32.960 -25.861  1.00  0.00    -0.003 C 
ATOM     20  C   UNL     1     -37.924  32.948 -25.694  1.00  0.00     0.004 C 
ENDBRANCH  18  19
ENDBRANCH  17  18
ENDBRANCH  16  17
ENDBRANCH  15  16
ENDBRANCH  14  15
ENDBRANCH  13  14
ENDBRANCH  12  13
ENDBRANCH   1  12
TORSDOF 16
ENDMDL
MODEL 8
REMARK VINA RESULT:    22.424      6.603      9.937
REMARK INTER + INTRA:          42.664
REMARK INTER:                  43.495
REMARK INTRA:                  -0.831
REMARK UNBOUND:                -0.734
REMARK SMILES CCCCCCCCCCCCCCCCCC(=O)[O-]
REMARK SMILES IDX 10 1 11 2 12 3 13 4 14 5 15 6 16 7 17 8 18 9 19 10 20 11
REMARK SMILES IDX 9 12 8 13 7 14 6 15 5 16 4 17 3 18 2 19 1 20
REMARK H PARENT
REMARK Flexibility Score: inf
ROOT
ATOM      1  C   UNL     1     -39.712  24.491 -14.998  1.00  0.00     0.000 C 
ENDROOT
BRANCH   1   2
ATOM      2  C   UNL     1     -39.296  25.245 -13.721  1.00  0.00     0.000 C 
BRANCH   2   3
ATOM      3  C   UNL     1     -39.587  24.507 -12.402  1.00  0.00     0.000 C 
BRANCH   3   4
ATOM      4  C   UNL     1     -41.077  24.178 -12.214  1.00  0.00     0.000 C 
BRANCH   4   5
ATOM      5  C   UNL     1     -41.555  24.587 -10.813  1.00  0.00     0.000 C 
BRANCH   5   6
ATOM      6  C   UNL     1     -43.073  24.821 -10.748  1.00  0.00     0.000 C 
BRANCH   6   7
ATOM      7  C   UNL     1     -43.585  24.993  -9.307  1.00  0.00     0.006 C 
BRANCH   7   8
ATOM      8  C   UNL     1     -45.107  25.175  -9.252  1.00  0.00     0.053 C 
BRANCH   8   9
ATOM      9  C   UNL     1     -45.548  25.807  -7.967  1.00  0.00     0.041 C 
ATOM     10  O   UNL     1     -44.873  25.642  -6.917  1.00  0.00    -0.550 OA
ATOM     11  O   UNL     1     -46.686  26.602  -7.936  1.00  0.00    -0.550 OA
ENDBRANCH   8   9
ENDBRANCH   7   8
ENDBRANCH   6   7
ENDBRANCH   5   6
ENDBRANCH   4   5
ENDBRANCH   3   4
ENDBRANCH   2   3
ENDBRANCH   1   2
BRANCH   1  12
ATOM     12  C   UNL     1     -41.001  25.047 -15.627  1.00  0.00     0.000 C 
BRANCH  12  13
ATOM     13  C   UNL     1     -42.245  24.228 -15.244  1.00  0.00    -0.000 C 
BRANCH  13  14
ATOM     14  C   UNL     1     -42.595  23.158 -16.294  1.00  0.00    -0.000 C 
BRANCH  14  15
ATOM     15  C   UNL     1     -41.731  23.277 -17.559  1.00  0.00    -0.000 C 
BRANCH  15  16
ATOM     16  C   UNL     1     -41.608  21.943 -18.317  1.00  0.00    -0.000 C 
BRANCH  16  17
ATOM     17  C   UNL     1     -40.151  21.645 -18.733  1.00  0.00    -0.000 C 
BRANCH  17  18
ATOM     18  C   UNL     1     -39.135  22.658 -18.181  1.00  0.00    -0.000 C 
BRANCH  18  19
ATOM     19  C   UNL     1     -37.849  22.730 -19.016  1.00  0.00    -0.003 C 
ATOM     20  C   UNL     1     -38.013  23.681 -20.199  1.00  0.00     0.004 C 
ENDBRANCH  18  19
ENDBRANCH  17  18
ENDBRANCH  16  17
ENDBRANCH  15  16
ENDBRANCH  14  15
ENDBRANCH  13  14
ENDBRANCH  12  13
ENDBRANCH   1  12
TORSDOF 16
ENDMDL
MODEL 9
REMARK VINA RESULT:    23.012      3.150      7.931
REMARK INTER + INTRA:          43.803
REMARK INTER:                  43.401
REMARK INTRA:                   0.402
REMARK UNBOUND:                -0.734
REMARK SMILES CCCCCCCCCCCCCCCCCC(=O)[O-]
REMARK SMILES IDX 10 1 11 2 12 3 13 4 14 5 15 6 16 7 17 8 18 9 19 10 20 11
REMARK SMILES IDX 9 12 8 13 7 14 6 15 5 16 4 17 3 18 2 19 1 20
REMARK H PARENT
REMARK Flexibility Score: inf
ROOT
ATOM      1  C   UNL     1     -37.395  24.229 -20.463  1.00  0.00     0.000 C 
ENDROOT
BRANCH   1   2
ATOM      2  C   UNL     1     -38.425  23.470 -19.606  1.00  0.00     0.000 C 
BRANCH   2   3
ATOM      3  C   UNL     1     -37.884  22.223 -18.883  1.00  0.00     0.000 C 
BRANCH   3   4
ATOM      4  C   UNL     1     -38.756  20.977 -19.103  1.00  0.00     0.000 C 
BRANCH   4   5
ATOM      5  C   UNL     1     -40.213  21.250 -18.702  1.00  0.00     0.000 C 
BRANCH   5   6
ATOM      6  C   UNL     1     -40.392  22.609 -18.005  1.00  0.00     0.000 C 
BRANCH   6   7
ATOM      7  C   UNL     1     -41.858  23.075 -17.985  1.00  0.00     0.006 C 
BRANCH   7   8
ATOM      8  C   UNL     1     -42.528  22.821 -16.628  1.00  0.00     0.053 C 
BRANCH   8   9
ATOM      9  C   UNL     1     -42.178  23.878 -15.626  1.00  0.00     0.041 C 
ATOM     10  O   UNL     1     -41.379  24.801 -15.933  1.00  0.00    -0.550 OA
ATOM     11  O   UNL     1     -42.757  23.860 -14.364  1.00  0.00    -0.550 OA
ENDBRANCH   8   9
ENDBRANCH   7   8
ENDBRANCH   6   7
ENDBRANCH   5   6
ENDBRANCH   4   5
ENDBRANCH   3   4
ENDBRANCH   2   3
ENDBRANCH   1   2
BRANCH   1  12
ATOM     12  C   UNL     1     -38.014  25.404 -21.240  1.00  0.00     0.000 C 
BRANCH  12  13
ATOM     13  C   UNL     1     -37.268  26.727 -21.003  1.00  0.00    -0.000 C 
BRANCH  13  14
ATOM     14  C   UNL     1     -37.491  27.744 -22.137  1.00  0.00    -0.000 C 
BRANCH  14  15
ATOM     15  C   UNL     1     -38.937  28.263 -22.179  1.00  0.00    -0.000 C 
BRANCH  15  16
ATOM     16  C   UNL     1     -39.124  29.557 -21.366  1.00  0.00    -0.000 C 
BRANCH  16  17
ATOM     17  C   UNL     1     -40.583  29.743 -20.900  1.00  0.00    -0.000 C 
BRANCH  17  18
ATOM     18  C   UNL     1     -41.522  30.252 -22.006  1.00  0.00    -0.000 C 
BRANCH  18  19
ATOM     19  C   UNL     1     -42.527  31.297 -21.503  1.00  0.00    -0.003 C 
ATOM     20  C   UNL     1     -43.825  31.244 -22.305  1.00  0.00     0.004 C 
ENDBRANCH  18  19
ENDBRANCH  17  18
ENDBRANCH  16  17
ENDBRANCH  15  16
ENDBRANCH  14  15
ENDBRANCH  13  14
ENDBRANCH  12  13
ENDBRANCH   1  12
TORSDOF 16
ENDMDL
