MODEL 1
REMARK VINA RESULT:    -7.787      0.000      0.000
REMARK INTER + INTRA:          -9.095
REMARK INTER:                  -8.470
REMARK INTRA:                  -0.625
REMARK UNBOUND:                -0.625
REMARK SMILES C=C(C)[C@@H]1CC[C@@]2(C)CC[C@@]3(C)[C@H](CC[C@H]4[C@]5(C)CC[C@@H](O)C(C)(C)[C@@H]5CC[C@]43C)[C@H]12
REMARK SMILES IDX 4 1 5 2 6 3 7 4 31 5 13 6 14 7 15 8 16 9 17 10 19 11 20 12
REMARK SMILES IDX 21 13 23 14 26 15 27 16 28 17 29 18 11 19 10 20 9 21 12 22
REMARK SMILES IDX 30 23 24 24 25 25 18 26 8 27 2 28 3 29 1 30 22 31
REMARK H PARENT 22 32
REMARK Flexibility Score: inf
ROOT
ATOM      1  C   UNL     1       2.308  26.837  27.751  1.00  0.00     0.018 C 
ATOM      2  C   UNL     1       2.707  27.130  26.276  1.00  0.00     0.009 C 
ATOM      3  C   UNL     1       1.750  26.292  25.401  1.00  0.00     0.008 C 
ATOM      4  C   UNL     1       0.456  26.155  26.226  1.00  0.00    -0.029 C 
ATOM      5  C   UNL     1       1.021  25.971  27.640  1.00  0.00     0.006 C 
ATOM      6  C   UNL     1      -0.023  25.712  28.784  1.00  0.00    -0.000 C 
ATOM      7  C   UNL     1      -0.790  26.949  29.253  1.00  0.00     0.005 C 
ATOM      8  C   UNL     1      -1.524  26.670  30.572  1.00  0.00     0.005 C 
ATOM      9  C   UNL     1      -1.999  25.188  30.811  1.00  0.00     0.002 C 
ATOM     10  C   UNL     1      -3.137  25.132  31.944  1.00  0.00    -0.026 C 
ATOM     11  C   UNL     1      -3.104  23.722  32.657  1.00  0.00     0.010 C 
ATOM     12  C   UNL     1      -4.430  23.089  33.152  1.00  0.00     0.033 C 
ATOM     13  C   UNL     1      -5.710  23.536  32.434  1.00  0.00     0.120 C 
ATOM     14  C   UNL     1      -5.807  25.081  32.241  1.00  0.00    -0.006 C 
ATOM     15  C   UNL     1      -4.569  25.557  31.362  1.00  0.00     0.003 C 
ATOM     16  C   UNL     1      -4.808  25.226  29.845  1.00  0.00     0.005 C 
ATOM     17  C   UNL     1      -3.600  25.255  28.897  1.00  0.00     0.008 C 
ATOM     18  C   UNL     1      -2.350  24.493  29.432  1.00  0.00    -0.024 C 
ATOM     19  C   UNL     1      -1.040  24.531  28.423  1.00  0.00    -0.024 C 
ATOM     20  C   UNL     1      -1.492  24.632  26.913  1.00  0.00     0.008 C 
ATOM     21  C   UNL     1      -0.372  24.895  25.870  1.00  0.00     0.007 C 
ATOM     22  C   UNL     1      -0.229  23.193  28.557  1.00  0.00     0.012 C 
ATOM     23  C   UNL     1      -2.828  23.004  29.597  1.00  0.00     0.012 C 
ATOM     24  C   UNL     1      -5.862  25.828  33.610  1.00  0.00     0.014 C 
ATOM     25  C   UNL     1      -7.156  25.413  31.537  1.00  0.00     0.014 C 
ATOM     26  C   UNL     1      -2.735  26.142  33.080  1.00  0.00     0.012 C 
ATOM     27  C   UNL     1      -0.375  27.451  26.017  1.00  0.00     0.011 C 
ENDROOT
BRANCH   1  28
ATOM     28  C   UNL     1       2.276  28.018  28.725  1.00  0.00    -0.077 C 
ATOM     29  C   UNL     1       1.787  29.406  28.374  1.00  0.00     0.039 C 
ATOM     30  C   UNL     1       2.749  27.835  29.971  1.00  0.00     0.008 C 
ENDBRANCH   1  28
BRANCH  13  31
ATOM     31  O   UNL     1      -6.838  22.996  33.081  1.00  0.00    -0.393 OA
ATOM     32  H   UNL     1      -6.693  22.024  33.206  1.00  0.00     0.210 HD
ENDBRANCH  13  31
TORSDOF 2
ENDMDL
MODEL 2
REMARK VINA RESULT:    -7.013      2.686      7.716
REMARK INTER + INTRA:          -8.253
REMARK INTER:                  -7.643
REMARK INTRA:                  -0.611
REMARK UNBOUND:                -0.625
REMARK SMILES C=C(C)[C@@H]1CC[C@@]2(C)CC[C@@]3(C)[C@H](CC[C@H]4[C@]5(C)CC[C@@H](O)C(C)(C)[C@@H]5CC[C@]43C)[C@H]12
REMARK SMILES IDX 4 1 5 2 6 3 7 4 31 5 13 6 14 7 15 8 16 9 17 10 19 11 20 12
REMARK SMILES IDX 21 13 23 14 26 15 27 16 28 17 29 18 11 19 10 20 9 21 12 22
REMARK SMILES IDX 30 23 24 24 25 25 18 26 8 27 2 28 3 29 1 30 22 31
REMARK H PARENT 22 32
REMARK Flexibility Score: inf
ROOT
ATOM      1  C   UNL     1      -6.251  24.993  31.695  1.00  0.00     0.018 C 
ATOM      2  C   UNL     1      -6.591  24.234  33.010  1.00  0.00     0.009 C 
ATOM      3  C   UNL     1      -5.388  23.308  33.291  1.00  0.00     0.008 C 
ATOM      4  C   UNL     1      -4.171  24.018  32.668  1.00  0.00    -0.029 C 
ATOM      5  C   UNL     1      -4.782  24.585  31.382  1.00  0.00     0.006 C 
ATOM      6  C   UNL     1      -3.802  25.332  30.408  1.00  0.00    -0.000 C 
ATOM      7  C   UNL     1      -3.409  26.744  30.842  1.00  0.00     0.005 C 
ATOM      8  C   UNL     1      -2.736  27.503  29.691  1.00  0.00     0.005 C 
ATOM      9  C   UNL     1      -1.926  26.635  28.657  1.00  0.00     0.002 C 
ATOM     10  C   UNL     1      -0.904  27.553  27.823  1.00  0.00    -0.026 C 
ATOM     11  C   UNL     1      -0.639  26.898  26.409  1.00  0.00     0.010 C 
ATOM     12  C   UNL     1       0.760  27.041  25.755  1.00  0.00     0.033 C 
ATOM     13  C   UNL     1       1.939  27.268  26.708  1.00  0.00     0.120 C 
ATOM     14  C   UNL     1       1.661  28.353  27.795  1.00  0.00    -0.006 C 
ATOM     15  C   UNL     1       0.418  27.882  28.668  1.00  0.00     0.003 C 
ATOM     16  C   UNL     1       0.852  26.780  29.700  1.00  0.00     0.005 C 
ATOM     17  C   UNL     1      -0.245  25.936  30.365  1.00  0.00     0.008 C 
ATOM     18  C   UNL     1      -1.303  25.367  29.372  1.00  0.00    -0.024 C 
ATOM     19  C   UNL     1      -2.495  24.467  30.081  1.00  0.00    -0.024 C 
ATOM     20  C   UNL     1      -1.964  23.752  31.385  1.00  0.00     0.008 C 
ATOM     21  C   UNL     1      -3.027  23.050  32.273  1.00  0.00     0.007 C 
ATOM     22  C   UNL     1      -2.954  23.328  29.102  1.00  0.00     0.012 C 
ATOM     23  C   UNL     1      -0.482  24.450  28.393  1.00  0.00     0.012 C 
ATOM     24  C   UNL     1       1.418  29.755  27.155  1.00  0.00     0.014 C 
ATOM     25  C   UNL     1       2.935  28.518  28.674  1.00  0.00     0.014 C 
ATOM     26  C   UNL     1      -1.635  28.903  27.486  1.00  0.00     0.012 C 
ATOM     27  C   UNL     1      -3.677  25.085  33.684  1.00  0.00     0.011 C 
ENDROOT
BRANCH   1  28
ATOM     28  C   UNL     1      -6.592  26.484  31.628  1.00  0.00    -0.077 C 
ATOM     29  C   UNL     1      -6.974  27.219  30.361  1.00  0.00     0.039 C 
ATOM     30  C   UNL     1      -6.512  27.212  32.756  1.00  0.00     0.008 C 
ENDBRANCH   1  28
BRANCH  13  31
ATOM     31  O   UNL     1       3.112  27.523  25.971  1.00  0.00    -0.393 OA
ATOM     32  H   UNL     1       2.853  27.816  25.061  1.00  0.00     0.210 HD
ENDBRANCH  13  31
TORSDOF 2
ENDMDL
MODEL 3
REMARK VINA RESULT:    -6.848      1.697      2.901
REMARK INTER + INTRA:          -8.074
REMARK INTER:                  -7.466
REMARK INTRA:                  -0.608
REMARK UNBOUND:                -0.625
REMARK SMILES C=C(C)[C@@H]1CC[C@@]2(C)CC[C@@]3(C)[C@H](CC[C@H]4[C@]5(C)CC[C@@H](O)C(C)(C)[C@@H]5CC[C@]43C)[C@H]12
REMARK SMILES IDX 4 1 5 2 6 3 7 4 31 5 13 6 14 7 15 8 16 9 17 10 19 11 20 12
REMARK SMILES IDX 21 13 23 14 26 15 27 16 28 17 29 18 11 19 10 20 9 21 12 22
REMARK SMILES IDX 30 23 24 24 25 25 18 26 8 27 2 28 3 29 1 30 22 31
REMARK H PARENT 22 32
REMARK Flexibility Score: inf
ROOT
ATOM      1  C   UNL     1       1.542  26.618  25.605  1.00  0.00     0.018 C 
ATOM      2  C   UNL     1       2.117  27.763  24.722  1.00  0.00     0.009 C 
ATOM      3  C   UNL     1       1.008  28.834  24.638  1.00  0.00     0.008 C 
ATOM      4  C   UNL     1       0.209  28.697  25.948  1.00  0.00    -0.029 C 
ATOM      5  C   UNL     1       0.187  27.175  26.128  1.00  0.00     0.006 C 
ATOM      6  C   UNL     1      -0.631  26.624  27.349  1.00  0.00    -0.000 C 
ATOM      7  C   UNL     1       0.054  26.773  28.708  1.00  0.00     0.005 C 
ATOM      8  C   UNL     1      -0.652  25.923  29.773  1.00  0.00     0.005 C 
ATOM      9  C   UNL     1      -2.198  25.697  29.579  1.00  0.00     0.002 C 
ATOM     10  C   UNL     1      -2.881  25.233  30.958  1.00  0.00    -0.026 C 
ATOM     11  C   UNL     1      -4.168  24.369  30.646  1.00  0.00     0.010 C 
ATOM     12  C   UNL     1      -5.390  24.455  31.596  1.00  0.00     0.033 C 
ATOM     13  C   UNL     1      -5.535  25.747  32.408  1.00  0.00     0.120 C 
ATOM     14  C   UNL     1      -4.205  26.210  33.082  1.00  0.00    -0.006 C 
ATOM     15  C   UNL     1      -3.129  26.475  31.940  1.00  0.00     0.003 C 
ATOM     16  C   UNL     1      -3.398  27.852  31.235  1.00  0.00     0.005 C 
ATOM     17  C   UNL     1      -2.721  28.119  29.882  1.00  0.00     0.008 C 
ATOM     18  C   UNL     1      -2.852  26.948  28.862  1.00  0.00    -0.024 C 
ATOM     19  C   UNL     1      -2.115  27.222  27.407  1.00  0.00    -0.024 C 
ATOM     20  C   UNL     1      -2.105  28.762  27.059  1.00  0.00     0.008 C 
ATOM     21  C   UNL     1      -1.256  29.190  25.831  1.00  0.00     0.007 C 
ATOM     22  C   UNL     1      -2.922  26.511  26.261  1.00  0.00     0.012 C 
ATOM     23  C   UNL     1      -4.398  26.787  28.631  1.00  0.00     0.012 C 
ATOM     24  C   UNL     1      -3.696  25.165  34.123  1.00  0.00     0.014 C 
ATOM     25  C   UNL     1      -4.484  27.505  33.901  1.00  0.00     0.014 C 
ATOM     26  C   UNL     1      -1.906  24.221  31.662  1.00  0.00     0.012 C 
ATOM     27  C   UNL     1       0.975  29.476  27.052  1.00  0.00     0.011 C 
ENDROOT
BRANCH   1  28
ATOM     28  C   UNL     1       2.478  25.976  26.633  1.00  0.00    -0.077 C 
ATOM     29  C   UNL     1       2.423  24.523  27.053  1.00  0.00     0.039 C 
ATOM     30  C   UNL     1       3.390  26.754  27.244  1.00  0.00     0.008 C 
ENDBRANCH   1  28
BRANCH  13  31
ATOM     31  O   UNL     1      -6.595  25.624  33.326  1.00  0.00    -0.393 OA
ATOM     32  H   UNL     1      -6.333  26.072  34.170  1.00  0.00     0.210 HD
ENDBRANCH  13  31
TORSDOF 2
ENDMDL
MODEL 4
REMARK VINA RESULT:    -6.425      2.164      2.982
REMARK INTER + INTRA:          -7.613
REMARK INTER:                  -6.989
REMARK INTRA:                  -0.624
REMARK UNBOUND:                -0.625
REMARK SMILES C=C(C)[C@@H]1CC[C@@]2(C)CC[C@@]3(C)[C@H](CC[C@H]4[C@]5(C)CC[C@@H](O)C(C)(C)[C@@H]5CC[C@]43C)[C@H]12
REMARK SMILES IDX 4 1 5 2 6 3 7 4 31 5 13 6 14 7 15 8 16 9 17 10 19 11 20 12
REMARK SMILES IDX 21 13 23 14 26 15 27 16 28 17 29 18 11 19 10 20 9 21 12 22
REMARK SMILES IDX 30 23 24 24 25 25 18 26 8 27 2 28 3 29 1 30 22 31
REMARK H PARENT 22 32
REMARK Flexibility Score: inf
ROOT
ATOM      1  C   UNL     1       2.152  25.622  28.342  1.00  0.00     0.018 C 
ATOM      2  C   UNL     1       2.709  24.567  27.343  1.00  0.00     0.009 C 
ATOM      3  C   UNL     1       1.704  23.396  27.357  1.00  0.00     0.008 C 
ATOM      4  C   UNL     1       0.343  24.028  27.705  1.00  0.00    -0.029 C 
ATOM      5  C   UNL     1       0.756  25.070  28.750  1.00  0.00     0.006 C 
ATOM      6  C   UNL     1      -0.404  25.889  29.422  1.00  0.00    -0.000 C 
ATOM      7  C   UNL     1      -0.999  26.998  28.554  1.00  0.00     0.005 C 
ATOM      8  C   UNL     1      -1.872  27.940  29.394  1.00  0.00     0.005 C 
ATOM      9  C   UNL     1      -2.594  27.304  30.640  1.00  0.00     0.002 C 
ATOM     10  C   UNL     1      -3.813  28.232  31.124  1.00  0.00    -0.026 C 
ATOM     11  C   UNL     1      -4.063  28.014  32.670  1.00  0.00     0.010 C 
ATOM     12  C   UNL     1      -5.508  28.093  33.226  1.00  0.00     0.033 C 
ATOM     13  C   UNL     1      -6.638  27.790  32.235  1.00  0.00     0.120 C 
ATOM     14  C   UNL     1      -6.473  28.514  30.863  1.00  0.00    -0.006 C 
ATOM     15  C   UNL     1      -5.109  28.032  30.201  1.00  0.00     0.003 C 
ATOM     16  C   UNL     1      -5.275  26.603  29.569  1.00  0.00     0.005 C 
ATOM     17  C   UNL     1      -4.005  25.811  29.223  1.00  0.00     0.008 C 
ATOM     18  C   UNL     1      -2.940  25.785  30.360  1.00  0.00    -0.024 C 
ATOM     19  C   UNL     1      -1.564  24.944  29.991  1.00  0.00    -0.024 C 
ATOM     20  C   UNL     1      -1.872  23.773  28.977  1.00  0.00     0.008 C 
ATOM     21  C   UNL     1      -0.644  23.038  28.373  1.00  0.00     0.007 C 
ATOM     22  C   UNL     1      -0.989  24.272  31.289  1.00  0.00     0.012 C 
ATOM     23  C   UNL     1      -3.660  25.084  31.569  1.00  0.00     0.012 C 
ATOM     24  C   UNL     1      -6.518  30.066  31.024  1.00  0.00     0.014 C 
ATOM     25  C   UNL     1      -7.691  28.159  29.960  1.00  0.00     0.014 C 
ATOM     26  C   UNL     1      -3.349  29.730  31.022  1.00  0.00     0.012 C 
ATOM     27  C   UNL     1      -0.252  24.615  26.395  1.00  0.00     0.011 C 
ENDROOT
BRANCH   1  28
ATOM     28  C   UNL     1       2.229  27.096  27.935  1.00  0.00    -0.077 C 
ATOM     29  C   UNL     1       1.999  27.611  26.530  1.00  0.00     0.039 C 
ATOM     30  C   UNL     1       2.565  28.003  28.869  1.00  0.00     0.008 C 
ENDBRANCH   1  28
BRANCH  13  31
ATOM     31  O   UNL     1      -7.887  28.042  32.836  1.00  0.00    -0.393 OA
ATOM     32  H   UNL     1      -8.519  27.333  32.554  1.00  0.00     0.210 HD
ENDBRANCH  13  31
TORSDOF 2
ENDMDL
MODEL 5
REMARK VINA RESULT:    -6.309      3.127      7.515
REMARK INTER + INTRA:          -7.487
REMARK INTER:                  -6.912
REMARK INTRA:                  -0.575
REMARK UNBOUND:                -0.625
REMARK SMILES C=C(C)[C@@H]1CC[C@@]2(C)CC[C@@]3(C)[C@H](CC[C@H]4[C@]5(C)CC[C@@H](O)C(C)(C)[C@@H]5CC[C@]43C)[C@H]12
REMARK SMILES IDX 4 1 5 2 6 3 7 4 31 5 13 6 14 7 15 8 16 9 17 10 19 11 20 12
REMARK SMILES IDX 21 13 23 14 26 15 27 16 28 17 29 18 11 19 10 20 9 21 12 22
REMARK SMILES IDX 30 23 24 24 25 25 18 26 8 27 2 28 3 29 1 30 22 31
REMARK H PARENT 22 32
REMARK Flexibility Score: inf
ROOT
ATOM      1  C   UNL     1      -3.409  25.725  32.819  1.00  0.00     0.018 C 
ATOM      2  C   UNL     1      -3.601  24.341  33.504  1.00  0.00     0.009 C 
ATOM      3  C   UNL     1      -3.698  23.310  32.359  1.00  0.00     0.008 C 
ATOM      4  C   UNL     1      -2.872  23.904  31.202  1.00  0.00    -0.029 C 
ATOM      5  C   UNL     1      -3.233  25.390  31.310  1.00  0.00     0.006 C 
ATOM      6  C   UNL     1      -2.630  26.341  30.215  1.00  0.00    -0.000 C 
ATOM      7  C   UNL     1      -1.153  26.687  30.401  1.00  0.00     0.005 C 
ATOM      8  C   UNL     1      -0.749  27.861  29.498  1.00  0.00     0.005 C 
ATOM      9  C   UNL     1      -1.529  28.001  28.138  1.00  0.00     0.002 C 
ATOM     10  C   UNL     1      -0.713  28.927  27.109  1.00  0.00    -0.026 C 
ATOM     11  C   UNL     1      -1.721  29.621  26.108  1.00  0.00     0.010 C 
ATOM     12  C   UNL     1      -1.282  29.879  24.643  1.00  0.00     0.033 C 
ATOM     13  C   UNL     1      -0.186  28.962  24.087  1.00  0.00     0.120 C 
ATOM     14  C   UNL     1       1.019  28.771  25.060  1.00  0.00    -0.006 C 
ATOM     15  C   UNL     1       0.479  28.117  26.406  1.00  0.00     0.003 C 
ATOM     16  C   UNL     1       0.230  26.578  26.213  1.00  0.00     0.005 C 
ATOM     17  C   UNL     1      -0.632  25.847  27.252  1.00  0.00     0.008 C 
ATOM     18  C   UNL     1      -1.964  26.576  27.603  1.00  0.00    -0.024 C 
ATOM     19  C   UNL     1      -2.893  25.801  28.731  1.00  0.00    -0.024 C 
ATOM     20  C   UNL     1      -2.677  24.238  28.664  1.00  0.00     0.008 C 
ATOM     21  C   UNL     1      -3.316  23.401  29.805  1.00  0.00     0.007 C 
ATOM     22  C   UNL     1      -4.414  26.056  28.432  1.00  0.00     0.012 C 
ATOM     23  C   UNL     1      -2.755  26.643  26.246  1.00  0.00     0.012 C 
ATOM     24  C   UNL     1       1.757  30.119  25.329  1.00  0.00     0.014 C 
ATOM     25  C   UNL     1       2.075  27.854  24.374  1.00  0.00     0.014 C 
ATOM     26  C   UNL     1      -0.098  30.124  27.920  1.00  0.00     0.012 C 
ATOM     27  C   UNL     1      -1.379  23.571  31.469  1.00  0.00     0.011 C 
ENDROOT
BRANCH   1  28
ATOM     28  C   UNL     1      -2.401  26.692  33.444  1.00  0.00    -0.077 C 
ATOM     29  C   UNL     1      -2.590  28.191  33.531  1.00  0.00     0.039 C 
ATOM     30  C   UNL     1      -1.242  26.196  33.915  1.00  0.00     0.008 C 
ENDBRANCH   1  28
BRANCH  13  31
ATOM     31  O   UNL     1       0.210  29.404  22.810  1.00  0.00    -0.393 OA
ATOM     32  H   UNL     1       0.530  28.621  22.292  1.00  0.00     0.210 HD
ENDBRANCH  13  31
TORSDOF 2
ENDMDL
MODEL 6
REMARK VINA RESULT:    -5.915      2.309      4.234
REMARK INTER + INTRA:          -7.059
REMARK INTER:                  -6.445
REMARK INTRA:                  -0.614
REMARK UNBOUND:                -0.625
REMARK SMILES C=C(C)[C@@H]1CC[C@@]2(C)CC[C@@]3(C)[C@H](CC[C@H]4[C@]5(C)CC[C@@H](O)C(C)(C)[C@@H]5CC[C@]43C)[C@H]12
REMARK SMILES IDX 4 1 5 2 6 3 7 4 31 5 13 6 14 7 15 8 16 9 17 10 19 11 20 12
REMARK SMILES IDX 21 13 23 14 26 15 27 16 28 17 29 18 11 19 10 20 9 21 12 22
REMARK SMILES IDX 30 23 24 24 25 25 18 26 8 27 2 28 3 29 1 30 22 31
REMARK H PARENT 22 32
REMARK Flexibility Score: inf
ROOT
ATOM      1  C   UNL     1       0.583  25.340  26.284  1.00  0.00     0.018 C 
ATOM      2  C   UNL     1       2.099  25.620  26.067  1.00  0.00     0.009 C 
ATOM      3  C   UNL     1       2.340  27.063  26.558  1.00  0.00     0.008 C 
ATOM      4  C   UNL     1       1.283  27.304  27.652  1.00  0.00    -0.029 C 
ATOM      5  C   UNL     1       0.066  26.589  27.055  1.00  0.00     0.006 C 
ATOM      6  C   UNL     1      -1.274  26.685  27.868  1.00  0.00    -0.000 C 
ATOM      7  C   UNL     1      -1.350  25.783  29.101  1.00  0.00     0.005 C 
ATOM      8  C   UNL     1      -2.789  25.695  29.626  1.00  0.00     0.005 C 
ATOM      9  C   UNL     1      -3.700  26.958  29.393  1.00  0.00     0.002 C 
ATOM     10  C   UNL     1      -4.967  26.934  30.381  1.00  0.00    -0.026 C 
ATOM     11  C   UNL     1      -6.167  27.726  29.722  1.00  0.00     0.010 C 
ATOM     12  C   UNL     1      -7.138  28.527  30.626  1.00  0.00     0.033 C 
ATOM     13  C   UNL     1      -6.582  28.998  31.976  1.00  0.00     0.120 C 
ATOM     14  C   UNL     1      -5.805  27.887  32.750  1.00  0.00    -0.006 C 
ATOM     15  C   UNL     1      -4.573  27.421  31.857  1.00  0.00     0.003 C 
ATOM     16  C   UNL     1      -3.405  28.468  31.934  1.00  0.00     0.005 C 
ATOM     17  C   UNL     1      -2.299  28.402  30.871  1.00  0.00     0.008 C 
ATOM     18  C   UNL     1      -2.825  28.278  29.410  1.00  0.00    -0.024 C 
ATOM     19  C   UNL     1      -1.641  28.193  28.259  1.00  0.00    -0.024 C 
ATOM     20  C   UNL     1      -0.348  28.975  28.719  1.00  0.00     0.008 C 
ATOM     21  C   UNL     1       0.919  28.799  27.839  1.00  0.00     0.007 C 
ATOM     22  C   UNL     1      -2.134  28.884  26.937  1.00  0.00     0.012 C 
ATOM     23  C   UNL     1      -3.674  29.581  29.177  1.00  0.00     0.012 C 
ATOM     24  C   UNL     1      -6.734  26.689  33.121  1.00  0.00     0.014 C 
ATOM     25  C   UNL     1      -5.322  28.470  34.111  1.00  0.00     0.014 C 
ATOM     26  C   UNL     1      -5.488  25.453  30.461  1.00  0.00     0.012 C 
ATOM     27  C   UNL     1       1.822  26.689  28.973  1.00  0.00     0.011 C 
ENDROOT
BRANCH   1  28
ATOM     28  C   UNL     1       0.186  23.966  26.830  1.00  0.00    -0.077 C 
ATOM     29  C   UNL     1       0.989  23.182  27.846  1.00  0.00     0.039 C 
ATOM     30  C   UNL     1      -0.929  23.384  26.353  1.00  0.00     0.008 C 
ENDBRANCH   1  28
BRANCH  13  31
ATOM     31  O   UNL     1      -7.610  29.578  32.744  1.00  0.00    -0.393 OA
ATOM     32  H   UNL     1      -8.462  29.123  32.524  1.00  0.00     0.210 HD
ENDBRANCH  13  31
TORSDOF 2
ENDMDL
MODEL 7
REMARK VINA RESULT:    -5.642      2.718      7.642
REMARK INTER + INTRA:          -6.762
REMARK INTER:                  -6.143
REMARK INTRA:                  -0.618
REMARK UNBOUND:                -0.625
REMARK SMILES C=C(C)[C@@H]1CC[C@@]2(C)CC[C@@]3(C)[C@H](CC[C@H]4[C@]5(C)CC[C@@H](O)C(C)(C)[C@@H]5CC[C@]43C)[C@H]12
REMARK SMILES IDX 4 1 5 2 6 3 7 4 31 5 13 6 14 7 15 8 16 9 17 10 19 11 20 12
REMARK SMILES IDX 21 13 23 14 26 15 27 16 28 17 29 18 11 19 10 20 9 21 12 22
REMARK SMILES IDX 30 23 24 24 25 25 18 26 8 27 2 28 3 29 1 30 22 31
REMARK H PARENT 22 32
REMARK Flexibility Score: inf
ROOT
ATOM      1  C   UNL     1      -6.170  27.411  32.666  1.00  0.00     0.018 C 
ATOM      2  C   UNL     1      -6.808  26.682  33.884  1.00  0.00     0.009 C 
ATOM      3  C   UNL     1      -6.401  25.198  33.753  1.00  0.00     0.008 C 
ATOM      4  C   UNL     1      -5.052  25.209  33.010  1.00  0.00    -0.029 C 
ATOM      5  C   UNL     1      -5.280  26.329  31.989  1.00  0.00     0.006 C 
ATOM      6  C   UNL     1      -4.120  26.593  30.964  1.00  0.00    -0.000 C 
ATOM      7  C   UNL     1      -2.919  27.353  31.528  1.00  0.00     0.005 C 
ATOM      8  C   UNL     1      -2.007  27.849  30.398  1.00  0.00     0.005 C 
ATOM      9  C   UNL     1      -1.968  26.972  29.091  1.00  0.00     0.002 C 
ATOM     10  C   UNL     1      -0.661  27.310  28.219  1.00  0.00    -0.026 C 
ATOM     11  C   UNL     1      -0.950  27.009  26.694  1.00  0.00     0.010 C 
ATOM     12  C   UNL     1       0.195  26.481  25.792  1.00  0.00     0.033 C 
ATOM     13  C   UNL     1       1.333  25.735  26.500  1.00  0.00     0.120 C 
ATOM     14  C   UNL     1       1.850  26.461  27.781  1.00  0.00    -0.006 C 
ATOM     15  C   UNL     1       0.643  26.588  28.809  1.00  0.00     0.003 C 
ATOM     16  C   UNL     1       0.389  25.219  29.536  1.00  0.00     0.005 C 
ATOM     17  C   UNL     1      -0.945  25.026  30.272  1.00  0.00     0.008 C 
ATOM     18  C   UNL     1      -2.197  25.446  29.445  1.00  0.00    -0.024 C 
ATOM     19  C   UNL     1      -3.637  25.253  30.235  1.00  0.00    -0.024 C 
ATOM     20  C   UNL     1      -3.561  24.058  31.266  1.00  0.00     0.008 C 
ATOM     21  C   UNL     1      -4.765  23.899  32.233  1.00  0.00     0.007 C 
ATOM     22  C   UNL     1      -4.762  24.881  29.204  1.00  0.00     0.012 C 
ATOM     23  C   UNL     1      -2.176  24.511  28.181  1.00  0.00     0.012 C 
ATOM     24  C   UNL     1       2.467  27.854  27.441  1.00  0.00     0.014 C 
ATOM     25  C   UNL     1       3.020  25.631  28.388  1.00  0.00     0.014 C 
ATOM     26  C   UNL     1      -0.440  28.865  28.265  1.00  0.00     0.012 C 
ATOM     27  C   UNL     1      -3.940  25.493  34.057  1.00  0.00     0.011 C 
ENDROOT
BRANCH   1  28
ATOM     28  C   UNL     1      -5.537  28.783  32.913  1.00  0.00    -0.077 C 
ATOM     29  C   UNL     1      -4.704  29.138  34.125  1.00  0.00     0.039 C 
ATOM     30  C   UNL     1      -5.763  29.764  32.020  1.00  0.00     0.008 C 
ENDBRANCH   1  28
BRANCH  13  31
ATOM     31  O   UNL     1       2.363  25.446  25.584  1.00  0.00    -0.393 OA
ATOM     32  H   UNL     1       3.082  26.118  25.699  1.00  0.00     0.210 HD
ENDBRANCH  13  31
TORSDOF 2
ENDMDL
MODEL 8
REMARK VINA RESULT:    -5.625      2.614      8.136
REMARK INTER + INTRA:          -6.743
REMARK INTER:                  -6.192
REMARK INTRA:                  -0.551
REMARK UNBOUND:                -0.625
REMARK SMILES C=C(C)[C@@H]1CC[C@@]2(C)CC[C@@]3(C)[C@H](CC[C@H]4[C@]5(C)CC[C@@H](O)C(C)(C)[C@@H]5CC[C@]43C)[C@H]12
REMARK SMILES IDX 4 1 5 2 6 3 7 4 31 5 13 6 14 7 15 8 16 9 17 10 19 11 20 12
REMARK SMILES IDX 21 13 23 14 26 15 27 16 28 17 29 18 11 19 10 20 9 21 12 22
REMARK SMILES IDX 30 23 24 24 25 25 18 26 8 27 2 28 3 29 1 30 22 31
REMARK H PARENT 22 32
REMARK Flexibility Score: inf
ROOT
ATOM      1  C   UNL     1      -9.066  27.014  31.769  1.00  0.00     0.018 C 
ATOM      2  C   UNL     1      -9.599  27.785  33.012  1.00  0.00     0.009 C 
ATOM      3  C   UNL     1      -8.510  27.647  34.097  1.00  0.00     0.008 C 
ATOM      4  C   UNL     1      -7.182  27.503  33.328  1.00  0.00    -0.029 C 
ATOM      5  C   UNL     1      -7.611  26.618  32.153  1.00  0.00     0.006 C 
ATOM      6  C   UNL     1      -6.480  26.173  31.159  1.00  0.00    -0.000 C 
ATOM      7  C   UNL     1      -6.020  27.251  30.177  1.00  0.00     0.005 C 
ATOM      8  C   UNL     1      -5.175  26.641  29.052  1.00  0.00     0.005 C 
ATOM      9  C   UNL     1      -4.336  25.360  29.419  1.00  0.00     0.002 C 
ATOM     10  C   UNL     1      -3.164  25.121  28.346  1.00  0.00    -0.026 C 
ATOM     11  C   UNL     1      -2.811  23.581  28.282  1.00  0.00     0.010 C 
ATOM     12  C   UNL     1      -1.346  23.147  28.017  1.00  0.00     0.033 C 
ATOM     13  C   UNL     1      -0.255  24.150  28.410  1.00  0.00     0.120 C 
ATOM     14  C   UNL     1      -0.553  25.609  27.941  1.00  0.00    -0.006 C 
ATOM     15  C   UNL     1      -1.913  26.086  28.616  1.00  0.00     0.003 C 
ATOM     16  C   UNL     1      -1.677  26.482  30.117  1.00  0.00     0.005 C 
ATOM     17  C   UNL     1      -2.900  26.604  31.037  1.00  0.00     0.008 C 
ATOM     18  C   UNL     1      -3.894  25.408  30.939  1.00  0.00    -0.024 C 
ATOM     19  C   UNL     1      -5.221  25.537  31.916  1.00  0.00    -0.024 C 
ATOM     20  C   UNL     1      -4.885  26.363  33.220  1.00  0.00     0.008 C 
ATOM     21  C   UNL     1      -6.087  26.751  34.125  1.00  0.00     0.007 C 
ATOM     22  C   UNL     1      -5.669  24.110  32.395  1.00  0.00     0.012 C 
ATOM     23  C   UNL     1      -3.055  24.152  31.376  1.00  0.00     0.012 C 
ATOM     24  C   UNL     1      -0.616  25.709  26.385  1.00  0.00     0.014 C 
ATOM     25  C   UNL     1       0.634  26.522  28.365  1.00  0.00     0.014 C 
ATOM     26  C   UNL     1      -3.745  25.436  26.920  1.00  0.00     0.012 C 
ATOM     27  C   UNL     1      -6.709  28.930  32.935  1.00  0.00     0.011 C 
ENDROOT
BRANCH   1  28
ATOM     28  C   UNL     1      -9.277  27.653  30.394  1.00  0.00    -0.077 C 
ATOM     29  C   UNL     1      -8.971  29.098  30.064  1.00  0.00     0.039 C 
ATOM     30  C   UNL     1      -9.810  26.903  29.413  1.00  0.00     0.008 C 
ENDBRANCH   1  28
BRANCH  13  31
ATOM     31  O   UNL     1       1.003  23.687  27.980  1.00  0.00    -0.393 OA
ATOM     32  H   UNL     1       1.101  22.741  28.259  1.00  0.00     0.210 HD
ENDBRANCH  13  31
TORSDOF 2
ENDMDL
MODEL 9
REMARK VINA RESULT:    -5.513      1.935      3.878
REMARK INTER + INTRA:          -6.622
REMARK INTER:                  -6.464
REMARK INTRA:                  -0.157
REMARK UNBOUND:                -0.625
REMARK SMILES C=C(C)[C@@H]1CC[C@@]2(C)CC[C@@]3(C)[C@H](CC[C@H]4[C@]5(C)CC[C@@H](O)C(C)(C)[C@@H]5CC[C@]43C)[C@H]12
REMARK SMILES IDX 4 1 5 2 6 3 7 4 31 5 13 6 14 7 15 8 16 9 17 10 19 11 20 12
REMARK SMILES IDX 21 13 23 14 26 15 27 16 28 17 29 18 11 19 10 20 9 21 12 22
REMARK SMILES IDX 30 23 24 24 25 25 18 26 8 27 2 28 3 29 1 30 22 31
REMARK H PARENT 22 32
REMARK Flexibility Score: inf
ROOT
ATOM      1  C   UNL     1       0.291  29.870  24.960  1.00  0.00     0.018 C 
ATOM      2  C   UNL     1       1.439  29.685  23.926  1.00  0.00     0.009 C 
ATOM      3  C   UNL     1       2.499  28.803  24.620  1.00  0.00     0.008 C 
ATOM      4  C   UNL     1       1.715  27.932  25.620  1.00  0.00    -0.029 C 
ATOM      5  C   UNL     1       0.678  28.933  26.141  1.00  0.00     0.006 C 
ATOM      6  C   UNL     1      -0.284  28.424  27.272  1.00  0.00    -0.000 C 
ATOM      7  C   UNL     1      -1.411  27.505  26.799  1.00  0.00     0.005 C 
ATOM      8  C   UNL     1      -2.473  27.335  27.893  1.00  0.00     0.005 C 
ATOM      9  C   UNL     1      -1.969  27.426  29.382  1.00  0.00     0.002 C 
ATOM     10  C   UNL     1      -3.038  26.766  30.385  1.00  0.00    -0.026 C 
ATOM     11  C   UNL     1      -2.912  27.440  31.809  1.00  0.00     0.010 C 
ATOM     12  C   UNL     1      -3.163  26.587  33.079  1.00  0.00     0.033 C 
ATOM     13  C   UNL     1      -2.937  25.077  32.943  1.00  0.00     0.120 C 
ATOM     14  C   UNL     1      -3.581  24.465  31.660  1.00  0.00    -0.006 C 
ATOM     15  C   UNL     1      -2.933  25.166  30.388  1.00  0.00     0.003 C 
ATOM     16  C   UNL     1      -1.504  24.581  30.101  1.00  0.00     0.005 C 
ATOM     17  C   UNL     1      -0.571  25.369  29.170  1.00  0.00     0.008 C 
ATOM     18  C   UNL     1      -0.483  26.891  29.493  1.00  0.00    -0.024 C 
ATOM     19  C   UNL     1       0.510  27.749  28.487  1.00  0.00    -0.024 C 
ATOM     20  C   UNL     1       1.685  26.844  27.945  1.00  0.00     0.008 C 
ATOM     21  C   UNL     1       2.568  27.452  26.822  1.00  0.00     0.007 C 
ATOM     22  C   UNL     1       1.183  28.925  29.282  1.00  0.00     0.012 C 
ATOM     23  C   UNL     1       0.088  26.959  30.957  1.00  0.00     0.012 C 
ATOM     24  C   UNL     1      -5.135  24.614  31.671  1.00  0.00     0.014 C 
ATOM     25  C   UNL     1      -3.316  22.930  31.651  1.00  0.00     0.014 C 
ATOM     26  C   UNL     1      -4.474  27.176  29.896  1.00  0.00     0.012 C 
ATOM     27  C   UNL     1       1.126  26.727  24.835  1.00  0.00     0.011 C 
ENDROOT
BRANCH   1  28
ATOM     28  C   UNL     1      -1.148  29.787  24.444  1.00  0.00    -0.077 C 
ATOM     29  C   UNL     1      -2.374  30.125  25.265  1.00  0.00     0.039 C 
ATOM     30  C   UNL     1      -1.357  29.344  23.191  1.00  0.00     0.008 C 
ENDBRANCH   1  28
BRANCH  13  31
ATOM     31  O   UNL     1      -3.342  24.420  34.121  1.00  0.00    -0.393 OA
ATOM     32  H   UNL     1      -3.407  23.449  33.933  1.00  0.00     0.210 HD
ENDBRANCH  13  31
TORSDOF 2
ENDMDL
