MODEL 1
REMARK VINA RESULT:    -4.972      0.000      0.000
REMARK INTER + INTRA:          -9.178
REMARK INTER:                  -7.879
REMARK INTRA:                  -1.299
REMARK UNBOUND:                -1.299
REMARK SMILES CCCCCCCCCCCC(=O)[O-]
REMARK SMILES IDX 7 1 8 2 9 3 10 4 11 5 12 6 13 7 14 8 6 9 5 10 4 11 3 12 2 13
REMARK SMILES IDX 1 14
REMARK H PARENT
REMARK Flexibility Score: inf
ROOT
ATOM      1  C   UNL     1      16.100  21.488  11.293  1.00  0.00     0.000 C 
ENDROOT
BRANCH   1   2
ATOM      2  C   UNL     1      15.891  21.863  12.771  1.00  0.00     0.000 C 
BRANCH   2   3
ATOM      3  C   UNL     1      14.666  21.172  13.397  1.00  0.00     0.000 C 
BRANCH   3   4
ATOM      4  C   UNL     1      14.305  21.644  14.818  1.00  0.00     0.006 C 
BRANCH   4   5
ATOM      5  C   UNL     1      15.448  22.402  15.505  1.00  0.00     0.053 C 
BRANCH   5   6
ATOM      6  C   UNL     1      15.249  22.414  16.988  1.00  0.00     0.041 C 
ATOM      7  O   UNL     1      15.846  21.577  17.714  1.00  0.00    -0.550 OA
ATOM      8  O   UNL     1      14.364  23.318  17.563  1.00  0.00    -0.550 OA
ENDBRANCH   5   6
ENDBRANCH   4   5
ENDBRANCH   3   4
ENDBRANCH   2   3
ENDBRANCH   1   2
BRANCH   1   9
ATOM      9  C   UNL     1      17.059  20.298  11.117  1.00  0.00     0.000 C 
BRANCH   9  10
ATOM     10  C   UNL     1      18.224  20.329  12.122  1.00  0.00    -0.000 C 
BRANCH  10  11
ATOM     11  C   UNL     1      18.238  19.102  13.048  1.00  0.00    -0.000 C 
BRANCH  11  12
ATOM     12  C   UNL     1      19.005  19.354  14.354  1.00  0.00    -0.000 C 
BRANCH  12  13
ATOM     13  C   UNL     1      18.049  19.768  15.480  1.00  0.00    -0.003 C 
ATOM     14  C   UNL     1      16.782  18.918  15.469  1.00  0.00     0.004 C 
ENDBRANCH  12  13
ENDBRANCH  11  12
ENDBRANCH  10  11
ENDBRANCH   9  10
ENDBRANCH   1   9
TORSDOF 10
ENDMDL
MODEL 2
REMARK VINA RESULT:    -4.922      1.438      2.577
REMARK INTER + INTRA:          -9.098
REMARK INTER:                  -8.058
REMARK INTRA:                  -1.040
REMARK UNBOUND:                -1.299
REMARK SMILES CCCCCCCCCCCC(=O)[O-]
REMARK SMILES IDX 7 1 8 2 9 3 10 4 11 5 12 6 13 7 14 8 6 9 5 10 4 11 3 12 2 13
REMARK SMILES IDX 1 14
REMARK H PARENT
REMARK Flexibility Score: inf
ROOT
ATOM      1  C   UNL     1      15.391  22.467  13.534  1.00  0.00     0.000 C 
ENDROOT
BRANCH   1   2
ATOM      2  C   UNL     1      15.530  21.999  14.994  1.00  0.00     0.000 C 
BRANCH   2   3
ATOM      3  C   UNL     1      15.647  20.469  15.124  1.00  0.00     0.000 C 
BRANCH   3   4
ATOM      4  C   UNL     1      15.861  19.951  16.558  1.00  0.00     0.006 C 
BRANCH   4   5
ATOM      5  C   UNL     1      14.860  20.536  17.562  1.00  0.00     0.053 C 
BRANCH   5   6
ATOM      6  C   UNL     1      15.532  20.812  18.870  1.00  0.00     0.041 C 
ATOM      7  O   UNL     1      16.740  20.502  19.039  1.00  0.00    -0.550 OA
ATOM      8  O   UNL     1      14.810  21.367  19.919  1.00  0.00    -0.550 OA
ENDBRANCH   5   6
ENDBRANCH   4   5
ENDBRANCH   3   4
ENDBRANCH   2   3
ENDBRANCH   1   2
BRANCH   1   9
ATOM      9  C   UNL     1      15.239  21.293  12.552  1.00  0.00     0.000 C 
BRANCH   9  10
ATOM     10  C   UNL     1      16.063  21.491  11.267  1.00  0.00    -0.000 C 
BRANCH  10  11
ATOM     11  C   UNL     1      17.051  20.340  11.018  1.00  0.00    -0.000 C 
BRANCH  11  12
ATOM     12  C   UNL     1      18.171  20.280  12.068  1.00  0.00    -0.000 C 
BRANCH  12  13
ATOM     13  C   UNL     1      18.127  18.956  12.841  1.00  0.00    -0.003 C 
ATOM     14  C   UNL     1      18.950  19.039  14.123  1.00  0.00     0.004 C 
ENDBRANCH  12  13
ENDBRANCH  11  12
ENDBRANCH  10  11
ENDBRANCH   9  10
ENDBRANCH   1   9
TORSDOF 10
ENDMDL
MODEL 3
REMARK VINA RESULT:    -4.880     13.020     14.880
REMARK INTER + INTRA:          -9.033
REMARK INTER:                  -7.770
REMARK INTRA:                  -1.263
REMARK UNBOUND:                -1.299
REMARK SMILES CCCCCCCCCCCC(=O)[O-]
REMARK SMILES IDX 7 1 8 2 9 3 10 4 11 5 12 6 13 7 14 8 6 9 5 10 4 11 3 12 2 13
REMARK SMILES IDX 1 14
REMARK H PARENT
REMARK Flexibility Score: inf
ROOT
ATOM      1  C   UNL     1      31.165  18.505   8.477  1.00  0.00     0.000 C 
ENDROOT
BRANCH   1   2
ATOM      2  C   UNL     1      30.884  19.758   7.629  1.00  0.00     0.000 C 
BRANCH   2   3
ATOM      3  C   UNL     1      29.456  20.302   7.820  1.00  0.00     0.000 C 
BRANCH   3   4
ATOM      4  C   UNL     1      28.784  19.918   9.152  1.00  0.00     0.006 C 
BRANCH   4   5
ATOM      5  C   UNL     1      29.073  20.917  10.278  1.00  0.00     0.053 C 
BRANCH   5   6
ATOM      6  C   UNL     1      29.253  20.201  11.579  1.00  0.00     0.041 C 
ATOM      7  O   UNL     1      28.514  20.474  12.560  1.00  0.00    -0.550 OA
ATOM      8  O   UNL     1      30.271  19.265  11.723  1.00  0.00    -0.550 OA
ENDBRANCH   5   6
ENDBRANCH   4   5
ENDBRANCH   3   4
ENDBRANCH   2   3
ENDBRANCH   1   2
BRANCH   1   9
ATOM      9  C   UNL     1      31.569  17.293   7.621  1.00  0.00     0.000 C 
BRANCH   9  10
ATOM     10  C   UNL     1      31.099  17.421   6.161  1.00  0.00    -0.000 C 
BRANCH  10  11
ATOM     11  C   UNL     1      29.809  16.631   5.885  1.00  0.00    -0.000 C 
BRANCH  11  12
ATOM     12  C   UNL     1      28.657  17.526   5.408  1.00  0.00    -0.000 C 
BRANCH  12  13
ATOM     13  C   UNL     1      27.496  17.505   6.410  1.00  0.00    -0.003 C 
ATOM     14  C   UNL     1      26.477  18.598   6.098  1.00  0.00     0.004 C 
ENDBRANCH  12  13
ENDBRANCH  11  12
ENDBRANCH  10  11
ENDBRANCH   9  10
ENDBRANCH   1   9
TORSDOF 10
ENDMDL
MODEL 4
REMARK VINA RESULT:    -4.854     14.732     16.949
REMARK INTER + INTRA:          -8.990
REMARK INTER:                  -7.756
REMARK INTRA:                  -1.234
REMARK UNBOUND:                -1.299
REMARK SMILES CCCCCCCCCCCC(=O)[O-]
REMARK SMILES IDX 7 1 8 2 9 3 10 4 11 5 12 6 13 7 14 8 6 9 5 10 4 11 3 12 2 13
REMARK SMILES IDX 1 14
REMARK H PARENT
REMARK Flexibility Score: inf
ROOT
ATOM      1  C   UNL     1      29.013  17.739   5.397  1.00  0.00     0.000 C 
ENDROOT
BRANCH   1   2
ATOM      2  C   UNL     1      29.649  16.507   6.064  1.00  0.00     0.000 C 
BRANCH   2   3
ATOM      3  C   UNL     1      30.921  16.848   6.862  1.00  0.00     0.000 C 
BRANCH   3   4
ATOM      4  C   UNL     1      32.051  17.497   6.042  1.00  0.00     0.006 C 
BRANCH   4   5
ATOM      5  C   UNL     1      33.420  16.852   6.293  1.00  0.00     0.053 C 
BRANCH   5   6
ATOM      6  C   UNL     1      33.870  17.111   7.696  1.00  0.00     0.041 C 
ATOM      7  O   UNL     1      34.065  16.152   8.486  1.00  0.00    -0.550 OA
ATOM      8  O   UNL     1      34.026  18.417   8.146  1.00  0.00    -0.550 OA
ENDBRANCH   5   6
ENDBRANCH   4   5
ENDBRANCH   3   4
ENDBRANCH   2   3
ENDBRANCH   1   2
BRANCH   1   9
ATOM      9  C   UNL     1      27.571  17.987   5.872  1.00  0.00     0.000 C 
BRANCH   9  10
ATOM     10  C   UNL     1      27.508  18.486   7.326  1.00  0.00    -0.000 C 
BRANCH  10  11
ATOM     11  C   UNL     1      28.411  19.706   7.571  1.00  0.00    -0.000 C 
BRANCH  11  12
ATOM     12  C   UNL     1      28.785  19.879   9.051  1.00  0.00    -0.000 C 
BRANCH  12  13
ATOM     13  C   UNL     1      30.295  19.711   9.257  1.00  0.00    -0.003 C 
ATOM     14  C   UNL     1      31.083  20.381   8.135  1.00  0.00     0.004 C 
ENDBRANCH  12  13
ENDBRANCH  11  12
ENDBRANCH  10  11
ENDBRANCH   9  10
ENDBRANCH   1   9
TORSDOF 10
ENDMDL
MODEL 5
REMARK VINA RESULT:    -4.851      1.618      3.506
REMARK INTER + INTRA:          -8.986
REMARK INTER:                  -8.244
REMARK INTRA:                  -0.742
REMARK UNBOUND:                -1.299
REMARK SMILES CCCCCCCCCCCC(=O)[O-]
REMARK SMILES IDX 7 1 8 2 9 3 10 4 11 5 12 6 13 7 14 8 6 9 5 10 4 11 3 12 2 13
REMARK SMILES IDX 1 14
REMARK H PARENT
REMARK Flexibility Score: inf
ROOT
ATOM      1  C   UNL     1      15.616  22.016  15.064  1.00  0.00     0.000 C 
ENDROOT
BRANCH   1   2
ATOM      2  C   UNL     1      14.371  22.110  15.966  1.00  0.00     0.000 C 
BRANCH   2   3
ATOM      3  C   UNL     1      14.560  23.078  17.148  1.00  0.00     0.000 C 
BRANCH   3   4
ATOM      4  C   UNL     1      14.122  22.528  18.518  1.00  0.00     0.006 C 
BRANCH   4   5
ATOM      5  C   UNL     1      14.371  21.022  18.666  1.00  0.00     0.053 C 
BRANCH   5   6
ATOM      6  C   UNL     1      15.720  20.772  19.263  1.00  0.00     0.041 C 
ATOM      7  O   UNL     1      16.743  20.754  18.531  1.00  0.00    -0.550 OA
ATOM      8  O   UNL     1      15.841  20.507  20.622  1.00  0.00    -0.550 OA
ENDBRANCH   5   6
ENDBRANCH   4   5
ENDBRANCH   3   4
ENDBRANCH   2   3
ENDBRANCH   1   2
BRANCH   1   9
ATOM      9  C   UNL     1      15.334  22.470  13.622  1.00  0.00     0.000 C 
BRANCH   9  10
ATOM     10  C   UNL     1      15.273  21.292  12.635  1.00  0.00    -0.000 C 
BRANCH  10  11
ATOM     11  C   UNL     1      16.107  21.539  11.368  1.00  0.00    -0.000 C 
BRANCH  11  12
ATOM     12  C   UNL     1      17.554  21.043  11.504  1.00  0.00    -0.000 C 
BRANCH  12  13
ATOM     13  C   UNL     1      17.598  19.654  12.154  1.00  0.00    -0.003 C 
ATOM     14  C   UNL     1      18.573  19.624  13.327  1.00  0.00     0.004 C 
ENDBRANCH  12  13
ENDBRANCH  11  12
ENDBRANCH  10  11
ENDBRANCH   9  10
ENDBRANCH   1   9
TORSDOF 10
ENDMDL
MODEL 6
REMARK VINA RESULT:    -4.835     13.588     15.322
REMARK INTER + INTRA:          -8.961
REMARK INTER:                  -7.931
REMARK INTRA:                  -1.029
REMARK UNBOUND:                -1.299
REMARK SMILES CCCCCCCCCCCC(=O)[O-]
REMARK SMILES IDX 7 1 8 2 9 3 10 4 11 5 12 6 13 7 14 8 6 9 5 10 4 11 3 12 2 13
REMARK SMILES IDX 1 14
REMARK H PARENT
REMARK Flexibility Score: inf
ROOT
ATOM      1  C   UNL     1      27.246  17.868   6.223  1.00  0.00     0.000 C 
ENDROOT
BRANCH   1   2
ATOM      2  C   UNL     1      27.701  18.410   7.590  1.00  0.00     0.000 C 
BRANCH   2   3
ATOM      3  C   UNL     1      28.145  19.883   7.532  1.00  0.00     0.000 C 
BRANCH   3   4
ATOM      4  C   UNL     1      28.671  20.458   8.860  1.00  0.00     0.006 C 
BRANCH   4   5
ATOM      5  C   UNL     1      30.119  20.052   9.158  1.00  0.00     0.053 C 
BRANCH   5   6
ATOM      6  C   UNL     1      30.243  19.550  10.562  1.00  0.00     0.041 C 
ATOM      7  O   UNL     1      29.271  19.644  11.356  1.00  0.00    -0.550 OA
ATOM      8  O   UNL     1      31.449  19.024  11.008  1.00  0.00    -0.550 OA
ENDBRANCH   5   6
ENDBRANCH   4   5
ENDBRANCH   3   4
ENDBRANCH   2   3
ENDBRANCH   1   2
BRANCH   1   9
ATOM      9  C   UNL     1      28.423  17.378   5.362  1.00  0.00     0.000 C 
BRANCH   9  10
ATOM     10  C   UNL     1      29.709  17.179   6.182  1.00  0.00    -0.000 C 
BRANCH  10  11
ATOM     11  C   UNL     1      30.858  18.083   5.706  1.00  0.00    -0.000 C 
BRANCH  11  12
ATOM     12  C   UNL     1      32.087  18.014   6.625  1.00  0.00    -0.000 C 
BRANCH  12  13
ATOM     13  C   UNL     1      31.930  16.899   7.666  1.00  0.00    -0.003 C 
ATOM     14  C   UNL     1      33.057  16.942   8.694  1.00  0.00     0.004 C 
ENDBRANCH  12  13
ENDBRANCH  11  12
ENDBRANCH  10  11
ENDBRANCH   9  10
ENDBRANCH   1   9
TORSDOF 10
ENDMDL
MODEL 7
REMARK VINA RESULT:    -4.786      1.473      3.558
REMARK INTER + INTRA:          -8.883
REMARK INTER:                  -7.682
REMARK INTRA:                  -1.201
REMARK UNBOUND:                -1.299
REMARK SMILES CCCCCCCCCCCC(=O)[O-]
REMARK SMILES IDX 7 1 8 2 9 3 10 4 11 5 12 6 13 7 14 8 6 9 5 10 4 11 3 12 2 13
REMARK SMILES IDX 1 14
REMARK H PARENT
REMARK Flexibility Score: inf
ROOT
ATOM      1  C   UNL     1      17.712  20.012  11.606  1.00  0.00     0.000 C 
ENDROOT
BRANCH   1   2
ATOM      2  C   UNL     1      18.397  19.827  12.972  1.00  0.00     0.000 C 
BRANCH   2   3
ATOM      3  C   UNL     1      17.445  19.277  14.049  1.00  0.00     0.000 C 
BRANCH   3   4
ATOM      4  C   UNL     1      17.658  19.850  15.463  1.00  0.00     0.006 C 
BRANCH   4   5
ATOM      5  C   UNL     1      16.644  19.319  16.483  1.00  0.00     0.053 C 
BRANCH   5   6
ATOM      6  C   UNL     1      16.867  19.952  17.820  1.00  0.00     0.041 C 
ATOM      7  O   UNL     1      17.734  20.854  17.957  1.00  0.00    -0.550 OA
ATOM      8  O   UNL     1      16.153  19.510  18.927  1.00  0.00    -0.550 OA
ENDBRANCH   5   6
ENDBRANCH   4   5
ENDBRANCH   3   4
ENDBRANCH   2   3
ENDBRANCH   1   2
BRANCH   1   9
ATOM      9  C   UNL     1      17.249  21.459  11.370  1.00  0.00     0.000 C 
BRANCH   9  10
ATOM     10  C   UNL     1      15.748  21.650  11.652  1.00  0.00    -0.000 C 
BRANCH  10  11
ATOM     11  C   UNL     1      15.480  22.236  13.047  1.00  0.00    -0.000 C 
BRANCH  11  12
ATOM     12  C   UNL     1      14.486  21.395  13.863  1.00  0.00    -0.000 C 
BRANCH  12  13
ATOM     13  C   UNL     1      14.028  22.151  15.116  1.00  0.00    -0.003 C 
ATOM     14  C   UNL     1      15.220  22.647  15.928  1.00  0.00     0.004 C 
ENDBRANCH  12  13
ENDBRANCH  11  12
ENDBRANCH  10  11
ENDBRANCH   9  10
ENDBRANCH   1   9
TORSDOF 10
ENDMDL
MODEL 8
REMARK VINA RESULT:    -4.773      2.222      4.822
REMARK INTER + INTRA:          -8.862
REMARK INTER:                  -8.114
REMARK INTRA:                  -0.748
REMARK UNBOUND:                -1.299
REMARK SMILES CCCCCCCCCCCC(=O)[O-]
REMARK SMILES IDX 7 1 8 2 9 3 10 4 11 5 12 6 13 7 14 8 6 9 5 10 4 11 3 12 2 13
REMARK SMILES IDX 1 14
REMARK H PARENT
REMARK Flexibility Score: inf
ROOT
ATOM      1  C   UNL     1      15.076  22.897  16.984  1.00  0.00     0.000 C 
ENDROOT
BRANCH   1   2
ATOM      2  C   UNL     1      14.074  22.537  18.096  1.00  0.00     0.000 C 
BRANCH   2   3
ATOM      3  C   UNL     1      13.917  21.018  18.290  1.00  0.00     0.000 C 
BRANCH   3   4
ATOM      4  C   UNL     1      14.258  20.501  19.700  1.00  0.00     0.006 C 
BRANCH   4   5
ATOM      5  C   UNL     1      15.743  20.658  20.052  1.00  0.00     0.053 C 
BRANCH   5   6
ATOM      6  C   UNL     1      16.592  19.891  19.088  1.00  0.00     0.041 C 
ATOM      7  O   UNL     1      17.496  20.476  18.436  1.00  0.00    -0.550 OA
ATOM      8  O   UNL     1      16.351  18.540  18.872  1.00  0.00    -0.550 OA
ENDBRANCH   5   6
ENDBRANCH   4   5
ENDBRANCH   3   4
ENDBRANCH   2   3
ENDBRANCH   1   2
BRANCH   1   9
ATOM      9  C   UNL     1      15.231  21.774  15.944  1.00  0.00     0.000 C 
BRANCH   9  10
ATOM     10  C   UNL     1      14.203  21.882  14.804  1.00  0.00    -0.000 C 
BRANCH  10  11
ATOM     11  C   UNL     1      14.698  21.234  13.501  1.00  0.00    -0.000 C 
BRANCH  11  12
ATOM     12  C   UNL     1      15.593  22.171  12.676  1.00  0.00    -0.000 C 
BRANCH  12  13
ATOM     13  C   UNL     1      16.008  21.510  11.356  1.00  0.00    -0.003 C 
ATOM     14  C   UNL     1      17.404  20.903  11.457  1.00  0.00     0.004 C 
ENDBRANCH  12  13
ENDBRANCH  11  12
ENDBRANCH  10  11
ENDBRANCH   9  10
ENDBRANCH   1   9
TORSDOF 10
ENDMDL
MODEL 9
REMARK VINA RESULT:    -4.753      2.157      4.490
REMARK INTER + INTRA:          -8.831
REMARK INTER:                  -7.691
REMARK INTRA:                  -1.139
REMARK UNBOUND:                -1.299
REMARK SMILES CCCCCCCCCCCC(=O)[O-]
REMARK SMILES IDX 7 1 8 2 9 3 10 4 11 5 12 6 13 7 14 8 6 9 5 10 4 11 3 12 2 13
REMARK SMILES IDX 1 14
REMARK H PARENT
REMARK Flexibility Score: inf
ROOT
ATOM      1  C   UNL     1      14.918  22.442  16.174  1.00  0.00     0.000 C 
ENDROOT
BRANCH   1   2
ATOM      2  C   UNL     1      15.460  21.220  16.937  1.00  0.00     0.000 C 
BRANCH   2   3
ATOM      3  C   UNL     1      16.997  21.132  16.912  1.00  0.00     0.000 C 
BRANCH   3   4
ATOM      4  C   UNL     1      17.578  20.160  15.868  1.00  0.00     0.006 C 
BRANCH   4   5
ATOM      5  C   UNL     1      16.666  18.958  15.596  1.00  0.00     0.053 C 
BRANCH   5   6
ATOM      6  C   UNL     1      16.855  17.910  16.647  1.00  0.00     0.041 C 
ATOM      7  O   UNL     1      17.974  17.354  16.793  1.00  0.00    -0.550 OA
ATOM      8  O   UNL     1      15.780  17.512  17.433  1.00  0.00    -0.550 OA
ENDBRANCH   5   6
ENDBRANCH   4   5
ENDBRANCH   3   4
ENDBRANCH   2   3
ENDBRANCH   1   2
BRANCH   1   9
ATOM      9  C   UNL     1      14.326  22.067  14.805  1.00  0.00     0.000 C 
BRANCH   9  10
ATOM     10  C   UNL     1      15.299  22.348  13.646  1.00  0.00    -0.000 C 
BRANCH  10  11
ATOM     11  C   UNL     1      15.391  21.176  12.656  1.00  0.00    -0.000 C 
BRANCH  11  12
ATOM     12  C   UNL     1      15.940  21.600  11.286  1.00  0.00    -0.000 C 
BRANCH  12  13
ATOM     13  C   UNL     1      17.455  21.373  11.209  1.00  0.00    -0.003 C 
ATOM     14  C   UNL     1      17.879  20.186  12.070  1.00  0.00     0.004 C 
ENDBRANCH  12  13
ENDBRANCH  11  12
ENDBRANCH  10  11
ENDBRANCH   9  10
ENDBRANCH   1   9
TORSDOF 10
ENDMDL
