MODEL 1
REMARK VINA RESULT:    -3.347      0.000      0.000
REMARK INTER + INTRA:          -6.503
REMARK INTER:                  -5.303
REMARK INTRA:                  -1.200
REMARK UNBOUND:                -1.200
REMARK SMILES CCCCCCCCCCCC(=O)[O-]
REMARK SMILES IDX 7 1 8 2 9 3 10 4 11 5 12 6 13 7 14 8 6 9 5 10 4 11 3 12 2 13
REMARK SMILES IDX 1 14
REMARK H PARENT
REMARK Flexibility Score: inf
ROOT
ATOM      1  C   UNL     1      60.811  31.251  59.736  1.00  0.00     0.000 C 
ENDROOT
BRANCH   1   2
ATOM      2  C   UNL     1      61.253  32.676  59.346  1.00  0.00     0.000 C 
BRANCH   2   3
ATOM      3  C   UNL     1      61.816  33.525  60.501  1.00  0.00     0.000 C 
BRANCH   3   4
ATOM      4  C   UNL     1      63.057  34.335  60.096  1.00  0.00     0.006 C 
BRANCH   4   5
ATOM      5  C   UNL     1      64.126  34.283  61.191  1.00  0.00     0.053 C 
BRANCH   5   6
ATOM      6  C   UNL     1      64.698  35.644  61.429  1.00  0.00     0.041 C 
ATOM      7  O   UNL     1      65.922  35.861  61.227  1.00  0.00    -0.550 OA
ATOM      8  O   UNL     1      63.891  36.661  61.921  1.00  0.00    -0.550 OA
ENDBRANCH   5   6
ENDBRANCH   4   5
ENDBRANCH   3   4
ENDBRANCH   2   3
ENDBRANCH   1   2
BRANCH   1   9
ATOM      9  C   UNL     1      60.858  30.941  61.243  1.00  0.00     0.000 C 
BRANCH   9  10
ATOM     10  C   UNL     1      61.831  29.804  61.588  1.00  0.00    -0.000 C 
BRANCH  10  11
ATOM     11  C   UNL     1      63.286  30.254  61.413  1.00  0.00    -0.000 C 
BRANCH  11  12
ATOM     12  C   UNL     1      64.131  29.145  60.767  1.00  0.00    -0.000 C 
BRANCH  12  13
ATOM     13  C   UNL     1      65.197  29.698  59.809  1.00  0.00    -0.003 C 
ATOM     14  C   UNL     1      64.912  31.134  59.372  1.00  0.00     0.004 C 
ENDBRANCH  12  13
ENDBRANCH  11  12
ENDBRANCH  10  11
ENDBRANCH   9  10
ENDBRANCH   1   9
TORSDOF 10
ENDMDL
MODEL 2
REMARK VINA RESULT:    -3.296     12.584     14.099
REMARK INTER + INTRA:          -6.422
REMARK INTER:                  -5.736
REMARK INTRA:                  -0.686
REMARK UNBOUND:                -1.200
REMARK SMILES CCCCCCCCCCCC(=O)[O-]
REMARK SMILES IDX 7 1 8 2 9 3 10 4 11 5 12 6 13 7 14 8 6 9 5 10 4 11 3 12 2 13
REMARK SMILES IDX 1 14
REMARK H PARENT
REMARK Flexibility Score: inf
ROOT
ATOM      1  C   UNL     1      59.397  28.773  49.595  1.00  0.00     0.000 C 
ENDROOT
BRANCH   1   2
ATOM      2  C   UNL     1      59.786  27.295  49.800  1.00  0.00     0.000 C 
BRANCH   2   3
ATOM      3  C   UNL     1      61.269  27.050  50.137  1.00  0.00     0.000 C 
BRANCH   3   4
ATOM      4  C   UNL     1      61.549  25.608  50.585  1.00  0.00     0.006 C 
BRANCH   4   5
ATOM      5  C   UNL     1      60.251  24.799  50.667  1.00  0.00     0.053 C 
BRANCH   5   6
ATOM      6  C   UNL     1      60.550  23.334  50.718  1.00  0.00     0.041 C 
ATOM      7  O   UNL     1      60.291  22.671  51.757  1.00  0.00    -0.550 OA
ATOM      8  O   UNL     1      61.158  22.710  49.637  1.00  0.00    -0.550 OA
ENDBRANCH   5   6
ENDBRANCH   4   5
ENDBRANCH   3   4
ENDBRANCH   2   3
ENDBRANCH   1   2
BRANCH   1   9
ATOM      9  C   UNL     1      58.124  29.221  50.335  1.00  0.00     0.000 C 
BRANCH   9  10
ATOM     10  C   UNL     1      57.494  28.098  51.173  1.00  0.00    -0.000 C 
BRANCH  10  11
ATOM     11  C   UNL     1      56.093  27.748  50.657  1.00  0.00    -0.000 C 
BRANCH  11  12
ATOM     12  C   UNL     1      55.964  26.240  50.395  1.00  0.00    -0.000 C 
BRANCH  12  13
ATOM     13  C   UNL     1      54.717  25.888  49.571  1.00  0.00    -0.003 C 
ATOM     14  C   UNL     1      53.516  26.771  49.910  1.00  0.00     0.004 C 
ENDBRANCH  12  13
ENDBRANCH  11  12
ENDBRANCH  10  11
ENDBRANCH   9  10
ENDBRANCH   1   9
TORSDOF 10
ENDMDL
MODEL 3
REMARK VINA RESULT:    -3.291      3.228      5.476
REMARK INTER + INTRA:          -6.415
REMARK INTER:                  -5.176
REMARK INTRA:                  -1.239
REMARK UNBOUND:                -1.200
REMARK SMILES CCCCCCCCCCCC(=O)[O-]
REMARK SMILES IDX 7 1 8 2 9 3 10 4 11 5 12 6 13 7 14 8 6 9 5 10 4 11 3 12 2 13
REMARK SMILES IDX 1 14
REMARK H PARENT
REMARK Flexibility Score: inf
ROOT
ATOM      1  C   UNL     1      60.931  34.973  60.480  1.00  0.00     0.000 C 
ENDROOT
BRANCH   1   2
ATOM      2  C   UNL     1      60.910  34.161  59.169  1.00  0.00     0.000 C 
BRANCH   2   3
ATOM      3  C   UNL     1      61.263  32.670  59.318  1.00  0.00     0.000 C 
BRANCH   3   4
ATOM      4  C   UNL     1      61.538  32.265  60.773  1.00  0.00     0.006 C 
BRANCH   4   5
ATOM      5  C   UNL     1      60.757  31.001  61.146  1.00  0.00     0.053 C 
BRANCH   5   6
ATOM      6  C   UNL     1      61.666  29.812  61.171  1.00  0.00     0.041 C 
ATOM      7  O   UNL     1      61.222  28.670  60.881  1.00  0.00    -0.550 OA
ATOM      8  O   UNL     1      62.991  29.958  61.562  1.00  0.00    -0.550 OA
ENDBRANCH   5   6
ENDBRANCH   4   5
ENDBRANCH   3   4
ENDBRANCH   2   3
ENDBRANCH   1   2
BRANCH   1   9
ATOM      9  C   UNL     1      61.115  36.491  60.306  1.00  0.00     0.000 C 
BRANCH   9  10
ATOM     10  C   UNL     1      62.160  37.079  61.267  1.00  0.00    -0.000 C 
BRANCH  10  11
ATOM     11  C   UNL     1      63.582  36.751  60.799  1.00  0.00    -0.000 C 
BRANCH  11  12
ATOM     12  C   UNL     1      64.274  35.785  61.773  1.00  0.00    -0.000 C 
BRANCH  12  13
ATOM     13  C   UNL     1      64.547  34.410  61.145  1.00  0.00    -0.003 C 
ATOM     14  C   UNL     1      64.621  34.460  59.620  1.00  0.00     0.004 C 
ENDBRANCH  12  13
ENDBRANCH  11  12
ENDBRANCH  10  11
ENDBRANCH   9  10
ENDBRANCH   1   9
TORSDOF 10
ENDMDL
MODEL 4
REMARK VINA RESULT:    -3.250     12.441     13.952
REMARK INTER + INTRA:          -6.349
REMARK INTER:                  -5.463
REMARK INTRA:                  -0.886
REMARK UNBOUND:                -1.200
REMARK SMILES CCCCCCCCCCCC(=O)[O-]
REMARK SMILES IDX 7 1 8 2 9 3 10 4 11 5 12 6 13 7 14 8 6 9 5 10 4 11 3 12 2 13
REMARK SMILES IDX 1 14
REMARK H PARENT
REMARK Flexibility Score: inf
ROOT
ATOM      1  C   UNL     1      58.036  29.096  51.160  1.00  0.00     0.000 C 
ENDROOT
BRANCH   1   2
ATOM      2  C   UNL     1      56.937  28.127  50.677  1.00  0.00     0.000 C 
BRANCH   2   3
ATOM      3  C   UNL     1      55.494  28.582  50.961  1.00  0.00     0.000 C 
BRANCH   3   4
ATOM      4  C   UNL     1      54.443  27.680  50.297  1.00  0.00     0.006 C 
BRANCH   4   5
ATOM      5  C   UNL     1      55.016  26.287  50.018  1.00  0.00     0.053 C 
BRANCH   5   6
ATOM      6  C   UNL     1      54.140  25.231  50.615  1.00  0.00     0.041 C 
ATOM      7  O   UNL     1      53.429  24.504  49.872  1.00  0.00    -0.550 OA
ATOM      8  O   UNL     1      54.072  25.082  51.994  1.00  0.00    -0.550 OA
ENDBRANCH   5   6
ENDBRANCH   4   5
ENDBRANCH   3   4
ENDBRANCH   2   3
ENDBRANCH   1   2
BRANCH   1   9
ATOM      9  C   UNL     1      59.114  29.434  50.115  1.00  0.00     0.000 C 
BRANCH   9  10
ATOM     10  C   UNL     1      59.726  28.185  49.464  1.00  0.00    -0.000 C 
BRANCH  10  11
ATOM     11  C   UNL     1      60.799  27.565  50.366  1.00  0.00    -0.000 C 
BRANCH  11  12
ATOM     12  C   UNL     1      60.793  26.032  50.255  1.00  0.00    -0.000 C 
BRANCH  12  13
ATOM     13  C   UNL     1      60.176  25.354  51.486  1.00  0.00    -0.003 C 
ATOM     14  C   UNL     1      58.679  25.089  51.329  1.00  0.00     0.004 C 
ENDBRANCH  12  13
ENDBRANCH  11  12
ENDBRANCH  10  11
ENDBRANCH   9  10
ENDBRANCH   1   9
TORSDOF 10
ENDMDL
MODEL 5
REMARK VINA RESULT:    -3.236      4.123      6.225
REMARK INTER + INTRA:          -6.327
REMARK INTER:                  -5.671
REMARK INTRA:                  -0.656
REMARK UNBOUND:                -1.200
REMARK SMILES CCCCCCCCCCCC(=O)[O-]
REMARK SMILES IDX 7 1 8 2 9 3 10 4 11 5 12 6 13 7 14 8 6 9 5 10 4 11 3 12 2 13
REMARK SMILES IDX 1 14
REMARK H PARENT
REMARK Flexibility Score: inf
ROOT
ATOM      1  C   UNL     1      61.124  32.281  59.354  1.00  0.00     0.000 C 
ENDROOT
BRANCH   1   2
ATOM      2  C   UNL     1      60.541  30.984  59.951  1.00  0.00     0.000 C 
BRANCH   2   3
ATOM      3  C   UNL     1      60.886  30.734  61.431  1.00  0.00     0.000 C 
BRANCH   3   4
ATOM      4  C   UNL     1      62.094  29.804  61.612  1.00  0.00     0.006 C 
BRANCH   4   5
ATOM      5  C   UNL     1      62.149  28.754  60.498  1.00  0.00     0.053 C 
BRANCH   5   6
ATOM      6  C   UNL     1      61.425  27.512  60.912  1.00  0.00     0.041 C 
ATOM      7  O   UNL     1      60.231  27.327  60.555  1.00  0.00    -0.550 OA
ATOM      8  O   UNL     1      62.051  26.582  61.732  1.00  0.00    -0.550 OA
ENDBRANCH   5   6
ENDBRANCH   4   5
ENDBRANCH   3   4
ENDBRANCH   2   3
ENDBRANCH   1   2
BRANCH   1   9
ATOM      9  C   UNL     1      61.828  33.206  60.362  1.00  0.00     0.000 C 
BRANCH   9  10
ATOM     10  C   UNL     1      61.201  34.607  60.425  1.00  0.00    -0.000 C 
BRANCH  10  11
ATOM     11  C   UNL     1      62.233  35.651  60.868  1.00  0.00    -0.000 C 
BRANCH  11  12
ATOM     12  C   UNL     1      63.660  35.091  60.770  1.00  0.00    -0.000 C 
BRANCH  12  13
ATOM     13  C   UNL     1      64.583  35.628  61.874  1.00  0.00    -0.003 C 
ATOM     14  C   UNL     1      64.332  37.102  62.189  1.00  0.00     0.004 C 
ENDBRANCH  12  13
ENDBRANCH  11  12
ENDBRANCH  10  11
ENDBRANCH   9  10
ENDBRANCH   1   9
TORSDOF 10
ENDMDL
MODEL 6
REMARK VINA RESULT:    -3.210     11.890     13.388
REMARK INTER + INTRA:          -6.286
REMARK INTER:                  -4.846
REMARK INTRA:                  -1.440
REMARK UNBOUND:                -1.200
REMARK SMILES CCCCCCCCCCCC(=O)[O-]
REMARK SMILES IDX 7 1 8 2 9 3 10 4 11 5 12 6 13 7 14 8 6 9 5 10 4 11 3 12 2 13
REMARK SMILES IDX 1 14
REMARK H PARENT
REMARK Flexibility Score: inf
ROOT
ATOM      1  C   UNL     1      57.454  28.575  51.971  1.00  0.00     0.000 C 
ENDROOT
BRANCH   1   2
ATOM      2  C   UNL     1      57.711  27.139  52.470  1.00  0.00     0.000 C 
BRANCH   2   3
ATOM      3  C   UNL     1      56.794  26.061  51.862  1.00  0.00     0.000 C 
BRANCH   3   4
ATOM      4  C   UNL     1      56.577  26.246  50.353  1.00  0.00     0.006 C 
BRANCH   4   5
ATOM      5  C   UNL     1      55.114  25.994  49.976  1.00  0.00     0.053 C 
BRANCH   5   6
ATOM      6  C   UNL     1      54.236  27.066  50.537  1.00  0.00     0.041 C 
ATOM      7  O   UNL     1      54.387  28.263  50.174  1.00  0.00    -0.550 OA
ATOM      8  O   UNL     1      53.283  26.753  51.497  1.00  0.00    -0.550 OA
ENDBRANCH   5   6
ENDBRANCH   4   5
ENDBRANCH   3   4
ENDBRANCH   2   3
ENDBRANCH   1   2
BRANCH   1   9
ATOM      9  C   UNL     1      58.695  29.317  51.446  1.00  0.00     0.000 C 
BRANCH   9  10
ATOM     10  C   UNL     1      58.810  29.278  49.914  1.00  0.00    -0.000 C 
BRANCH  10  11
ATOM     11  C   UNL     1      59.672  28.096  49.457  1.00  0.00    -0.000 C 
BRANCH  11  12
ATOM     12  C   UNL     1      61.026  28.088  50.184  1.00  0.00    -0.000 C 
BRANCH  12  13
ATOM     13  C   UNL     1      61.490  26.671  50.551  1.00  0.00    -0.003 C 
ATOM     14  C   UNL     1      60.388  25.625  50.387  1.00  0.00     0.004 C 
ENDBRANCH  12  13
ENDBRANCH  11  12
ENDBRANCH  10  11
ENDBRANCH   9  10
ENDBRANCH   1   9
TORSDOF 10
ENDMDL
MODEL 7
REMARK VINA RESULT:    -3.197      3.395      5.803
REMARK INTER + INTRA:          -6.265
REMARK INTER:                  -5.497
REMARK INTRA:                  -0.768
REMARK UNBOUND:                -1.200
REMARK SMILES CCCCCCCCCCCC(=O)[O-]
REMARK SMILES IDX 7 1 8 2 9 3 10 4 11 5 12 6 13 7 14 8 6 9 5 10 4 11 3 12 2 13
REMARK SMILES IDX 1 14
REMARK H PARENT
REMARK Flexibility Score: inf
ROOT
ATOM      1  C   UNL     1      60.815  30.577  61.332  1.00  0.00     0.000 C 
ENDROOT
BRANCH   1   2
ATOM      2  C   UNL     1      62.073  29.754  61.680  1.00  0.00     0.000 C 
BRANCH   2   3
ATOM      3  C   UNL     1      62.152  28.368  61.015  1.00  0.00     0.000 C 
BRANCH   3   4
ATOM      4  C   UNL     1      63.359  28.226  60.076  1.00  0.00     0.006 C 
BRANCH   4   5
ATOM      5  C   UNL     1      64.598  28.903  60.671  1.00  0.00     0.053 C 
BRANCH   5   6
ATOM      6  C   UNL     1      65.783  27.994  60.587  1.00  0.00     0.041 C 
ATOM      7  O   UNL     1      66.810  28.228  61.276  1.00  0.00    -0.550 OA
ATOM      8  O   UNL     1      65.772  26.916  59.711  1.00  0.00    -0.550 OA
ENDBRANCH   5   6
ENDBRANCH   4   5
ENDBRANCH   3   4
ENDBRANCH   2   3
ENDBRANCH   1   2
BRANCH   1   9
ATOM      9  C   UNL     1      61.088  31.934  60.660  1.00  0.00     0.000 C 
BRANCH   9  10
ATOM     10  C   UNL     1      62.586  32.256  60.552  1.00  0.00    -0.000 C 
BRANCH  10  11
ATOM     11  C   UNL     1      62.807  33.649  59.951  1.00  0.00    -0.000 C 
BRANCH  11  12
ATOM     12  C   UNL     1      61.596  34.559  60.211  1.00  0.00    -0.000 C 
BRANCH  12  13
ATOM     13  C   UNL     1      61.965  35.821  61.004  1.00  0.00    -0.003 C 
ATOM     14  C   UNL     1      63.461  35.917  61.301  1.00  0.00     0.004 C 
ENDBRANCH  12  13
ENDBRANCH  11  12
ENDBRANCH  10  11
ENDBRANCH   9  10
ENDBRANCH   1   9
TORSDOF 10
ENDMDL
MODEL 8
REMARK VINA RESULT:    -3.153     11.693     13.264
REMARK INTER + INTRA:          -6.196
REMARK INTER:                  -5.159
REMARK INTRA:                  -1.037
REMARK UNBOUND:                -1.200
REMARK SMILES CCCCCCCCCCCC(=O)[O-]
REMARK SMILES IDX 7 1 8 2 9 3 10 4 11 5 12 6 13 7 14 8 6 9 5 10 4 11 3 12 2 13
REMARK SMILES IDX 1 14
REMARK H PARENT
REMARK Flexibility Score: inf
ROOT
ATOM      1  C   UNL     1      56.270  26.558  50.403  1.00  0.00     0.000 C 
ENDROOT
BRANCH   1   2
ATOM      2  C   UNL     1      57.452  27.286  51.074  1.00  0.00     0.000 C 
BRANCH   2   3
ATOM      3  C   UNL     1      57.726  28.709  50.552  1.00  0.00     0.000 C 
BRANCH   3   4
ATOM      4  C   UNL     1      59.224  29.011  50.402  1.00  0.00     0.006 C 
BRANCH   4   5
ATOM      5  C   UNL     1      59.901  27.982  49.491  1.00  0.00     0.053 C 
BRANCH   5   6
ATOM      6  C   UNL     1      61.104  27.399  50.162  1.00  0.00     0.041 C 
ATOM      7  O   UNL     1      62.258  27.664  49.735  1.00  0.00    -0.550 OA
ATOM      8  O   UNL     1      60.949  26.524  51.230  1.00  0.00    -0.550 OA
ENDBRANCH   5   6
ENDBRANCH   4   5
ENDBRANCH   3   4
ENDBRANCH   2   3
ENDBRANCH   1   2
BRANCH   1   9
ATOM      9  C   UNL     1      54.895  26.816  51.044  1.00  0.00     0.000 C 
BRANCH   9  10
ATOM     10  C   UNL     1      53.840  27.280  50.028  1.00  0.00    -0.000 C 
BRANCH  10  11
ATOM     11  C   UNL     1      53.213  28.612  50.457  1.00  0.00    -0.000 C 
BRANCH  11  12
ATOM     12  C   UNL     1      54.293  29.679  50.692  1.00  0.00    -0.000 C 
BRANCH  12  13
ATOM     13  C   UNL     1      54.106  30.425  52.021  1.00  0.00    -0.003 C 
ATOM     14  C   UNL     1      55.069  29.947  53.107  1.00  0.00     0.004 C 
ENDBRANCH  12  13
ENDBRANCH  11  12
ENDBRANCH  10  11
ENDBRANCH   9  10
ENDBRANCH   1   9
TORSDOF 10
ENDMDL
MODEL 9
REMARK VINA RESULT:    -3.145     11.892     13.678
REMARK INTER + INTRA:          -6.184
REMARK INTER:                  -5.193
REMARK INTRA:                  -0.991
REMARK UNBOUND:                -1.200
REMARK SMILES CCCCCCCCCCCC(=O)[O-]
REMARK SMILES IDX 7 1 8 2 9 3 10 4 11 5 12 6 13 7 14 8 6 9 5 10 4 11 3 12 2 13
REMARK SMILES IDX 1 14
REMARK H PARENT
REMARK Flexibility Score: inf
ROOT
ATOM      1  C   UNL     1      58.330  29.230  51.599  1.00  0.00     0.000 C 
ENDROOT
BRANCH   1   2
ATOM      2  C   UNL     1      59.613  29.163  50.746  1.00  0.00     0.000 C 
BRANCH   2   3
ATOM      3  C   UNL     1      59.591  28.118  49.614  1.00  0.00     0.000 C 
BRANCH   3   4
ATOM      4  C   UNL     1      60.114  26.745  50.060  1.00  0.00     0.006 C 
BRANCH   4   5
ATOM      5  C   UNL     1      58.956  25.792  50.367  1.00  0.00     0.053 C 
BRANCH   5   6
ATOM      6  C   UNL     1      59.121  25.187  51.725  1.00  0.00     0.041 C 
ATOM      7  O   UNL     1      59.488  23.988  51.845  1.00  0.00    -0.550 OA
ATOM      8  O   UNL     1      58.823  25.932  52.859  1.00  0.00    -0.550 OA
ENDBRANCH   5   6
ENDBRANCH   4   5
ENDBRANCH   3   4
ENDBRANCH   2   3
ENDBRANCH   1   2
BRANCH   1   9
ATOM      9  C   UNL     1      57.017  29.032  50.821  1.00  0.00     0.000 C 
BRANCH   9  10
ATOM     10  C   UNL     1      56.183  27.854  51.348  1.00  0.00    -0.000 C 
BRANCH  10  11
ATOM     11  C   UNL     1      55.139  27.415  50.314  1.00  0.00    -0.000 C 
BRANCH  11  12
ATOM     12  C   UNL     1      55.303  25.928  49.963  1.00  0.00    -0.000 C 
BRANCH  12  13
ATOM     13  C   UNL     1      53.965  25.175  49.941  1.00  0.00    -0.003 C 
ATOM     14  C   UNL     1      52.875  25.928  49.178  1.00  0.00     0.004 C 
ENDBRANCH  12  13
ENDBRANCH  11  12
ENDBRANCH  10  11
ENDBRANCH   9  10
ENDBRANCH   1   9
TORSDOF 10
ENDMDL
