MODEL 1
REMARK VINA RESULT:    -4.807      0.000      0.000
REMARK INTER + INTRA:          -9.889
REMARK INTER:                  -7.336
REMARK INTRA:                  -2.554
REMARK UNBOUND:                -2.554
REMARK SMILES CC(=O)CCC=C(C)CCC=C(C)CCC=C(C)C
REMARK SMILES IDX 10 1 11 2 12 3 13 4 14 5 15 6 16 7 18 8 17 9 19 10 9 11 7 12
REMARK SMILES IDX 6 13 8 14 5 15 4 16 2 17 3 18 1 19
REMARK H PARENT
REMARK Flexibility Score: inf
ROOT
ATOM      1  C   UNL     1      17.827  29.335  31.442  1.00  0.00     0.032 C 
ENDROOT
BRANCH   1   2
ATOM      2  C   UNL     1      19.141  30.010  31.119  1.00  0.00    -0.028 C 
ATOM      3  C   UNL     1      19.647  30.205  29.878  1.00  0.00    -0.077 C 
ATOM      4  C   UNL     1      20.965  30.927  29.762  1.00  0.00     0.039 C 
BRANCH   3   5
ATOM      5  C   UNL     1      18.954  29.757  28.601  1.00  0.00     0.034 C 
BRANCH   5   6
ATOM      6  C   UNL     1      19.300  28.301  28.260  1.00  0.00     0.032 C 
BRANCH   6   7
ATOM      7  C   UNL     1      18.055  27.450  28.192  1.00  0.00    -0.028 C 
ATOM      8  C   UNL     1      19.287  25.382  27.491  1.00  0.00     0.039 C 
ATOM      9  C   UNL     1      18.034  26.140  27.860  1.00  0.00    -0.080 C 
ATOM     10  C   UNL     1      16.706  25.426  27.846  1.00  0.00     0.039 C 
ENDBRANCH   6   7
ENDBRANCH   5   6
ENDBRANCH   3   5
ENDBRANCH   1   2
BRANCH   1  11
ATOM     11  C   UNL     1      16.663  30.331  31.528  1.00  0.00     0.034 C 
BRANCH  11  12
ATOM     12  C   UNL     1      15.820  30.326  30.265  1.00  0.00    -0.077 C 
ATOM     13  C   UNL     1      15.557  31.444  29.551  1.00  0.00    -0.028 C 
ATOM     14  C   UNL     1      15.216  29.024  29.801  1.00  0.00     0.039 C 
BRANCH  13  15
ATOM     15  C   UNL     1      16.126  32.809  29.846  1.00  0.00     0.035 C 
BRANCH  15  16
ATOM     16  C   UNL     1      17.375  33.070  29.000  1.00  0.00     0.079 C 
BRANCH  16  17
ATOM     17  C   UNL     1      18.474  33.662  29.842  1.00  0.00     0.130 C 
ATOM     18  O   UNL     1      19.453  34.149  29.297  1.00  0.00    -0.300 OA
ATOM     19  C   UNL     1      18.389  33.681  31.340  1.00  0.00     0.087 C 
ENDBRANCH  16  17
ENDBRANCH  15  16
ENDBRANCH  13  15
ENDBRANCH  11  12
ENDBRANCH   1  11
TORSDOF 9
ENDMDL
MODEL 2
REMARK VINA RESULT:    -4.647      2.867      6.671
REMARK INTER + INTRA:          -9.645
REMARK INTER:                  -8.030
REMARK INTRA:                  -1.615
REMARK UNBOUND:                -2.554
REMARK SMILES CC(=O)CCC=C(C)CCC=C(C)CCC=C(C)C
REMARK SMILES IDX 10 1 11 2 12 3 13 4 14 5 15 6 16 7 18 8 17 9 19 10 9 11 7 12
REMARK SMILES IDX 6 13 8 14 5 15 4 16 2 17 3 18 1 19
REMARK H PARENT
REMARK Flexibility Score: inf
ROOT
ATOM      1  C   UNL     1      18.672  26.705  27.516  1.00  0.00     0.032 C 
ENDROOT
BRANCH   1   2
ATOM      2  C   UNL     1      17.468  27.330  28.183  1.00  0.00    -0.028 C 
ATOM      3  C   UNL     1      17.495  28.365  29.057  1.00  0.00    -0.077 C 
ATOM      4  C   UNL     1      16.178  28.866  29.593  1.00  0.00     0.039 C 
BRANCH   3   5
ATOM      5  C   UNL     1      18.769  29.060  29.507  1.00  0.00     0.034 C 
BRANCH   5   6
ATOM      6  C   UNL     1      19.020  30.342  28.701  1.00  0.00     0.032 C 
BRANCH   6   7
ATOM      7  C   UNL     1      19.160  31.537  29.613  1.00  0.00    -0.028 C 
ATOM      8  C   UNL     1      16.948  32.523  28.962  1.00  0.00     0.039 C 
ATOM      9  C   UNL     1      18.237  32.516  29.749  1.00  0.00    -0.080 C 
ATOM     10  C   UNL     1      18.524  33.641  30.709  1.00  0.00     0.039 C 
ENDBRANCH   6   7
ENDBRANCH   5   6
ENDBRANCH   3   5
ENDBRANCH   1   2
BRANCH   1  11
ATOM     11  C   UNL     1      19.333  25.630  28.388  1.00  0.00     0.034 C 
BRANCH  11  12
ATOM     12  C   UNL     1      20.704  25.241  27.864  1.00  0.00    -0.077 C 
ATOM     13  C   UNL     1      21.833  25.913  28.185  1.00  0.00    -0.028 C 
ATOM     14  C   UNL     1      20.813  24.077  26.911  1.00  0.00     0.039 C 
BRANCH  13  15
ATOM     15  C   UNL     1      21.906  27.060  29.162  1.00  0.00     0.035 C 
BRANCH  15  16
ATOM     16  C   UNL     1      22.490  28.307  28.491  1.00  0.00     0.079 C 
BRANCH  16  17
ATOM     17  C   UNL     1      23.890  28.043  28.005  1.00  0.00     0.130 C 
ATOM     18  O   UNL     1      24.124  28.066  26.805  1.00  0.00    -0.300 OA
ATOM     19  C   UNL     1      25.011  27.762  28.961  1.00  0.00     0.087 C 
ENDBRANCH  16  17
ENDBRANCH  15  16
ENDBRANCH  13  15
ENDBRANCH  11  12
ENDBRANCH   1  11
TORSDOF 9
ENDMDL
MODEL 3
REMARK VINA RESULT:    -4.616      2.188      5.282
REMARK INTER + INTRA:          -9.599
REMARK INTER:                  -7.197
REMARK INTRA:                  -2.401
REMARK UNBOUND:                -2.554
REMARK SMILES CC(=O)CCC=C(C)CCC=C(C)CCC=C(C)C
REMARK SMILES IDX 10 1 11 2 12 3 13 4 14 5 15 6 16 7 18 8 17 9 19 10 9 11 7 12
REMARK SMILES IDX 6 13 8 14 5 15 4 16 2 17 3 18 1 19
REMARK H PARENT
REMARK Flexibility Score: inf
ROOT
ATOM      1  C   UNL     1      19.132  30.323  28.810  1.00  0.00     0.032 C 
ENDROOT
BRANCH   1   2
ATOM      2  C   UNL     1      19.418  31.524  29.682  1.00  0.00    -0.028 C 
ATOM      3  C   UNL     1      18.714  32.682  29.691  1.00  0.00    -0.077 C 
ATOM      4  C   UNL     1      19.143  33.756  30.658  1.00  0.00     0.039 C 
BRANCH   3   5
ATOM      5  C   UNL     1      17.511  32.949  28.802  1.00  0.00     0.034 C 
BRANCH   5   6
ATOM      6  C   UNL     1      16.196  32.765  29.573  1.00  0.00     0.032 C 
BRANCH   6   7
ATOM      7  C   UNL     1      15.666  31.362  29.414  1.00  0.00    -0.028 C 
ATOM      8  C   UNL     1      16.364  30.641  31.711  1.00  0.00     0.039 C 
ATOM      9  C   UNL     1      15.723  30.402  30.364  1.00  0.00    -0.080 C 
ATOM     10  C   UNL     1      15.140  29.048  30.052  1.00  0.00     0.039 C 
ENDBRANCH   6   7
ENDBRANCH   5   6
ENDBRANCH   3   5
ENDBRANCH   1   2
BRANCH   1  11
ATOM     11  C   UNL     1      19.009  29.026  29.622  1.00  0.00     0.034 C 
BRANCH  11  12
ATOM     12  C   UNL     1      19.028  27.797  28.731  1.00  0.00    -0.077 C 
ATOM     13  C   UNL     1      20.092  26.967  28.644  1.00  0.00    -0.028 C 
ATOM     14  C   UNL     1      17.823  27.505  27.872  1.00  0.00     0.039 C 
BRANCH  13  15
ATOM     15  C   UNL     1      21.348  27.086  29.471  1.00  0.00     0.035 C 
BRANCH  15  16
ATOM     16  C   UNL     1      22.424  27.870  28.714  1.00  0.00     0.079 C 
BRANCH  16  17
ATOM     17  C   UNL     1      23.148  28.810  29.641  1.00  0.00     0.130 C 
ATOM     18  O   UNL     1      24.309  29.109  29.406  1.00  0.00    -0.300 OA
ATOM     19  C   UNL     1      22.471  29.401  30.842  1.00  0.00     0.087 C 
ENDBRANCH  16  17
ENDBRANCH  15  16
ENDBRANCH  13  15
ENDBRANCH  11  12
ENDBRANCH   1  11
TORSDOF 9
ENDMDL
MODEL 4
REMARK VINA RESULT:    -4.559      2.517      5.964
REMARK INTER + INTRA:          -9.511
REMARK INTER:                  -7.556
REMARK INTRA:                  -1.955
REMARK UNBOUND:                -2.554
REMARK SMILES CC(=O)CCC=C(C)CCC=C(C)CCC=C(C)C
REMARK SMILES IDX 10 1 11 2 12 3 13 4 14 5 15 6 16 7 18 8 17 9 19 10 9 11 7 12
REMARK SMILES IDX 6 13 8 14 5 15 4 16 2 17 3 18 1 19
REMARK H PARENT
REMARK Flexibility Score: inf
ROOT
ATOM      1  C   UNL     1      15.477  29.663  29.473  1.00  0.00     0.032 C 
ENDROOT
BRANCH   1   2
ATOM      2  C   UNL     1      15.459  30.507  30.727  1.00  0.00    -0.028 C 
ATOM      3  C   UNL     1      15.665  31.844  30.785  1.00  0.00    -0.077 C 
ATOM      4  C   UNL     1      15.577  32.510  32.134  1.00  0.00     0.039 C 
BRANCH   3   5
ATOM      5  C   UNL     1      15.957  32.709  29.570  1.00  0.00     0.034 C 
BRANCH   5   6
ATOM      6  C   UNL     1      17.408  33.211  29.578  1.00  0.00     0.032 C 
BRANCH   6   7
ATOM      7  C   UNL     1      18.348  32.160  29.039  1.00  0.00    -0.028 C 
ATOM      8  C   UNL     1      19.331  31.628  31.283  1.00  0.00     0.039 C 
ATOM      9  C   UNL     1      19.207  31.436  29.790  1.00  0.00    -0.080 C 
ATOM     10  C   UNL     1      20.077  30.417  29.100  1.00  0.00     0.039 C 
ENDBRANCH   6   7
ENDBRANCH   5   6
ENDBRANCH   3   5
ENDBRANCH   1   2
BRANCH   1  11
ATOM     11  C   UNL     1      16.718  28.765  29.388  1.00  0.00     0.034 C 
BRANCH  11  12
ATOM     12  C   UNL     1      16.356  27.331  29.045  1.00  0.00    -0.077 C 
ATOM     13  C   UNL     1      17.113  26.552  28.239  1.00  0.00    -0.028 C 
ATOM     14  C   UNL     1      15.075  26.754  29.594  1.00  0.00     0.039 C 
BRANCH  13  15
ATOM     15  C   UNL     1      18.444  26.956  27.655  1.00  0.00     0.035 C 
BRANCH  15  16
ATOM     16  C   UNL     1      19.571  26.733  28.668  1.00  0.00     0.079 C 
BRANCH  16  17
ATOM     17  C   UNL     1      20.334  25.475  28.348  1.00  0.00     0.130 C 
ATOM     18  O   UNL     1      21.158  25.053  29.145  1.00  0.00    -0.300 OA
ATOM     19  C   UNL     1      20.096  24.718  27.075  1.00  0.00     0.087 C 
ENDBRANCH  16  17
ENDBRANCH  15  16
ENDBRANCH  13  15
ENDBRANCH  11  12
ENDBRANCH   1  11
TORSDOF 9
ENDMDL
MODEL 5
REMARK VINA RESULT:    -4.535      2.737      4.715
REMARK INTER + INTRA:          -9.474
REMARK INTER:                  -7.437
REMARK INTRA:                  -2.036
REMARK UNBOUND:                -2.554
REMARK SMILES CC(=O)CCC=C(C)CCC=C(C)CCC=C(C)C
REMARK SMILES IDX 10 1 11 2 12 3 13 4 14 5 15 6 16 7 18 8 17 9 19 10 9 11 7 12
REMARK SMILES IDX 6 13 8 14 5 15 4 16 2 17 3 18 1 19
REMARK H PARENT
REMARK Flexibility Score: inf
ROOT
ATOM      1  C   UNL     1      19.485  30.805  29.516  1.00  0.00     0.032 C 
ENDROOT
BRANCH   1   2
ATOM      2  C   UNL     1      18.876  29.818  28.547  1.00  0.00    -0.028 C 
ATOM      3  C   UNL     1      19.121  28.486  28.515  1.00  0.00    -0.077 C 
ATOM      4  C   UNL     1      18.389  27.662  27.486  1.00  0.00     0.039 C 
BRANCH   3   5
ATOM      5  C   UNL     1      20.069  27.776  29.467  1.00  0.00     0.034 C 
BRANCH   5   6
ATOM      6  C   UNL     1      21.427  27.507  28.803  1.00  0.00     0.032 C 
BRANCH   6   7
ATOM      7  C   UNL     1      22.513  28.346  29.431  1.00  0.00    -0.028 C 
ATOM      8  C   UNL     1      24.056  28.149  27.465  1.00  0.00     0.039 C 
ATOM      9  C   UNL     1      23.691  28.651  28.841  1.00  0.00    -0.080 C 
ATOM     10  C   UNL     1      24.670  29.509  29.600  1.00  0.00     0.039 C 
ENDBRANCH   6   7
ENDBRANCH   5   6
ENDBRANCH   3   5
ENDBRANCH   1   2
BRANCH   1  11
ATOM     11  C   UNL     1      18.448  31.390  30.485  1.00  0.00     0.034 C 
BRANCH  11  12
ATOM     12  C   UNL     1      17.424  32.250  29.766  1.00  0.00    -0.077 C 
ATOM     13  C   UNL     1      16.106  31.947  29.728  1.00  0.00    -0.028 C 
ATOM     14  C   UNL     1      17.896  33.476  29.026  1.00  0.00     0.039 C 
BRANCH  13  15
ATOM     15  C   UNL     1      15.465  30.793  30.457  1.00  0.00     0.035 C 
BRANCH  15  16
ATOM     16  C   UNL     1      15.183  29.634  29.495  1.00  0.00     0.079 C 
BRANCH  16  17
ATOM     17  C   UNL     1      15.712  28.340  30.053  1.00  0.00     0.130 C 
ATOM     18  O   UNL     1      15.472  27.292  29.471  1.00  0.00    -0.300 OA
ATOM     19  C   UNL     1      16.542  28.306  31.302  1.00  0.00     0.087 C 
ENDBRANCH  16  17
ENDBRANCH  15  16
ENDBRANCH  13  15
ENDBRANCH  11  12
ENDBRANCH   1  11
TORSDOF 9
ENDMDL
MODEL 6
REMARK VINA RESULT:    -4.525      2.510      5.250
REMARK INTER + INTRA:          -9.459
REMARK INTER:                  -6.251
REMARK INTRA:                  -3.208
REMARK UNBOUND:                -2.554
REMARK SMILES CC(=O)CCC=C(C)CCC=C(C)CCC=C(C)C
REMARK SMILES IDX 10 1 11 2 12 3 13 4 14 5 15 6 16 7 18 8 17 9 19 10 9 11 7 12
REMARK SMILES IDX 6 13 8 14 5 15 4 16 2 17 3 18 1 19
REMARK H PARENT
REMARK Flexibility Score: inf
ROOT
ATOM      1  C   UNL     1      16.401  33.142  29.388  1.00  0.00     0.032 C 
ENDROOT
BRANCH   1   2
ATOM      2  C   UNL     1      17.849  33.399  29.040  1.00  0.00    -0.028 C 
ATOM      3  C   UNL     1      18.806  33.826  29.898  1.00  0.00    -0.077 C 
ATOM      4  C   UNL     1      20.205  33.995  29.362  1.00  0.00     0.039 C 
BRANCH   3   5
ATOM      5  C   UNL     1      18.555  34.123  31.366  1.00  0.00     0.034 C 
BRANCH   5   6
ATOM      6  C   UNL     1      19.754  33.710  32.232  1.00  0.00     0.032 C 
BRANCH   6   7
ATOM      7  C   UNL     1      19.708  32.236  32.553  1.00  0.00    -0.028 C 
ATOM      8  C   UNL     1      22.005  31.783  31.657  1.00  0.00     0.039 C 
ATOM      9  C   UNL     1      20.711  31.362  32.312  1.00  0.00    -0.080 C 
ATOM     10  C   UNL     1      20.512  29.919  32.699  1.00  0.00     0.039 C 
ENDBRANCH   6   7
ENDBRANCH   5   6
ENDBRANCH   3   5
ENDBRANCH   1   2
BRANCH   1  11
ATOM     11  C   UNL     1      16.053  31.647  29.382  1.00  0.00     0.034 C 
BRANCH  11  12
ATOM     12  C   UNL     1      16.707  30.910  30.537  1.00  0.00    -0.077 C 
ATOM     13  C   UNL     1      17.678  29.984  30.363  1.00  0.00    -0.028 C 
ATOM     14  C   UNL     1      16.231  31.190  31.940  1.00  0.00     0.039 C 
BRANCH  13  15
ATOM     15  C   UNL     1      18.303  29.628  29.037  1.00  0.00     0.035 C 
BRANCH  15  16
ATOM     16  C   UNL     1      19.768  30.072  28.992  1.00  0.00     0.079 C 
BRANCH  16  17
ATOM     17  C   UNL     1      20.682  28.878  28.907  1.00  0.00     0.130 C 
ATOM     18  O   UNL     1      20.224  27.792  28.588  1.00  0.00    -0.300 OA
ATOM     19  C   UNL     1      22.150  28.995  29.195  1.00  0.00     0.087 C 
ENDBRANCH  16  17
ENDBRANCH  15  16
ENDBRANCH  13  15
ENDBRANCH  11  12
ENDBRANCH   1  11
TORSDOF 9
ENDMDL
MODEL 7
REMARK VINA RESULT:    -4.512      2.628      6.647
REMARK INTER + INTRA:          -9.439
REMARK INTER:                  -7.152
REMARK INTRA:                  -2.287
REMARK UNBOUND:                -2.554
REMARK SMILES CC(=O)CCC=C(C)CCC=C(C)CCC=C(C)C
REMARK SMILES IDX 10 1 11 2 12 3 13 4 14 5 15 6 16 7 18 8 17 9 19 10 9 11 7 12
REMARK SMILES IDX 6 13 8 14 5 15 4 16 2 17 3 18 1 19
REMARK H PARENT
REMARK Flexibility Score: inf
ROOT
ATOM      1  C   UNL     1      18.397  29.488  29.000  1.00  0.00     0.032 C 
ENDROOT
BRANCH   1   2
ATOM      2  C   UNL     1      17.615  29.710  30.275  1.00  0.00    -0.028 C 
ATOM      3  C   UNL     1      16.569  30.557  30.425  1.00  0.00    -0.077 C 
ATOM      4  C   UNL     1      15.899  30.614  31.774  1.00  0.00     0.039 C 
BRANCH   3   5
ATOM      5  C   UNL     1      16.021  31.432  29.310  1.00  0.00     0.034 C 
BRANCH   5   6
ATOM      6  C   UNL     1      16.282  32.919  29.588  1.00  0.00     0.032 C 
BRANCH   6   7
ATOM      7  C   UNL     1      17.685  33.307  29.190  1.00  0.00    -0.028 C 
ATOM      8  C   UNL     1      18.488  33.539  31.553  1.00  0.00     0.039 C 
ATOM      9  C   UNL     1      18.687  33.578  30.057  1.00  0.00    -0.080 C 
ATOM     10  C   UNL     1      20.038  33.945  29.498  1.00  0.00     0.039 C 
ENDBRANCH   6   7
ENDBRANCH   5   6
ENDBRANCH   3   5
ENDBRANCH   1   2
BRANCH   1  11
ATOM     11  C   UNL     1      19.765  30.184  29.024  1.00  0.00     0.034 C 
BRANCH  11  12
ATOM     12  C   UNL     1      20.641  29.670  30.153  1.00  0.00    -0.077 C 
ATOM     13  C   UNL     1      21.324  28.505  30.084  1.00  0.00    -0.028 C 
ATOM     14  C   UNL     1      20.726  30.472  31.428  1.00  0.00     0.039 C 
BRANCH  13  15
ATOM     15  C   UNL     1      21.389  27.616  28.867  1.00  0.00     0.035 C 
BRANCH  15  16
ATOM     16  C   UNL     1      21.200  26.147  29.258  1.00  0.00     0.079 C 
BRANCH  16  17
ATOM     17  C   UNL     1      20.346  25.432  28.244  1.00  0.00     0.130 C 
ATOM     18  O   UNL     1      20.770  24.419  27.709  1.00  0.00    -0.300 OA
ATOM     19  C   UNL     1      18.977  25.929  27.884  1.00  0.00     0.087 C 
ENDBRANCH  16  17
ENDBRANCH  15  16
ENDBRANCH  13  15
ENDBRANCH  11  12
ENDBRANCH   1  11
TORSDOF 9
ENDMDL
MODEL 8
REMARK VINA RESULT:    -4.508      2.517      5.961
REMARK INTER + INTRA:          -9.433
REMARK INTER:                  -7.095
REMARK INTRA:                  -2.338
REMARK UNBOUND:                -2.554
REMARK SMILES CC(=O)CCC=C(C)CCC=C(C)CCC=C(C)C
REMARK SMILES IDX 10 1 11 2 12 3 13 4 14 5 15 6 16 7 18 8 17 9 19 10 9 11 7 12
REMARK SMILES IDX 6 13 8 14 5 15 4 16 2 17 3 18 1 19
REMARK H PARENT
REMARK Flexibility Score: inf
ROOT
ATOM      1  C   UNL     1      20.338  30.576  29.779  1.00  0.00     0.032 C 
ENDROOT
BRANCH   1   2
ATOM      2  C   UNL     1      20.470  32.053  29.489  1.00  0.00    -0.028 C 
ATOM      3  C   UNL     1      20.006  33.058  30.270  1.00  0.00    -0.077 C 
ATOM      4  C   UNL     1      20.264  34.474  29.819  1.00  0.00     0.039 C 
BRANCH   3   5
ATOM      5  C   UNL     1      19.264  32.841  31.577  1.00  0.00     0.034 C 
BRANCH   5   6
ATOM      6  C   UNL     1      17.853  33.442  31.525  1.00  0.00     0.032 C 
BRANCH   6   7
ATOM      7  C   UNL     1      16.822  32.382  31.223  1.00  0.00    -0.028 C 
ATOM      8  C   UNL     1      16.710  32.928  28.779  1.00  0.00     0.039 C 
ATOM      9  C   UNL     1      16.308  32.132  29.998  1.00  0.00    -0.080 C 
ATOM     10  C   UNL     1      15.289  31.031  29.861  1.00  0.00     0.039 C 
ENDBRANCH   6   7
ENDBRANCH   5   6
ENDBRANCH   3   5
ENDBRANCH   1   2
BRANCH   1  11
ATOM     11  C   UNL     1      19.177  29.929  29.011  1.00  0.00     0.034 C 
BRANCH  11  12
ATOM     12  C   UNL     1      18.458  28.886  29.849  1.00  0.00    -0.077 C 
ATOM     13  C   UNL     1      17.993  27.723  29.336  1.00  0.00    -0.028 C 
ATOM     14  C   UNL     1      18.214  29.170  31.309  1.00  0.00     0.039 C 
BRANCH  13  15
ATOM     15  C   UNL     1      18.201  27.264  27.915  1.00  0.00     0.035 C 
BRANCH  15  16
ATOM     16  C   UNL     1      18.348  25.740  27.854  1.00  0.00     0.079 C 
BRANCH  16  17
ATOM     17  C   UNL     1      19.794  25.352  27.688  1.00  0.00     0.130 C 
ATOM     18  O   UNL     1      20.129  24.686  26.720  1.00  0.00    -0.300 OA
ATOM     19  C   UNL     1      20.836  25.775  28.680  1.00  0.00     0.087 C 
ENDBRANCH  16  17
ENDBRANCH  15  16
ENDBRANCH  13  15
ENDBRANCH  11  12
ENDBRANCH   1  11
TORSDOF 9
ENDMDL
MODEL 9
REMARK VINA RESULT:    -4.484      2.368      5.389
REMARK INTER + INTRA:          -9.396
REMARK INTER:                  -6.694
REMARK INTRA:                  -2.703
REMARK UNBOUND:                -2.554
REMARK SMILES CC(=O)CCC=C(C)CCC=C(C)CCC=C(C)C
REMARK SMILES IDX 10 1 11 2 12 3 13 4 14 5 15 6 16 7 18 8 17 9 19 10 9 11 7 12
REMARK SMILES IDX 6 13 8 14 5 15 4 16 2 17 3 18 1 19
REMARK H PARENT
REMARK Flexibility Score: inf
ROOT
ATOM      1  C   UNL     1      20.745  31.171  30.789  1.00  0.00     0.032 C 
ENDROOT
BRANCH   1   2
ATOM      2  C   UNL     1      20.126  32.363  31.482  1.00  0.00    -0.028 C 
ATOM      3  C   UNL     1      19.286  33.261  30.915  1.00  0.00    -0.077 C 
ATOM      4  C   UNL     1      18.749  34.369  31.785  1.00  0.00     0.039 C 
BRANCH   3   5
ATOM      5  C   UNL     1      18.840  33.203  29.463  1.00  0.00     0.034 C 
BRANCH   5   6
ATOM      6  C   UNL     1      17.352  33.554  29.322  1.00  0.00     0.032 C 
BRANCH   6   7
ATOM      7  C   UNL     1      16.514  32.308  29.166  1.00  0.00    -0.028 C 
ATOM      8  C   UNL     1      15.591  32.415  31.494  1.00  0.00     0.039 C 
ATOM      9  C   UNL     1      15.713  31.791  30.124  1.00  0.00    -0.080 C 
ATOM     10  C   UNL     1      14.932  30.541  29.807  1.00  0.00     0.039 C 
ENDBRANCH   6   7
ENDBRANCH   5   6
ENDBRANCH   3   5
ENDBRANCH   1   2
BRANCH   1  11
ATOM     11  C   UNL     1      20.310  29.839  31.414  1.00  0.00     0.034 C 
BRANCH  11  12
ATOM     12  C   UNL     1      18.857  29.520  31.110  1.00  0.00    -0.077 C 
ATOM     13  C   UNL     1      18.408  29.245  29.864  1.00  0.00    -0.028 C 
ATOM     14  C   UNL     1      17.857  29.545  32.239  1.00  0.00     0.039 C 
BRANCH  13  15
ATOM     15  C   UNL     1      19.282  29.126  28.640  1.00  0.00     0.035 C 
BRANCH  15  16
ATOM     16  C   UNL     1      19.608  27.659  28.348  1.00  0.00     0.079 C 
BRANCH  16  17
ATOM     17  C   UNL     1      20.952  27.289  28.917  1.00  0.00     0.130 C 
ATOM     18  O   UNL     1      21.063  26.270  29.582  1.00  0.00    -0.300 OA
ATOM     19  C   UNL     1      22.165  28.138  28.675  1.00  0.00     0.087 C 
ENDBRANCH  16  17
ENDBRANCH  15  16
ENDBRANCH  13  15
ENDBRANCH  11  12
ENDBRANCH   1  11
TORSDOF 9
ENDMDL
