MODEL 1
REMARK VINA RESULT:    -3.584      0.000      0.000
REMARK INTER + INTRA:         -10.924
REMARK INTER:                  -9.031
REMARK INTRA:                  -1.893
REMARK UNBOUND:                -1.893
REMARK SMILES CCCCCCCCCCCCCCCCCCCCCCCCCCCC(=O)[O-]
REMARK SMILES IDX 15 1 16 2 17 3 18 4 19 5 20 6 21 7 22 8 23 9 24 10 25 11
REMARK SMILES IDX 26 12 27 13 28 14 29 15 30 16 14 17 13 18 12 19 11 20 10 21
REMARK SMILES IDX 9 22 8 23 7 24 6 25 5 26 4 27 3 28 2 29 1 30
REMARK H PARENT
REMARK Flexibility Score: inf
ROOT
ATOM      1  C   UNL     1       7.554   8.760  33.516  1.00  0.00     0.000 C 
ENDROOT
BRANCH   1   2
ATOM      2  C   UNL     1       6.873   7.482  34.026  1.00  0.00     0.000 C 
BRANCH   2   3
ATOM      3  C   UNL     1       7.184   7.186  35.504  1.00  0.00     0.000 C 
BRANCH   3   4
ATOM      4  C   UNL     1       6.789   5.776  35.991  1.00  0.00     0.000 C 
BRANCH   4   5
ATOM      5  C   UNL     1       6.022   4.923  34.965  1.00  0.00     0.000 C 
BRANCH   5   6
ATOM      6  C   UNL     1       5.404   3.659  35.588  1.00  0.00     0.000 C 
BRANCH   6   7
ATOM      7  C   UNL     1       5.857   2.371  34.882  1.00  0.00     0.000 C 
BRANCH   7   8
ATOM      8  C   UNL     1       5.952   1.174  35.846  1.00  0.00     0.000 C 
BRANCH   8   9
ATOM      9  C   UNL     1       7.162   1.266  36.789  1.00  0.00     0.000 C 
BRANCH   9  10
ATOM     10  C   UNL     1       8.467   1.603  36.051  1.00  0.00     0.000 C 
BRANCH  10  11
ATOM     11  C   UNL     1       9.147   2.832  36.671  1.00  0.00     0.000 C 
BRANCH  11  12
ATOM     12  C   UNL     1      10.244   3.434  35.773  1.00  0.00     0.006 C 
BRANCH  12  13
ATOM     13  C   UNL     1      10.118   4.953  35.567  1.00  0.00     0.053 C 
BRANCH  13  14
ATOM     14  C   UNL     1      10.657   5.405  34.244  1.00  0.00     0.041 C 
ATOM     15  O   UNL     1      10.010   6.224  33.540  1.00  0.00    -0.550 OA
ATOM     16  O   UNL     1      11.887   4.937  33.797  1.00  0.00    -0.550 OA
ENDBRANCH  13  14
ENDBRANCH  12  13
ENDBRANCH  11  12
ENDBRANCH  10  11
ENDBRANCH   9  10
ENDBRANCH   8   9
ENDBRANCH   7   8
ENDBRANCH   6   7
ENDBRANCH   5   6
ENDBRANCH   4   5
ENDBRANCH   3   4
ENDBRANCH   2   3
ENDBRANCH   1   2
BRANCH   1  17
ATOM     17  C   UNL     1       6.518   9.861  33.242  1.00  0.00     0.000 C 
BRANCH  17  18
ATOM     18  C   UNL     1       5.361   9.868  34.260  1.00  0.00     0.000 C 
BRANCH  18  19
ATOM     19  C   UNL     1       5.643  10.625  35.572  1.00  0.00     0.000 C 
BRANCH  19  20
ATOM     20  C   UNL     1       5.323  12.128  35.483  1.00  0.00     0.000 C 
BRANCH  20  21
ATOM     21  C   UNL     1       5.457  12.673  34.052  1.00  0.00     0.000 C 
BRANCH  21  22
ATOM     22  C   UNL     1       4.889  14.096  33.906  1.00  0.00    -0.000 C 
BRANCH  22  23
ATOM     23  C   UNL     1       5.657  15.126  34.752  1.00  0.00    -0.000 C 
BRANCH  23  24
ATOM     24  C   UNL     1       5.068  16.540  34.645  1.00  0.00    -0.000 C 
BRANCH  24  25
ATOM     25  C   UNL     1       5.711  17.484  35.672  1.00  0.00    -0.000 C 
BRANCH  25  26
ATOM     26  C   UNL     1       6.803  18.383  35.065  1.00  0.00    -0.000 C 
BRANCH  26  27
ATOM     27  C   UNL     1       6.298  19.708  34.467  1.00  0.00    -0.000 C 
BRANCH  27  28
ATOM     28  C   UNL     1       7.131  20.178  33.262  1.00  0.00    -0.000 C 
BRANCH  28  29
ATOM     29  C   UNL     1       6.279  20.376  32.000  1.00  0.00    -0.003 C 
ATOM     30  C   UNL     1       4.911  19.701  32.101  1.00  0.00     0.004 C 
ENDBRANCH  28  29
ENDBRANCH  27  28
ENDBRANCH  26  27
ENDBRANCH  25  26
ENDBRANCH  24  25
ENDBRANCH  23  24
ENDBRANCH  22  23
ENDBRANCH  21  22
ENDBRANCH  20  21
ENDBRANCH  19  20
ENDBRANCH  18  19
ENDBRANCH  17  18
ENDBRANCH   1  17
TORSDOF 26
ENDMDL
MODEL 2
REMARK VINA RESULT:    -2.696      4.200     13.283
REMARK INTER + INTRA:          -8.687
REMARK INTER:                  -7.275
REMARK INTRA:                  -1.412
REMARK UNBOUND:                -1.893
REMARK SMILES CCCCCCCCCCCCCCCCCCCCCCCCCCCC(=O)[O-]
REMARK SMILES IDX 15 1 16 2 17 3 18 4 19 5 20 6 21 7 22 8 23 9 24 10 25 11
REMARK SMILES IDX 26 12 27 13 28 14 29 15 30 16 14 17 13 18 12 19 11 20 10 21
REMARK SMILES IDX 9 22 8 23 7 24 6 25 5 26 4 27 3 28 2 29 1 30
REMARK H PARENT
REMARK Flexibility Score: inf
ROOT
ATOM      1  C   UNL     1       6.059   9.464  34.331  1.00  0.00     0.000 C 
ENDROOT
BRANCH   1   2
ATOM      2  C   UNL     1       5.236  10.501  33.553  1.00  0.00     0.000 C 
BRANCH   2   3
ATOM      3  C   UNL     1       5.771  11.934  33.715  1.00  0.00     0.000 C 
BRANCH   3   4
ATOM      4  C   UNL     1       5.405  12.628  35.043  1.00  0.00     0.000 C 
BRANCH   4   5
ATOM      5  C   UNL     1       5.203  14.151  34.949  1.00  0.00     0.000 C 
BRANCH   5   6
ATOM      6  C   UNL     1       5.485  14.870  36.280  1.00  0.00     0.000 C 
BRANCH   6   7
ATOM      7  C   UNL     1       5.015  16.334  36.270  1.00  0.00     0.000 C 
BRANCH   7   8
ATOM      8  C   UNL     1       4.875  16.897  34.843  1.00  0.00     0.000 C 
BRANCH   8   9
ATOM      9  C   UNL     1       6.093  17.731  34.414  1.00  0.00     0.000 C 
BRANCH   9  10
ATOM     10  C   UNL     1       6.683  18.559  35.566  1.00  0.00     0.000 C 
BRANCH  10  11
ATOM     11  C   UNL     1       5.853  19.828  35.811  1.00  0.00     0.000 C 
BRANCH  11  12
ATOM     12  C   UNL     1       6.273  21.007  34.915  1.00  0.00     0.006 C 
BRANCH  12  13
ATOM     13  C   UNL     1       5.459  21.124  33.615  1.00  0.00     0.053 C 
BRANCH  13  14
ATOM     14  C   UNL     1       6.214  20.642  32.413  1.00  0.00     0.041 C 
ATOM     15  O   UNL     1       7.467  20.757  32.363  1.00  0.00    -0.550 OA
ATOM     16  O   UNL     1       5.536  20.046  31.358  1.00  0.00    -0.550 OA
ENDBRANCH  13  14
ENDBRANCH  12  13
ENDBRANCH  11  12
ENDBRANCH  10  11
ENDBRANCH   9  10
ENDBRANCH   8   9
ENDBRANCH   7   8
ENDBRANCH   6   7
ENDBRANCH   5   6
ENDBRANCH   4   5
ENDBRANCH   3   4
ENDBRANCH   2   3
ENDBRANCH   1   2
BRANCH   1  17
ATOM     17  C   UNL     1       5.955   8.078  33.675  1.00  0.00     0.000 C 
BRANCH  17  18
ATOM     18  C   UNL     1       5.934   6.926  34.698  1.00  0.00     0.000 C 
BRANCH  18  19
ATOM     19  C   UNL     1       5.742   5.518  34.100  1.00  0.00     0.000 C 
BRANCH  19  20
ATOM     20  C   UNL     1       4.876   4.601  34.980  1.00  0.00     0.000 C 
BRANCH  20  21
ATOM     21  C   UNL     1       5.587   4.193  36.281  1.00  0.00     0.000 C 
BRANCH  21  22
ATOM     22  C   UNL     1       7.017   3.680  36.037  1.00  0.00    -0.000 C 
BRANCH  22  23
ATOM     23  C   UNL     1       7.270   2.310  36.688  1.00  0.00    -0.000 C 
BRANCH  23  24
ATOM     24  C   UNL     1       7.917   1.305  35.724  1.00  0.00    -0.000 C 
BRANCH  24  25
ATOM     25  C   UNL     1       9.395   1.077  36.076  1.00  0.00    -0.000 C 
BRANCH  25  26
ATOM     26  C   UNL     1      10.052   2.301  36.739  1.00  0.00    -0.000 C 
BRANCH  26  27
ATOM     27  C   UNL     1      10.762   3.264  35.771  1.00  0.00    -0.000 C 
BRANCH  27  28
ATOM     28  C   UNL     1      10.080   4.641  35.688  1.00  0.00    -0.000 C 
BRANCH  28  29
ATOM     29  C   UNL     1      10.210   5.279  34.297  1.00  0.00    -0.003 C 
ATOM     30  C   UNL     1      11.660   5.353  33.817  1.00  0.00     0.004 C 
ENDBRANCH  28  29
ENDBRANCH  27  28
ENDBRANCH  26  27
ENDBRANCH  25  26
ENDBRANCH  24  25
ENDBRANCH  23  24
ENDBRANCH  22  23
ENDBRANCH  21  22
ENDBRANCH  20  21
ENDBRANCH  19  20
ENDBRANCH  18  19
ENDBRANCH  17  18
ENDBRANCH   1  17
TORSDOF 26
ENDMDL
MODEL 3
REMARK VINA RESULT:    -2.389      4.021     12.109
REMARK INTER + INTRA:          -7.914
REMARK INTER:                  -6.418
REMARK INTRA:                  -1.495
REMARK UNBOUND:                -1.893
REMARK SMILES CCCCCCCCCCCCCCCCCCCCCCCCCCCC(=O)[O-]
REMARK SMILES IDX 15 1 16 2 17 3 18 4 19 5 20 6 21 7 22 8 23 9 24 10 25 11
REMARK SMILES IDX 26 12 27 13 28 14 29 15 30 16 14 17 13 18 12 19 11 20 10 21
REMARK SMILES IDX 9 22 8 23 7 24 6 25 5 26 4 27 3 28 2 29 1 30
REMARK H PARENT
REMARK Flexibility Score: inf
ROOT
ATOM      1  C   UNL     1       9.460   6.496  34.004  1.00  0.00     0.000 C 
ENDROOT
BRANCH   1   2
ATOM      2  C   UNL     1       8.007   6.402  34.489  1.00  0.00     0.000 C 
BRANCH   2   3
ATOM      3  C   UNL     1       7.669   7.438  35.575  1.00  0.00     0.000 C 
BRANCH   3   4
ATOM      4  C   UNL     1       6.829   8.641  35.099  1.00  0.00     0.000 C 
BRANCH   4   5
ATOM      5  C   UNL     1       5.618   8.983  35.985  1.00  0.00     0.000 C 
BRANCH   5   6
ATOM      6  C   UNL     1       4.964  10.323  35.605  1.00  0.00     0.000 C 
BRANCH   6   7
ATOM      7  C   UNL     1       5.596  11.517  36.339  1.00  0.00     0.000 C 
BRANCH   7   8
ATOM      8  C   UNL     1       4.988  12.864  35.903  1.00  0.00     0.000 C 
BRANCH   8   9
ATOM      9  C   UNL     1       5.642  13.424  34.630  1.00  0.00     0.000 C 
BRANCH   9  10
ATOM     10  C   UNL     1       5.145  14.835  34.277  1.00  0.00     0.000 C 
BRANCH  10  11
ATOM     11  C   UNL     1       6.159  15.901  34.717  1.00  0.00     0.000 C 
BRANCH  11  12
ATOM     12  C   UNL     1       5.623  17.338  34.579  1.00  0.00     0.006 C 
BRANCH  12  13
ATOM     13  C   UNL     1       6.402  18.376  35.406  1.00  0.00     0.053 C 
BRANCH  13  14
ATOM     14  C   UNL     1       6.567  19.681  34.689  1.00  0.00     0.041 C 
ATOM     15  O   UNL     1       5.919  20.695  35.058  1.00  0.00    -0.550 OA
ATOM     16  O   UNL     1       7.455  19.784  33.624  1.00  0.00    -0.550 OA
ENDBRANCH  13  14
ENDBRANCH  12  13
ENDBRANCH  11  12
ENDBRANCH  10  11
ENDBRANCH   9  10
ENDBRANCH   8   9
ENDBRANCH   7   8
ENDBRANCH   6   7
ENDBRANCH   5   6
ENDBRANCH   4   5
ENDBRANCH   3   4
ENDBRANCH   2   3
ENDBRANCH   1   2
BRANCH   1  17
ATOM     17  C   UNL     1      10.392   5.662  34.897  1.00  0.00     0.000 C 
BRANCH  17  18
ATOM     18  C   UNL     1       9.720   4.389  35.448  1.00  0.00     0.000 C 
BRANCH  18  19
ATOM     19  C   UNL     1      10.510   3.651  36.546  1.00  0.00     0.000 C 
BRANCH  19  20
ATOM     20  C   UNL     1      11.041   2.280  36.090  1.00  0.00     0.000 C 
BRANCH  20  21
ATOM     21  C   UNL     1       9.942   1.205  36.062  1.00  0.00     0.000 C 
BRANCH  21  22
ATOM     22  C   UNL     1       8.604   1.713  36.627  1.00  0.00    -0.000 C 
BRANCH  22  23
ATOM     23  C   UNL     1       7.395   0.960  36.045  1.00  0.00    -0.000 C 
BRANCH  23  24
ATOM     24  C   UNL     1       6.181   0.968  36.984  1.00  0.00    -0.000 C 
BRANCH  24  25
ATOM     25  C   UNL     1       5.137   1.998  36.526  1.00  0.00    -0.000 C 
BRANCH  25  26
ATOM     26  C   UNL     1       5.657   3.446  36.576  1.00  0.00    -0.000 C 
BRANCH  26  27
ATOM     27  C   UNL     1       4.887   4.445  35.693  1.00  0.00    -0.000 C 
BRANCH  27  28
ATOM     28  C   UNL     1       5.175   4.264  34.193  1.00  0.00    -0.000 C 
BRANCH  28  29
ATOM     29  C   UNL     1       5.013   5.569  33.401  1.00  0.00    -0.003 C 
ATOM     30  C   UNL     1       4.875   5.332  31.896  1.00  0.00     0.004 C 
ENDBRANCH  28  29
ENDBRANCH  27  28
ENDBRANCH  26  27
ENDBRANCH  25  26
ENDBRANCH  24  25
ENDBRANCH  23  24
ENDBRANCH  22  23
ENDBRANCH  21  22
ENDBRANCH  20  21
ENDBRANCH  19  20
ENDBRANCH  18  19
ENDBRANCH  17  18
ENDBRANCH   1  17
TORSDOF 26
ENDMDL
MODEL 4
REMARK VINA RESULT:    -2.356      3.906     11.943
REMARK INTER + INTRA:          -7.829
REMARK INTER:                  -5.568
REMARK INTRA:                  -2.261
REMARK UNBOUND:                -1.893
REMARK SMILES CCCCCCCCCCCCCCCCCCCCCCCCCCCC(=O)[O-]
REMARK SMILES IDX 15 1 16 2 17 3 18 4 19 5 20 6 21 7 22 8 23 9 24 10 25 11
REMARK SMILES IDX 26 12 27 13 28 14 29 15 30 16 14 17 13 18 12 19 11 20 10 21
REMARK SMILES IDX 9 22 8 23 7 24 6 25 5 26 4 27 3 28 2 29 1 30
REMARK H PARENT
REMARK Flexibility Score: inf
ROOT
ATOM      1  C   UNL     1      10.313   6.018  33.915  1.00  0.00     0.000 C 
ENDROOT
BRANCH   1   2
ATOM      2  C   UNL     1       8.880   6.438  33.559  1.00  0.00     0.000 C 
BRANCH   2   3
ATOM      3  C   UNL     1       8.426   7.709  34.298  1.00  0.00     0.000 C 
BRANCH   3   4
ATOM      4  C   UNL     1       7.923   8.853  33.394  1.00  0.00     0.000 C 
BRANCH   4   5
ATOM      5  C   UNL     1       6.776   9.693  33.983  1.00  0.00     0.000 C 
BRANCH   5   6
ATOM      6  C   UNL     1       5.994  10.468  32.908  1.00  0.00     0.000 C 
BRANCH   6   7
ATOM      7  C   UNL     1       4.875  11.337  33.504  1.00  0.00     0.000 C 
BRANCH   7   8
ATOM      8  C   UNL     1       5.334  12.782  33.777  1.00  0.00     0.000 C 
BRANCH   8   9
ATOM      9  C   UNL     1       5.615  13.043  35.265  1.00  0.00     0.000 C 
BRANCH   9  10
ATOM     10  C   UNL     1       5.077  14.400  35.743  1.00  0.00     0.000 C 
BRANCH  10  11
ATOM     11  C   UNL     1       4.887  15.363  34.562  1.00  0.00     0.000 C 
BRANCH  11  12
ATOM     12  C   UNL     1       5.802  16.598  34.636  1.00  0.00     0.006 C 
BRANCH  12  13
ATOM     13  C   UNL     1       5.080  17.928  34.355  1.00  0.00     0.053 C 
BRANCH  13  14
ATOM     14  C   UNL     1       5.811  19.113  34.910  1.00  0.00     0.041 C 
ATOM     15  O   UNL     1       5.516  20.276  34.529  1.00  0.00    -0.550 OA
ATOM     16  O   UNL     1       6.805  18.934  35.864  1.00  0.00    -0.550 OA
ENDBRANCH  13  14
ENDBRANCH  12  13
ENDBRANCH  11  12
ENDBRANCH  10  11
ENDBRANCH   9  10
ENDBRANCH   8   9
ENDBRANCH   7   8
ENDBRANCH   6   7
ENDBRANCH   5   6
ENDBRANCH   4   5
ENDBRANCH   3   4
ENDBRANCH   2   3
ENDBRANCH   1   2
BRANCH   1  17
ATOM     17  C   UNL     1      10.397   5.533  35.370  1.00  0.00     0.000 C 
BRANCH  17  18
ATOM     18  C   UNL     1       9.592   4.244  35.624  1.00  0.00     0.000 C 
BRANCH  18  19
ATOM     19  C   UNL     1       9.968   3.475  36.906  1.00  0.00     0.000 C 
BRANCH  19  20
ATOM     20  C   UNL     1      10.237   1.981  36.657  1.00  0.00     0.000 C 
BRANCH  20  21
ATOM     21  C   UNL     1       9.036   1.098  37.034  1.00  0.00     0.000 C 
BRANCH  21  22
ATOM     22  C   UNL     1       7.693   1.838  36.902  1.00  0.00    -0.000 C 
BRANCH  22  23
ATOM     23  C   UNL     1       6.486   0.889  36.986  1.00  0.00    -0.000 C 
BRANCH  23  24
ATOM     24  C   UNL     1       5.249   1.435  36.260  1.00  0.00    -0.000 C 
BRANCH  24  25
ATOM     25  C   UNL     1       5.625   2.009  34.886  1.00  0.00    -0.000 C 
BRANCH  25  26
ATOM     26  C   UNL     1       4.986   3.382  34.610  1.00  0.00    -0.000 C 
BRANCH  26  27
ATOM     27  C   UNL     1       4.911   4.322  35.827  1.00  0.00    -0.000 C 
BRANCH  27  28
ATOM     28  C   UNL     1       5.856   5.530  35.711  1.00  0.00    -0.000 C 
BRANCH  28  29
ATOM     29  C   UNL     1       6.374   6.005  37.076  1.00  0.00    -0.003 C 
ATOM     30  C   UNL     1       6.662   7.507  37.106  1.00  0.00     0.004 C 
ENDBRANCH  28  29
ENDBRANCH  27  28
ENDBRANCH  26  27
ENDBRANCH  25  26
ENDBRANCH  24  25
ENDBRANCH  23  24
ENDBRANCH  22  23
ENDBRANCH  21  22
ENDBRANCH  20  21
ENDBRANCH  19  20
ENDBRANCH  18  19
ENDBRANCH  17  18
ENDBRANCH   1  17
TORSDOF 26
ENDMDL
MODEL 5
REMARK VINA RESULT:    -1.980      3.359      4.289
REMARK INTER + INTRA:          -6.882
REMARK INTER:                  -6.080
REMARK INTRA:                  -0.803
REMARK UNBOUND:                -1.893
REMARK SMILES CCCCCCCCCCCCCCCCCCCCCCCCCCCC(=O)[O-]
REMARK SMILES IDX 15 1 16 2 17 3 18 4 19 5 20 6 21 7 22 8 23 9 24 10 25 11
REMARK SMILES IDX 26 12 27 13 28 14 29 15 30 16 14 17 13 18 12 19 11 20 10 21
REMARK SMILES IDX 9 22 8 23 7 24 6 25 5 26 4 27 3 28 2 29 1 30
REMARK H PARENT
REMARK Flexibility Score: inf
ROOT
ATOM      1  C   UNL     1       7.746   7.467  34.142  1.00  0.00     0.000 C 
ENDROOT
BRANCH   1   2
ATOM      2  C   UNL     1       7.690   7.127  35.638  1.00  0.00     0.000 C 
BRANCH   2   3
ATOM      3  C   UNL     1       6.526   6.185  35.995  1.00  0.00     0.000 C 
BRANCH   3   4
ATOM      4  C   UNL     1       6.820   5.172  37.121  1.00  0.00     0.000 C 
BRANCH   4   5
ATOM      5  C   UNL     1       8.050   4.277  36.887  1.00  0.00     0.000 C 
BRANCH   5   6
ATOM      6  C   UNL     1       7.883   3.344  35.675  1.00  0.00     0.000 C 
BRANCH   6   7
ATOM      7  C   UNL     1       6.411   3.002  35.393  1.00  0.00     0.000 C 
BRANCH   7   8
ATOM      8  C   UNL     1       6.259   1.789  34.455  1.00  0.00     0.000 C 
BRANCH   8   9
ATOM      9  C   UNL     1       4.876   1.728  33.787  1.00  0.00     0.000 C 
BRANCH   9  10
ATOM     10  C   UNL     1       4.876   0.900  32.492  1.00  0.00     0.000 C 
BRANCH  10  11
ATOM     11  C   UNL     1       5.677   1.607  31.389  1.00  0.00     0.000 C 
BRANCH  11  12
ATOM     12  C   UNL     1       5.029   1.481  29.998  1.00  0.00     0.006 C 
BRANCH  12  13
ATOM     13  C   UNL     1       5.526   2.524  28.982  1.00  0.00     0.053 C 
BRANCH  13  14
ATOM     14  C   UNL     1       5.100   2.215  27.579  1.00  0.00     0.041 C 
ATOM     15  O   UNL     1       4.876   3.148  26.763  1.00  0.00    -0.550 OA
ATOM     16  O   UNL     1       4.970   0.895  27.165  1.00  0.00    -0.550 OA
ENDBRANCH  13  14
ENDBRANCH  12  13
ENDBRANCH  11  12
ENDBRANCH  10  11
ENDBRANCH   9  10
ENDBRANCH   8   9
ENDBRANCH   7   8
ENDBRANCH   6   7
ENDBRANCH   5   6
ENDBRANCH   4   5
ENDBRANCH   3   4
ENDBRANCH   2   3
ENDBRANCH   1   2
BRANCH   1  17
ATOM     17  C   UNL     1       6.851   8.672  33.819  1.00  0.00     0.000 C 
BRANCH  17  18
ATOM     18  C   UNL     1       6.360   9.415  35.078  1.00  0.00     0.000 C 
BRANCH  18  19
ATOM     19  C   UNL     1       5.003  10.129  34.933  1.00  0.00     0.000 C 
BRANCH  19  20
ATOM     20  C   UNL     1       5.109  11.659  35.057  1.00  0.00     0.000 C 
BRANCH  20  21
ATOM     21  C   UNL     1       5.489  12.331  33.727  1.00  0.00     0.000 C 
BRANCH  21  22
ATOM     22  C   UNL     1       5.491  13.867  33.821  1.00  0.00    -0.000 C 
BRANCH  22  23
ATOM     23  C   UNL     1       5.014  14.374  35.192  1.00  0.00    -0.000 C 
BRANCH  23  24
ATOM     24  C   UNL     1       6.163  14.538  36.198  1.00  0.00    -0.000 C 
BRANCH  24  25
ATOM     25  C   UNL     1       6.572  16.013  36.331  1.00  0.00    -0.000 C 
BRANCH  25  26
ATOM     26  C   UNL     1       5.788  16.944  35.389  1.00  0.00    -0.000 C 
BRANCH  26  27
ATOM     27  C   UNL     1       6.347  18.373  35.272  1.00  0.00    -0.000 C 
BRANCH  27  28
ATOM     28  C   UNL     1       5.880  19.096  33.996  1.00  0.00    -0.000 C 
BRANCH  28  29
ATOM     29  C   UNL     1       6.969  20.002  33.402  1.00  0.00    -0.003 C 
ATOM     30  C   UNL     1       6.615  20.507  32.003  1.00  0.00     0.004 C 
ENDBRANCH  28  29
ENDBRANCH  27  28
ENDBRANCH  26  27
ENDBRANCH  25  26
ENDBRANCH  24  25
ENDBRANCH  23  24
ENDBRANCH  22  23
ENDBRANCH  21  22
ENDBRANCH  20  21
ENDBRANCH  19  20
ENDBRANCH  18  19
ENDBRANCH  17  18
ENDBRANCH   1  17
TORSDOF 26
ENDMDL
MODEL 6
REMARK VINA RESULT:    -1.608      3.752     11.361
REMARK INTER + INTRA:          -5.944
REMARK INTER:                  -4.124
REMARK INTRA:                  -1.821
REMARK UNBOUND:                -1.893
REMARK SMILES CCCCCCCCCCCCCCCCCCCCCCCCCCCC(=O)[O-]
REMARK SMILES IDX 15 1 16 2 17 3 18 4 19 5 20 6 21 7 22 8 23 9 24 10 25 11
REMARK SMILES IDX 26 12 27 13 28 14 29 15 30 16 14 17 13 18 12 19 11 20 10 21
REMARK SMILES IDX 9 22 8 23 7 24 6 25 5 26 4 27 3 28 2 29 1 30
REMARK H PARENT
REMARK Flexibility Score: inf
ROOT
ATOM      1  C   UNL     1      12.102   5.156  34.055  1.00  0.00     0.000 C 
ENDROOT
BRANCH   1   2
ATOM      2  C   UNL     1      10.960   5.706  34.921  1.00  0.00     0.000 C 
BRANCH   2   3
ATOM      3  C   UNL     1       9.596   5.668  34.210  1.00  0.00     0.000 C 
BRANCH   3   4
ATOM      4  C   UNL     1       9.104   7.021  33.655  1.00  0.00     0.000 C 
BRANCH   4   5
ATOM      5  C   UNL     1       7.668   7.405  34.052  1.00  0.00     0.000 C 
BRANCH   5   6
ATOM      6  C   UNL     1       7.178   8.682  33.345  1.00  0.00     0.000 C 
BRANCH   6   7
ATOM      7  C   UNL     1       5.921   9.274  34.003  1.00  0.00     0.000 C 
BRANCH   7   8
ATOM      8  C   UNL     1       5.811   8.909  35.495  1.00  0.00     0.000 C 
BRANCH   8   9
ATOM      9  C   UNL     1       5.998  10.124  36.418  1.00  0.00     0.000 C 
BRANCH   9  10
ATOM     10  C   UNL     1       4.875  11.162  36.269  1.00  0.00     0.000 C 
BRANCH  10  11
ATOM     11  C   UNL     1       5.438  12.522  35.831  1.00  0.00     0.000 C 
BRANCH  11  12
ATOM     12  C   UNL     1       5.248  13.625  36.888  1.00  0.00     0.006 C 
BRANCH  12  13
ATOM     13  C   UNL     1       6.264  14.775  36.779  1.00  0.00     0.053 C 
BRANCH  13  14
ATOM     14  C   UNL     1       5.785  15.889  35.898  1.00  0.00     0.041 C 
ATOM     15  O   UNL     1       5.643  17.051  36.364  1.00  0.00    -0.550 OA
ATOM     16  O   UNL     1       5.516  15.649  34.556  1.00  0.00    -0.550 OA
ENDBRANCH  13  14
ENDBRANCH  12  13
ENDBRANCH  11  12
ENDBRANCH  10  11
ENDBRANCH   9  10
ENDBRANCH   8   9
ENDBRANCH   7   8
ENDBRANCH   6   7
ENDBRANCH   5   6
ENDBRANCH   4   5
ENDBRANCH   3   4
ENDBRANCH   2   3
ENDBRANCH   1   2
BRANCH   1  17
ATOM     17  C   UNL     1      12.601   3.808  34.599  1.00  0.00     0.000 C 
BRANCH  17  18
ATOM     18  C   UNL     1      11.717   3.247  35.729  1.00  0.00     0.000 C 
BRANCH  18  19
ATOM     19  C   UNL     1      10.611   2.273  35.279  1.00  0.00     0.000 C 
BRANCH  19  20
ATOM     20  C   UNL     1      10.348   1.147  36.294  1.00  0.00     0.000 C 
BRANCH  20  21
ATOM     21  C   UNL     1       9.034   1.348  37.066  1.00  0.00     0.000 C 
BRANCH  21  22
ATOM     22  C   UNL     1       7.994   2.150  36.265  1.00  0.00    -0.000 C 
BRANCH  22  23
ATOM     23  C   UNL     1       6.548   1.772  36.632  1.00  0.00    -0.000 C 
BRANCH  23  24
ATOM     24  C   UNL     1       5.512   2.730  36.026  1.00  0.00    -0.000 C 
BRANCH  24  25
ATOM     25  C   UNL     1       6.197   3.928  35.352  1.00  0.00    -0.000 C 
BRANCH  25  26
ATOM     26  C   UNL     1       5.211   4.844  34.605  1.00  0.00    -0.000 C 
BRANCH  26  27
ATOM     27  C   UNL     1       4.898   4.422  33.158  1.00  0.00    -0.000 C 
BRANCH  27  28
ATOM     28  C   UNL     1       4.875   2.894  32.972  1.00  0.00    -0.000 C 
BRANCH  28  29
ATOM     29  C   UNL     1       4.967   2.481  31.496  1.00  0.00    -0.003 C 
ATOM     30  C   UNL     1       4.936   0.964  31.307  1.00  0.00     0.004 C 
ENDBRANCH  28  29
ENDBRANCH  27  28
ENDBRANCH  26  27
ENDBRANCH  25  26
ENDBRANCH  24  25
ENDBRANCH  23  24
ENDBRANCH  22  23
ENDBRANCH  21  22
ENDBRANCH  20  21
ENDBRANCH  19  20
ENDBRANCH  18  19
ENDBRANCH  17  18
ENDBRANCH   1  17
TORSDOF 26
ENDMDL
MODEL 7
REMARK VINA RESULT:    -0.870      4.112     10.685
REMARK INTER + INTRA:          -4.085
REMARK INTER:                  -2.998
REMARK INTRA:                  -1.087
REMARK UNBOUND:                -1.893
REMARK SMILES CCCCCCCCCCCCCCCCCCCCCCCCCCCC(=O)[O-]
REMARK SMILES IDX 15 1 16 2 17 3 18 4 19 5 20 6 21 7 22 8 23 9 24 10 25 11
REMARK SMILES IDX 26 12 27 13 28 14 29 15 30 16 14 17 13 18 12 19 11 20 10 21
REMARK SMILES IDX 9 22 8 23 7 24 6 25 5 26 4 27 3 28 2 29 1 30
REMARK H PARENT
REMARK Flexibility Score: inf
ROOT
ATOM      1  C   UNL     1      11.646   5.390  34.488  1.00  0.00     0.000 C 
ENDROOT
BRANCH   1   2
ATOM      2  C   UNL     1      10.708   5.908  33.388  1.00  0.00     0.000 C 
BRANCH   2   3
ATOM      3  C   UNL     1       9.395   6.486  33.944  1.00  0.00     0.000 C 
BRANCH   3   4
ATOM      4  C   UNL     1       9.247   6.428  35.479  1.00  0.00     0.000 C 
BRANCH   4   5
ATOM      5  C   UNL     1       9.102   5.014  36.067  1.00  0.00     0.000 C 
BRANCH   5   6
ATOM      6  C   UNL     1       7.855   4.865  36.956  1.00  0.00     0.000 C 
BRANCH   6   7
ATOM      7  C   UNL     1       6.546   4.978  36.158  1.00  0.00     0.000 C 
BRANCH   7   8
ATOM      8  C   UNL     1       5.459   5.761  36.919  1.00  0.00     0.000 C 
BRANCH   8   9
ATOM      9  C   UNL     1       5.822   7.243  37.110  1.00  0.00     0.000 C 
BRANCH   9  10
ATOM     10  C   UNL     1       5.074   8.169  36.138  1.00  0.00     0.000 C 
BRANCH  10  11
ATOM     11  C   UNL     1       5.336   9.644  36.473  1.00  0.00     0.000 C 
BRANCH  11  12
ATOM     12  C   UNL     1       5.733  10.482  35.244  1.00  0.00     0.006 C 
BRANCH  12  13
ATOM     13  C   UNL     1       5.682  12.001  35.482  1.00  0.00     0.053 C 
BRANCH  13  14
ATOM     14  C   UNL     1       5.186  12.759  34.287  1.00  0.00     0.041 C 
ATOM     15  O   UNL     1       4.944  12.155  33.209  1.00  0.00    -0.550 OA
ATOM     16  O   UNL     1       4.972  14.129  34.371  1.00  0.00    -0.550 OA
ENDBRANCH  13  14
ENDBRANCH  12  13
ENDBRANCH  11  12
ENDBRANCH  10  11
ENDBRANCH   9  10
ENDBRANCH   8   9
ENDBRANCH   7   8
ENDBRANCH   6   7
ENDBRANCH   5   6
ENDBRANCH   4   5
ENDBRANCH   3   4
ENDBRANCH   2   3
ENDBRANCH   1   2
BRANCH   1  17
ATOM     17  C   UNL     1      12.062   3.937  34.213  1.00  0.00     0.000 C 
BRANCH  17  18
ATOM     18  C   UNL     1      12.693   3.247  35.438  1.00  0.00     0.000 C 
BRANCH  18  19
ATOM     19  C   UNL     1      11.757   2.302  36.217  1.00  0.00     0.000 C 
BRANCH  19  20
ATOM     20  C   UNL     1      10.306   2.812  36.287  1.00  0.00     0.000 C 
BRANCH  20  21
ATOM     21  C   UNL     1       9.371   1.825  37.004  1.00  0.00     0.000 C 
BRANCH  21  22
ATOM     22  C   UNL     1       8.338   1.193  36.055  1.00  0.00    -0.000 C 
BRANCH  22  23
ATOM     23  C   UNL     1       6.947   1.066  36.699  1.00  0.00    -0.000 C 
BRANCH  23  24
ATOM     24  C   UNL     1       5.828   0.876  35.664  1.00  0.00    -0.000 C 
BRANCH  24  25
ATOM     25  C   UNL     1       6.313   1.247  34.254  1.00  0.00    -0.000 C 
BRANCH  25  26
ATOM     26  C   UNL     1       5.221   1.093  33.181  1.00  0.00    -0.000 C 
BRANCH  26  27
ATOM     27  C   UNL     1       4.928   2.363  32.362  1.00  0.00    -0.000 C 
BRANCH  27  28
ATOM     28  C   UNL     1       4.957   3.644  33.213  1.00  0.00    -0.000 C 
BRANCH  28  29
ATOM     29  C   UNL     1       5.060   4.916  32.358  1.00  0.00    -0.003 C 
ATOM     30  C   UNL     1       5.501   6.136  33.168  1.00  0.00     0.004 C 
ENDBRANCH  28  29
ENDBRANCH  27  28
ENDBRANCH  26  27
ENDBRANCH  25  26
ENDBRANCH  24  25
ENDBRANCH  23  24
ENDBRANCH  22  23
ENDBRANCH  21  22
ENDBRANCH  20  21
ENDBRANCH  19  20
ENDBRANCH  18  19
ENDBRANCH  17  18
ENDBRANCH   1  17
TORSDOF 26
ENDMDL
MODEL 8
REMARK VINA RESULT:    -0.766      3.951     11.957
REMARK INTER + INTRA:          -3.824
REMARK INTER:                  -4.228
REMARK INTRA:                   0.403
REMARK UNBOUND:                -1.893
REMARK SMILES CCCCCCCCCCCCCCCCCCCCCCCCCCCC(=O)[O-]
REMARK SMILES IDX 15 1 16 2 17 3 18 4 19 5 20 6 21 7 22 8 23 9 24 10 25 11
REMARK SMILES IDX 26 12 27 13 28 14 29 15 30 16 14 17 13 18 12 19 11 20 10 21
REMARK SMILES IDX 9 22 8 23 7 24 6 25 5 26 4 27 3 28 2 29 1 30
REMARK H PARENT
REMARK Flexibility Score: inf
ROOT
ATOM      1  C   UNL     1       8.752   7.599  35.499  1.00  0.00     0.000 C 
ENDROOT
BRANCH   1   2
ATOM      2  C   UNL     1       8.130   8.144  36.792  1.00  0.00     0.000 C 
BRANCH   2   3
ATOM      3  C   UNL     1       6.902   9.035  36.538  1.00  0.00     0.000 C 
BRANCH   3   4
ATOM      4  C   UNL     1       6.077   8.679  35.284  1.00  0.00     0.000 C 
BRANCH   4   5
ATOM      5  C   UNL     1       6.880   8.616  33.973  1.00  0.00     0.000 C 
BRANCH   5   6
ATOM      6  C   UNL     1       6.791   9.919  33.159  1.00  0.00     0.000 C 
BRANCH   6   7
ATOM      7  C   UNL     1       5.447  10.641  33.348  1.00  0.00     0.000 C 
BRANCH   7   8
ATOM      8  C   UNL     1       5.591  11.953  34.142  1.00  0.00     0.000 C 
BRANCH   8   9
ATOM      9  C   UNL     1       5.514  11.738  35.662  1.00  0.00     0.000 C 
BRANCH   9  10
ATOM     10  C   UNL     1       4.975  12.967  36.410  1.00  0.00     0.000 C 
BRANCH  10  11
ATOM     11  C   UNL     1       4.891  14.185  35.478  1.00  0.00     0.000 C 
BRANCH  11  12
ATOM     12  C   UNL     1       5.593  15.431  36.048  1.00  0.00     0.006 C 
BRANCH  12  13
ATOM     13  C   UNL     1       5.859  16.529  35.003  1.00  0.00     0.053 C 
BRANCH  13  14
ATOM     14  C   UNL     1       6.104  17.871  35.623  1.00  0.00     0.041 C 
ATOM     15  O   UNL     1       5.907  18.048  36.854  1.00  0.00    -0.550 OA
ATOM     16  O   UNL     1       6.570  18.924  34.844  1.00  0.00    -0.550 OA
ENDBRANCH  13  14
ENDBRANCH  12  13
ENDBRANCH  11  12
ENDBRANCH  10  11
ENDBRANCH   9  10
ENDBRANCH   8   9
ENDBRANCH   7   8
ENDBRANCH   6   7
ENDBRANCH   5   6
ENDBRANCH   4   5
ENDBRANCH   3   4
ENDBRANCH   2   3
ENDBRANCH   1   2
BRANCH   1  17
ATOM     17  C   UNL     1       9.381   6.217  35.733  1.00  0.00     0.000 C 
BRANCH  17  18
ATOM     18  C   UNL     1       8.665   5.089  34.965  1.00  0.00     0.000 C 
BRANCH  18  19
ATOM     19  C   UNL     1       7.417   4.509  35.660  1.00  0.00     0.000 C 
BRANCH  19  20
ATOM     20  C   UNL     1       6.111   5.200  35.230  1.00  0.00     0.000 C 
BRANCH  20  21
ATOM     21  C   UNL     1       5.565   4.649  33.903  1.00  0.00     0.000 C 
BRANCH  21  22
ATOM     22  C   UNL     1       4.878   3.283  34.067  1.00  0.00    -0.000 C 
BRANCH  22  23
ATOM     23  C   UNL     1       5.676   2.327  34.970  1.00  0.00    -0.000 C 
BRANCH  23  24
ATOM     24  C   UNL     1       4.875   1.856  36.192  1.00  0.00    -0.000 C 
BRANCH  24  25
ATOM     25  C   UNL     1       5.735   0.971  37.107  1.00  0.00    -0.000 C 
BRANCH  25  26
ATOM     26  C   UNL     1       7.234   1.319  37.048  1.00  0.00    -0.000 C 
BRANCH  26  27
ATOM     27  C   UNL     1       7.888   1.146  35.665  1.00  0.00    -0.000 C 
BRANCH  27  28
ATOM     28  C   UNL     1       9.421   1.266  35.709  1.00  0.00    -0.000 C 
BRANCH  28  29
ATOM     29  C   UNL     1       9.905   2.228  36.804  1.00  0.00    -0.003 C 
ATOM     30  C   UNL     1      11.298   2.791  36.518  1.00  0.00     0.004 C 
ENDBRANCH  28  29
ENDBRANCH  27  28
ENDBRANCH  26  27
ENDBRANCH  25  26
ENDBRANCH  24  25
ENDBRANCH  23  24
ENDBRANCH  22  23
ENDBRANCH  21  22
ENDBRANCH  20  21
ENDBRANCH  19  20
ENDBRANCH  18  19
ENDBRANCH  17  18
ENDBRANCH   1  17
TORSDOF 26
ENDMDL
