MODEL 1
REMARK VINA RESULT:    82.587      0.000      0.000
REMARK INTER + INTRA:          89.572
REMARK INTER:                  89.829
REMARK INTRA:                  -0.257
REMARK UNBOUND:                -0.257
REMARK SMILES CC1(C)CC[C@@]2(C(=O)[O-])CC[C@@]3(C)C(=CC[C@H]4[C@@]5(C)CC[C@@H](O)C(C)(C)[C@@H]5CC[C@]43C)[C@H]2C1
REMARK SMILES IDX 6 1 5 2 10 3 32 4 4 5 11 6 14 7 33 8 2 9 12 10 15 11 1 12
REMARK SMILES IDX 3 13 13 14 30 15 16 16 17 17 29 18 31 19 18 20 28 21 27 22
REMARK SMILES IDX 20 23 19 24 24 25 21 26 22 27 25 28 26 29 7 30 8 31 9 32
REMARK SMILES IDX 23 33
REMARK H PARENT 23 34
REMARK Flexibility Score: inf
ROOT
ATOM      1  C   UNL     1      -5.640 -49.234   0.343  1.00  0.00     0.017 C 
ATOM      2  C   UNL     1      -5.943 -48.905  -1.178  1.00  0.00     0.014 C 
ATOM      3  C   UNL     1      -6.429 -48.197   1.278  1.00  0.00     0.014 C 
ATOM      4  C   UNL     1      -5.894 -50.793   0.683  1.00  0.00     0.028 C 
ATOM      5  C   UNL     1      -6.962 -49.808  -1.887  1.00  0.00     0.007 C 
ATOM      6  C   UNL     1      -6.775 -48.714   2.708  1.00  0.00     0.013 C 
ATOM      7  C   UNL     1      -6.336 -50.983   2.124  1.00  0.00    -0.064 C 
ATOM      8  C   UNL     1      -6.787 -51.672  -0.232  1.00  0.00     0.015 C 
ATOM      9  C   UNL     1      -6.682 -51.322  -1.717  1.00  0.00    -0.035 C 
ATOM     10  C   UNL     1      -7.474 -50.116   2.693  1.00  0.00    -0.006 C 
ATOM     11  C   UNL     1      -5.426 -51.517   2.971  1.00  0.00    -0.027 C 
ATOM     12  C   UNL     1      -5.296 -51.751  -2.289  1.00  0.00     0.011 C 
ATOM     13  C   UNL     1      -7.790 -52.123  -2.470  1.00  0.00     0.011 C 
ATOM     14  C   UNL     1      -8.703 -49.952   1.715  1.00  0.00     0.017 C 
ATOM     15  C   UNL     1      -8.011 -50.722   4.117  1.00  0.00    -0.020 C 
ATOM     16  C   UNL     1      -5.487 -51.291   4.447  1.00  0.00     0.032 C 
ATOM     17  C   UNL     1      -6.914 -51.533   4.970  1.00  0.00     0.006 C 
ATOM     18  C   UNL     1      -8.716 -49.596   4.971  1.00  0.00     0.008 C 
ATOM     19  C   UNL     1      -9.118 -51.812   3.828  1.00  0.00     0.012 C 
ATOM     20  C   UNL     1      -7.047 -51.394   6.551  1.00  0.00    -0.025 C 
ATOM     21  C   UNL     1      -7.836 -48.920   6.053  1.00  0.00     0.005 C 
ATOM     22  C   UNL     1      -6.962 -49.875   6.935  1.00  0.00     0.003 C 
ATOM     23  C   UNL     1      -5.873 -52.115   7.272  1.00  0.00     0.010 C 
ATOM     24  C   UNL     1      -8.348 -52.125   7.014  1.00  0.00     0.012 C 
ATOM     25  C   UNL     1      -7.014 -49.584   8.482  1.00  0.00    -0.006 C 
ATOM     26  C   UNL     1      -5.898 -51.968   8.805  1.00  0.00     0.033 C 
ATOM     27  C   UNL     1      -5.971 -50.492   9.260  1.00  0.00     0.120 C 
ATOM     28  C   UNL     1      -8.466 -49.772   9.052  1.00  0.00     0.014 C 
ATOM     29  C   UNL     1      -6.632 -48.102   8.741  1.00  0.00     0.014 C 
ENDROOT
BRANCH   1  30
ATOM     30  C   UNL     1      -4.162 -48.911   0.589  1.00  0.00     0.048 C 
ATOM     31  O   UNL     1      -3.747 -47.724   0.507  1.00  0.00    -0.550 OA
ATOM     32  O   UNL     1      -3.214 -49.931   0.701  1.00  0.00    -0.550 OA
ENDBRANCH   1  30
BRANCH  27  33
ATOM     33  O   UNL     1      -4.678 -49.934   9.247  1.00  0.00    -0.393 OA
ATOM     34  H   UNL     1      -4.281 -50.071   8.343  1.00  0.00     0.210 HD
ENDBRANCH  27  33
TORSDOF 2
ENDMDL
