MODEL 1
REMARK VINA RESULT:    -4.883      0.000      0.000
REMARK INTER + INTRA:          -5.026
REMARK INTER:                  -5.026
REMARK INTRA:                   0.000
REMARK UNBOUND:                 0.000
REMARK SMILES Nc1ncnc2nc[nH]c12
REMARK SMILES IDX 8 1 7 2 6 3 5 4 4 5 3 6 2 7 10 8 9 9 1 11
REMARK H PARENT 9 10 1 12 1 13
REMARK Flexibility Score: inf
ROOT
ATOM      1  C   UNL     1      66.832   4.856 123.766  1.00  0.00     0.199 A 
ATOM      2  N   UNL     1      67.836   5.530 124.391  1.00  0.00    -0.217 NA
ATOM      3  C   UNL     1      68.889   4.718 124.197  1.00  0.00     0.182 A 
ATOM      4  N   UNL     1      70.157   4.924 124.625  1.00  0.00    -0.215 NA
ATOM      5  C   UNL     1      71.099   3.978 124.329  1.00  0.00     0.226 A 
ATOM      6  N   UNL     1      70.760   2.856 123.617  1.00  0.00    -0.217 NA
ATOM      7  C   UNL     1      69.481   2.646 123.185  1.00  0.00     0.152 A 
ATOM      8  C   UNL     1      68.533   3.619 123.494  1.00  0.00     0.127 A 
ATOM      9  N   UNL     1      67.227   3.683 123.208  1.00  0.00    -0.340 N 
ATOM     10  H   UNL     1      66.640   3.000 122.681  1.00  0.00     0.168 HD
ENDROOT
BRANCH   7  11
ATOM     11  N   UNL     1      69.150   1.470 122.445  1.00  0.00    -0.382 N 
ATOM     12  H   UNL     1      68.542   0.725 122.851  1.00  0.00     0.158 HD
ATOM     13  H   UNL     1      69.518   1.342 121.477  1.00  0.00     0.158 HD
ENDBRANCH   7  11
TORSDOF 1
ENDMDL
MODEL 2
REMARK VINA RESULT:    -4.348      1.227      3.034
REMARK INTER + INTRA:          -4.475
REMARK INTER:                  -4.475
REMARK INTRA:                   0.000
REMARK UNBOUND:                 0.000
REMARK SMILES Nc1ncnc2nc[nH]c12
REMARK SMILES IDX 8 1 7 2 6 3 5 4 4 5 3 6 2 7 10 8 9 9 1 11
REMARK H PARENT 9 10 1 12 1 13
REMARK Flexibility Score: inf
ROOT
ATOM      1  C   UNL     1      71.170   3.969 123.873  1.00  0.00     0.199 A 
ATOM      2  N   UNL     1      70.815   5.283 123.907  1.00  0.00    -0.217 NA
ATOM      3  C   UNL     1      69.475   5.216 123.853  1.00  0.00     0.182 A 
ATOM      4  N   UNL     1      68.613   6.262 123.858  1.00  0.00    -0.215 NA
ATOM      5  C   UNL     1      67.274   5.995 123.797  1.00  0.00     0.226 A 
ATOM      6  N   UNL     1      66.824   4.701 123.732  1.00  0.00    -0.217 NA
ATOM      7  C   UNL     1      67.690   3.644 123.726  1.00  0.00     0.152 A 
ATOM      8  C   UNL     1      69.051   3.933 123.790  1.00  0.00     0.127 A 
ATOM      9  N   UNL     1      70.114   3.119 123.801  1.00  0.00    -0.340 N 
ATOM     10  H   UNL     1      70.138   2.076 123.763  1.00  0.00     0.168 HD
ENDROOT
BRANCH   7  11
ATOM     11  N   UNL     1      67.200   2.305 123.658  1.00  0.00    -0.382 N 
ATOM     12  H   UNL     1      66.360   2.005 124.200  1.00  0.00     0.158 HD
ATOM     13  H   UNL     1      67.684   1.602 123.057  1.00  0.00     0.158 HD
ENDBRANCH   7  11
TORSDOF 1
ENDMDL
MODEL 3
REMARK VINA RESULT:    -4.089      1.082      2.417
REMARK INTER + INTRA:          -4.208
REMARK INTER:                  -4.208
REMARK INTRA:                   0.000
REMARK UNBOUND:                 0.000
REMARK SMILES Nc1ncnc2nc[nH]c12
REMARK SMILES IDX 8 1 7 2 6 3 5 4 4 5 3 6 2 7 10 8 9 9 1 11
REMARK H PARENT 9 10 1 12 1 13
REMARK Flexibility Score: inf
ROOT
ATOM      1  C   UNL     1      67.409   5.593 124.532  1.00  0.00     0.199 A 
ATOM      2  N   UNL     1      66.870   4.578 123.801  1.00  0.00    -0.217 NA
ATOM      3  C   UNL     1      67.934   3.786 123.587  1.00  0.00     0.182 A 
ATOM      4  N   UNL     1      67.948   2.619 122.899  1.00  0.00    -0.215 NA
ATOM      5  C   UNL     1      69.135   1.950 122.786  1.00  0.00     0.226 A 
ATOM      6  N   UNL     1      70.276   2.454 123.358  1.00  0.00    -0.217 NA
ATOM      7  C   UNL     1      70.265   3.631 124.052  1.00  0.00     0.152 A 
ATOM      8  C   UNL     1      69.048   4.300 124.158  1.00  0.00     0.127 A 
ATOM      9  N   UNL     1      68.738   5.452 124.766  1.00  0.00    -0.340 N 
ATOM     10  H   UNL     1      69.362   6.098 125.298  1.00  0.00     0.168 HD
ENDROOT
BRANCH   7  11
ATOM     11  N   UNL     1      71.464   4.137 124.639  1.00  0.00    -0.382 N 
ATOM     12  H   UNL     1      71.636   5.163 124.727  1.00  0.00     0.158 HD
ATOM     13  H   UNL     1      72.191   3.477 124.992  1.00  0.00     0.158 HD
ENDBRANCH   7  11
TORSDOF 1
ENDMDL
MODEL 4
REMARK VINA RESULT:    -4.071     15.846     16.456
REMARK INTER + INTRA:          -4.190
REMARK INTER:                  -4.190
REMARK INTRA:                   0.000
REMARK UNBOUND:                 0.000
REMARK SMILES Nc1ncnc2nc[nH]c12
REMARK SMILES IDX 8 1 7 2 6 3 5 4 4 5 3 6 2 7 10 8 9 9 1 11
REMARK H PARENT 9 10 1 12 1 13
REMARK Flexibility Score: inf
ROOT
ATOM      1  C   UNL     1      52.977   4.395 122.133  1.00  0.00     0.199 A 
ATOM      2  N   UNL     1      52.352   5.404 122.799  1.00  0.00    -0.217 NA
ATOM      3  C   UNL     1      52.376   4.965 124.068  1.00  0.00     0.182 A 
ATOM      4  N   UNL     1      51.875   5.603 125.153  1.00  0.00    -0.215 NA
ATOM      5  C   UNL     1      51.995   4.994 126.371  1.00  0.00     0.226 A 
ATOM      6  N   UNL     1      52.607   3.771 126.482  1.00  0.00    -0.217 NA
ATOM      7  C   UNL     1      53.111   3.125 125.389  1.00  0.00     0.152 A 
ATOM      8  C   UNL     1      52.982   3.759 124.156  1.00  0.00     0.127 A 
ATOM      9  N   UNL     1      53.374   3.374 122.934  1.00  0.00    -0.340 N 
ATOM     10  H   UNL     1      53.869   2.500 122.653  1.00  0.00     0.168 HD
ENDROOT
BRANCH   7  11
ATOM     11  N   UNL     1      53.744   1.853 125.528  1.00  0.00    -0.382 N 
ATOM     12  H   UNL     1      54.538   1.709 126.190  1.00  0.00     0.158 HD
ATOM     13  H   UNL     1      53.415   1.042 124.959  1.00  0.00     0.158 HD
ENDBRANCH   7  11
TORSDOF 1
ENDMDL
MODEL 5
REMARK VINA RESULT:    -3.737      1.105      3.263
REMARK INTER + INTRA:          -3.846
REMARK INTER:                  -3.846
REMARK INTRA:                   0.000
REMARK UNBOUND:                 0.000
REMARK SMILES Nc1ncnc2nc[nH]c12
REMARK SMILES IDX 8 1 7 2 6 3 5 4 4 5 3 6 2 7 10 8 9 9 1 11
REMARK H PARENT 9 10 1 12 1 13
REMARK Flexibility Score: inf
ROOT
ATOM      1  C   UNL     1      69.105   1.732 122.627  1.00  0.00     0.199 A 
ATOM      2  N   UNL     1      67.846   2.224 122.792  1.00  0.00    -0.217 NA
ATOM      3  C   UNL     1      68.078   3.404 123.391  1.00  0.00     0.182 A 
ATOM      4  N   UNL     1      67.149   4.309 123.781  1.00  0.00    -0.215 NA
ATOM      5  C   UNL     1      67.580   5.460 124.378  1.00  0.00     0.226 A 
ATOM      6  N   UNL     1      68.919   5.685 124.572  1.00  0.00    -0.217 NA
ATOM      7  C   UNL     1      69.859   4.774 124.180  1.00  0.00     0.152 A 
ATOM      8  C   UNL     1      69.403   3.606 123.573  1.00  0.00     0.127 A 
ATOM      9  N   UNL     1      70.079   2.554 123.094  1.00  0.00    -0.340 N 
ATOM     10  H   UNL     1      71.109   2.392 123.078  1.00  0.00     0.168 HD
ENDROOT
BRANCH   7  11
ATOM     11  N   UNL     1      71.248   5.029 124.392  1.00  0.00    -0.382 N 
ATOM     12  H   UNL     1      71.571   5.732 125.092  1.00  0.00     0.158 HD
ATOM     13  H   UNL     1      71.964   4.507 123.840  1.00  0.00     0.158 HD
ENDBRANCH   7  11
TORSDOF 1
ENDMDL
MODEL 6
REMARK VINA RESULT:    -3.613     15.401     16.325
REMARK INTER + INTRA:          -3.719
REMARK INTER:                  -3.719
REMARK INTRA:                   0.000
REMARK UNBOUND:                 0.000
REMARK SMILES Nc1ncnc2nc[nH]c12
REMARK SMILES IDX 8 1 7 2 6 3 5 4 4 5 3 6 2 7 10 8 9 9 1 11
REMARK H PARENT 9 10 1 12 1 13
REMARK Flexibility Score: inf
ROOT
ATOM      1  C   UNL     1      52.173   3.386 126.119  1.00  0.00     0.199 A 
ATOM      2  N   UNL     1      52.942   4.508 126.066  1.00  0.00    -0.217 NA
ATOM      3  C   UNL     1      53.113   4.673 124.744  1.00  0.00     0.182 A 
ATOM      4  N   UNL     1      53.815   5.660 124.137  1.00  0.00    -0.215 NA
ATOM      5  C   UNL     1      53.878   5.661 122.771  1.00  0.00     0.226 A 
ATOM      6  N   UNL     1      53.244   4.686 122.044  1.00  0.00    -0.217 NA
ATOM      7  C   UNL     1      52.537   3.688 122.654  1.00  0.00     0.152 A 
ATOM      8  C   UNL     1      52.482   3.701 124.045  1.00  0.00     0.127 A 
ATOM      9  N   UNL     1      51.875   2.868 124.900  1.00  0.00    -0.340 N 
ATOM     10  H   UNL     1      51.305   2.020 124.691  1.00  0.00     0.168 HD
ENDROOT
BRANCH   7  11
ATOM     11  N   UNL     1      51.886   2.683 121.877  1.00  0.00    -0.382 N 
ATOM     12  H   UNL     1      52.404   1.850 121.520  1.00  0.00     0.158 HD
ATOM     13  H   UNL     1      50.870   2.772 121.654  1.00  0.00     0.158 HD
ENDBRANCH   7  11
TORSDOF 1
ENDMDL
MODEL 7
REMARK VINA RESULT:    -3.461     24.583     25.361
REMARK INTER + INTRA:          -3.562
REMARK INTER:                  -3.562
REMARK INTRA:                   0.000
REMARK UNBOUND:                 0.000
REMARK SMILES Nc1ncnc2nc[nH]c12
REMARK SMILES IDX 8 1 7 2 6 3 5 4 4 5 3 6 2 7 10 8 9 9 1 11
REMARK H PARENT 9 10 1 12 1 13
REMARK Flexibility Score: inf
ROOT
ATOM      1  C   UNL     1      57.881  -8.391 142.125  1.00  0.00     0.199 A 
ATOM      2  N   UNL     1      56.702  -9.072 142.123  1.00  0.00    -0.217 NA
ATOM      3  C   UNL     1      55.799  -8.078 142.121  1.00  0.00     0.182 A 
ATOM      4  N   UNL     1      54.451  -8.211 142.119  1.00  0.00    -0.215 NA
ATOM      5  C   UNL     1      53.690  -7.074 142.118  1.00  0.00     0.226 A 
ATOM      6  N   UNL     1      54.285  -5.838 142.119  1.00  0.00    -0.217 NA
ATOM      7  C   UNL     1      55.644  -5.702 142.122  1.00  0.00     0.152 A 
ATOM      8  C   UNL     1      56.405  -6.868 142.123  1.00  0.00     0.127 A 
ATOM      9  N   UNL     1      57.733  -7.042 142.125  1.00  0.00    -0.340 N 
ATOM     10  H   UNL     1      58.485  -6.320 142.126  1.00  0.00     0.168 HD
ENDROOT
BRANCH   7  11
ATOM     11  N   UNL     1      56.242  -4.405 142.123  1.00  0.00    -0.382 N 
ATOM     12  H   UNL     1      55.853  -3.627 142.700  1.00  0.00     0.158 HD
ATOM     13  H   UNL     1      57.087  -4.219 141.538  1.00  0.00     0.158 HD
ENDBRANCH   7  11
TORSDOF 1
ENDMDL
