MODEL 1
REMARK VINA RESULT:    -4.750      0.000      0.000
REMARK INTER + INTRA:         -16.223
REMARK INTER:                 -12.524
REMARK INTRA:                  -3.698
REMARK UNBOUND:                -3.698
REMARK SMILES CCCCCCCCCCCCCCCCCCCCCCCCCCCCCC(=O)[O-]
REMARK SMILES IDX 16 1 17 2 18 3 19 4 20 5 21 6 22 7 23 8 24 9 25 10 26 11
REMARK SMILES IDX 27 12 28 13 29 14 30 15 31 16 32 17 15 18 14 19 13 20 12 21
REMARK SMILES IDX 11 22 10 23 9 24 8 25 7 26 6 27 5 28 4 29 3 30 2 31 1 32
REMARK H PARENT
REMARK Flexibility Score: inf
ROOT
ATOM      1  C   UNL     1      11.300  18.769  63.696  1.00  0.00     0.000 C 
ENDROOT
BRANCH   1   2
ATOM      2  C   UNL     1      10.707  17.382  63.993  1.00  0.00     0.000 C 
BRANCH   2   3
ATOM      3  C   UNL     1      11.766  16.259  63.945  1.00  0.00     0.000 C 
BRANCH   3   4
ATOM      4  C   UNL     1      13.172  16.751  63.551  1.00  0.00     0.000 C 
BRANCH   4   5
ATOM      5  C   UNL     1      14.314  15.784  63.911  1.00  0.00     0.000 C 
BRANCH   5   6
ATOM      6  C   UNL     1      13.942  14.652  64.898  1.00  0.00     0.000 C 
BRANCH   6   7
ATOM      7  C   UNL     1      13.890  13.237  64.290  1.00  0.00     0.000 C 
BRANCH   7   8
ATOM      8  C   UNL     1      13.624  13.219  62.766  1.00  0.00     0.000 C 
BRANCH   8   9
ATOM      9  C   UNL     1      14.791  12.638  61.953  1.00  0.00     0.000 C 
BRANCH   9  10
ATOM     10  C   UNL     1      14.615  12.850  60.439  1.00  0.00     0.000 C 
BRANCH  10  11
ATOM     11  C   UNL     1      15.787  13.620  59.811  1.00  0.00     0.000 C 
BRANCH  11  12
ATOM     12  C   UNL     1      15.383  15.018  59.323  1.00  0.00     0.000 C 
BRANCH  12  13
ATOM     13  C   UNL     1      15.579  16.065  60.431  1.00  0.00     0.006 C 
BRANCH  13  14
ATOM     14  C   UNL     1      16.943  15.931  61.119  1.00  0.00     0.053 C 
BRANCH  14  15
ATOM     15  C   UNL     1      18.062  16.372  60.224  1.00  0.00     0.041 C 
ATOM     16  O   UNL     1      18.280  17.597  60.037  1.00  0.00    -0.550 OA
ATOM     17  O   UNL     1      18.879  15.426  59.618  1.00  0.00    -0.550 OA
ENDBRANCH  14  15
ENDBRANCH  13  14
ENDBRANCH  12  13
ENDBRANCH  11  12
ENDBRANCH  10  11
ENDBRANCH   9  10
ENDBRANCH   8   9
ENDBRANCH   7   8
ENDBRANCH   6   7
ENDBRANCH   5   6
ENDBRANCH   4   5
ENDBRANCH   3   4
ENDBRANCH   2   3
ENDBRANCH   1   2
BRANCH   1  18
ATOM     18  C   UNL     1      10.314  19.689  62.954  1.00  0.00     0.000 C 
BRANCH  18  19
ATOM     19  C   UNL     1       9.493  20.574  63.910  1.00  0.00     0.000 C 
BRANCH  19  20
ATOM     20  C   UNL     1       8.294  21.245  63.224  1.00  0.00     0.000 C 
BRANCH  20  21
ATOM     21  C   UNL     1       8.268  20.999  61.703  1.00  0.00     0.000 C 
BRANCH  21  22
ATOM     22  C   UNL     1       8.240  22.309  60.894  1.00  0.00     0.000 C 
BRANCH  22  23
ATOM     23  C   UNL     1       9.628  22.975  60.828  1.00  0.00     0.000 C 
BRANCH  23  24
ATOM     24  C   UNL     1       9.569  24.507  60.995  1.00  0.00    -0.000 C 
BRANCH  24  25
ATOM     25  C   UNL     1      10.557  25.270  60.089  1.00  0.00    -0.000 C 
BRANCH  25  26
ATOM     26  C   UNL     1      11.994  25.383  60.632  1.00  0.00    -0.000 C 
BRANCH  26  27
ATOM     27  C   UNL     1      13.020  24.428  59.985  1.00  0.00    -0.000 C 
BRANCH  27  28
ATOM     28  C   UNL     1      13.907  23.661  60.986  1.00  0.00    -0.000 C 
BRANCH  28  29
ATOM     29  C   UNL     1      13.683  22.140  60.930  1.00  0.00    -0.000 C 
BRANCH  29  30
ATOM     30  C   UNL     1      12.906  21.617  62.153  1.00  0.00    -0.000 C 
BRANCH  30  31
ATOM     31  C   UNL     1      12.588  22.735  63.159  1.00  0.00    -0.003 C 
ATOM     32  C   UNL     1      12.834  22.270  64.593  1.00  0.00     0.004 C 
ENDBRANCH  30  31
ENDBRANCH  29  30
ENDBRANCH  28  29
ENDBRANCH  27  28
ENDBRANCH  26  27
ENDBRANCH  25  26
ENDBRANCH  24  25
ENDBRANCH  23  24
ENDBRANCH  22  23
ENDBRANCH  21  22
ENDBRANCH  20  21
ENDBRANCH  19  20
ENDBRANCH  18  19
ENDBRANCH   1  18
TORSDOF 28
ENDMDL
MODEL 2
REMARK VINA RESULT:    -4.750      4.551     11.527
REMARK INTER + INTRA:         -16.222
REMARK INTER:                 -14.167
REMARK INTRA:                  -2.055
REMARK UNBOUND:                -3.698
REMARK SMILES CCCCCCCCCCCCCCCCCCCCCCCCCCCCCC(=O)[O-]
REMARK SMILES IDX 16 1 17 2 18 3 19 4 20 5 21 6 22 7 23 8 24 9 25 10 26 11
REMARK SMILES IDX 27 12 28 13 29 14 30 15 31 16 32 17 15 18 14 19 13 20 12 21
REMARK SMILES IDX 11 22 10 23 9 24 8 25 7 26 6 27 5 28 4 29 3 30 2 31 1 32
REMARK H PARENT
REMARK Flexibility Score: inf
ROOT
ATOM      1  C   UNL     1      12.642  20.250  63.095  1.00  0.00     0.000 C 
ENDROOT
BRANCH   1   2
ATOM      2  C   UNL     1      13.601  20.809  62.031  1.00  0.00     0.000 C 
BRANCH   2   3
ATOM      3  C   UNL     1      13.848  22.325  62.190  1.00  0.00     0.000 C 
BRANCH   3   4
ATOM      4  C   UNL     1      13.763  23.108  60.865  1.00  0.00     0.000 C 
BRANCH   4   5
ATOM      5  C   UNL     1      12.723  24.243  60.856  1.00  0.00     0.000 C 
BRANCH   5   6
ATOM      6  C   UNL     1      11.990  24.462  59.511  1.00  0.00     0.000 C 
BRANCH   6   7
ATOM      7  C   UNL     1      10.980  25.626  59.492  1.00  0.00     0.000 C 
BRANCH   7   8
ATOM      8  C   UNL     1      11.275  26.728  60.538  1.00  0.00     0.000 C 
BRANCH   8   9
ATOM      9  C   UNL     1      11.387  28.132  59.923  1.00  0.00     0.000 C 
BRANCH   9  10
ATOM     10  C   UNL     1      10.029  28.854  59.858  1.00  0.00     0.000 C 
BRANCH  10  11
ATOM     11  C   UNL     1       9.744  29.451  58.471  1.00  0.00     0.000 C 
BRANCH  11  12
ATOM     12  C   UNL     1      10.937  29.317  57.513  1.00  0.00     0.000 C 
BRANCH  12  13
ATOM     13  C   UNL     1      10.461  29.127  56.065  1.00  0.00     0.006 C 
BRANCH  13  14
ATOM     14  C   UNL     1      11.457  29.699  55.048  1.00  0.00     0.053 C 
BRANCH  14  15
ATOM     15  C   UNL     1      11.454  28.918  53.769  1.00  0.00     0.041 C 
ATOM     16  O   UNL     1      11.999  27.785  53.714  1.00  0.00    -0.550 OA
ATOM     17  O   UNL     1      10.824  29.433  52.643  1.00  0.00    -0.550 OA
ENDBRANCH  14  15
ENDBRANCH  13  14
ENDBRANCH  12  13
ENDBRANCH  11  12
ENDBRANCH  10  11
ENDBRANCH   9  10
ENDBRANCH   8   9
ENDBRANCH   7   8
ENDBRANCH   6   7
ENDBRANCH   5   6
ENDBRANCH   4   5
ENDBRANCH   3   4
ENDBRANCH   2   3
ENDBRANCH   1   2
BRANCH   1  18
ATOM     18  C   UNL     1      12.973  18.799  63.488  1.00  0.00     0.000 C 
BRANCH  18  19
ATOM     19  C   UNL     1      14.210  18.251  62.754  1.00  0.00     0.000 C 
BRANCH  19  20
ATOM     20  C   UNL     1      14.820  17.022  63.442  1.00  0.00     0.000 C 
BRANCH  20  21
ATOM     21  C   UNL     1      13.752  16.005  63.892  1.00  0.00     0.000 C 
BRANCH  21  22
ATOM     22  C   UNL     1      14.361  14.804  64.640  1.00  0.00     0.000 C 
BRANCH  22  23
ATOM     23  C   UNL     1      13.838  13.461  64.097  1.00  0.00     0.000 C 
BRANCH  23  24
ATOM     24  C   UNL     1      13.674  13.454  62.563  1.00  0.00    -0.000 C 
BRANCH  24  25
ATOM     25  C   UNL     1      15.011  13.500  61.795  1.00  0.00    -0.000 C 
BRANCH  25  26
ATOM     26  C   UNL     1      14.902  13.289  60.273  1.00  0.00    -0.000 C 
BRANCH  26  27
ATOM     27  C   UNL     1      15.475  14.431  59.407  1.00  0.00    -0.000 C 
BRANCH  27  28
ATOM     28  C   UNL     1      15.649  15.773  60.145  1.00  0.00    -0.000 C 
BRANCH  28  29
ATOM     29  C   UNL     1      16.854  16.579  59.630  1.00  0.00    -0.000 C 
BRANCH  29  30
ATOM     30  C   UNL     1      18.183  16.102  60.244  1.00  0.00    -0.000 C 
BRANCH  30  31
ATOM     31  C   UNL     1      19.141  17.270  60.533  1.00  0.00    -0.003 C 
ATOM     32  C   UNL     1      19.889  17.055  61.847  1.00  0.00     0.004 C 
ENDBRANCH  30  31
ENDBRANCH  29  30
ENDBRANCH  28  29
ENDBRANCH  27  28
ENDBRANCH  26  27
ENDBRANCH  25  26
ENDBRANCH  24  25
ENDBRANCH  23  24
ENDBRANCH  22  23
ENDBRANCH  21  22
ENDBRANCH  20  21
ENDBRANCH  19  20
ENDBRANCH  18  19
ENDBRANCH   1  18
TORSDOF 28
ENDMDL
MODEL 3
REMARK VINA RESULT:    -4.729      1.739      4.059
REMARK INTER + INTRA:         -16.167
REMARK INTER:                 -12.448
REMARK INTRA:                  -3.719
REMARK UNBOUND:                -3.698
REMARK SMILES CCCCCCCCCCCCCCCCCCCCCCCCCCCCCC(=O)[O-]
REMARK SMILES IDX 16 1 17 2 18 3 19 4 20 5 21 6 22 7 23 8 24 9 25 10 26 11
REMARK SMILES IDX 27 12 28 13 29 14 30 15 31 16 32 17 15 18 14 19 13 20 12 21
REMARK SMILES IDX 11 22 10 23 9 24 8 25 7 26 6 27 5 28 4 29 3 30 2 31 1 32
REMARK H PARENT
REMARK Flexibility Score: inf
ROOT
ATOM      1  C   UNL     1      11.945  16.239  63.496  1.00  0.00     0.000 C 
ENDROOT
BRANCH   1   2
ATOM      2  C   UNL     1      13.306  16.755  63.993  1.00  0.00     0.000 C 
BRANCH   2   3
ATOM      3  C   UNL     1      14.323  15.618  64.231  1.00  0.00     0.000 C 
BRANCH   3   4
ATOM      4  C   UNL     1      13.824  14.535  65.207  1.00  0.00     0.000 C 
BRANCH   4   5
ATOM      5  C   UNL     1      13.686  13.131  64.593  1.00  0.00     0.000 C 
BRANCH   5   6
ATOM      6  C   UNL     1      13.491  13.091  63.059  1.00  0.00     0.000 C 
BRANCH   6   7
ATOM      7  C   UNL     1      14.691  12.555  62.255  1.00  0.00     0.000 C 
BRANCH   7   8
ATOM      8  C   UNL     1      14.638  12.899  60.747  1.00  0.00     0.000 C 
BRANCH   8   9
ATOM      9  C   UNL     1      15.719  13.904  60.317  1.00  0.00     0.000 C 
BRANCH   9  10
ATOM     10  C   UNL     1      15.441  15.324  60.841  1.00  0.00     0.000 C 
BRANCH  10  11
ATOM     11  C   UNL     1      16.688  15.981  61.454  1.00  0.00     0.000 C 
BRANCH  11  12
ATOM     12  C   UNL     1      17.995  15.449  60.848  1.00  0.00     0.000 C 
BRANCH  12  13
ATOM     13  C   UNL     1      18.804  16.584  60.203  1.00  0.00     0.006 C 
BRANCH  13  14
ATOM     14  C   UNL     1      18.142  17.114  58.924  1.00  0.00     0.053 C 
BRANCH  14  15
ATOM     15  C   UNL     1      17.888  16.016  57.936  1.00  0.00     0.041 C 
ATOM     16  O   UNL     1      18.850  15.379  57.433  1.00  0.00    -0.550 OA
ATOM     17  O   UNL     1      16.585  15.681  57.591  1.00  0.00    -0.550 OA
ENDBRANCH  14  15
ENDBRANCH  13  14
ENDBRANCH  12  13
ENDBRANCH  11  12
ENDBRANCH  10  11
ENDBRANCH   9  10
ENDBRANCH   8   9
ENDBRANCH   7   8
ENDBRANCH   6   7
ENDBRANCH   5   6
ENDBRANCH   4   5
ENDBRANCH   3   4
ENDBRANCH   2   3
ENDBRANCH   1   2
BRANCH   1  18
ATOM     18  C   UNL     1      10.759  16.926  64.197  1.00  0.00     0.000 C 
BRANCH  18  19
ATOM     19  C   UNL     1      10.367  16.237  65.517  1.00  0.00     0.000 C 
BRANCH  19  20
ATOM     20  C   UNL     1       9.051  16.768  66.103  1.00  0.00     0.000 C 
BRANCH  20  21
ATOM     21  C   UNL     1       9.210  17.278  67.549  1.00  0.00     0.000 C 
BRANCH  21  22
ATOM     22  C   UNL     1       9.134  18.814  67.643  1.00  0.00     0.000 C 
BRANCH  22  23
ATOM     23  C   UNL     1       9.052  19.473  66.253  1.00  0.00     0.000 C 
BRANCH  23  24
ATOM     24  C   UNL     1       9.502  20.949  66.259  1.00  0.00    -0.000 C 
BRANCH  24  25
ATOM     25  C   UNL     1      10.442  21.316  65.092  1.00  0.00    -0.000 C 
BRANCH  25  26
ATOM     26  C   UNL     1       9.931  20.929  63.690  1.00  0.00    -0.000 C 
BRANCH  26  27
ATOM     27  C   UNL     1      10.978  20.270  62.768  1.00  0.00    -0.000 C 
BRANCH  27  28
ATOM     28  C   UNL     1      12.412  20.248  63.332  1.00  0.00    -0.000 C 
BRANCH  28  29
ATOM     29  C   UNL     1      13.399  21.055  62.470  1.00  0.00    -0.000 C 
BRANCH  29  30
ATOM     30  C   UNL     1      12.808  21.430  61.099  1.00  0.00    -0.000 C 
BRANCH  30  31
ATOM     31  C   UNL     1      12.850  22.945  60.843  1.00  0.00    -0.003 C 
ATOM     32  C   UNL     1      11.535  23.608  61.247  1.00  0.00     0.004 C 
ENDBRANCH  30  31
ENDBRANCH  29  30
ENDBRANCH  28  29
ENDBRANCH  27  28
ENDBRANCH  26  27
ENDBRANCH  25  26
ENDBRANCH  24  25
ENDBRANCH  23  24
ENDBRANCH  22  23
ENDBRANCH  21  22
ENDBRANCH  20  21
ENDBRANCH  19  20
ENDBRANCH  18  19
ENDBRANCH   1  18
TORSDOF 28
ENDMDL
MODEL 4
REMARK VINA RESULT:    -4.698      1.671      3.729
REMARK INTER + INTRA:         -16.087
REMARK INTER:                 -12.639
REMARK INTRA:                  -3.449
REMARK UNBOUND:                -3.698
REMARK SMILES CCCCCCCCCCCCCCCCCCCCCCCCCCCCCC(=O)[O-]
REMARK SMILES IDX 16 1 17 2 18 3 19 4 20 5 21 6 22 7 23 8 24 9 25 10 26 11
REMARK SMILES IDX 27 12 28 13 29 14 30 15 31 16 32 17 15 18 14 19 13 20 12 21
REMARK SMILES IDX 11 22 10 23 9 24 8 25 7 26 6 27 5 28 4 29 3 30 2 31 1 32
REMARK H PARENT
REMARK Flexibility Score: inf
ROOT
ATOM      1  C   UNL     1      11.605  15.961  63.821  1.00  0.00     0.000 C 
ENDROOT
BRANCH   1   2
ATOM      2  C   UNL     1      12.981  16.641  63.913  1.00  0.00     0.000 C 
BRANCH   2   3
ATOM      3  C   UNL     1      14.122  15.640  64.194  1.00  0.00     0.000 C 
BRANCH   3   4
ATOM      4  C   UNL     1      13.645  14.320  64.828  1.00  0.00     0.000 C 
BRANCH   4   5
ATOM      5  C   UNL     1      13.879  13.070  63.961  1.00  0.00     0.000 C 
BRANCH   5   6
ATOM      6  C   UNL     1      13.912  13.316  62.434  1.00  0.00     0.000 C 
BRANCH   6   7
ATOM      7  C   UNL     1      14.962  12.499  61.656  1.00  0.00     0.000 C 
BRANCH   7   8
ATOM      8  C   UNL     1      14.961  12.768  60.132  1.00  0.00     0.000 C 
BRANCH   8   9
ATOM      9  C   UNL     1      16.311  13.278  59.605  1.00  0.00     0.000 C 
BRANCH   9  10
ATOM     10  C   UNL     1      16.179  14.610  58.845  1.00  0.00     0.000 C 
BRANCH  10  11
ATOM     11  C   UNL     1      15.257  15.609  59.562  1.00  0.00     0.000 C 
BRANCH  11  12
ATOM     12  C   UNL     1      16.035  16.725  60.274  1.00  0.00     0.000 C 
BRANCH  12  13
ATOM     13  C   UNL     1      16.601  16.232  61.614  1.00  0.00     0.006 C 
BRANCH  13  14
ATOM     14  C   UNL     1      18.123  16.047  61.567  1.00  0.00     0.053 C 
BRANCH  14  15
ATOM     15  C   UNL     1      18.841  17.361  61.511  1.00  0.00     0.041 C 
ATOM     16  O   UNL     1      19.284  17.797  60.416  1.00  0.00    -0.550 OA
ATOM     17  O   UNL     1      18.997  18.117  62.666  1.00  0.00    -0.550 OA
ENDBRANCH  14  15
ENDBRANCH  13  14
ENDBRANCH  12  13
ENDBRANCH  11  12
ENDBRANCH  10  11
ENDBRANCH   9  10
ENDBRANCH   8   9
ENDBRANCH   7   8
ENDBRANCH   6   7
ENDBRANCH   5   6
ENDBRANCH   4   5
ENDBRANCH   3   4
ENDBRANCH   2   3
ENDBRANCH   1   2
BRANCH   1  18
ATOM     18  C   UNL     1      10.503  16.750  64.550  1.00  0.00     0.000 C 
BRANCH  18  19
ATOM     19  C   UNL     1      10.143  16.144  65.919  1.00  0.00     0.000 C 
BRANCH  19  20
ATOM     20  C   UNL     1       9.226  17.049  66.753  1.00  0.00     0.000 C 
BRANCH  20  21
ATOM     21  C   UNL     1       8.985  18.420  66.090  1.00  0.00     0.000 C 
BRANCH  21  22
ATOM     22  C   UNL     1       9.304  19.595  67.034  1.00  0.00     0.000 C 
BRANCH  22  23
ATOM     23  C   UNL     1       9.459  20.923  66.270  1.00  0.00     0.000 C 
BRANCH  23  24
ATOM     24  C   UNL     1       8.813  20.892  64.870  1.00  0.00    -0.000 C 
BRANCH  24  25
ATOM     25  C   UNL     1       9.784  21.259  63.729  1.00  0.00    -0.000 C 
BRANCH  25  26
ATOM     26  C   UNL     1      10.521  20.069  63.086  1.00  0.00    -0.000 C 
BRANCH  26  27
ATOM     27  C   UNL     1      12.046  20.034  63.323  1.00  0.00    -0.000 C 
BRANCH  27  28
ATOM     28  C   UNL     1      12.717  21.419  63.412  1.00  0.00    -0.000 C 
BRANCH  28  29
ATOM     29  C   UNL     1      13.836  21.602  62.372  1.00  0.00    -0.000 C 
BRANCH  29  30
ATOM     30  C   UNL     1      13.304  22.119  61.023  1.00  0.00    -0.000 C 
BRANCH  30  31
ATOM     31  C   UNL     1      13.524  23.632  60.855  1.00  0.00    -0.003 C 
ATOM     32  C   UNL     1      14.238  24.222  62.070  1.00  0.00     0.004 C 
ENDBRANCH  30  31
ENDBRANCH  29  30
ENDBRANCH  28  29
ENDBRANCH  27  28
ENDBRANCH  26  27
ENDBRANCH  25  26
ENDBRANCH  24  25
ENDBRANCH  23  24
ENDBRANCH  22  23
ENDBRANCH  21  22
ENDBRANCH  20  21
ENDBRANCH  19  20
ENDBRANCH  18  19
ENDBRANCH   1  18
TORSDOF 28
ENDMDL
MODEL 5
REMARK VINA RESULT:    -4.689      1.370      3.301
REMARK INTER + INTRA:         -16.063
REMARK INTER:                 -11.708
REMARK INTRA:                  -4.355
REMARK UNBOUND:                -3.698
REMARK SMILES CCCCCCCCCCCCCCCCCCCCCCCCCCCCCC(=O)[O-]
REMARK SMILES IDX 16 1 17 2 18 3 19 4 20 5 21 6 22 7 23 8 24 9 25 10 26 11
REMARK SMILES IDX 27 12 28 13 29 14 30 15 31 16 32 17 15 18 14 19 13 20 12 21
REMARK SMILES IDX 11 22 10 23 9 24 8 25 7 26 6 27 5 28 4 29 3 30 2 31 1 32
REMARK H PARENT
REMARK Flexibility Score: inf
ROOT
ATOM      1  C   UNL     1      15.302  17.549  62.673  1.00  0.00     0.000 C 
ENDROOT
BRANCH   1   2
ATOM      2  C   UNL     1      14.926  16.225  63.359  1.00  0.00     0.000 C 
BRANCH   2   3
ATOM      3  C   UNL     1      13.727  16.371  64.320  1.00  0.00     0.000 C 
BRANCH   3   4
ATOM      4  C   UNL     1      13.031  15.037  64.650  1.00  0.00     0.000 C 
BRANCH   4   5
ATOM      5  C   UNL     1      13.978  13.828  64.755  1.00  0.00     0.000 C 
BRANCH   5   6
ATOM      6  C   UNL     1      13.572  12.591  63.919  1.00  0.00     0.000 C 
BRANCH   6   7
ATOM      7  C   UNL     1      14.642  12.080  62.935  1.00  0.00     0.000 C 
BRANCH   7   8
ATOM      8  C   UNL     1      14.894  13.027  61.737  1.00  0.00     0.000 C 
BRANCH   8   9
ATOM      9  C   UNL     1      15.320  12.287  60.459  1.00  0.00     0.000 C 
BRANCH   9  10
ATOM     10  C   UNL     1      15.561  13.246  59.279  1.00  0.00     0.000 C 
BRANCH  10  11
ATOM     11  C   UNL     1      15.388  14.721  59.674  1.00  0.00     0.000 C 
BRANCH  11  12
ATOM     12  C   UNL     1      16.081  15.681  58.696  1.00  0.00     0.000 C 
BRANCH  12  13
ATOM     13  C   UNL     1      16.611  16.923  59.427  1.00  0.00     0.006 C 
BRANCH  13  14
ATOM     14  C   UNL     1      18.137  16.892  59.591  1.00  0.00     0.053 C 
BRANCH  14  15
ATOM     15  C   UNL     1      18.538  16.708  61.023  1.00  0.00     0.041 C 
ATOM     16  O   UNL     1      19.088  17.648  61.654  1.00  0.00    -0.550 OA
ATOM     17  O   UNL     1      18.279  15.505  61.667  1.00  0.00    -0.550 OA
ENDBRANCH  14  15
ENDBRANCH  13  14
ENDBRANCH  12  13
ENDBRANCH  11  12
ENDBRANCH  10  11
ENDBRANCH   9  10
ENDBRANCH   8   9
ENDBRANCH   7   8
ENDBRANCH   6   7
ENDBRANCH   5   6
ENDBRANCH   4   5
ENDBRANCH   3   4
ENDBRANCH   2   3
ENDBRANCH   1   2
BRANCH   1  18
ATOM     18  C   UNL     1      14.083  18.275  62.078  1.00  0.00     0.000 C 
BRANCH  18  19
ATOM     19  C   UNL     1      13.997  19.749  62.514  1.00  0.00     0.000 C 
BRANCH  19  20
ATOM     20  C   UNL     1      13.619  20.694  61.364  1.00  0.00     0.000 C 
BRANCH  20  21
ATOM     21  C   UNL     1      13.806  22.179  61.732  1.00  0.00     0.000 C 
BRANCH  21  22
ATOM     22  C   UNL     1      12.921  23.112  60.884  1.00  0.00     0.000 C 
BRANCH  22  23
ATOM     23  C   UNL     1      12.246  24.201  61.738  1.00  0.00     0.000 C 
BRANCH  23  24
ATOM     24  C   UNL     1      10.793  23.854  62.119  1.00  0.00    -0.000 C 
BRANCH  24  25
ATOM     25  C   UNL     1       9.944  23.346  60.935  1.00  0.00    -0.000 C 
BRANCH  25  26
ATOM     26  C   UNL     1       9.401  21.912  61.084  1.00  0.00    -0.000 C 
BRANCH  26  27
ATOM     27  C   UNL     1       9.379  21.362  62.526  1.00  0.00    -0.000 C 
BRANCH  27  28
ATOM     28  C   UNL     1      10.164  20.051  62.728  1.00  0.00    -0.000 C 
BRANCH  28  29
ATOM     29  C   UNL     1      10.893  20.000  64.081  1.00  0.00    -0.000 C 
BRANCH  29  30
ATOM     30  C   UNL     1      10.896  21.364  64.796  1.00  0.00    -0.000 C 
BRANCH  30  31
ATOM     31  C   UNL     1      12.321  21.886  65.043  1.00  0.00    -0.003 C 
ATOM     32  C   UNL     1      12.301  23.346  65.492  1.00  0.00     0.004 C 
ENDBRANCH  30  31
ENDBRANCH  29  30
ENDBRANCH  28  29
ENDBRANCH  27  28
ENDBRANCH  26  27
ENDBRANCH  25  26
ENDBRANCH  24  25
ENDBRANCH  23  24
ENDBRANCH  22  23
ENDBRANCH  21  22
ENDBRANCH  20  21
ENDBRANCH  19  20
ENDBRANCH  18  19
ENDBRANCH   1  18
TORSDOF 28
ENDMDL
MODEL 6
REMARK VINA RESULT:    -4.679      1.842      9.208
REMARK INTER + INTRA:         -16.036
REMARK INTER:                 -12.928
REMARK INTRA:                  -3.108
REMARK UNBOUND:                -3.698
REMARK SMILES CCCCCCCCCCCCCCCCCCCCCCCCCCCCCC(=O)[O-]
REMARK SMILES IDX 16 1 17 2 18 3 19 4 20 5 21 6 22 7 23 8 24 9 25 10 26 11
REMARK SMILES IDX 27 12 28 13 29 14 30 15 31 16 32 17 15 18 14 19 13 20 12 21
REMARK SMILES IDX 11 22 10 23 9 24 8 25 7 26 6 27 5 28 4 29 3 30 2 31 1 32
REMARK H PARENT
REMARK Flexibility Score: inf
ROOT
ATOM      1  C   UNL     1      10.757  17.677  63.941  1.00  0.00     0.000 C 
ENDROOT
BRANCH   1   2
ATOM      2  C   UNL     1      11.269  19.061  63.509  1.00  0.00     0.000 C 
BRANCH   2   3
ATOM      3  C   UNL     1      10.125  20.036  63.157  1.00  0.00     0.000 C 
BRANCH   3   4
ATOM      4  C   UNL     1      10.068  20.410  61.663  1.00  0.00     0.000 C 
BRANCH   4   5
ATOM      5  C   UNL     1       8.660  20.366  61.044  1.00  0.00     0.000 C 
BRANCH   5   6
ATOM      6  C   UNL     1       8.072  21.735  60.630  1.00  0.00     0.000 C 
BRANCH   6   7
ATOM      7  C   UNL     1       8.996  22.947  60.861  1.00  0.00     0.000 C 
BRANCH   7   8
ATOM      8  C   UNL     1       8.281  24.169  61.488  1.00  0.00     0.000 C 
BRANCH   8   9
ATOM      9  C   UNL     1       9.129  25.451  61.453  1.00  0.00     0.000 C 
BRANCH   9  10
ATOM     10  C   UNL     1      10.639  25.156  61.474  1.00  0.00     0.000 C 
BRANCH  10  11
ATOM     11  C   UNL     1      11.329  25.516  60.149  1.00  0.00     0.000 C 
BRANCH  11  12
ATOM     12  C   UNL     1      12.374  24.475  59.724  1.00  0.00     0.000 C 
BRANCH  12  13
ATOM     13  C   UNL     1      13.017  23.809  60.950  1.00  0.00     0.006 C 
BRANCH  13  14
ATOM     14  C   UNL     1      12.952  22.278  60.878  1.00  0.00     0.053 C 
BRANCH  14  15
ATOM     15  C   UNL     1      13.708  21.637  62.003  1.00  0.00     0.041 C 
ATOM     16  O   UNL     1      13.925  22.274  63.066  1.00  0.00    -0.550 OA
ATOM     17  O   UNL     1      14.149  20.325  61.884  1.00  0.00    -0.550 OA
ENDBRANCH  14  15
ENDBRANCH  13  14
ENDBRANCH  12  13
ENDBRANCH  11  12
ENDBRANCH  10  11
ENDBRANCH   9  10
ENDBRANCH   8   9
ENDBRANCH   7   8
ENDBRANCH   6   7
ENDBRANCH   5   6
ENDBRANCH   4   5
ENDBRANCH   3   4
ENDBRANCH   2   3
ENDBRANCH   1   2
BRANCH   1  18
ATOM     18  C   UNL     1      11.761  16.551  63.634  1.00  0.00     0.000 C 
BRANCH  18  19
ATOM     19  C   UNL     1      13.197  17.071  63.435  1.00  0.00     0.000 C 
BRANCH  19  20
ATOM     20  C   UNL     1      14.265  16.084  63.924  1.00  0.00     0.000 C 
BRANCH  20  21
ATOM     21  C   UNL     1      13.728  15.112  64.994  1.00  0.00     0.000 C 
BRANCH  21  22
ATOM     22  C   UNL     1      14.016  13.639  64.648  1.00  0.00     0.000 C 
BRANCH  22  23
ATOM     23  C   UNL     1      13.516  13.269  63.239  1.00  0.00     0.000 C 
BRANCH  23  24
ATOM     24  C   UNL     1      14.590  12.567  62.383  1.00  0.00    -0.000 C 
BRANCH  24  25
ATOM     25  C   UNL     1      14.623  13.040  60.916  1.00  0.00    -0.000 C 
BRANCH  25  26
ATOM     26  C   UNL     1      15.815  13.943  60.543  1.00  0.00    -0.000 C 
BRANCH  26  27
ATOM     27  C   UNL     1      15.440  15.305  59.922  1.00  0.00    -0.000 C 
BRANCH  27  28
ATOM     28  C   UNL     1      16.096  16.524  60.598  1.00  0.00    -0.000 C 
BRANCH  28  29
ATOM     29  C   UNL     1      17.389  16.159  61.349  1.00  0.00    -0.000 C 
BRANCH  29  30
ATOM     30  C   UNL     1      18.629  16.210  60.439  1.00  0.00    -0.000 C 
BRANCH  30  31
ATOM     31  C   UNL     1      19.586  17.350  60.824  1.00  0.00    -0.003 C 
ATOM     32  C   UNL     1      19.963  17.275  62.302  1.00  0.00     0.004 C 
ENDBRANCH  30  31
ENDBRANCH  29  30
ENDBRANCH  28  29
ENDBRANCH  27  28
ENDBRANCH  26  27
ENDBRANCH  25  26
ENDBRANCH  24  25
ENDBRANCH  23  24
ENDBRANCH  22  23
ENDBRANCH  21  22
ENDBRANCH  20  21
ENDBRANCH  19  20
ENDBRANCH  18  19
ENDBRANCH   1  18
TORSDOF 28
ENDMDL
MODEL 7
REMARK VINA RESULT:    -4.667      4.398     10.850
REMARK INTER + INTRA:         -16.003
REMARK INTER:                 -14.222
REMARK INTRA:                  -1.782
REMARK UNBOUND:                -3.698
REMARK SMILES CCCCCCCCCCCCCCCCCCCCCCCCCCCCCC(=O)[O-]
REMARK SMILES IDX 16 1 17 2 18 3 19 4 20 5 21 6 22 7 23 8 24 9 25 10 26 11
REMARK SMILES IDX 27 12 28 13 29 14 30 15 31 16 32 17 15 18 14 19 13 20 12 21
REMARK SMILES IDX 11 22 10 23 9 24 8 25 7 26 6 27 5 28 4 29 3 30 2 31 1 32
REMARK H PARENT
REMARK Flexibility Score: inf
ROOT
ATOM      1  C   UNL     1      13.954  18.164  63.045  1.00  0.00     0.000 C 
ENDROOT
BRANCH   1   2
ATOM      2  C   UNL     1      12.715  18.953  63.503  1.00  0.00     0.000 C 
BRANCH   2   3
ATOM      3  C   UNL     1      12.667  20.379  62.914  1.00  0.00     0.000 C 
BRANCH   3   4
ATOM      4  C   UNL     1      13.853  20.707  61.986  1.00  0.00     0.000 C 
BRANCH   4   5
ATOM      5  C   UNL     1      13.474  21.478  60.709  1.00  0.00     0.000 C 
BRANCH   5   6
ATOM      6  C   UNL     1      13.221  22.992  60.897  1.00  0.00     0.000 C 
BRANCH   6   7
ATOM      7  C   UNL     1      11.955  23.540  60.210  1.00  0.00     0.000 C 
BRANCH   7   8
ATOM      8  C   UNL     1      12.186  24.857  59.430  1.00  0.00     0.000 C 
BRANCH   8   9
ATOM      9  C   UNL     1      10.969  25.796  59.452  1.00  0.00     0.000 C 
BRANCH   9  10
ATOM     10  C   UNL     1      10.502  26.183  58.038  1.00  0.00     0.000 C 
BRANCH  10  11
ATOM     11  C   UNL     1       9.401  27.256  58.054  1.00  0.00     0.000 C 
BRANCH  11  12
ATOM     12  C   UNL     1       9.419  28.141  56.799  1.00  0.00     0.000 C 
BRANCH  12  13
ATOM     13  C   UNL     1      10.542  27.714  55.842  1.00  0.00     0.006 C 
BRANCH  13  14
ATOM     14  C   UNL     1      11.232  28.917  55.185  1.00  0.00     0.053 C 
BRANCH  14  15
ATOM     15  C   UNL     1      11.371  28.736  53.704  1.00  0.00     0.041 C 
ATOM     16  O   UNL     1      10.900  29.593  52.912  1.00  0.00    -0.550 OA
ATOM     17  O   UNL     1      12.045  27.631  53.199  1.00  0.00    -0.550 OA
ENDBRANCH  14  15
ENDBRANCH  13  14
ENDBRANCH  12  13
ENDBRANCH  11  12
ENDBRANCH  10  11
ENDBRANCH   9  10
ENDBRANCH   8   9
ENDBRANCH   7   8
ENDBRANCH   6   7
ENDBRANCH   5   6
ENDBRANCH   4   5
ENDBRANCH   3   4
ENDBRANCH   2   3
ENDBRANCH   1   2
BRANCH   1  18
ATOM     18  C   UNL     1      14.184  16.889  63.875  1.00  0.00     0.000 C 
BRANCH  18  19
ATOM     19  C   UNL     1      12.872  16.171  64.240  1.00  0.00     0.000 C 
BRANCH  19  20
ATOM     20  C   UNL     1      13.091  14.932  65.121  1.00  0.00     0.000 C 
BRANCH  20  21
ATOM     21  C   UNL     1      14.257  14.053  64.626  1.00  0.00     0.000 C 
BRANCH  21  22
ATOM     22  C   UNL     1      13.848  13.134  63.460  1.00  0.00     0.000 C 
BRANCH  22  23
ATOM     23  C   UNL     1      14.254  13.720  62.094  1.00  0.00     0.000 C 
BRANCH  23  24
ATOM     24  C   UNL     1      15.150  12.771  61.273  1.00  0.00    -0.000 C 
BRANCH  24  25
ATOM     25  C   UNL     1      15.152  13.071  59.760  1.00  0.00    -0.000 C 
BRANCH  25  26
ATOM     26  C   UNL     1      15.962  14.311  59.337  1.00  0.00    -0.000 C 
BRANCH  26  27
ATOM     27  C   UNL     1      15.306  15.669  59.664  1.00  0.00    -0.000 C 
BRANCH  27  28
ATOM     28  C   UNL     1      16.260  16.878  59.601  1.00  0.00    -0.000 C 
BRANCH  28  29
ATOM     29  C   UNL     1      17.594  16.543  58.911  1.00  0.00    -0.000 C 
BRANCH  29  30
ATOM     30  C   UNL     1      18.811  16.994  59.739  1.00  0.00    -0.000 C 
BRANCH  30  31
ATOM     31  C   UNL     1      18.974  16.170  61.027  1.00  0.00    -0.003 C 
ATOM     32  C   UNL     1      18.668  17.016  62.262  1.00  0.00     0.004 C 
ENDBRANCH  30  31
ENDBRANCH  29  30
ENDBRANCH  28  29
ENDBRANCH  27  28
ENDBRANCH  26  27
ENDBRANCH  25  26
ENDBRANCH  24  25
ENDBRANCH  23  24
ENDBRANCH  22  23
ENDBRANCH  21  22
ENDBRANCH  20  21
ENDBRANCH  19  20
ENDBRANCH  18  19
ENDBRANCH   1  18
TORSDOF 28
ENDMDL
MODEL 8
REMARK VINA RESULT:    -4.613      1.399      2.997
REMARK INTER + INTRA:         -15.863
REMARK INTER:                 -11.862
REMARK INTRA:                  -4.001
REMARK UNBOUND:                -3.698
REMARK SMILES CCCCCCCCCCCCCCCCCCCCCCCCCCCCCC(=O)[O-]
REMARK SMILES IDX 16 1 17 2 18 3 19 4 20 5 21 6 22 7 23 8 24 9 25 10 26 11
REMARK SMILES IDX 27 12 28 13 29 14 30 15 31 16 32 17 15 18 14 19 13 20 12 21
REMARK SMILES IDX 11 22 10 23 9 24 8 25 7 26 6 27 5 28 4 29 3 30 2 31 1 32
REMARK H PARENT
REMARK Flexibility Score: inf
ROOT
ATOM      1  C   UNL     1      12.579  19.617  63.470  1.00  0.00     0.000 C 
ENDROOT
BRANCH   1   2
ATOM      2  C   UNL     1      13.110  18.175  63.501  1.00  0.00     0.000 C 
BRANCH   2   3
ATOM      3  C   UNL     1      11.979  17.125  63.534  1.00  0.00     0.000 C 
BRANCH   3   4
ATOM      4  C   UNL     1      12.485  15.670  63.565  1.00  0.00     0.000 C 
BRANCH   4   5
ATOM      5  C   UNL     1      13.739  15.445  64.429  1.00  0.00     0.000 C 
BRANCH   5   6
ATOM      6  C   UNL     1      14.010  13.978  64.839  1.00  0.00     0.000 C 
BRANCH   6   7
ATOM      7  C   UNL     1      13.579  12.915  63.810  1.00  0.00     0.000 C 
BRANCH   7   8
ATOM      8  C   UNL     1      14.675  12.564  62.776  1.00  0.00     0.000 C 
BRANCH   8   9
ATOM      9  C   UNL     1      14.439  13.208  61.400  1.00  0.00     0.000 C 
BRANCH   9  10
ATOM     10  C   UNL     1      15.634  14.061  60.939  1.00  0.00     0.000 C 
BRANCH  10  11
ATOM     11  C   UNL     1      15.349  15.569  61.024  1.00  0.00     0.000 C 
BRANCH  11  12
ATOM     12  C   UNL     1      16.454  16.339  61.762  1.00  0.00     0.000 C 
BRANCH  12  13
ATOM     13  C   UNL     1      17.839  15.984  61.202  1.00  0.00     0.006 C 
BRANCH  13  14
ATOM     14  C   UNL     1      18.178  16.787  59.939  1.00  0.00     0.053 C 
BRANCH  14  15
ATOM     15  C   UNL     1      18.401  15.894  58.757  1.00  0.00     0.041 C 
ATOM     16  O   UNL     1      18.466  14.645  58.907  1.00  0.00    -0.550 OA
ATOM     17  O   UNL     1      18.513  16.440  57.485  1.00  0.00    -0.550 OA
ENDBRANCH  14  15
ENDBRANCH  13  14
ENDBRANCH  12  13
ENDBRANCH  11  12
ENDBRANCH  10  11
ENDBRANCH   9  10
ENDBRANCH   8   9
ENDBRANCH   7   8
ENDBRANCH   6   7
ENDBRANCH   5   6
ENDBRANCH   4   5
ENDBRANCH   3   4
ENDBRANCH   2   3
ENDBRANCH   1   2
BRANCH   1  18
ATOM     18  C   UNL     1      11.056  19.685  63.258  1.00  0.00     0.000 C 
BRANCH  18  19
ATOM     19  C   UNL     1      10.348  20.559  64.309  1.00  0.00     0.000 C 
BRANCH  19  20
ATOM     20  C   UNL     1       9.551  21.716  63.688  1.00  0.00     0.000 C 
BRANCH  20  21
ATOM     21  C   UNL     1       9.914  23.082  64.303  1.00  0.00     0.000 C 
BRANCH  21  22
ATOM     22  C   UNL     1      10.578  22.947  65.686  1.00  0.00     0.000 C 
BRANCH  22  23
ATOM     23  C   UNL     1      12.058  23.371  65.659  1.00  0.00     0.000 C 
BRANCH  23  24
ATOM     24  C   UNL     1      12.502  23.921  64.288  1.00  0.00    -0.000 C 
BRANCH  24  25
ATOM     25  C   UNL     1      13.485  22.998  63.537  1.00  0.00    -0.000 C 
BRANCH  25  26
ATOM     26  C   UNL     1      14.118  23.605  62.270  1.00  0.00    -0.000 C 
BRANCH  26  27
ATOM     27  C   UNL     1      13.704  22.935  60.942  1.00  0.00    -0.000 C 
BRANCH  27  28
ATOM     28  C   UNL     1      12.268  22.376  60.923  1.00  0.00    -0.000 C 
BRANCH  28  29
ATOM     29  C   UNL     1      11.212  23.466  60.668  1.00  0.00    -0.000 C 
BRANCH  29  30
ATOM     30  C   UNL     1      11.726  24.571  59.727  1.00  0.00    -0.000 C 
BRANCH  30  31
ATOM     31  C   UNL     1      11.546  25.975  60.328  1.00  0.00    -0.003 C 
ATOM     32  C   UNL     1      10.102  26.452  60.186  1.00  0.00     0.004 C 
ENDBRANCH  30  31
ENDBRANCH  29  30
ENDBRANCH  28  29
ENDBRANCH  27  28
ENDBRANCH  26  27
ENDBRANCH  25  26
ENDBRANCH  24  25
ENDBRANCH  23  24
ENDBRANCH  22  23
ENDBRANCH  21  22
ENDBRANCH  20  21
ENDBRANCH  19  20
ENDBRANCH  18  19
ENDBRANCH   1  18
TORSDOF 28
ENDMDL
MODEL 9
REMARK VINA RESULT:    -4.606      1.468      3.639
REMARK INTER + INTRA:         -15.844
REMARK INTER:                 -12.357
REMARK INTRA:                  -3.487
REMARK UNBOUND:                -3.698
REMARK SMILES CCCCCCCCCCCCCCCCCCCCCCCCCCCCCC(=O)[O-]
REMARK SMILES IDX 16 1 17 2 18 3 19 4 20 5 21 6 22 7 23 8 24 9 25 10 26 11
REMARK SMILES IDX 27 12 28 13 29 14 30 15 31 16 32 17 15 18 14 19 13 20 12 21
REMARK SMILES IDX 11 22 10 23 9 24 8 25 7 26 6 27 5 28 4 29 3 30 2 31 1 32
REMARK H PARENT
REMARK Flexibility Score: inf
ROOT
ATOM      1  C   UNL     1      14.248  15.867  64.151  1.00  0.00     0.000 C 
ENDROOT
BRANCH   1   2
ATOM      2  C   UNL     1      13.450  14.838  64.970  1.00  0.00     0.000 C 
BRANCH   2   3
ATOM      3  C   UNL     1      13.863  13.383  64.663  1.00  0.00     0.000 C 
BRANCH   3   4
ATOM      4  C   UNL     1      13.438  12.901  63.263  1.00  0.00     0.000 C 
BRANCH   4   5
ATOM      5  C   UNL     1      14.598  12.716  62.268  1.00  0.00     0.000 C 
BRANCH   5   6
ATOM      6  C   UNL     1      15.366  11.378  62.383  1.00  0.00     0.000 C 
BRANCH   6   7
ATOM      7  C   UNL     1      16.400  11.113  61.272  1.00  0.00     0.000 C 
BRANCH   7   8
ATOM      8  C   UNL     1      15.772  10.769  59.900  1.00  0.00     0.000 C 
BRANCH   8   9
ATOM      9  C   UNL     1      15.664  11.982  58.962  1.00  0.00     0.000 C 
BRANCH   9  10
ATOM     10  C   UNL     1      16.858  12.942  59.105  1.00  0.00     0.000 C 
BRANCH  10  11
ATOM     11  C   UNL     1      16.510  14.381  58.691  1.00  0.00     0.000 C 
BRANCH  11  12
ATOM     12  C   UNL     1      15.298  14.938  59.450  1.00  0.00     0.000 C 
BRANCH  12  13
ATOM     13  C   UNL     1      15.726  16.026  60.446  1.00  0.00     0.006 C 
BRANCH  13  14
ATOM     14  C   UNL     1      17.031  16.716  60.026  1.00  0.00     0.053 C 
BRANCH  14  15
ATOM     15  C   UNL     1      18.093  16.577  61.074  1.00  0.00     0.041 C 
ATOM     16  O   UNL     1      18.211  15.504  61.722  1.00  0.00    -0.550 OA
ATOM     17  O   UNL     1      18.971  17.626  61.316  1.00  0.00    -0.550 OA
ENDBRANCH  14  15
ENDBRANCH  13  14
ENDBRANCH  12  13
ENDBRANCH  11  12
ENDBRANCH  10  11
ENDBRANCH   9  10
ENDBRANCH   8   9
ENDBRANCH   7   8
ENDBRANCH   6   7
ENDBRANCH   5   6
ENDBRANCH   4   5
ENDBRANCH   3   4
ENDBRANCH   2   3
ENDBRANCH   1   2
BRANCH   1  18
ATOM     18  C   UNL     1      13.346  16.918  63.479  1.00  0.00     0.000 C 
BRANCH  18  19
ATOM     19  C   UNL     1      11.866  16.777  63.881  1.00  0.00     0.000 C 
BRANCH  19  20
ATOM     20  C   UNL     1      11.039  18.033  63.574  1.00  0.00     0.000 C 
BRANCH  20  21
ATOM     21  C   UNL     1      11.903  19.309  63.510  1.00  0.00     0.000 C 
BRANCH  21  22
ATOM     22  C   UNL     1      11.054  20.591  63.428  1.00  0.00     0.000 C 
BRANCH  22  23
ATOM     23  C   UNL     1      11.469  21.484  62.244  1.00  0.00     0.000 C 
BRANCH  23  24
ATOM     24  C   UNL     1      12.848  21.110  61.662  1.00  0.00    -0.000 C 
BRANCH  24  25
ATOM     25  C   UNL     1      13.780  22.320  61.447  1.00  0.00    -0.000 C 
BRANCH  25  26
ATOM     26  C   UNL     1      14.210  23.056  62.731  1.00  0.00    -0.000 C 
BRANCH  26  27
ATOM     27  C   UNL     1      14.196  24.596  62.643  1.00  0.00    -0.000 C 
BRANCH  27  28
ATOM     28  C   UNL     1      12.980  25.269  63.311  1.00  0.00    -0.000 C 
BRANCH  28  29
ATOM     29  C   UNL     1      11.758  25.339  62.380  1.00  0.00    -0.000 C 
BRANCH  29  30
ATOM     30  C   UNL     1      12.103  25.933  61.002  1.00  0.00    -0.000 C 
BRANCH  30  31
ATOM     31  C   UNL     1      11.555  25.078  59.848  1.00  0.00    -0.003 C 
ATOM     32  C   UNL     1      10.465  24.127  60.338  1.00  0.00     0.004 C 
ENDBRANCH  30  31
ENDBRANCH  29  30
ENDBRANCH  28  29
ENDBRANCH  27  28
ENDBRANCH  26  27
ENDBRANCH  25  26
ENDBRANCH  24  25
ENDBRANCH  23  24
ENDBRANCH  22  23
ENDBRANCH  21  22
ENDBRANCH  20  21
ENDBRANCH  19  20
ENDBRANCH  18  19
ENDBRANCH   1  18
TORSDOF 28
ENDMDL
