MODEL 1
REMARK VINA RESULT:    -3.738      0.000      0.000
REMARK INTER + INTRA:          -6.163
REMARK INTER:                  -5.705
REMARK INTRA:                  -0.458
REMARK UNBOUND:                -0.458
REMARK SMILES CC1=CCC[C@@H](C)C(=O)C[C@@H](C(C)C)C(=O)C1
REMARK SMILES IDX 8 1 9 2 6 3 7 4 5 5 4 6 3 7 2 8 1 9 10 11 11 12 15 13 16 14
REMARK SMILES IDX 17 15 12 17 13 18 14 19
REMARK H PARENT
REMARK Flexibility Score: 70.00
ROOT
ATOM      1  C   UNL     1      21.542  10.614 -26.241  1.00  0.00     0.136 C 
ATOM      2  O   UNL     1      22.453  11.088 -25.577  1.00  0.00    -0.299 OA
ENDROOT
BRANCH   1   3
ATOM      3  C   UNL     1      20.354  11.503 -26.562  1.00  0.00     0.053 C 
ATOM      4  C   UNL     1      20.705  12.994 -26.709  1.00  0.00     0.016 C 
BRANCH   3   5
ATOM      5  C   UNL     1      19.193  11.282 -25.567  1.00  0.00     0.015 C 
BRANCH   5   6
ATOM      6  C   UNL     1      17.958  10.576 -26.172  1.00  0.00     0.028 C 
BRANCH   6   7
ATOM      7  C   UNL     1      17.762   9.199 -25.577  1.00  0.00    -0.028 C 
ATOM      8  C   UNL     1      17.949   8.003 -26.188  1.00  0.00    -0.070 CG0
ATOM      9  C   UNL     1      17.731   6.761 -25.360  1.00  0.00     0.039 C 
ATOM     10  G   UNL     1      18.345   7.828 -27.643  1.00  0.00     0.000 G0
ENDBRANCH   6   7
ENDBRANCH   5   6
ENDBRANCH   3   5
ENDBRANCH   1   3
BRANCH   1  11
ATOM     11  C   UNL     1      21.593   9.153 -26.649  1.00  0.00     0.087 C 
BRANCH  11  12
ATOM     12  C   UNL     1      20.797   8.844 -27.943  1.00  0.00     0.066 C 
BRANCH  12  13
ATOM     13  C   UNL     1      19.849   7.660 -27.804  1.00  0.00     0.140 C 
ATOM     14  O   UNL     1      20.335   6.540 -27.740  1.00  0.00    -0.299 OA
BRANCH  13  15
ATOM     15  C   UNL     1      18.349   7.803 -27.658  1.00  0.00     0.106 CG0
ATOM     16  G   UNL     1      17.956   8.003 -26.206  1.00  0.00     0.000 G0
ENDBRANCH  13  15
ENDBRANCH  12  13
BRANCH  12  17
ATOM     17  C   UNL     1      21.682   8.707 -29.221  1.00  0.00    -0.006 C 
ATOM     18  C   UNL     1      23.074   8.109 -28.962  1.00  0.00     0.008 C 
ATOM     19  C   UNL     1      21.817  10.042 -29.973  1.00  0.00     0.008 C 
ENDBRANCH  12  17
ENDBRANCH  11  12
ENDBRANCH   1  11
TORSDOF 1
ENDMDL
MODEL 2
REMARK VINA RESULT:    -3.663     16.418     17.989
REMARK INTER + INTRA:          -6.049
REMARK INTER:                  -5.736
REMARK INTRA:                  -0.313
REMARK UNBOUND:                -0.458
REMARK SMILES CC1=CCC[C@@H](C)C(=O)C[C@@H](C(C)C)C(=O)C1
REMARK SMILES IDX 8 1 9 2 6 3 7 4 5 5 4 6 3 7 2 8 1 9 10 11 11 12 15 13 16 14
REMARK SMILES IDX 17 15 12 17 13 18 14 19
REMARK H PARENT
REMARK Flexibility Score: 70.00
ROOT
ATOM      1  C   UNL     1       9.773  21.294 -22.702  1.00  0.00     0.136 C 
ATOM      2  O   UNL     1      10.621  20.566 -23.198  1.00  0.00    -0.299 OA
ENDROOT
BRANCH   1   3
ATOM      3  C   UNL     1       9.123  20.852 -21.402  1.00  0.00     0.053 C 
ATOM      4  C   UNL     1      10.056  20.913 -20.180  1.00  0.00     0.016 C 
BRANCH   3   5
ATOM      5  C   UNL     1       8.452  19.468 -21.543  1.00  0.00     0.015 C 
BRANCH   5   6
ATOM      6  C   UNL     1       7.031  19.506 -22.150  1.00  0.00     0.028 C 
BRANCH   6   7
ATOM      7  C   UNL     1       7.030  19.031 -23.587  1.00  0.00    -0.028 C 
ATOM      8  C   UNL     1       6.640  19.725 -24.683  1.00  0.00    -0.070 CG0
ATOM      9  C   UNL     1       6.780  19.042 -26.022  1.00  0.00     0.039 C 
ATOM     10  G   UNL     1       6.061  21.129 -24.658  1.00  0.00     0.000 G0
ENDBRANCH   6   7
ENDBRANCH   5   6
ENDBRANCH   3   5
ENDBRANCH   1   3
BRANCH   1  11
ATOM     11  C   UNL     1       9.347  22.555 -23.431  1.00  0.00     0.087 C 
BRANCH  11  12
ATOM     12  C   UNL     1       7.810  22.761 -23.463  1.00  0.00     0.066 C 
BRANCH  12  13
ATOM     13  C   UNL     1       7.148  22.187 -24.708  1.00  0.00     0.140 C 
ATOM     14  O   UNL     1       7.568  22.543 -25.800  1.00  0.00    -0.299 OA
BRANCH  13  15
ATOM     15  C   UNL     1       6.057  21.138 -24.665  1.00  0.00     0.106 CG0
ATOM     16  G   UNL     1       6.640  19.737 -24.699  1.00  0.00     0.000 G0
ENDBRANCH  13  15
ENDBRANCH  12  13
BRANCH  12  17
ATOM     17  C   UNL     1       7.357  24.234 -23.216  1.00  0.00    -0.006 C 
ATOM     18  C   UNL     1       7.691  24.768 -21.815  1.00  0.00     0.008 C 
ATOM     19  C   UNL     1       5.861  24.432 -23.509  1.00  0.00     0.008 C 
ENDBRANCH  12  17
ENDBRANCH  11  12
ENDBRANCH   1  11
TORSDOF 1
ENDMDL
MODEL 3
REMARK VINA RESULT:    -3.636     14.318     15.930
REMARK INTER + INTRA:          -6.008
REMARK INTER:                  -5.773
REMARK INTRA:                  -0.234
REMARK UNBOUND:                -0.458
REMARK SMILES CC1=CCC[C@@H](C)C(=O)C[C@@H](C(C)C)C(=O)C1
REMARK SMILES IDX 8 1 9 2 6 3 7 4 5 5 4 6 3 7 2 8 1 9 10 11 11 12 15 13 16 14
REMARK SMILES IDX 17 15 12 17 13 18 14 19
REMARK H PARENT
REMARK Flexibility Score: 70.00
ROOT
ATOM      1  C   UNL     1       9.537  20.589 -20.758  1.00  0.00     0.136 C 
ATOM      2  O   UNL     1      10.256  20.686 -19.773  1.00  0.00    -0.299 OA
ENDROOT
BRANCH   1   3
ATOM      3  C   UNL     1       9.670  21.640 -21.846  1.00  0.00     0.053 C 
ATOM      4  C   UNL     1       8.481  22.615 -21.928  1.00  0.00     0.016 C 
BRANCH   3   5
ATOM      5  C   UNL     1       9.986  21.003 -23.217  1.00  0.00     0.015 C 
BRANCH   5   6
ATOM      6  C   UNL     1       8.749  20.771 -24.115  1.00  0.00     0.028 C 
BRANCH   6   7
ATOM      7  C   UNL     1       8.865  19.478 -24.892  1.00  0.00    -0.028 C 
ATOM      8  C   UNL     1       8.386  18.260 -24.541  1.00  0.00    -0.070 CG0
ATOM      9  C   UNL     1       8.590  17.127 -25.517  1.00  0.00     0.039 C 
ATOM     10  G   UNL     1       7.676  17.954 -23.234  1.00  0.00     0.000 G0
ENDBRANCH   6   7
ENDBRANCH   5   6
ENDBRANCH   3   5
ENDBRANCH   1   3
BRANCH   1  11
ATOM     11  C   UNL     1       8.498  19.485 -20.823  1.00  0.00     0.087 C 
BRANCH  11  12
ATOM     12  C   UNL     1       9.109  18.070 -20.994  1.00  0.00     0.066 C 
BRANCH  12  13
ATOM     13  C   UNL     1       8.573  17.321 -22.206  1.00  0.00     0.140 C 
ATOM     14  O   UNL     1       8.845  16.133 -22.315  1.00  0.00    -0.299 OA
BRANCH  13  15
ATOM     15  C   UNL     1       7.656  17.946 -23.236  1.00  0.00     0.106 CG0
ATOM     16  G   UNL     1       8.403  18.251 -24.523  1.00  0.00     0.000 G0
ENDBRANCH  13  15
ENDBRANCH  12  13
BRANCH  12  17
ATOM     17  C   UNL     1       9.040  17.184 -19.711  1.00  0.00    -0.006 C 
ATOM     18  C   UNL     1       7.741  17.343 -18.905  1.00  0.00     0.008 C 
ATOM     19  C   UNL     1      10.256  17.402 -18.795  1.00  0.00     0.008 C 
ENDBRANCH  12  17
ENDBRANCH  11  12
ENDBRANCH   1  11
TORSDOF 1
ENDMDL
MODEL 4
REMARK VINA RESULT:    -3.633     14.114     16.383
REMARK INTER + INTRA:          -6.003
REMARK INTER:                  -5.584
REMARK INTRA:                  -0.419
REMARK UNBOUND:                -0.458
REMARK SMILES CC1=CCC[C@@H](C)C(=O)C[C@@H](C(C)C)C(=O)C1
REMARK SMILES IDX 8 1 9 2 6 3 7 4 5 5 4 6 3 7 2 8 1 9 10 11 11 12 15 13 16 14
REMARK SMILES IDX 17 15 12 17 13 18 14 19
REMARK H PARENT
REMARK Flexibility Score: 70.00
ROOT
ATOM      1  C   UNL     1       8.524  20.385 -23.497  1.00  0.00     0.136 C 
ATOM      2  O   UNL     1       8.984  20.692 -24.588  1.00  0.00    -0.299 OA
ENDROOT
BRANCH   1   3
ATOM      3  C   UNL     1       8.510  21.439 -22.405  1.00  0.00     0.053 C 
ATOM      4  C   UNL     1       7.843  22.764 -22.816  1.00  0.00     0.016 C 
BRANCH   3   5
ATOM      5  C   UNL     1       9.919  21.666 -21.814  1.00  0.00     0.015 C 
BRANCH   5   6
ATOM      6  C   UNL     1      10.230  20.818 -20.559  1.00  0.00     0.028 C 
BRANCH   6   7
ATOM      7  C   UNL     1      11.166  19.674 -20.882  1.00  0.00    -0.028 C 
ATOM      8  C   UNL     1      10.927  18.348 -20.734  1.00  0.00    -0.070 CG0
ATOM      9  C   UNL     1      12.011  17.395 -21.176  1.00  0.00     0.039 C 
ATOM     10  G   UNL     1       9.658  17.758 -20.144  1.00  0.00     0.000 G0
ENDBRANCH   6   7
ENDBRANCH   5   6
ENDBRANCH   3   5
ENDBRANCH   1   3
BRANCH   1  11
ATOM     11  C   UNL     1       8.063  18.960 -23.252  1.00  0.00     0.087 C 
BRANCH  11  12
ATOM     12  C   UNL     1       7.756  18.657 -21.763  1.00  0.00     0.066 C 
BRANCH  12  13
ATOM     13  C   UNL     1       8.601  17.528 -21.188  1.00  0.00     0.140 C 
ATOM     14  O   UNL     1       8.451  16.405 -21.650  1.00  0.00    -0.299 OA
BRANCH  13  15
ATOM     15  C   UNL     1       9.669  17.736 -20.136  1.00  0.00     0.106 CG0
ATOM     16  G   UNL     1      10.930  18.324 -20.744  1.00  0.00     0.000 G0
ENDBRANCH  13  15
ENDBRANCH  12  13
BRANCH  12  17
ATOM     17  C   UNL     1       6.243  18.439 -21.453  1.00  0.00    -0.006 C 
ATOM     18  C   UNL     1       5.323  19.540 -22.004  1.00  0.00     0.008 C 
ATOM     19  C   UNL     1       5.985  18.246 -19.949  1.00  0.00     0.008 C 
ENDBRANCH  12  17
ENDBRANCH  11  12
ENDBRANCH   1  11
TORSDOF 1
ENDMDL
MODEL 5
REMARK VINA RESULT:    -3.619     15.242     17.306
REMARK INTER + INTRA:          -5.982
REMARK INTER:                  -5.795
REMARK INTRA:                  -0.187
REMARK UNBOUND:                -0.458
REMARK SMILES CC1=CCC[C@@H](C)C(=O)C[C@@H](C(C)C)C(=O)C1
REMARK SMILES IDX 8 1 9 2 6 3 7 4 5 5 4 6 3 7 2 8 1 9 10 11 11 12 15 13 16 14
REMARK SMILES IDX 17 15 12 17 13 18 14 19
REMARK H PARENT
REMARK Flexibility Score: 70.00
ROOT
ATOM      1  C   UNL     1       9.604  21.389 -22.773  1.00  0.00     0.136 C 
ATOM      2  O   UNL     1      10.260  20.633 -23.476  1.00  0.00    -0.299 OA
ENDROOT
BRANCH   1   3
ATOM      3  C   UNL     1       9.155  22.711 -23.369  1.00  0.00     0.053 C 
ATOM      4  C   UNL     1       8.517  23.676 -22.354  1.00  0.00     0.016 C 
BRANCH   3   5
ATOM      5  C   UNL     1       8.254  22.501 -24.606  1.00  0.00     0.015 C 
BRANCH   5   6
ATOM      6  C   UNL     1       6.763  22.263 -24.278  1.00  0.00     0.028 C 
BRANCH   6   7
ATOM      7  C   UNL     1       6.402  20.797 -24.371  1.00  0.00    -0.028 C 
ATOM      8  C   UNL     1       6.247  19.920 -23.349  1.00  0.00    -0.070 CG0
ATOM      9  C   UNL     1       5.836  18.512 -23.701  1.00  0.00     0.039 C 
ATOM     10  G   UNL     1       6.473  20.251 -21.884  1.00  0.00     0.000 G0
ENDBRANCH   6   7
ENDBRANCH   5   6
ENDBRANCH   3   5
ENDBRANCH   1   3
BRANCH   1  11
ATOM     11  C   UNL     1       9.333  21.021 -21.325  1.00  0.00     0.087 C 
BRANCH  11  12
ATOM     12  C   UNL     1       8.925  19.537 -21.131  1.00  0.00     0.066 C 
BRANCH  12  13
ATOM     13  C   UNL     1       7.421  19.310 -21.190  1.00  0.00     0.140 C 
ATOM     14  O   UNL     1       6.962  18.343 -20.599  1.00  0.00    -0.299 OA
BRANCH  13  15
ATOM     15  C   UNL     1       6.458  20.260 -21.870  1.00  0.00     0.106 CG0
ATOM     16  G   UNL     1       6.276  19.903 -23.335  1.00  0.00     0.000 G0
ENDBRANCH  13  15
ENDBRANCH  12  13
BRANCH  12  17
ATOM     17  C   UNL     1       9.545  18.864 -19.867  1.00  0.00    -0.006 C 
ATOM     18  C   UNL     1      10.428  19.799 -19.025  1.00  0.00     0.008 C 
ATOM     19  C   UNL     1      10.323  17.585 -20.219  1.00  0.00     0.008 C 
ENDBRANCH  12  17
ENDBRANCH  11  12
ENDBRANCH   1  11
TORSDOF 1
ENDMDL
MODEL 6
REMARK VINA RESULT:    -3.472     16.211     17.270
REMARK INTER + INTRA:          -5.757
REMARK INTER:                  -5.231
REMARK INTRA:                  -0.526
REMARK UNBOUND:                -0.458
REMARK SMILES CC1=CCC[C@@H](C)C(=O)C[C@@H](C(C)C)C(=O)C1
REMARK SMILES IDX 8 1 9 2 6 3 7 4 5 5 4 6 3 7 2 8 1 9 10 11 11 12 15 13 16 14
REMARK SMILES IDX 17 15 12 17 13 18 14 19
REMARK H PARENT
REMARK Flexibility Score: 70.00
ROOT
ATOM      1  C   UNL     1       8.872  21.755 -24.316  1.00  0.00     0.136 C 
ATOM      2  O   UNL     1       9.737  22.384 -24.909  1.00  0.00    -0.299 OA
ENDROOT
BRANCH   1   3
ATOM      3  C   UNL     1       8.536  22.169 -22.894  1.00  0.00     0.053 C 
ATOM      4  C   UNL     1       8.240  23.670 -22.729  1.00  0.00     0.016 C 
BRANCH   3   5
ATOM      5  C   UNL     1       9.604  21.680 -21.891  1.00  0.00     0.015 C 
BRANCH   5   6
ATOM      6  C   UNL     1       9.615  20.152 -21.663  1.00  0.00     0.028 C 
BRANCH   6   7
ATOM      7  C   UNL     1       8.321  19.675 -21.041  1.00  0.00    -0.028 C 
ATOM      8  C   UNL     1       7.389  18.864 -21.598  1.00  0.00    -0.070 CG0
ATOM      9  C   UNL     1       6.198  18.492 -20.749  1.00  0.00     0.039 C 
ATOM     10  G   UNL     1       7.451  18.321 -23.015  1.00  0.00     0.000 G0
ENDBRANCH   6   7
ENDBRANCH   5   6
ENDBRANCH   3   5
ENDBRANCH   1   3
BRANCH   1  11
ATOM     11  C   UNL     1       8.232  20.550 -24.980  1.00  0.00     0.087 C 
BRANCH  11  12
ATOM     12  C   UNL     1       6.744  20.349 -24.593  1.00  0.00     0.066 C 
BRANCH  12  13
ATOM     13  C   UNL     1       6.466  19.005 -23.933  1.00  0.00     0.140 C 
ATOM     14  O   UNL     1       5.422  18.433 -24.211  1.00  0.00    -0.299 OA
BRANCH  13  15
ATOM     15  C   UNL     1       7.448  18.305 -23.018  1.00  0.00     0.106 CG0
ATOM     16  G   UNL     1       7.371  18.855 -21.605  1.00  0.00     0.000 G0
ENDBRANCH  13  15
ENDBRANCH  12  13
BRANCH  12  17
ATOM     17  C   UNL     1       5.738  20.621 -25.754  1.00  0.00    -0.006 C 
ATOM     18  C   UNL     1       6.240  20.182 -27.139  1.00  0.00     0.008 C 
ATOM     19  C   UNL     1       5.298  22.094 -25.800  1.00  0.00     0.008 C 
ENDBRANCH  12  17
ENDBRANCH  11  12
ENDBRANCH   1  11
TORSDOF 1
ENDMDL
MODEL 7
REMARK VINA RESULT:    -3.412     13.315     15.394
REMARK INTER + INTRA:          -5.666
REMARK INTER:                  -5.278
REMARK INTRA:                  -0.389
REMARK UNBOUND:                -0.458
REMARK SMILES CC1=CCC[C@@H](C)C(=O)C[C@@H](C(C)C)C(=O)C1
REMARK SMILES IDX 8 1 9 2 6 3 7 4 5 5 4 6 3 7 2 8 1 9 10 11 11 12 15 13 16 14
REMARK SMILES IDX 17 15 12 17 13 18 14 19
REMARK H PARENT
REMARK Flexibility Score: 70.00
ROOT
ATOM      1  C   UNL     1      10.009  17.481 -20.278  1.00  0.00     0.136 C 
ATOM      2  O   UNL     1       9.764  16.897 -19.231  1.00  0.00    -0.299 OA
ENDROOT
BRANCH   1   3
ATOM      3  C   UNL     1      11.176  18.452 -20.298  1.00  0.00     0.053 C 
ATOM      4  C   UNL     1      12.437  17.937 -19.582  1.00  0.00     0.016 C 
BRANCH   3   5
ATOM      5  C   UNL     1      10.760  19.851 -19.792  1.00  0.00     0.015 C 
BRANCH   5   6
ATOM      6  C   UNL     1      10.777  20.954 -20.875  1.00  0.00     0.028 C 
BRANCH   6   7
ATOM      7  C   UNL     1       9.376  21.388 -21.245  1.00  0.00    -0.028 C 
ATOM      8  C   UNL     1       8.697  21.095 -22.381  1.00  0.00    -0.070 CG0
ATOM      9  C   UNL     1       7.283  21.610 -22.495  1.00  0.00     0.039 C 
ATOM     10  G   UNL     1       9.262  20.304 -23.548  1.00  0.00     0.000 G0
ENDBRANCH   6   7
ENDBRANCH   5   6
ENDBRANCH   3   5
ENDBRANCH   1   3
BRANCH   1  11
ATOM     11  C   UNL     1       9.106  17.277 -21.480  1.00  0.00     0.087 C 
BRANCH  11  12
ATOM     12  C   UNL     1       9.721  17.786 -22.809  1.00  0.00     0.066 C 
BRANCH  12  13
ATOM     13  C   UNL     1       8.875  18.847 -23.501  1.00  0.00     0.140 C 
ATOM     14  O   UNL     1       7.800  18.506 -23.974  1.00  0.00    -0.299 OA
BRANCH  13  15
ATOM     15  C   UNL     1       9.255  20.311 -23.560  1.00  0.00     0.106 CG0
ATOM     16  G   UNL     1       8.681  21.076 -22.380  1.00  0.00     0.000 G0
ENDBRANCH  13  15
ENDBRANCH  12  13
BRANCH  12  17
ATOM     17  C   UNL     1      10.123  16.654 -23.804  1.00  0.00    -0.006 C 
ATOM     18  C   UNL     1       9.117  15.494 -23.877  1.00  0.00     0.008 C 
ATOM     19  C   UNL     1      11.531  16.108 -23.515  1.00  0.00     0.008 C 
ENDBRANCH  12  17
ENDBRANCH  11  12
ENDBRANCH   1  11
TORSDOF 1
ENDMDL
MODEL 8
REMARK VINA RESULT:    -3.407     15.985     17.982
REMARK INTER + INTRA:          -5.658
REMARK INTER:                  -5.370
REMARK INTRA:                  -0.288
REMARK UNBOUND:                -0.458
REMARK SMILES CC1=CCC[C@@H](C)C(=O)C[C@@H](C(C)C)C(=O)C1
REMARK SMILES IDX 8 1 9 2 6 3 7 4 5 5 4 6 3 7 2 8 1 9 10 11 11 12 15 13 16 14
REMARK SMILES IDX 17 15 12 17 13 18 14 19
REMARK H PARENT
REMARK Flexibility Score: 70.00
ROOT
ATOM      1  C   UNL     1       5.888  20.806 -22.301  1.00  0.00     0.136 C 
ATOM      2  O   UNL     1       5.072  21.654 -21.970  1.00  0.00    -0.299 OA
ENDROOT
BRANCH   1   3
ATOM      3  C   UNL     1       5.444  19.354 -22.318  1.00  0.00     0.053 C 
ATOM      4  C   UNL     1       6.346  18.409 -21.505  1.00  0.00     0.016 C 
BRANCH   3   5
ATOM      5  C   UNL     1       5.228  18.842 -23.760  1.00  0.00     0.015 C 
BRANCH   5   6
ATOM      6  C   UNL     1       6.483  18.215 -24.410  1.00  0.00     0.028 C 
BRANCH   6   7
ATOM      7  C   UNL     1       6.756  18.812 -25.773  1.00  0.00    -0.028 C 
ATOM      8  C   UNL     1       7.810  19.582 -26.138  1.00  0.00    -0.070 CG0
ATOM      9  C   UNL     1       7.882  20.018 -27.581  1.00  0.00     0.039 C 
ATOM     10  G   UNL     1       8.908  20.047 -25.199  1.00  0.00     0.000 G0
ENDBRANCH   6   7
ENDBRANCH   5   6
ENDBRANCH   3   5
ENDBRANCH   1   3
BRANCH   1  11
ATOM     11  C   UNL     1       7.318  21.218 -22.601  1.00  0.00     0.087 C 
BRANCH  11  12
ATOM     12  C   UNL     1       7.479  21.947 -23.960  1.00  0.00     0.066 C 
BRANCH  12  13
ATOM     13  C   UNL     1       8.688  21.480 -24.759  1.00  0.00     0.140 C 
ATOM     14  O   UNL     1       9.566  22.296 -25.002  1.00  0.00    -0.299 OA
BRANCH  13  15
ATOM     15  C   UNL     1       8.899  20.045 -25.193  1.00  0.00     0.106 CG0
ATOM     16  G   UNL     1       7.801  19.590 -26.138  1.00  0.00     0.000 G0
ENDBRANCH  13  15
ENDBRANCH  12  13
BRANCH  12  17
ATOM     17  C   UNL     1       7.440  23.504 -23.859  1.00  0.00    -0.006 C 
ATOM     18  C   UNL     1       7.747  24.051 -22.457  1.00  0.00     0.008 C 
ATOM     19  C   UNL     1       6.108  24.080 -24.366  1.00  0.00     0.008 C 
ENDBRANCH  12  17
ENDBRANCH  11  12
ENDBRANCH   1  11
TORSDOF 1
ENDMDL
MODEL 9
REMARK VINA RESULT:    -3.389     12.801     15.122
REMARK INTER + INTRA:          -5.630
REMARK INTER:                  -5.110
REMARK INTRA:                  -0.520
REMARK UNBOUND:                -0.458
REMARK SMILES CC1=CCC[C@@H](C)C(=O)C[C@@H](C(C)C)C(=O)C1
REMARK SMILES IDX 8 1 9 2 6 3 7 4 5 5 4 6 3 7 2 8 1 9 10 11 11 12 15 13 16 14
REMARK SMILES IDX 17 15 12 17 13 18 14 19
REMARK H PARENT
REMARK Flexibility Score: 70.00
ROOT
ATOM      1  C   UNL     1      10.062  19.344 -20.415  1.00  0.00     0.136 C 
ATOM      2  O   UNL     1      10.506  20.231 -19.699  1.00  0.00    -0.299 OA
ENDROOT
BRANCH   1   3
ATOM      3  C   UNL     1      10.373  17.905 -20.045  1.00  0.00     0.053 C 
ATOM      4  C   UNL     1       9.916  17.504 -18.632  1.00  0.00     0.016 C 
BRANCH   3   5
ATOM      5  C   UNL     1      11.861  17.564 -20.285  1.00  0.00     0.015 C 
BRANCH   5   6
ATOM      6  C   UNL     1      12.304  17.640 -21.763  1.00  0.00     0.028 C 
BRANCH   6   7
ATOM      7  C   UNL     1      11.711  16.512 -22.578  1.00  0.00    -0.028 C 
ATOM      8  C   UNL     1      10.766  16.603 -23.545  1.00  0.00    -0.070 CG0
ATOM      9  C   UNL     1      10.370  15.328 -24.250  1.00  0.00     0.039 C 
ATOM     10  G   UNL     1      10.070  17.889 -23.956  1.00  0.00     0.000 G0
ENDBRANCH   6   7
ENDBRANCH   5   6
ENDBRANCH   3   5
ENDBRANCH   1   3
BRANCH   1  11
ATOM     11  C   UNL     1       9.295  19.709 -21.673  1.00  0.00     0.087 C 
BRANCH  11  12
ATOM     12  C   UNL     1       8.278  18.624 -22.113  1.00  0.00     0.066 C 
BRANCH  12  13
ATOM     13  C   UNL     1       8.644  17.949 -23.428  1.00  0.00     0.140 C 
ATOM     14  O   UNL     1       7.738  17.495 -24.112  1.00  0.00    -0.299 OA
BRANCH  13  15
ATOM     15  C   UNL     1      10.056  17.884 -23.970  1.00  0.00     0.106 CG0
ATOM     16  G   UNL     1      10.754  16.609 -23.532  1.00  0.00     0.000 G0
ENDBRANCH  13  15
ENDBRANCH  12  13
BRANCH  12  17
ATOM     17  C   UNL     1       6.794  19.104 -22.123  1.00  0.00    -0.006 C 
ATOM     18  C   UNL     1       6.626  20.627 -22.247  1.00  0.00     0.008 C 
ATOM     19  C   UNL     1       6.014  18.589 -20.902  1.00  0.00     0.008 C 
ENDBRANCH  12  17
ENDBRANCH  11  12
ENDBRANCH   1  11
TORSDOF 1
ENDMDL
