MODEL 1
REMARK VINA RESULT:    -0.207      0.000      0.000
REMARK INTER + INTRA:          -0.730
REMARK INTER:                  -0.250
REMARK INTRA:                  -0.480
REMARK UNBOUND:                -0.480
REMARK SMILES O=c1c(O)c(-c2ccc(O)cc2O)oc2cc(O)cc(O)c12
REMARK SMILES IDX 5 1 3 2 2 3 1 4 22 5 20 6 19 7 17 8 16 9 15 10 14 11 6 12
REMARK SMILES IDX 8 13 7 14 9 15 11 16 12 17 10 18 13 20 4 22 21 24 18 26
REMARK H PARENT 10 19 13 21 4 23 21 25 18 27
REMARK Flexibility Score: inf
ROOT
ATOM      1  C   UNL     1      65.512  32.370  41.190  1.00  0.00     0.184 A 
ATOM      2  C   UNL     1      64.257  32.078  40.625  1.00  0.00     0.208 A 
ATOM      3  C   UNL     1      64.207  31.374  39.412  1.00  0.00     0.238 A 
ATOM      4  O   UNL     1      63.087  31.099  38.900  1.00  0.00    -0.285 OA
ATOM      5  C   UNL     1      65.407  30.992  38.777  1.00  0.00     0.111 A 
ATOM      6  C   UNL     1      65.444  30.286  37.552  1.00  0.00     0.134 A 
ATOM      7  C   UNL     1      66.681  29.948  36.981  1.00  0.00     0.093 A 
ATOM      8  C   UNL     1      67.878  30.303  37.612  1.00  0.00     0.123 A 
ATOM      9  C   UNL     1      67.846  31.001  38.821  1.00  0.00     0.094 A 
ATOM     10  C   UNL     1      66.624  31.345  39.407  1.00  0.00     0.146 A 
ATOM     11  O   UNL     1      66.623  32.004  40.559  1.00  0.00    -0.451 OA
ENDROOT
BRANCH   1  12
ATOM     12  C   UNL     1      65.639  33.093  42.477  1.00  0.00     0.063 A 
ATOM     13  C   UNL     1      65.555  33.099  44.911  1.00  0.00     0.047 A 
ATOM     14  C   UNL     1      65.409  32.425  43.695  1.00  0.00     0.020 A 
ATOM     15  C   UNL     1      65.944  34.443  44.929  1.00  0.00     0.119 A 
ATOM     16  C   UNL     1      66.187  35.111  43.725  1.00  0.00     0.093 A 
ATOM     17  C   UNL     1      66.040  34.444  42.499  1.00  0.00     0.130 A 
BRANCH  15  18
ATOM     18  O   UNL     1      66.093  35.123  46.135  1.00  0.00    -0.508 OA
ATOM     19  H   UNL     1      66.274  36.120  46.163  1.00  0.00     0.293 HD
ENDBRANCH  15  18
BRANCH  17  20
ATOM     20  O   UNL     1      66.281  35.125  41.305  1.00  0.00    -0.507 OA
ATOM     21  H   UNL     1      66.302  34.644  40.414  1.00  0.00     0.293 HD
ENDBRANCH  17  20
ENDBRANCH   1  12
BRANCH   2  22
ATOM     22  O   UNL     1      63.084  32.504  41.255  1.00  0.00    -0.502 OA
ATOM     23  H   UNL     1      62.563  33.312  40.938  1.00  0.00     0.293 HD
ENDBRANCH   2  22
BRANCH   6  24
ATOM     24  O   UNL     1      64.267  29.918  36.899  1.00  0.00    -0.507 OA
ATOM     25  H   UNL     1      64.015  30.304  35.997  1.00  0.00     0.293 HD
ENDBRANCH   6  24
BRANCH   8  26
ATOM     26  O   UNL     1      69.105  29.968  37.045  1.00  0.00    -0.508 OA
ATOM     27  H   UNL     1      69.949  30.485  37.264  1.00  0.00     0.293 HD
ENDBRANCH   8  26
TORSDOF 6
ENDMDL
MODEL 2
REMARK VINA RESULT:    -0.201      2.258      4.077
REMARK INTER + INTRA:          -0.722
REMARK INTER:                  -0.242
REMARK INTRA:                  -0.480
REMARK UNBOUND:                -0.480
REMARK SMILES O=c1c(O)c(-c2ccc(O)cc2O)oc2cc(O)cc(O)c12
REMARK SMILES IDX 5 1 3 2 2 3 1 4 22 5 20 6 19 7 17 8 16 9 15 10 14 11 6 12
REMARK SMILES IDX 8 13 7 14 9 15 11 16 12 17 10 18 13 20 4 22 21 24 18 26
REMARK H PARENT 10 19 13 21 4 23 21 25 18 27
REMARK Flexibility Score: inf
ROOT
ATOM      1  C   UNL     1      67.799  33.872  39.963  1.00  0.00     0.184 A 
ATOM      2  C   UNL     1      69.030  33.295  39.603  1.00  0.00     0.208 A 
ATOM      3  C   UNL     1      69.036  32.206  38.717  1.00  0.00     0.238 A 
ATOM      4  O   UNL     1      70.134  31.686  38.381  1.00  0.00    -0.285 OA
ATOM      5  C   UNL     1      67.815  31.706  38.220  1.00  0.00     0.111 A 
ATOM      6  C   UNL     1      67.733  30.611  37.327  1.00  0.00     0.134 A 
ATOM      7  C   UNL     1      66.477  30.167  36.884  1.00  0.00     0.093 A 
ATOM      8  C   UNL     1      65.305  30.797  37.317  1.00  0.00     0.123 A 
ATOM      9  C   UNL     1      65.382  31.877  38.198  1.00  0.00     0.094 A 
ATOM     10  C   UNL     1      66.623  32.335  38.650  1.00  0.00     0.146 A 
ATOM     11  O   UNL     1      66.666  33.368  39.484  1.00  0.00    -0.451 OA
ENDROOT
BRANCH   1  12
ATOM     12  C   UNL     1      67.719  35.034  40.879  1.00  0.00     0.063 A 
ATOM     13  C   UNL     1      67.894  37.432  41.266  1.00  0.00     0.047 A 
ATOM     14  C   UNL     1      67.994  36.332  40.409  1.00  0.00     0.020 A 
ATOM     15  C   UNL     1      67.506  37.253  42.599  1.00  0.00     0.119 A 
ATOM     16  C   UNL     1      67.218  35.969  43.071  1.00  0.00     0.093 A 
ATOM     17  C   UNL     1      67.319  34.859  42.219  1.00  0.00     0.130 A 
BRANCH  15  18
ATOM     18  O   UNL     1      67.401  38.343  43.460  1.00  0.00    -0.508 OA
ATOM     19  H   UNL     1      67.232  38.220  44.451  1.00  0.00     0.293 HD
ENDBRANCH  15  18
BRANCH  17  20
ATOM     20  O   UNL     1      67.033  33.582  42.706  1.00  0.00    -0.507 OA
ATOM     21  H   UNL     1      67.068  32.766  42.108  1.00  0.00     0.293 HD
ENDBRANCH  17  20
ENDBRANCH   1  12
BRANCH   2  22
ATOM     22  O   UNL     1      70.222  33.786  40.142  1.00  0.00    -0.502 OA
ATOM     23  H   UNL     1      70.927  33.178  40.541  1.00  0.00     0.293 HD
ENDBRANCH   2  22
BRANCH   6  24
ATOM     24  O   UNL     1      68.884  29.963  36.878  1.00  0.00    -0.507 OA
ATOM     25  H   UNL     1      69.810  30.325  37.074  1.00  0.00     0.293 HD
ENDBRANCH   6  24
BRANCH   8  26
ATOM     26  O   UNL     1      64.059  30.356  36.877  1.00  0.00    -0.508 OA
ATOM     27  H   UNL     1      63.849  29.370  36.781  1.00  0.00     0.293 HD
ENDBRANCH   8  26
TORSDOF 6
ENDMDL
MODEL 3
REMARK VINA RESULT:    -0.158      1.864      3.751
REMARK INTER + INTRA:          -0.670
REMARK INTER:                  -0.191
REMARK INTRA:                  -0.480
REMARK UNBOUND:                -0.480
REMARK SMILES O=c1c(O)c(-c2ccc(O)cc2O)oc2cc(O)cc(O)c12
REMARK SMILES IDX 5 1 3 2 2 3 1 4 22 5 20 6 19 7 17 8 16 9 15 10 14 11 6 12
REMARK SMILES IDX 8 13 7 14 9 15 11 16 12 17 10 18 13 20 4 22 21 24 18 26
REMARK H PARENT 10 19 13 21 4 23 21 25 18 27
REMARK Flexibility Score: inf
ROOT
ATOM      1  C   UNL     1      68.011  32.681  41.203  1.00  0.00     0.184 A 
ATOM      2  C   UNL     1      69.315  32.583  40.685  1.00  0.00     0.208 A 
ATOM      3  C   UNL     1      69.507  31.953  39.446  1.00  0.00     0.238 A 
ATOM      4  O   UNL     1      70.671  31.867  38.967  1.00  0.00    -0.285 OA
ATOM      5  C   UNL     1      68.399  31.419  38.756  1.00  0.00     0.111 A 
ATOM      6  C   UNL     1      68.507  30.765  37.505  1.00  0.00     0.134 A 
ATOM      7  C   UNL     1      67.356  30.254  36.887  1.00  0.00     0.093 A 
ATOM      8  C   UNL     1      66.102  30.384  37.494  1.00  0.00     0.123 A 
ATOM      9  C   UNL     1      65.992  31.028  38.729  1.00  0.00     0.094 A 
ATOM     10  C   UNL     1      67.126  31.545  39.361  1.00  0.00     0.146 A 
ATOM     11  O   UNL     1      66.991  32.157  40.531  1.00  0.00    -0.451 OA
ENDROOT
BRANCH   1  12
ATOM     12  C   UNL     1      67.733  33.349  42.496  1.00  0.00     0.063 A 
ATOM     13  C   UNL     1      67.428  35.385  43.797  1.00  0.00     0.047 A 
ATOM     14  C   UNL     1      67.717  34.754  42.584  1.00  0.00     0.020 A 
ATOM     15  C   UNL     1      67.140  34.623  44.936  1.00  0.00     0.119 A 
ATOM     16  C   UNL     1      67.141  33.228  44.855  1.00  0.00     0.093 A 
ATOM     17  C   UNL     1      67.432  32.586  43.642  1.00  0.00     0.130 A 
BRANCH  15  18
ATOM     18  O   UNL     1      66.850  35.243  46.149  1.00  0.00    -0.508 OA
ATOM     19  H   UNL     1      67.171  36.182  46.355  1.00  0.00     0.293 HD
ENDBRANCH  15  18
BRANCH  17  20
ATOM     20  O   UNL     1      67.434  31.192  43.578  1.00  0.00    -0.507 OA
ATOM     21  H   UNL     1      67.339  30.622  44.410  1.00  0.00     0.293 HD
ENDBRANCH  17  20
ENDBRANCH   1  12
BRANCH   2  22
ATOM     22  O   UNL     1      70.400  33.086  41.409  1.00  0.00    -0.502 OA
ATOM     23  H   UNL     1      70.459  34.057  41.691  1.00  0.00     0.293 HD
ENDBRANCH   2  22
BRANCH   6  24
ATOM     24  O   UNL     1      69.743  30.621  36.875  1.00  0.00    -0.507 OA
ATOM     25  H   UNL     1      69.874  30.859  35.899  1.00  0.00     0.293 HD
ENDBRANCH   6  24
BRANCH   8  26
ATOM     26  O   UNL     1      64.959  29.876  36.880  1.00  0.00    -0.508 OA
ATOM     27  H   UNL     1      64.880  29.821  35.872  1.00  0.00     0.293 HD
ENDBRANCH   8  26
TORSDOF 6
ENDMDL
MODEL 4
REMARK VINA RESULT:    -0.140      2.299      2.878
REMARK INTER + INTRA:          -0.648
REMARK INTER:                  -0.212
REMARK INTRA:                  -0.437
REMARK UNBOUND:                -0.480
REMARK SMILES O=c1c(O)c(-c2ccc(O)cc2O)oc2cc(O)cc(O)c12
REMARK SMILES IDX 5 1 3 2 2 3 1 4 22 5 20 6 19 7 17 8 16 9 15 10 14 11 6 12
REMARK SMILES IDX 8 13 7 14 9 15 11 16 12 17 10 18 13 20 4 22 21 24 18 26
REMARK H PARENT 10 19 13 21 4 23 21 25 18 27
REMARK Flexibility Score: inf
ROOT
ATOM      1  C   UNL     1      66.065  34.584  39.955  1.00  0.00     0.184 A 
ATOM      2  C   UNL     1      64.714  34.531  39.565  1.00  0.00     0.208 A 
ATOM      3  C   UNL     1      64.299  33.511  38.694  1.00  0.00     0.238 A 
ATOM      4  O   UNL     1      63.088  33.449  38.345  1.00  0.00    -0.285 OA
ATOM      5  C   UNL     1      65.240  32.576  38.217  1.00  0.00     0.111 A 
ATOM      6  C   UNL     1      64.905  31.521  37.335  1.00  0.00     0.134 A 
ATOM      7  C   UNL     1      65.902  30.635  36.900  1.00  0.00     0.093 A 
ATOM      8  C   UNL     1      67.225  30.784  37.329  1.00  0.00     0.123 A 
ATOM      9  C   UNL     1      67.560  31.824  38.200  1.00  0.00     0.094 A 
ATOM     10  C   UNL     1      66.581  32.716  38.646  1.00  0.00     0.146 A 
ATOM     11  O   UNL     1      66.927  33.692  39.477  1.00  0.00    -0.451 OA
ENDROOT
BRANCH   1  12
ATOM     12  C   UNL     1      66.569  35.621  40.885  1.00  0.00     0.063 A 
ATOM     13  C   UNL     1      67.205  37.929  41.328  1.00  0.00     0.047 A 
ATOM     14  C   UNL     1      66.755  36.945  40.444  1.00  0.00     0.020 A 
ATOM     15  C   UNL     1      67.464  37.610  42.666  1.00  0.00     0.119 A 
ATOM     16  C   UNL     1      67.269  36.301  43.116  1.00  0.00     0.093 A 
ATOM     17  C   UNL     1      66.820  35.305  42.236  1.00  0.00     0.130 A 
BRANCH  15  18
ATOM     18  O   UNL     1      67.912  38.584  43.555  1.00  0.00    -0.508 OA
ATOM     19  H   UNL     1      68.835  38.994  43.471  1.00  0.00     0.293 HD
ENDBRANCH  15  18
BRANCH  17  20
ATOM     20  O   UNL     1      66.635  34.001  42.698  1.00  0.00    -0.507 OA
ATOM     21  H   UNL     1      65.735  33.540  42.642  1.00  0.00     0.293 HD
ENDBRANCH  17  20
ENDBRANCH   1  12
BRANCH   2  22
ATOM     22  O   UNL     1      63.811  35.495  40.021  1.00  0.00    -0.502 OA
ATOM     23  H   UNL     1      62.868  35.568  39.659  1.00  0.00     0.293 HD
ENDBRANCH   2  22
BRANCH   6  24
ATOM     24  O   UNL     1      63.594  31.347  36.889  1.00  0.00    -0.507 OA
ATOM     25  H   UNL     1      63.362  30.678  36.164  1.00  0.00     0.293 HD
ENDBRANCH   6  24
BRANCH   8  26
ATOM     26  O   UNL     1      68.216  29.905  36.897  1.00  0.00    -0.508 OA
ATOM     27  H   UNL     1      68.472  29.088  37.438  1.00  0.00     0.293 HD
ENDBRANCH   8  26
TORSDOF 6
ENDMDL
MODEL 5
REMARK VINA RESULT:    -0.137      2.158      2.545
REMARK INTER + INTRA:          -0.645
REMARK INTER:                  -0.168
REMARK INTRA:                  -0.477
REMARK UNBOUND:                -0.480
REMARK SMILES O=c1c(O)c(-c2ccc(O)cc2O)oc2cc(O)cc(O)c12
REMARK SMILES IDX 5 1 3 2 2 3 1 4 22 5 20 6 19 7 17 8 16 9 15 10 14 11 6 12
REMARK SMILES IDX 8 13 7 14 9 15 11 16 12 17 10 18 13 20 4 22 21 24 18 26
REMARK H PARENT 10 19 13 21 4 23 21 25 18 27
REMARK Flexibility Score: inf
ROOT
ATOM      1  C   UNL     1      67.360  33.931  40.557  1.00  0.00     0.184 A 
ATOM      2  C   UNL     1      66.013  33.842  40.160  1.00  0.00     0.208 A 
ATOM      3  C   UNL     1      65.661  32.926  39.156  1.00  0.00     0.238 A 
ATOM      4  O   UNL     1      64.455  32.831  38.798  1.00  0.00    -0.285 OA
ATOM      5  C   UNL     1      66.659  32.131  38.556  1.00  0.00     0.111 A 
ATOM      6  C   UNL     1      66.389  31.188  37.536  1.00  0.00     0.134 A 
ATOM      7  C   UNL     1      67.441  30.440  36.985  1.00  0.00     0.093 A 
ATOM      8  C   UNL     1      68.754  30.617  37.434  1.00  0.00     0.123 A 
ATOM      9  C   UNL     1      69.025  31.547  38.440  1.00  0.00     0.094 A 
ATOM     10  C   UNL     1      67.991  32.301  39.003  1.00  0.00     0.146 A 
ATOM     11  O   UNL     1      68.277  33.174  39.962  1.00  0.00    -0.451 OA
ENDROOT
BRANCH   1  12
ATOM     12  C   UNL     1      67.800  34.862  41.622  1.00  0.00     0.063 A 
ATOM     13  C   UNL     1      67.984  35.431  43.982  1.00  0.00     0.047 A 
ATOM     14  C   UNL     1      67.546  34.568  42.975  1.00  0.00     0.020 A 
ATOM     15  C   UNL     1      68.691  36.594  43.655  1.00  0.00     0.119 A 
ATOM     16  C   UNL     1      68.959  36.888  42.315  1.00  0.00     0.093 A 
ATOM     17  C   UNL     1      68.521  36.028  41.296  1.00  0.00     0.130 A 
BRANCH  15  18
ATOM     18  O   UNL     1      69.133  37.461  44.651  1.00  0.00    -0.508 OA
ATOM     19  H   UNL     1      70.081  37.421  45.006  1.00  0.00     0.293 HD
ENDBRANCH  15  18
BRANCH  17  20
ATOM     20  O   UNL     1      68.792  36.337  39.963  1.00  0.00    -0.507 OA
ATOM     21  H   UNL     1      69.421  37.089  39.709  1.00  0.00     0.293 HD
ENDBRANCH  17  20
ENDBRANCH   1  12
BRANCH   2  22
ATOM     22  O   UNL     1      65.051  34.670  40.743  1.00  0.00    -0.502 OA
ATOM     23  H   UNL     1      64.078  34.652  40.462  1.00  0.00     0.293 HD
ENDBRANCH   2  22
BRANCH   6  24
ATOM     24  O   UNL     1      65.090  30.989  37.067  1.00  0.00    -0.507 OA
ATOM     25  H   UNL     1      64.582  30.134  37.255  1.00  0.00     0.293 HD
ENDBRANCH   6  24
BRANCH   8  26
ATOM     26  O   UNL     1      69.798  29.875  36.886  1.00  0.00    -0.508 OA
ATOM     27  H   UNL     1      70.448  30.283  36.225  1.00  0.00     0.293 HD
ENDBRANCH   8  26
TORSDOF 6
ENDMDL
MODEL 6
REMARK VINA RESULT:    -0.127      3.627      5.388
REMARK INTER + INTRA:          -0.633
REMARK INTER:                  -0.157
REMARK INTRA:                  -0.476
REMARK UNBOUND:                -0.480
REMARK SMILES O=c1c(O)c(-c2ccc(O)cc2O)oc2cc(O)cc(O)c12
REMARK SMILES IDX 5 1 3 2 2 3 1 4 22 5 20 6 19 7 17 8 16 9 15 10 14 11 6 12
REMARK SMILES IDX 8 13 7 14 9 15 11 16 12 17 10 18 13 20 4 22 21 24 18 26
REMARK H PARENT 10 19 13 21 4 23 21 25 18 27
REMARK Flexibility Score: inf
ROOT
ATOM      1  C   UNL     1      69.704  34.192  39.585  1.00  0.00     0.184 A 
ATOM      2  C   UNL     1      70.756  33.317  39.262  1.00  0.00     0.208 A 
ATOM      3  C   UNL     1      70.481  32.181  38.485  1.00  0.00     0.238 A 
ATOM      4  O   UNL     1      71.419  31.393  38.183  1.00  0.00    -0.285 OA
ATOM      5  C   UNL     1      69.160  31.932  38.060  1.00  0.00     0.111 A 
ATOM      6  C   UNL     1      68.797  30.809  37.278  1.00  0.00     0.134 A 
ATOM      7  C   UNL     1      67.458  30.628  36.900  1.00  0.00     0.093 A 
ATOM      8  C   UNL     1      66.477  31.547  37.289  1.00  0.00     0.123 A 
ATOM      9  C   UNL     1      66.831  32.656  38.060  1.00  0.00     0.094 A 
ATOM     10  C   UNL     1      68.160  32.855  38.446  1.00  0.00     0.146 A 
ATOM     11  O   UNL     1      68.468  33.921  39.175  1.00  0.00    -0.451 OA
ENDROOT
BRANCH   1  12
ATOM     12  C   UNL     1      69.926  35.419  40.385  1.00  0.00     0.063 A 
ATOM     13  C   UNL     1      70.739  37.708  40.557  1.00  0.00     0.047 A 
ATOM     14  C   UNL     1      70.554  36.541  39.811  1.00  0.00     0.020 A 
ATOM     15  C   UNL     1      70.291  37.776  41.881  1.00  0.00     0.119 A 
ATOM     16  C   UNL     1      69.655  36.671  42.456  1.00  0.00     0.093 A 
ATOM     17  C   UNL     1      69.466  35.495  41.715  1.00  0.00     0.130 A 
BRANCH  15  18
ATOM     18  O   UNL     1      70.470  38.935  42.633  1.00  0.00    -0.508 OA
ATOM     19  H   UNL     1      71.296  39.073  43.204  1.00  0.00     0.293 HD
ENDBRANCH  15  18
BRANCH  17  20
ATOM     20  O   UNL     1      68.834  34.398  42.303  1.00  0.00    -0.507 OA
ATOM     21  H   UNL     1      69.162  34.001  43.175  1.00  0.00     0.293 HD
ENDBRANCH  17  20
ENDBRANCH   1  12
BRANCH   2  22
ATOM     22  O   UNL     1      72.049  33.567  39.732  1.00  0.00    -0.502 OA
ATOM     23  H   UNL     1      72.868  33.136  39.319  1.00  0.00     0.293 HD
ENDBRANCH   2  22
BRANCH   6  24
ATOM     24  O   UNL     1      69.753  29.875  36.875  1.00  0.00    -0.507 OA
ATOM     25  H   UNL     1      69.838  29.584  35.909  1.00  0.00     0.293 HD
ENDBRANCH   6  24
BRANCH   8  26
ATOM     26  O   UNL     1      65.147  31.368  36.914  1.00  0.00    -0.508 OA
ATOM     27  H   UNL     1      64.810  31.654  36.003  1.00  0.00     0.293 HD
ENDBRANCH   8  26
TORSDOF 6
ENDMDL
MODEL 7
REMARK VINA RESULT:    -0.123      4.336      7.233
REMARK INTER + INTRA:          -0.628
REMARK INTER:                  -0.146
REMARK INTRA:                  -0.482
REMARK UNBOUND:                -0.480
REMARK SMILES O=c1c(O)c(-c2ccc(O)cc2O)oc2cc(O)cc(O)c12
REMARK SMILES IDX 5 1 3 2 2 3 1 4 22 5 20 6 19 7 17 8 16 9 15 10 14 11 6 12
REMARK SMILES IDX 8 13 7 14 9 15 11 16 12 17 10 18 13 20 4 22 21 24 18 26
REMARK H PARENT 10 19 13 21 4 23 21 25 18 27
REMARK Flexibility Score: inf
ROOT
ATOM      1  C   UNL     1      68.020  34.111  38.861  1.00  0.00     0.184 A 
ATOM      2  C   UNL     1      68.611  34.000  40.132  1.00  0.00     0.208 A 
ATOM      3  C   UNL     1      69.539  34.972  40.537  1.00  0.00     0.238 A 
ATOM      4  O   UNL     1      70.068  34.888  41.679  1.00  0.00    -0.285 OA
ATOM      5  C   UNL     1      69.872  36.025  39.660  1.00  0.00     0.111 A 
ATOM      6  C   UNL     1      70.799  37.043  39.989  1.00  0.00     0.134 A 
ATOM      7  C   UNL     1      71.082  38.053  39.057  1.00  0.00     0.093 A 
ATOM      8  C   UNL     1      70.456  38.065  37.806  1.00  0.00     0.123 A 
ATOM      9  C   UNL     1      69.541  37.063  37.478  1.00  0.00     0.094 A 
ATOM     10  C   UNL     1      69.244  36.048  38.392  1.00  0.00     0.146 A 
ATOM     11  O   UNL     1      68.366  35.111  38.055  1.00  0.00    -0.451 OA
ENDROOT
BRANCH   1  12
ATOM     12  C   UNL     1      67.020  33.131  38.376  1.00  0.00     0.063 A 
ATOM     13  C   UNL     1      64.741  32.275  38.361  1.00  0.00     0.047 A 
ATOM     14  C   UNL     1      65.691  33.181  38.838  1.00  0.00     0.020 A 
ATOM     15  C   UNL     1      65.100  31.314  37.409  1.00  0.00     0.119 A 
ATOM     16  C   UNL     1      66.414  31.264  36.935  1.00  0.00     0.093 A 
ATOM     17  C   UNL     1      67.376  32.169  37.410  1.00  0.00     0.130 A 
BRANCH  15  18
ATOM     18  O   UNL     1      64.160  30.406  36.927  1.00  0.00    -0.508 OA
ATOM     19  H   UNL     1      63.926  30.358  35.942  1.00  0.00     0.293 HD
ENDBRANCH  15  18
BRANCH  17  20
ATOM     20  O   UNL     1      68.685  32.104  36.931  1.00  0.00    -0.507 OA
ATOM     21  H   UNL     1      69.392  31.544  37.391  1.00  0.00     0.293 HD
ENDBRANCH  17  20
ENDBRANCH   1  12
BRANCH   2  22
ATOM     22  O   UNL     1      68.292  32.923  40.965  1.00  0.00    -0.502 OA
ATOM     23  H   UNL     1      67.903  33.053  41.892  1.00  0.00     0.293 HD
ENDBRANCH   2  22
BRANCH   6  24
ATOM     24  O   UNL     1      71.439  37.058  41.229  1.00  0.00    -0.507 OA
ATOM     25  H   UNL     1      71.208  36.390  41.956  1.00  0.00     0.293 HD
ENDBRANCH   6  24
BRANCH   8  26
ATOM     26  O   UNL     1      70.738  39.067  36.881  1.00  0.00    -0.508 OA
ATOM     27  H   UNL     1      70.018  39.698  36.548  1.00  0.00     0.293 HD
ENDBRANCH   8  26
TORSDOF 6
ENDMDL
MODEL 8
REMARK VINA RESULT:    -0.121      3.900      4.757
REMARK INTER + INTRA:          -0.626
REMARK INTER:                  -0.193
REMARK INTRA:                  -0.433
REMARK UNBOUND:                -0.480
REMARK SMILES O=c1c(O)c(-c2ccc(O)cc2O)oc2cc(O)cc(O)c12
REMARK SMILES IDX 5 1 3 2 2 3 1 4 22 5 20 6 19 7 17 8 16 9 15 10 14 11 6 12
REMARK SMILES IDX 8 13 7 14 9 15 11 16 12 17 10 18 13 20 4 22 21 24 18 26
REMARK H PARENT 10 19 13 21 4 23 21 25 18 27
REMARK Flexibility Score: inf
ROOT
ATOM      1  C   UNL     1      66.936  35.554  38.276  1.00  0.00     0.184 A 
ATOM      2  C   UNL     1      65.561  35.305  38.117  1.00  0.00     0.208 A 
ATOM      3  C   UNL     1      65.143  34.018  37.744  1.00  0.00     0.238 A 
ATOM      4  O   UNL     1      63.912  33.781  37.607  1.00  0.00    -0.285 OA
ATOM      5  C   UNL     1      66.104  33.011  37.521  1.00  0.00     0.111 A 
ATOM      6  C   UNL     1      65.767  31.690  37.138  1.00  0.00     0.134 A 
ATOM      7  C   UNL     1      66.785  30.747  36.928  1.00  0.00     0.093 A 
ATOM      8  C   UNL     1      68.129  31.098  37.092  1.00  0.00     0.123 A 
ATOM      9  C   UNL     1      68.465  32.400  37.469  1.00  0.00     0.094 A 
ATOM     10  C   UNL     1      67.467  33.355  37.685  1.00  0.00     0.146 A 
ATOM     11  O   UNL     1      67.816  34.583  38.047  1.00  0.00    -0.451 OA
ENDROOT
BRANCH   1  12
ATOM     12  C   UNL     1      67.447  36.883  38.686  1.00  0.00     0.063 A 
ATOM     13  C   UNL     1      67.948  39.206  38.157  1.00  0.00     0.047 A 
ATOM     14  C   UNL     1      67.491  37.946  37.764  1.00  0.00     0.020 A 
ATOM     15  C   UNL     1      68.355  39.428  39.478  1.00  0.00     0.119 A 
ATOM     16  C   UNL     1      68.302  38.382  40.404  1.00  0.00     0.093 A 
ATOM     17  C   UNL     1      67.848  37.112  40.018  1.00  0.00     0.130 A 
BRANCH  15  18
ATOM     18  O   UNL     1      68.811  40.681  39.880  1.00  0.00    -0.508 OA
ATOM     19  H   UNL     1      69.677  40.790  40.393  1.00  0.00     0.293 HD
ENDBRANCH  15  18
BRANCH  17  20
ATOM     20  O   UNL     1      67.805  36.076  40.953  1.00  0.00    -0.507 OA
ATOM     21  H   UNL     1      68.141  35.147  40.731  1.00  0.00     0.293 HD
ENDBRANCH  17  20
ENDBRANCH   1  12
BRANCH   2  22
ATOM     22  O   UNL     1      64.633  36.333  38.306  1.00  0.00    -0.502 OA
ATOM     23  H   UNL     1      63.934  36.565  37.611  1.00  0.00     0.293 HD
ENDBRANCH   2  22
BRANCH   6  24
ATOM     24  O   UNL     1      64.436  31.310  36.967  1.00  0.00    -0.507 OA
ATOM     25  H   UNL     1      63.942  30.768  37.666  1.00  0.00     0.293 HD
ENDBRANCH   6  24
BRANCH   8  26
ATOM     26  O   UNL     1      69.138  30.161  36.883  1.00  0.00    -0.508 OA
ATOM     27  H   UNL     1      69.759  30.221  36.085  1.00  0.00     0.293 HD
ENDBRANCH   8  26
TORSDOF 6
ENDMDL
MODEL 9
REMARK VINA RESULT:    -0.121      3.734      7.265
REMARK INTER + INTRA:          -0.625
REMARK INTER:                  -0.155
REMARK INTRA:                  -0.470
REMARK UNBOUND:                -0.480
REMARK SMILES O=c1c(O)c(-c2ccc(O)cc2O)oc2cc(O)cc(O)c12
REMARK SMILES IDX 5 1 3 2 2 3 1 4 22 5 20 6 19 7 17 8 16 9 15 10 14 11 6 12
REMARK SMILES IDX 8 13 7 14 9 15 11 16 12 17 10 18 13 20 4 22 21 24 18 26
REMARK H PARENT 10 19 13 21 4 23 21 25 18 27
REMARK Flexibility Score: inf
ROOT
ATOM      1  C   UNL     1      69.159  31.608  39.744  1.00  0.00     0.184 A 
ATOM      2  C   UNL     1      70.363  30.910  39.540  1.00  0.00     0.208 A 
ATOM      3  C   UNL     1      71.487  31.255  40.306  1.00  0.00     0.238 A 
ATOM      4  O   UNL     1      72.569  30.630  40.137  1.00  0.00    -0.285 OA
ATOM      5  C   UNL     1      71.394  32.301  41.247  1.00  0.00     0.111 A 
ATOM      6  C   UNL     1      72.480  32.714  42.056  1.00  0.00     0.134 A 
ATOM      7  C   UNL     1      72.307  33.770  42.965  1.00  0.00     0.093 A 
ATOM      8  C   UNL     1      71.073  34.417  43.080  1.00  0.00     0.123 A 
ATOM      9  C   UNL     1      69.999  34.013  42.284  1.00  0.00     0.094 A 
ATOM     10  C   UNL     1      70.149  32.963  41.373  1.00  0.00     0.146 A 
ATOM     11  O   UNL     1      69.110  32.596  40.633  1.00  0.00    -0.451 OA
ENDROOT
BRANCH   1  12
ATOM     12  C   UNL     1      67.930  31.284  38.985  1.00  0.00     0.063 A 
ATOM     13  C   UNL     1      65.930  29.927  38.686  1.00  0.00     0.047 A 
ATOM     14  C   UNL     1      67.104  30.217  39.386  1.00  0.00     0.020 A 
ATOM     15  C   UNL     1      65.557  30.705  37.584  1.00  0.00     0.119 A 
ATOM     16  C   UNL     1      66.363  31.775  37.185  1.00  0.00     0.093 A 
ATOM     17  C   UNL     1      67.546  32.072  37.881  1.00  0.00     0.130 A 
BRANCH  15  18
ATOM     18  O   UNL     1      64.388  30.425  36.880  1.00  0.00    -0.508 OA
ATOM     19  H   UNL     1      64.028  29.480  36.806  1.00  0.00     0.293 HD
ENDBRANCH  15  18
BRANCH  17  20
ATOM     20  O   UNL     1      68.343  33.140  37.468  1.00  0.00    -0.507 OA
ATOM     21  H   UNL     1      69.141  33.448  38.011  1.00  0.00     0.293 HD
ENDBRANCH  17  20
ENDBRANCH   1  12
BRANCH   2  22
ATOM     22  O   UNL     1      70.438  29.904  38.571  1.00  0.00    -0.502 OA
ATOM     23  H   UNL     1      71.263  29.762  38.001  1.00  0.00     0.293 HD
ENDBRANCH   2  22
BRANCH   6  24
ATOM     24  O   UNL     1      73.723  32.088  41.963  1.00  0.00    -0.507 OA
ATOM     25  H   UNL     1      74.390  32.332  41.241  1.00  0.00     0.293 HD
ENDBRANCH   6  24
BRANCH   8  26
ATOM     26  O   UNL     1      70.902  35.465  43.982  1.00  0.00    -0.508 OA
ATOM     27  H   UNL     1      71.653  35.767  44.591  1.00  0.00     0.293 HD
ENDBRANCH   8  26
TORSDOF 6
ENDMDL
