MODEL 1
REMARK VINA RESULT:    -2.783      0.000      0.000
REMARK INTER + INTRA:          -5.449
REMARK INTER:                  -4.898
REMARK INTRA:                  -0.552
REMARK UNBOUND:                -0.552
REMARK SMILES CCCCCCCCCCCCCCC(=O)[O-]
REMARK SMILES IDX 9 1 10 2 11 3 12 4 13 5 14 6 15 7 16 8 17 9 8 10 7 11 6 12
REMARK SMILES IDX 5 13 4 14 3 15 2 16 1 17
REMARK H PARENT
REMARK Flexibility Score: inf
ROOT
ATOM      1  C   UNL     1      22.783   0.401  -2.374  1.00  0.00     0.000 C 
ENDROOT
BRANCH   1   2
ATOM      2  C   UNL     1      23.871   1.275  -3.024  1.00  0.00     0.000 C 
BRANCH   2   3
ATOM      3  C   UNL     1      23.818   2.767  -2.645  1.00  0.00     0.000 C 
BRANCH   3   4
ATOM      4  C   UNL     1      25.174   3.314  -2.165  1.00  0.00     0.000 C 
BRANCH   4   5
ATOM      5  C   UNL     1      25.149   4.832  -1.935  1.00  0.00     0.006 C 
BRANCH   5   6
ATOM      6  C   UNL     1      26.174   5.289  -0.887  1.00  0.00     0.053 C 
BRANCH   6   7
ATOM      7  C   UNL     1      26.715   6.638  -1.242  1.00  0.00     0.041 C 
ATOM      8  O   UNL     1      27.805   7.033  -0.750  1.00  0.00    -0.550 OA
ATOM      9  O   UNL     1      26.041   7.439  -2.154  1.00  0.00    -0.550 OA
ENDBRANCH   6   7
ENDBRANCH   5   6
ENDBRANCH   4   5
ENDBRANCH   3   4
ENDBRANCH   2   3
ENDBRANCH   1   2
BRANCH   1  10
ATOM     10  C   UNL     1      23.150  -1.094  -2.353  1.00  0.00     0.000 C 
BRANCH  10  11
ATOM     11  C   UNL     1      24.319  -1.436  -3.294  1.00  0.00    -0.000 C 
BRANCH  11  12
ATOM     12  C   UNL     1      25.468  -2.229  -2.644  1.00  0.00    -0.000 C 
BRANCH  12  13
ATOM     13  C   UNL     1      25.851  -3.490  -3.438  1.00  0.00    -0.000 C 
BRANCH  13  14
ATOM     14  C   UNL     1      27.343  -3.839  -3.307  1.00  0.00    -0.000 C 
BRANCH  14  15
ATOM     15  C   UNL     1      27.579  -5.321  -2.977  1.00  0.00    -0.000 C 
BRANCH  15  16
ATOM     16  C   UNL     1      27.068  -5.655  -1.570  1.00  0.00    -0.003 C 
ATOM     17  C   UNL     1      27.644  -4.698  -0.531  1.00  0.00     0.004 C 
ENDBRANCH  15  16
ENDBRANCH  14  15
ENDBRANCH  13  14
ENDBRANCH  12  13
ENDBRANCH  11  12
ENDBRANCH  10  11
ENDBRANCH   1  10
TORSDOF 13
ENDMDL
MODEL 2
REMARK VINA RESULT:    -2.678      0.977      1.640
REMARK INTER + INTRA:          -5.264
REMARK INTER:                  -4.820
REMARK INTRA:                  -0.444
REMARK UNBOUND:                -0.552
REMARK SMILES CCCCCCCCCCCCCCC(=O)[O-]
REMARK SMILES IDX 9 1 10 2 11 3 12 4 13 5 14 6 15 7 16 8 17 9 8 10 7 11 6 12
REMARK SMILES IDX 5 13 4 14 3 15 2 16 1 17
REMARK H PARENT
REMARK Flexibility Score: inf
ROOT
ATOM      1  C   UNL     1      23.874   1.419  -2.981  1.00  0.00     0.000 C 
ENDROOT
BRANCH   1   2
ATOM      2  C   UNL     1      23.757   2.900  -2.575  1.00  0.00     0.000 C 
BRANCH   2   3
ATOM      3  C   UNL     1      25.084   3.574  -2.183  1.00  0.00     0.000 C 
BRANCH   3   4
ATOM      4  C   UNL     1      25.001   5.110  -2.181  1.00  0.00     0.000 C 
BRANCH   4   5
ATOM      5  C   UNL     1      26.072   5.758  -1.290  1.00  0.00     0.006 C 
BRANCH   5   6
ATOM      6  C   UNL     1      26.458   7.168  -1.758  1.00  0.00     0.053 C 
BRANCH   6   7
ATOM      7  C   UNL     1      27.556   7.718  -0.903  1.00  0.00     0.041 C 
ATOM      8  O   UNL     1      28.611   7.055  -0.723  1.00  0.00    -0.550 OA
ATOM      9  O   UNL     1      27.435   8.985  -0.347  1.00  0.00    -0.550 OA
ENDBRANCH   6   7
ENDBRANCH   5   6
ENDBRANCH   4   5
ENDBRANCH   3   4
ENDBRANCH   2   3
ENDBRANCH   1   2
BRANCH   1  10
ATOM     10  C   UNL     1      22.617   0.602  -2.632  1.00  0.00     0.000 C 
BRANCH  10  11
ATOM     11  C   UNL     1      22.855  -0.917  -2.696  1.00  0.00    -0.000 C 
BRANCH  11  12
ATOM     12  C   UNL     1      24.246  -1.379  -2.225  1.00  0.00    -0.000 C 
BRANCH  12  13
ATOM     13  C   UNL     1      25.020  -2.153  -3.307  1.00  0.00    -0.000 C 
BRANCH  13  14
ATOM     14  C   UNL     1      26.112  -3.060  -2.716  1.00  0.00    -0.000 C 
BRANCH  14  15
ATOM     15  C   UNL     1      26.188  -4.427  -3.412  1.00  0.00    -0.000 C 
BRANCH  15  16
ATOM     16  C   UNL     1      26.880  -5.460  -2.515  1.00  0.00    -0.003 C 
ATOM     17  C   UNL     1      27.390  -4.820  -1.228  1.00  0.00     0.004 C 
ENDBRANCH  15  16
ENDBRANCH  14  15
ENDBRANCH  13  14
ENDBRANCH  12  13
ENDBRANCH  11  12
ENDBRANCH  10  11
ENDBRANCH   1  10
TORSDOF 13
ENDMDL
MODEL 3
REMARK VINA RESULT:    -2.676      4.348      9.140
REMARK INTER + INTRA:          -5.261
REMARK INTER:                  -4.853
REMARK INTRA:                  -0.408
REMARK UNBOUND:                -0.552
REMARK SMILES CCCCCCCCCCCCCCC(=O)[O-]
REMARK SMILES IDX 9 1 10 2 11 3 12 4 13 5 14 6 15 7 16 8 17 9 8 10 7 11 6 12
REMARK SMILES IDX 5 13 4 14 3 15 2 16 1 17
REMARK H PARENT
REMARK Flexibility Score: inf
ROOT
ATOM      1  C   UNL     1      22.767   0.570  -2.597  1.00  0.00     0.000 C 
ENDROOT
BRANCH   1   2
ATOM      2  C   UNL     1      23.141  -0.906  -2.372  1.00  0.00     0.000 C 
BRANCH   2   3
ATOM      3  C   UNL     1      24.268  -1.437  -3.276  1.00  0.00     0.000 C 
BRANCH   3   4
ATOM      4  C   UNL     1      25.246  -2.365  -2.536  1.00  0.00     0.000 C 
BRANCH   4   5
ATOM      5  C   UNL     1      25.917  -3.382  -3.472  1.00  0.00     0.006 C 
BRANCH   5   6
ATOM      6  C   UNL     1      27.293  -3.835  -2.965  1.00  0.00     0.053 C 
BRANCH   6   7
ATOM      7  C   UNL     1      27.139  -4.881  -1.906  1.00  0.00     0.041 C 
ATOM      8  O   UNL     1      26.589  -5.980  -2.177  1.00  0.00    -0.550 OA
ATOM      9  O   UNL     1      27.648  -4.660  -0.633  1.00  0.00    -0.550 OA
ENDBRANCH   6   7
ENDBRANCH   5   6
ENDBRANCH   4   5
ENDBRANCH   3   4
ENDBRANCH   2   3
ENDBRANCH   1   2
BRANCH   1  10
ATOM     10  C   UNL     1      23.971   1.437  -3.008  1.00  0.00     0.000 C 
BRANCH  10  11
ATOM     11  C   UNL     1      23.812   2.913  -2.602  1.00  0.00    -0.000 C 
BRANCH  11  12
ATOM     12  C   UNL     1      25.036   3.530  -1.900  1.00  0.00    -0.000 C 
BRANCH  12  13
ATOM     13  C   UNL     1      25.141   5.052  -2.104  1.00  0.00    -0.000 C 
BRANCH  13  14
ATOM     14  C   UNL     1      26.203   5.696  -1.198  1.00  0.00    -0.000 C 
BRANCH  14  15
ATOM     15  C   UNL     1      26.446   7.176  -1.530  1.00  0.00    -0.000 C 
BRANCH  15  16
ATOM     16  C   UNL     1      27.863   7.601  -1.129  1.00  0.00    -0.003 C 
ATOM     17  C   UNL     1      28.486   8.510  -2.185  1.00  0.00     0.004 C 
ENDBRANCH  15  16
ENDBRANCH  14  15
ENDBRANCH  13  14
ENDBRANCH  12  13
ENDBRANCH  11  12
ENDBRANCH  10  11
ENDBRANCH   1  10
TORSDOF 13
ENDMDL
MODEL 4
REMARK VINA RESULT:    -2.204      4.472     10.056
REMARK INTER + INTRA:          -4.430
REMARK INTER:                  -3.717
REMARK INTRA:                  -0.713
REMARK UNBOUND:                -0.552
REMARK SMILES CCCCCCCCCCCCCCC(=O)[O-]
REMARK SMILES IDX 9 1 10 2 11 3 12 4 13 5 14 6 15 7 16 8 17 9 8 10 7 11 6 12
REMARK SMILES IDX 5 13 4 14 3 15 2 16 1 17
REMARK H PARENT
REMARK Flexibility Score: inf
ROOT
ATOM      1  C   UNL     1      26.158   4.617  -0.901  1.00  0.00     0.000 C 
ENDROOT
BRANCH   1   2
ATOM      2  C   UNL     1      25.463   3.635  -1.862  1.00  0.00     0.000 C 
BRANCH   2   3
ATOM      3  C   UNL     1      24.172   4.164  -2.512  1.00  0.00     0.000 C 
BRANCH   3   4
ATOM      4  C   UNL     1      23.202   3.043  -2.923  1.00  0.00     0.000 C 
BRANCH   4   5
ATOM      5  C   UNL     1      23.817   1.644  -2.764  1.00  0.00     0.006 C 
BRANCH   5   6
ATOM      6  C   UNL     1      22.788   0.520  -2.951  1.00  0.00     0.053 C 
BRANCH   6   7
ATOM      7  C   UNL     1      23.343  -0.781  -2.464  1.00  0.00     0.041 C 
ATOM      8  O   UNL     1      22.871  -1.325  -1.431  1.00  0.00    -0.550 OA
ATOM      9  O   UNL     1      24.349  -1.419  -3.179  1.00  0.00    -0.550 OA
ENDBRANCH   6   7
ENDBRANCH   5   6
ENDBRANCH   4   5
ENDBRANCH   3   4
ENDBRANCH   2   3
ENDBRANCH   1   2
BRANCH   1  10
ATOM     10  C   UNL     1      26.174   6.062  -1.431  1.00  0.00     0.000 C 
BRANCH  10  11
ATOM     11  C   UNL     1      27.344   6.890  -0.871  1.00  0.00    -0.000 C 
BRANCH  11  12
ATOM     12  C   UNL     1      27.050   8.390  -0.687  1.00  0.00    -0.000 C 
BRANCH  12  13
ATOM     13  C   UNL     1      28.307   9.211  -0.344  1.00  0.00    -0.000 C 
BRANCH  13  14
ATOM     14  C   UNL     1      29.123   9.587  -1.592  1.00  0.00    -0.000 C 
BRANCH  14  15
ATOM     15  C   UNL     1      28.684  10.927  -2.204  1.00  0.00    -0.000 C 
BRANCH  15  16
ATOM     16  C   UNL     1      28.192  10.735  -3.644  1.00  0.00    -0.003 C 
ATOM     17  C   UNL     1      28.259   9.268  -4.059  1.00  0.00     0.004 C 
ENDBRANCH  15  16
ENDBRANCH  14  15
ENDBRANCH  13  14
ENDBRANCH  12  13
ENDBRANCH  11  12
ENDBRANCH  10  11
ENDBRANCH   1  10
TORSDOF 13
ENDMDL
MODEL 5
REMARK VINA RESULT:    -2.057      1.650      3.480
REMARK INTER + INTRA:          -4.173
REMARK INTER:                  -3.773
REMARK INTRA:                  -0.399
REMARK UNBOUND:                -0.552
REMARK SMILES CCCCCCCCCCCCCCC(=O)[O-]
REMARK SMILES IDX 9 1 10 2 11 3 12 4 13 5 14 6 15 7 16 8 17 9 8 10 7 11 6 12
REMARK SMILES IDX 5 13 4 14 3 15 2 16 1 17
REMARK H PARENT
REMARK Flexibility Score: inf
ROOT
ATOM      1  C   UNL     1      24.861   3.593  -2.541  1.00  0.00     0.000 C 
ENDROOT
BRANCH   1   2
ATOM      2  C   UNL     1      25.144   4.228  -1.167  1.00  0.00     0.000 C 
BRANCH   2   3
ATOM      3  C   UNL     1      26.496   4.955  -1.053  1.00  0.00     0.000 C 
BRANCH   3   4
ATOM      4  C   UNL     1      26.373   6.481  -1.205  1.00  0.00     0.000 C 
BRANCH   4   5
ATOM      5  C   UNL     1      27.681   7.215  -0.873  1.00  0.00     0.006 C 
BRANCH   5   6
ATOM      6  C   UNL     1      28.104   8.199  -1.973  1.00  0.00     0.053 C 
BRANCH   6   7
ATOM      7  C   UNL     1      28.168   9.591  -1.429  1.00  0.00     0.041 C 
ATOM      8  O   UNL     1      28.313  10.570  -2.208  1.00  0.00    -0.550 OA
ATOM      9  O   UNL     1      28.016   9.813  -0.067  1.00  0.00    -0.550 OA
ENDBRANCH   6   7
ENDBRANCH   5   6
ENDBRANCH   4   5
ENDBRANCH   3   4
ENDBRANCH   2   3
ENDBRANCH   1   2
BRANCH   1  10
ATOM     10  C   UNL     1      23.608   2.699  -2.540  1.00  0.00     0.000 C 
BRANCH  10  11
ATOM     11  C   UNL     1      23.914   1.240  -2.922  1.00  0.00    -0.000 C 
BRANCH  11  12
ATOM     12  C   UNL     1      22.765   0.246  -2.669  1.00  0.00    -0.000 C 
BRANCH  12  13
ATOM     13  C   UNL     1      23.259  -1.188  -2.405  1.00  0.00    -0.000 C 
BRANCH  13  14
ATOM     14  C   UNL     1      24.627  -1.468  -3.047  1.00  0.00    -0.000 C 
BRANCH  14  15
ATOM     15  C   UNL     1      25.053  -2.938  -2.918  1.00  0.00    -0.000 C 
BRANCH  15  16
ATOM     16  C   UNL     1      26.556  -3.050  -2.637  1.00  0.00    -0.003 C 
ATOM     17  C   UNL     1      26.879  -4.323  -1.861  1.00  0.00     0.004 C 
ENDBRANCH  15  16
ENDBRANCH  14  15
ENDBRANCH  13  14
ENDBRANCH  12  13
ENDBRANCH  11  12
ENDBRANCH  10  11
ENDBRANCH   1  10
TORSDOF 13
ENDMDL
MODEL 6
REMARK VINA RESULT:    -1.950      4.133      9.422
REMARK INTER + INTRA:          -3.983
REMARK INTER:                  -3.513
REMARK INTRA:                  -0.470
REMARK UNBOUND:                -0.552
REMARK SMILES CCCCCCCCCCCCCCC(=O)[O-]
REMARK SMILES IDX 9 1 10 2 11 3 12 4 13 5 14 6 15 7 16 8 17 9 8 10 7 11 6 12
REMARK SMILES IDX 5 13 4 14 3 15 2 16 1 17
REMARK H PARENT
REMARK Flexibility Score: inf
ROOT
ATOM      1  C   UNL     1      23.841   2.967  -2.483  1.00  0.00     0.000 C 
ENDROOT
BRANCH   1   2
ATOM      2  C   UNL     1      23.872   1.508  -2.975  1.00  0.00     0.000 C 
BRANCH   2   3
ATOM      3  C   UNL     1      22.715   0.627  -2.470  1.00  0.00     0.000 C 
BRANCH   3   4
ATOM      4  C   UNL     1      22.893  -0.859  -2.825  1.00  0.00     0.000 C 
BRANCH   4   5
ATOM      5  C   UNL     1      24.265  -1.407  -2.403  1.00  0.00     0.006 C 
BRANCH   5   6
ATOM      6  C   UNL     1      25.054  -1.998  -3.580  1.00  0.00     0.053 C 
BRANCH   6   7
ATOM      7  C   UNL     1      25.804  -3.217  -3.144  1.00  0.00     0.041 C 
ATOM      8  O   UNL     1      26.216  -3.317  -1.958  1.00  0.00    -0.550 OA
ATOM      9  O   UNL     1      26.005  -4.264  -4.033  1.00  0.00    -0.550 OA
ENDBRANCH   6   7
ENDBRANCH   5   6
ENDBRANCH   4   5
ENDBRANCH   3   4
ENDBRANCH   2   3
ENDBRANCH   1   2
BRANCH   1  10
ATOM     10  C   UNL     1      25.246   3.563  -2.291  1.00  0.00     0.000 C 
BRANCH  10  11
ATOM     11  C   UNL     1      25.384   4.359  -0.980  1.00  0.00    -0.000 C 
BRANCH  11  12
ATOM     12  C   UNL     1      26.685   5.172  -0.846  1.00  0.00    -0.000 C 
BRANCH  12  13
ATOM     13  C   UNL     1      26.508   6.654  -1.219  1.00  0.00    -0.000 C 
BRANCH  13  14
ATOM     14  C   UNL     1      27.814   7.455  -1.092  1.00  0.00    -0.000 C 
BRANCH  14  15
ATOM     15  C   UNL     1      27.583   8.894  -0.607  1.00  0.00    -0.000 C 
BRANCH  15  16
ATOM     16  C   UNL     1      28.263   9.902  -1.541  1.00  0.00    -0.003 C 
ATOM     17  C   UNL     1      28.823   9.213  -2.782  1.00  0.00     0.004 C 
ENDBRANCH  15  16
ENDBRANCH  14  15
ENDBRANCH  13  14
ENDBRANCH  12  13
ENDBRANCH  11  12
ENDBRANCH  10  11
ENDBRANCH   1  10
TORSDOF 13
ENDMDL
MODEL 7
REMARK VINA RESULT:    -1.392      2.970      5.977
REMARK INTER + INTRA:          -3.001
REMARK INTER:                  -2.430
REMARK INTRA:                  -0.571
REMARK UNBOUND:                -0.552
REMARK SMILES CCCCCCCCCCCCCCC(=O)[O-]
REMARK SMILES IDX 9 1 10 2 11 3 12 4 13 5 14 6 15 7 16 8 17 9 8 10 7 11 6 12
REMARK SMILES IDX 5 13 4 14 3 15 2 16 1 17
REMARK H PARENT
REMARK Flexibility Score: inf
ROOT
ATOM      1  C   UNL     1      26.725   4.972  -0.740  1.00  0.00     0.000 C 
ENDROOT
BRANCH   1   2
ATOM      2  C   UNL     1      26.327   6.440  -0.976  1.00  0.00     0.000 C 
BRANCH   2   3
ATOM      3  C   UNL     1      27.505   7.407  -1.195  1.00  0.00     0.000 C 
BRANCH   3   4
ATOM      4  C   UNL     1      27.233   8.447  -2.295  1.00  0.00     0.000 C 
BRANCH   4   5
ATOM      5  C   UNL     1      28.523   9.063  -2.857  1.00  0.00     0.006 C 
BRANCH   5   6
ATOM      6  C   UNL     1      28.267  10.349  -3.655  1.00  0.00     0.053 C 
BRANCH   6   7
ATOM      7  C   UNL     1      28.735  11.542  -2.883  1.00  0.00     0.041 C 
ATOM      8  O   UNL     1      28.733  12.683  -3.417  1.00  0.00    -0.550 OA
ATOM      9  O   UNL     1      29.125  11.403  -1.557  1.00  0.00    -0.550 OA
ENDBRANCH   6   7
ENDBRANCH   5   6
ENDBRANCH   4   5
ENDBRANCH   3   4
ENDBRANCH   2   3
ENDBRANCH   1   2
BRANCH   1  10
ATOM     10  C   UNL     1      26.008   3.997  -1.691  1.00  0.00     0.000 C 
BRANCH  10  11
ATOM     11  C   UNL     1      24.672   4.550  -2.218  1.00  0.00    -0.000 C 
BRANCH  11  12
ATOM     12  C   UNL     1      23.753   3.509  -2.883  1.00  0.00    -0.000 C 
BRANCH  12  13
ATOM     13  C   UNL     1      23.888   2.106  -2.263  1.00  0.00    -0.000 C 
BRANCH  13  14
ATOM     14  C   UNL     1      23.452   0.991  -3.228  1.00  0.00    -0.000 C 
BRANCH  14  15
ATOM     15  C   UNL     1      22.441   0.023  -2.595  1.00  0.00    -0.000 C 
BRANCH  15  16
ATOM     16  C   UNL     1      23.137  -1.255  -2.110  1.00  0.00    -0.003 C 
ATOM     17  C   UNL     1      24.324  -1.608  -3.000  1.00  0.00     0.004 C 
ENDBRANCH  15  16
ENDBRANCH  14  15
ENDBRANCH  13  14
ENDBRANCH  12  13
ENDBRANCH  11  12
ENDBRANCH  10  11
ENDBRANCH   1  10
TORSDOF 13
ENDMDL
MODEL 8
REMARK VINA RESULT:    -0.804      5.790     10.654
REMARK INTER + INTRA:          -1.967
REMARK INTER:                  -1.722
REMARK INTRA:                  -0.245
REMARK UNBOUND:                -0.552
REMARK SMILES CCCCCCCCCCCCCCC(=O)[O-]
REMARK SMILES IDX 9 1 10 2 11 3 12 4 13 5 14 6 15 7 16 8 17 9 8 10 7 11 6 12
REMARK SMILES IDX 5 13 4 14 3 15 2 16 1 17
REMARK H PARENT
REMARK Flexibility Score: inf
ROOT
ATOM      1  C   UNL     1      27.983   6.812  -0.359  1.00  0.00     0.000 C 
ENDROOT
BRANCH   1   2
ATOM      2  C   UNL     1      29.125   5.791  -0.202  1.00  0.00     0.000 C 
BRANCH   2   3
ATOM      3  C   UNL     1      28.673   4.324  -0.075  1.00  0.00     0.000 C 
BRANCH   3   4
ATOM      4  C   UNL     1      27.148   4.175   0.057  1.00  0.00     0.000 C 
BRANCH   4   5
ATOM      5  C   UNL     1      26.427   4.264  -1.297  1.00  0.00     0.006 C 
BRANCH   5   6
ATOM      6  C   UNL     1      24.905   4.106  -1.169  1.00  0.00     0.053 C 
BRANCH   6   7
ATOM      7  C   UNL     1      24.270   4.070  -2.523  1.00  0.00     0.041 C 
ATOM      8  O   UNL     1      24.257   5.102  -3.244  1.00  0.00    -0.550 OA
ATOM      9  O   UNL     1      23.736   2.884  -3.009  1.00  0.00    -0.550 OA
ENDBRANCH   6   7
ENDBRANCH   5   6
ENDBRANCH   4   5
ENDBRANCH   3   4
ENDBRANCH   2   3
ENDBRANCH   1   2
BRANCH   1  10
ATOM     10  C   UNL     1      28.016   7.543  -1.713  1.00  0.00     0.000 C 
BRANCH  10  11
ATOM     11  C   UNL     1      26.665   8.182  -2.081  1.00  0.00    -0.000 C 
BRANCH  11  12
ATOM     12  C   UNL     1      26.632   8.894  -3.446  1.00  0.00    -0.000 C 
BRANCH  12  13
ATOM     13  C   UNL     1      28.036   9.195  -4.000  1.00  0.00    -0.000 C 
BRANCH  13  14
ATOM     14  C   UNL     1      28.753  10.307  -3.217  1.00  0.00    -0.000 C 
BRANCH  14  15
ATOM     15  C   UNL     1      29.043  11.546  -4.079  1.00  0.00    -0.000 C 
BRANCH  15  16
ATOM     16  C   UNL     1      28.299  12.774  -3.539  1.00  0.00    -0.003 C 
ATOM     17  C   UNL     1      29.011  14.066  -3.930  1.00  0.00     0.004 C 
ENDBRANCH  15  16
ENDBRANCH  14  15
ENDBRANCH  13  14
ENDBRANCH  12  13
ENDBRANCH  11  12
ENDBRANCH  10  11
ENDBRANCH   1  10
TORSDOF 13
ENDMDL
MODEL 9
REMARK VINA RESULT:    -0.738      5.570     10.237
REMARK INTER + INTRA:          -1.851
REMARK INTER:                  -2.202
REMARK INTRA:                   0.350
REMARK UNBOUND:                -0.552
REMARK SMILES CCCCCCCCCCCCCCC(=O)[O-]
REMARK SMILES IDX 9 1 10 2 11 3 12 4 13 5 14 6 15 7 16 8 17 9 8 10 7 11 6 12
REMARK SMILES IDX 5 13 4 14 3 15 2 16 1 17
REMARK H PARENT
REMARK Flexibility Score: inf
ROOT
ATOM      1  C   UNL     1      27.386   7.594  -2.059  1.00  0.00     0.000 C 
ENDROOT
BRANCH   1   2
ATOM      2  C   UNL     1      27.239   6.715  -0.804  1.00  0.00     0.000 C 
BRANCH   2   3
ATOM      3  C   UNL     1      28.329   5.642  -0.629  1.00  0.00     0.000 C 
BRANCH   3   4
ATOM      4  C   UNL     1      27.775   4.299  -0.125  1.00  0.00     0.000 C 
BRANCH   4   5
ATOM      5  C   UNL     1      26.750   3.683  -1.090  1.00  0.00     0.006 C 
BRANCH   5   6
ATOM      6  C   UNL     1      25.412   4.436  -1.091  1.00  0.00     0.053 C 
BRANCH   6   7
ATOM      7  C   UNL     1      24.600   4.051  -2.287  1.00  0.00     0.041 C 
ATOM      8  O   UNL     1      24.214   4.931  -3.100  1.00  0.00    -0.550 OA
ATOM      9  O   UNL     1      24.310   2.715  -2.530  1.00  0.00    -0.550 OA
ENDBRANCH   6   7
ENDBRANCH   5   6
ENDBRANCH   4   5
ENDBRANCH   3   4
ENDBRANCH   2   3
ENDBRANCH   1   2
BRANCH   1  10
ATOM     10  C   UNL     1      26.051   7.822  -2.790  1.00  0.00     0.000 C 
BRANCH  10  11
ATOM     11  C   UNL     1      26.171   8.818  -3.957  1.00  0.00    -0.000 C 
BRANCH  11  12
ATOM     12  C   UNL     1      27.559   9.461  -4.125  1.00  0.00    -0.000 C 
BRANCH  12  13
ATOM     13  C   UNL     1      27.541  10.989  -3.934  1.00  0.00    -0.000 C 
BRANCH  13  14
ATOM     14  C   UNL     1      28.909  11.546  -3.510  1.00  0.00    -0.000 C 
BRANCH  14  15
ATOM     15  C   UNL     1      29.121  11.504  -1.989  1.00  0.00    -0.000 C 
BRANCH  15  16
ATOM     16  C   UNL     1      28.557  10.209  -1.394  1.00  0.00    -0.003 C 
ATOM     17  C   UNL     1      29.009  10.023   0.052  1.00  0.00     0.004 C 
ENDBRANCH  15  16
ENDBRANCH  14  15
ENDBRANCH  13  14
ENDBRANCH  12  13
ENDBRANCH  11  12
ENDBRANCH  10  11
ENDBRANCH   1  10
TORSDOF 13
ENDMDL
