MODEL 1
REMARK VINA RESULT:    -4.021      0.000      0.000
REMARK INTER + INTRA:          -4.782
REMARK INTER:                  -4.726
REMARK INTRA:                  -0.056
REMARK UNBOUND:                -0.056
REMARK SMILES O=C([O-])CCC(=O)[O-]
REMARK SMILES IDX 4 1 2 2 1 3 3 4 5 5 6 6 7 7 8 8
REMARK H PARENT
REMARK Flexibility Score: inf
ROOT
ATOM      1  C   UNL     1      10.436  10.563   4.725  1.00  0.00     0.059 C 
ENDROOT
BRANCH   1   2
ATOM      2  C   UNL     1       9.524   9.444   5.125  1.00  0.00     0.042 C 
ATOM      3  O   UNL     1       9.699   8.287   4.659  1.00  0.00    -0.550 OA
ATOM      4  O   UNL     1       8.456   9.687   5.979  1.00  0.00    -0.550 OA
ENDBRANCH   1   2
BRANCH   1   5
ATOM      5  C   UNL     1       9.666  11.873   4.520  1.00  0.00     0.059 C 
BRANCH   5   6
ATOM      6  C   UNL     1      10.392  13.040   5.115  1.00  0.00     0.042 C 
ATOM      7  O   UNL     1      10.150  13.401   6.297  1.00  0.00    -0.550 OA
ATOM      8  O   UNL     1      11.305  13.756   4.351  1.00  0.00    -0.550 OA
ENDBRANCH   5   6
ENDBRANCH   1   5
TORSDOF 3
ENDMDL
MODEL 2
REMARK VINA RESULT:    -4.019     13.879     14.229
REMARK INTER + INTRA:          -4.780
REMARK INTER:                  -4.667
REMARK INTRA:                  -0.112
REMARK UNBOUND:                -0.056
REMARK SMILES O=C([O-])CCC(=O)[O-]
REMARK SMILES IDX 4 1 2 2 1 3 3 4 5 5 6 6 7 7 8 8
REMARK H PARENT
REMARK Flexibility Score: inf
ROOT
ATOM      1  C   UNL     1      20.619  10.132  12.384  1.00  0.00     0.059 C 
ENDROOT
BRANCH   1   2
ATOM      2  C   UNL     1      19.865   9.264  13.344  1.00  0.00     0.042 C 
ATOM      3  O   UNL     1      18.919   9.744  14.023  1.00  0.00    -0.550 OA
ATOM      4  O   UNL     1      20.233   7.936  13.521  1.00  0.00    -0.550 OA
ENDBRANCH   1   2
BRANCH   1   5
ATOM      5  C   UNL     1      21.939   9.483  11.954  1.00  0.00     0.059 C 
BRANCH   5   6
ATOM      6  C   UNL     1      23.111  10.090  12.663  1.00  0.00     0.042 C 
ATOM      7  O   UNL     1      23.530   9.587  13.739  1.00  0.00    -0.550 OA
ATOM      8  O   UNL     1      23.713  11.235  12.158  1.00  0.00    -0.550 OA
ENDBRANCH   5   6
ENDBRANCH   1   5
TORSDOF 3
ENDMDL
MODEL 3
REMARK VINA RESULT:    -4.014     13.466     13.836
REMARK INTER + INTRA:          -4.774
REMARK INTER:                  -4.656
REMARK INTRA:                  -0.118
REMARK UNBOUND:                -0.056
REMARK SMILES O=C([O-])CCC(=O)[O-]
REMARK SMILES IDX 4 1 2 2 1 3 3 4 5 5 6 6 7 7 8 8
REMARK H PARENT
REMARK Flexibility Score: inf
ROOT
ATOM      1  C   UNL     1      20.784   8.431  13.103  1.00  0.00     0.059 C 
ENDROOT
BRANCH   1   2
ATOM      2  C   UNL     1      19.589   8.978  13.822  1.00  0.00     0.042 C 
ATOM      3  O   UNL     1      19.058  10.054  13.441  1.00  0.00    -0.550 OA
ATOM      4  O   UNL     1      19.085   8.320  14.937  1.00  0.00    -0.550 OA
ENDBRANCH   1   2
BRANCH   1   5
ATOM      5  C   UNL     1      22.018   9.318  13.305  1.00  0.00     0.059 C 
BRANCH   5   6
ATOM      6  C   UNL     1      22.321  10.132  12.084  1.00  0.00     0.042 C 
ATOM      7  O   UNL     1      23.296  10.928  12.080  1.00  0.00    -0.550 OA
ATOM      8  O   UNL     1      21.501  10.041  10.967  1.00  0.00    -0.550 OA
ENDBRANCH   5   6
ENDBRANCH   1   5
TORSDOF 3
ENDMDL
MODEL 4
REMARK VINA RESULT:    -4.010     13.894     14.512
REMARK INTER + INTRA:          -4.769
REMARK INTER:                  -4.659
REMARK INTRA:                  -0.110
REMARK UNBOUND:                -0.056
REMARK SMILES O=C([O-])CCC(=O)[O-]
REMARK SMILES IDX 4 1 2 2 1 3 3 4 5 5 6 6 7 7 8 8
REMARK H PARENT
REMARK Flexibility Score: inf
ROOT
ATOM      1  C   UNL     1      21.959   9.453  11.982  1.00  0.00     0.059 C 
ENDROOT
BRANCH   1   2
ATOM      2  C   UNL     1      23.122  10.059  12.707  1.00  0.00     0.042 C 
ATOM      3  O   UNL     1      23.426   9.658  13.861  1.00  0.00    -0.550 OA
ATOM      4  O   UNL     1      23.844  11.092  12.125  1.00  0.00    -0.550 OA
ENDBRANCH   1   2
BRANCH   1   5
ATOM      5  C   UNL     1      20.634  10.101  12.398  1.00  0.00     0.059 C 
BRANCH   5   6
ATOM      6  C   UNL     1      19.857   9.223  13.330  1.00  0.00     0.042 C 
ATOM      7  O   UNL     1      18.939   9.709  14.041  1.00  0.00    -0.550 OA
ATOM      8  O   UNL     1      20.174   7.875  13.443  1.00  0.00    -0.550 OA
ENDBRANCH   5   6
ENDBRANCH   1   5
TORSDOF 3
ENDMDL
MODEL 5
REMARK VINA RESULT:    -3.987     13.496     14.145
REMARK INTER + INTRA:          -4.742
REMARK INTER:                  -4.622
REMARK INTRA:                  -0.120
REMARK UNBOUND:                -0.056
REMARK SMILES O=C([O-])CCC(=O)[O-]
REMARK SMILES IDX 4 1 2 2 1 3 3 4 5 5 6 6 7 7 8 8
REMARK H PARENT
REMARK Flexibility Score: inf
ROOT
ATOM      1  C   UNL     1      22.045   9.340  13.322  1.00  0.00     0.059 C 
ENDROOT
BRANCH   1   2
ATOM      2  C   UNL     1      22.355  10.154  12.104  1.00  0.00     0.042 C 
ATOM      3  O   UNL     1      23.365  10.905  12.085  1.00  0.00    -0.550 OA
ATOM      4  O   UNL     1      21.507  10.113  11.004  1.00  0.00    -0.550 OA
ENDBRANCH   1   2
BRANCH   1   5
ATOM      5  C   UNL     1      20.821   8.442  13.105  1.00  0.00     0.059 C 
BRANCH   5   6
ATOM      6  C   UNL     1      19.615   8.967  13.822  1.00  0.00     0.042 C 
ATOM      7  O   UNL     1      19.075  10.041  13.450  1.00  0.00    -0.550 OA
ATOM      8  O   UNL     1      19.114   8.291  14.928  1.00  0.00    -0.550 OA
ENDBRANCH   5   6
ENDBRANCH   1   5
TORSDOF 3
ENDMDL
MODEL 6
REMARK VINA RESULT:    -3.955     13.856     14.490
REMARK INTER + INTRA:          -4.704
REMARK INTER:                  -4.630
REMARK INTRA:                  -0.074
REMARK UNBOUND:                -0.056
REMARK SMILES O=C([O-])CCC(=O)[O-]
REMARK SMILES IDX 4 1 2 2 1 3 3 4 5 5 6 6 7 7 8 8
REMARK H PARENT
REMARK Flexibility Score: inf
ROOT
ATOM      1  C   UNL     1      21.502   9.379  12.087  1.00  0.00     0.059 C 
ENDROOT
BRANCH   1   2
ATOM      2  C   UNL     1      22.852   9.836  12.548  1.00  0.00     0.042 C 
ATOM      3  O   UNL     1      23.300  10.955  12.185  1.00  0.00    -0.550 OA
ATOM      4  O   UNL     1      23.633   9.009  13.346  1.00  0.00    -0.550 OA
ENDBRANCH   1   2
BRANCH   1   5
ATOM      5  C   UNL     1      20.879   8.379  13.068  1.00  0.00     0.059 C 
BRANCH   5   6
ATOM      6  C   UNL     1      19.696   8.962  13.777  1.00  0.00     0.042 C 
ATOM      7  O   UNL     1      19.209  10.060  13.398  1.00  0.00    -0.550 OA
ATOM      8  O   UNL     1      19.156   8.315  14.881  1.00  0.00    -0.550 OA
ENDBRANCH   5   6
ENDBRANCH   1   5
TORSDOF 3
ENDMDL
MODEL 7
REMARK VINA RESULT:    -3.952      0.184      4.245
REMARK INTER + INTRA:          -4.701
REMARK INTER:                  -4.638
REMARK INTRA:                  -0.063
REMARK UNBOUND:                -0.056
REMARK SMILES O=C([O-])CCC(=O)[O-]
REMARK SMILES IDX 4 1 2 2 1 3 3 4 5 5 6 6 7 7 8 8
REMARK H PARENT
REMARK Flexibility Score: inf
ROOT
ATOM      1  C   UNL     1       9.588  11.850   4.415  1.00  0.00     0.059 C 
ENDROOT
BRANCH   1   2
ATOM      2  C   UNL     1      10.249  13.064   4.991  1.00  0.00     0.042 C 
ATOM      3  O   UNL     1      10.148  13.317   6.220  1.00  0.00    -0.550 OA
ATOM      4  O   UNL     1      10.943  13.938   4.164  1.00  0.00    -0.550 OA
ENDBRANCH   1   2
BRANCH   1   5
ATOM      5  C   UNL     1      10.385  10.576   4.717  1.00  0.00     0.059 C 
BRANCH   5   6
ATOM      6  C   UNL     1       9.490   9.448   5.129  1.00  0.00     0.042 C 
ATOM      7  O   UNL     1       9.672   8.292   4.663  1.00  0.00    -0.550 OA
ATOM      8  O   UNL     1       8.431   9.681   5.997  1.00  0.00    -0.550 OA
ENDBRANCH   5   6
ENDBRANCH   1   5
TORSDOF 3
ENDMDL
MODEL 8
REMARK VINA RESULT:    -3.838     14.347     14.801
REMARK INTER + INTRA:          -4.568
REMARK INTER:                  -4.451
REMARK INTRA:                  -0.117
REMARK UNBOUND:                -0.056
REMARK SMILES O=C([O-])CCC(=O)[O-]
REMARK SMILES IDX 4 1 2 2 1 3 3 4 5 5 6 6 7 7 8 8
REMARK H PARENT
REMARK Flexibility Score: inf
ROOT
ATOM      1  C   UNL     1      21.383   9.044  13.549  1.00  0.00     0.059 C 
ENDROOT
BRANCH   1   2
ATOM      2  C   UNL     1      20.316   9.861  12.888  1.00  0.00     0.042 C 
ATOM      3  O   UNL     1      19.145   9.867  13.351  1.00  0.00    -0.550 OA
ATOM      4  O   UNL     1      20.604  10.582  11.736  1.00  0.00    -0.550 OA
ENDBRANCH   1   2
BRANCH   1   5
ATOM      5  C   UNL     1      22.644   8.953  12.682  1.00  0.00     0.059 C 
BRANCH   5   6
ATOM      6  C   UNL     1      23.775   9.743  13.266  1.00  0.00     0.042 C 
ATOM      7  O   UNL     1      24.615   9.184  14.019  1.00  0.00    -0.550 OA
ATOM      8  O   UNL     1      23.877  11.105  13.013  1.00  0.00    -0.550 OA
ENDBRANCH   5   6
ENDBRANCH   1   5
TORSDOF 3
ENDMDL
MODEL 9
REMARK VINA RESULT:    -3.726     13.453     14.211
REMARK INTER + INTRA:          -4.436
REMARK INTER:                  -4.312
REMARK INTRA:                  -0.124
REMARK UNBOUND:                -0.056
REMARK SMILES O=C([O-])CCC(=O)[O-]
REMARK SMILES IDX 4 1 2 2 1 3 3 4 5 5 6 6 7 7 8 8
REMARK H PARENT
REMARK Flexibility Score: inf
ROOT
ATOM      1  C   UNL     1      21.349  10.196  11.059  1.00  0.00     0.059 C 
ENDROOT
BRANCH   1   2
ATOM      2  C   UNL     1      22.345  11.313  11.123  1.00  0.00     0.042 C 
ATOM      3  O   UNL     1      23.313  11.253  11.927  1.00  0.00    -0.550 OA
ATOM      4  O   UNL     1      22.183  12.439  10.326  1.00  0.00    -0.550 OA
ENDBRANCH   1   2
BRANCH   1   5
ATOM      5  C   UNL     1      20.642   9.992  12.404  1.00  0.00     0.059 C 
BRANCH   5   6
ATOM      6  C   UNL     1      20.983   8.667  13.013  1.00  0.00     0.042 C 
ATOM      7  O   UNL     1      22.170   8.249  12.995  1.00  0.00    -0.550 OA
ATOM      8  O   UNL     1      19.982   7.875  13.562  1.00  0.00    -0.550 OA
ENDBRANCH   5   6
ENDBRANCH   1   5
TORSDOF 3
ENDMDL
