MODEL 1
REMARK VINA RESULT:    -4.098      0.000      0.000
REMARK INTER + INTRA:          -4.716
REMARK INTER:                  -4.577
REMARK INTRA:                  -0.139
REMARK UNBOUND:                -0.139
REMARK SMILES O=C([O-])C=Cc1ccccc1
REMARK SMILES IDX 4 1 5 2 2 3 1 4 3 5 6 6 7 7 11 8 8 9 10 10 9 11
REMARK H PARENT
REMARK Flexibility Score: inf
ROOT
ATOM      1  C   UNL     1     -44.096 -46.129  71.814  1.00  0.00     0.025 C 
ATOM      2  C   UNL     1     -44.355 -47.091  70.914  1.00  0.00     0.010 C 
ENDROOT
BRANCH   1   3
ATOM      3  C   UNL     1     -42.813 -45.408  71.844  1.00  0.00     0.064 C 
ATOM      4  O   UNL     1     -42.773 -44.149  71.901  1.00  0.00    -0.545 OA
ATOM      5  O   UNL     1     -41.625 -46.126  71.810  1.00  0.00    -0.545 OA
ENDBRANCH   1   3
BRANCH   2   6
ATOM      6  C   UNL     1     -45.628 -47.857  70.830  1.00  0.00    -0.026 A 
ATOM      7  C   UNL     1     -46.836 -47.156  71.007  1.00  0.00     0.008 A 
ATOM      8  C   UNL     1     -45.683 -49.246  70.582  1.00  0.00     0.008 A 
ATOM      9  C   UNL     1     -48.064 -47.821  70.939  1.00  0.00     0.001 A 
ATOM     10  C   UNL     1     -46.916 -49.905  70.515  1.00  0.00     0.001 A 
ATOM     11  C   UNL     1     -48.105 -49.194  70.693  1.00  0.00     0.000 A 
ENDBRANCH   2   6
TORSDOF 2
ENDMDL
MODEL 2
REMARK VINA RESULT:    -4.050      0.940      1.742
REMARK INTER + INTRA:          -4.663
REMARK INTER:                  -4.519
REMARK INTRA:                  -0.144
REMARK UNBOUND:                -0.139
REMARK SMILES O=C([O-])C=Cc1ccccc1
REMARK SMILES IDX 4 1 5 2 2 3 1 4 3 5 6 6 7 7 11 8 8 9 10 10 9 11
REMARK H PARENT
REMARK Flexibility Score: inf
ROOT
ATOM      1  C   UNL     1     -44.059 -46.729  70.578  1.00  0.00     0.025 C 
ATOM      2  C   UNL     1     -45.277 -46.688  71.140  1.00  0.00     0.010 C 
ENDROOT
BRANCH   1   3
ATOM      3  C   UNL     1     -43.052 -45.680  70.811  1.00  0.00     0.064 C 
ATOM      4  O   UNL     1     -43.175 -44.856  71.757  1.00  0.00    -0.545 OA
ATOM      5  O   UNL     1     -41.947 -45.597  69.975  1.00  0.00    -0.545 OA
ENDBRANCH   1   3
BRANCH   2   6
ATOM      6  C   UNL     1     -46.338 -47.714  70.946  1.00  0.00    -0.026 A 
ATOM      7  C   UNL     1     -45.940 -49.033  70.663  1.00  0.00     0.008 A 
ATOM      8  C   UNL     1     -47.719 -47.428  71.032  1.00  0.00     0.008 A 
ATOM      9  C   UNL     1     -46.891 -50.041  70.472  1.00  0.00     0.001 A 
ATOM     10  C   UNL     1     -48.664 -48.440  70.838  1.00  0.00     0.001 A 
ATOM     11  C   UNL     1     -48.252 -49.745  70.559  1.00  0.00     0.000 A 
ENDBRANCH   2   6
TORSDOF 2
ENDMDL
MODEL 3
REMARK VINA RESULT:    -4.038      0.776      1.628
REMARK INTER + INTRA:          -4.649
REMARK INTER:                  -4.520
REMARK INTRA:                  -0.129
REMARK UNBOUND:                -0.139
REMARK SMILES O=C([O-])C=Cc1ccccc1
REMARK SMILES IDX 4 1 5 2 2 3 1 4 3 5 6 6 7 7 11 8 8 9 10 10 9 11
REMARK H PARENT
REMARK Flexibility Score: inf
ROOT
ATOM      1  C   UNL     1     -43.902 -45.994  72.041  1.00  0.00     0.025 C 
ATOM      2  C   UNL     1     -44.495 -46.395  70.906  1.00  0.00     0.010 C 
ENDROOT
BRANCH   1   3
ATOM      3  C   UNL     1     -42.876 -44.937  72.059  1.00  0.00     0.064 C 
ATOM      4  O   UNL     1     -42.817 -44.068  71.147  1.00  0.00    -0.545 OA
ATOM      5  O   UNL     1     -41.957 -44.895  73.099  1.00  0.00    -0.545 OA
ENDBRANCH   1   3
BRANCH   2   6
ATOM      6  C   UNL     1     -45.536 -47.455  70.819  1.00  0.00    -0.026 A 
ATOM      7  C   UNL     1     -45.118 -48.777  70.580  1.00  0.00     0.008 A 
ATOM      8  C   UNL     1     -46.918 -47.199  70.965  1.00  0.00     0.008 A 
ATOM      9  C   UNL     1     -46.050 -49.815  70.489  1.00  0.00     0.001 A 
ATOM     10  C   UNL     1     -47.844 -48.243  70.873  1.00  0.00     0.001 A 
ATOM     11  C   UNL     1     -47.411 -49.549  70.635  1.00  0.00     0.000 A 
ENDBRANCH   2   6
TORSDOF 2
ENDMDL
MODEL 4
REMARK VINA RESULT:    -3.987      4.503      6.051
REMARK INTER + INTRA:          -4.592
REMARK INTER:                  -4.460
REMARK INTRA:                  -0.132
REMARK UNBOUND:                -0.139
REMARK SMILES O=C([O-])C=Cc1ccccc1
REMARK SMILES IDX 4 1 5 2 2 3 1 4 3 5 6 6 7 7 11 8 8 9 10 10 9 11
REMARK H PARENT
REMARK Flexibility Score: inf
ROOT
ATOM      1  C   UNL     1     -49.314 -48.681  70.981  1.00  0.00     0.025 C 
ATOM      2  C   UNL     1     -48.164 -49.333  70.747  1.00  0.00     0.010 C 
ENDROOT
BRANCH   1   3
ATOM      3  C   UNL     1     -50.621 -49.357  70.933  1.00  0.00     0.064 C 
ATOM      4  O   UNL     1     -51.049 -50.022  71.916  1.00  0.00    -0.545 OA
ATOM      5  O   UNL     1     -51.398 -49.262  69.786  1.00  0.00    -0.545 OA
ENDBRANCH   1   3
BRANCH   2   6
ATOM      6  C   UNL     1     -46.813 -48.709  70.779  1.00  0.00    -0.026 A 
ATOM      7  C   UNL     1     -45.700 -49.523  70.496  1.00  0.00     0.008 A 
ATOM      8  C   UNL     1     -46.594 -47.346  71.078  1.00  0.00     0.008 A 
ATOM      9  C   UNL     1     -44.406 -48.994  70.510  1.00  0.00     0.001 A 
ATOM     10  C   UNL     1     -45.296 -46.824  71.091  1.00  0.00     0.001 A 
ATOM     11  C   UNL     1     -44.203 -47.646  70.808  1.00  0.00     0.000 A 
ENDBRANCH   2   6
TORSDOF 2
ENDMDL
MODEL 5
REMARK VINA RESULT:    -3.964      4.154      5.569
REMARK INTER + INTRA:          -4.566
REMARK INTER:                  -4.434
REMARK INTRA:                  -0.132
REMARK UNBOUND:                -0.139
REMARK SMILES O=C([O-])C=Cc1ccccc1
REMARK SMILES IDX 4 1 5 2 2 3 1 4 3 5 6 6 7 7 11 8 8 9 10 10 9 11
REMARK H PARENT
REMARK Flexibility Score: inf
ROOT
ATOM      1  C   UNL     1     -48.613 -49.145  70.818  1.00  0.00     0.025 C 
ATOM      2  C   UNL     1     -47.830 -48.056  70.877  1.00  0.00     0.010 C 
ENDROOT
BRANCH   1   3
ATOM      3  C   UNL     1     -50.082 -49.058  70.869  1.00  0.00     0.064 C 
ATOM      4  O   UNL     1     -50.679 -48.705  71.922  1.00  0.00    -0.545 OA
ATOM      5  O   UNL     1     -50.824 -49.370  69.737  1.00  0.00    -0.545 OA
ENDBRANCH   1   3
BRANCH   2   6
ATOM      6  C   UNL     1     -46.343 -48.075  70.830  1.00  0.00    -0.026 A 
ATOM      7  C   UNL     1     -45.655 -46.884  71.127  1.00  0.00     0.008 A 
ATOM      8  C   UNL     1     -45.591 -49.226  70.505  1.00  0.00     0.008 A 
ATOM      9  C   UNL     1     -44.257 -46.840  71.101  1.00  0.00     0.001 A 
ATOM     10  C   UNL     1     -44.193 -49.175  70.480  1.00  0.00     0.001 A 
ATOM     11  C   UNL     1     -43.527 -47.984  70.777  1.00  0.00     0.000 A 
ENDBRANCH   2   6
TORSDOF 2
ENDMDL
MODEL 6
REMARK VINA RESULT:    -3.923      4.273      5.838
REMARK INTER + INTRA:          -4.521
REMARK INTER:                  -4.388
REMARK INTRA:                  -0.132
REMARK UNBOUND:                -0.139
REMARK SMILES O=C([O-])C=Cc1ccccc1
REMARK SMILES IDX 4 1 5 2 2 3 1 4 3 5 6 6 7 7 11 8 8 9 10 10 9 11
REMARK H PARENT
REMARK Flexibility Score: inf
ROOT
ATOM      1  C   UNL     1     -48.755 -48.785  70.776  1.00  0.00     0.025 C 
ATOM      2  C   UNL     1     -47.544 -49.360  70.720  1.00  0.00     0.010 C 
ENDROOT
BRANCH   1   3
ATOM      3  C   UNL     1     -49.999 -49.571  70.717  1.00  0.00     0.064 C 
ATOM      4  O   UNL     1     -51.008 -49.151  70.088  1.00  0.00    -0.545 OA
ATOM      5  O   UNL     1     -50.063 -50.796  71.367  1.00  0.00    -0.545 OA
ENDBRANCH   1   3
BRANCH   2   6
ATOM      6  C   UNL     1     -46.251 -48.625  70.774  1.00  0.00    -0.026 A 
ATOM      7  C   UNL     1     -45.072 -49.334  70.477  1.00  0.00     0.008 A 
ATOM      8  C   UNL     1     -46.150 -47.255  71.106  1.00  0.00     0.008 A 
ATOM      9  C   UNL     1     -43.828 -48.696  70.511  1.00  0.00     0.001 A 
ATOM     10  C   UNL     1     -44.902 -46.625  71.138  1.00  0.00     0.001 A 
ATOM     11  C   UNL     1     -43.742 -47.344  70.841  1.00  0.00     0.000 A 
ENDBRANCH   2   6
TORSDOF 2
ENDMDL
MODEL 7
REMARK VINA RESULT:    -3.855      4.964      6.393
REMARK INTER + INTRA:          -4.444
REMARK INTER:                  -4.305
REMARK INTRA:                  -0.139
REMARK UNBOUND:                -0.139
REMARK SMILES O=C([O-])C=Cc1ccccc1
REMARK SMILES IDX 4 1 5 2 2 3 1 4 3 5 6 6 7 7 11 8 8 9 10 10 9 11
REMARK H PARENT
REMARK Flexibility Score: inf
ROOT
ATOM      1  C   UNL     1     -50.446 -48.616  71.787  1.00  0.00     0.025 C 
ATOM      2  C   UNL     1     -49.608 -49.040  70.829  1.00  0.00     0.010 C 
ENDROOT
BRANCH   1   3
ATOM      3  C   UNL     1     -51.885 -48.926  71.764  1.00  0.00     0.064 C 
ATOM      4  O   UNL     1     -52.363 -49.748  70.936  1.00  0.00    -0.545 OA
ATOM      5  O   UNL     1     -52.733 -48.303  72.670  1.00  0.00    -0.545 OA
ENDBRANCH   1   3
BRANCH   2   6
ATOM      6  C   UNL     1     -48.146 -48.761  70.794  1.00  0.00    -0.026 A 
ATOM      7  C   UNL     1     -47.718 -47.438  71.008  1.00  0.00     0.008 A 
ATOM      8  C   UNL     1     -47.172 -49.757  70.558  1.00  0.00     0.008 A 
ATOM      9  C   UNL     1     -46.358 -47.116  70.988  1.00  0.00     0.001 A 
ATOM     10  C   UNL     1     -45.813 -49.427  70.539  1.00  0.00     0.001 A 
ATOM     11  C   UNL     1     -45.406 -48.108  70.753  1.00  0.00     0.000 A 
ENDBRANCH   2   6
TORSDOF 2
ENDMDL
MODEL 8
REMARK VINA RESULT:    -3.696      1.491      1.667
REMARK INTER + INTRA:          -4.267
REMARK INTER:                  -4.135
REMARK INTRA:                  -0.131
REMARK UNBOUND:                -0.139
REMARK SMILES O=C([O-])C=Cc1ccccc1
REMARK SMILES IDX 4 1 5 2 2 3 1 4 3 5 6 6 7 7 11 8 8 9 10 10 9 11
REMARK H PARENT
REMARK Flexibility Score: inf
ROOT
ATOM      1  C   UNL     1     -43.624 -48.125  70.597  1.00  0.00     0.025 C 
ATOM      2  C   UNL     1     -44.795 -47.557  70.921  1.00  0.00     0.010 C 
ENDROOT
BRANCH   1   3
ATOM      3  C   UNL     1     -42.344 -47.408  70.719  1.00  0.00     0.064 C 
ATOM      4  O   UNL     1     -41.723 -47.361  71.815  1.00  0.00    -0.545 OA
ATOM      5  O   UNL     1     -41.809 -46.771  69.606  1.00  0.00    -0.545 OA
ENDBRANCH   1   3
BRANCH   2   6
ATOM      6  C   UNL     1     -46.121 -48.226  70.822  1.00  0.00    -0.026 A 
ATOM      7  C   UNL     1     -47.275 -47.440  70.993  1.00  0.00     0.008 A 
ATOM      8  C   UNL     1     -46.276 -49.606  70.563  1.00  0.00     0.008 A 
ATOM      9  C   UNL     1     -48.548 -48.012  70.910  1.00  0.00     0.001 A 
ATOM     10  C   UNL     1     -47.553 -50.172  70.481  1.00  0.00     0.001 A 
ATOM     11  C   UNL     1     -48.688 -49.376  70.655  1.00  0.00     0.000 A 
ENDBRANCH   2   6
TORSDOF 2
ENDMDL
MODEL 9
REMARK VINA RESULT:    -3.619      3.025      3.845
REMARK INTER + INTRA:          -4.181
REMARK INTER:                  -4.036
REMARK INTRA:                  -0.145
REMARK UNBOUND:                -0.139
REMARK SMILES O=C([O-])C=Cc1ccccc1
REMARK SMILES IDX 4 1 5 2 2 3 1 4 3 5 6 6 7 7 11 8 8 9 10 10 9 11
REMARK H PARENT
REMARK Flexibility Score: inf
ROOT
ATOM      1  C   UNL     1     -43.809 -50.465  70.091  1.00  0.00     0.025 C 
ATOM      2  C   UNL     1     -44.241 -49.254  70.477  1.00  0.00     0.010 C 
ENDROOT
BRANCH   1   3
ATOM      3  C   UNL     1     -42.377 -50.782  69.964  1.00  0.00     0.064 C 
ATOM      4  O   UNL     1     -41.825 -50.869  68.834  1.00  0.00    -0.545 OA
ATOM      5  O   UNL     1     -41.619 -50.990  71.110  1.00  0.00    -0.545 OA
ENDBRANCH   1   3
BRANCH   2   6
ATOM      6  C   UNL     1     -45.671 -48.870  70.625  1.00  0.00    -0.026 A 
ATOM      7  C   UNL     1     -46.646 -49.874  70.483  1.00  0.00     0.008 A 
ATOM      8  C   UNL     1     -46.095 -47.551  70.901  1.00  0.00     0.008 A 
ATOM      9  C   UNL     1     -48.006 -49.574  70.612  1.00  0.00     0.001 A 
ATOM     10  C   UNL     1     -47.457 -47.257  71.029  1.00  0.00     0.001 A 
ATOM     11  C   UNL     1     -48.411 -48.267  70.884  1.00  0.00     0.000 A 
ENDBRANCH   2   6
TORSDOF 2
ENDMDL
