MODEL 1
REMARK VINA RESULT:    -3.581      0.000      0.000
REMARK INTER + INTRA:          -6.079
REMARK INTER:                  -5.465
REMARK INTRA:                  -0.613
REMARK UNBOUND:                -0.613
REMARK SMILES CCCCCCCCCCC(=O)[O-]
REMARK SMILES IDX 7 1 8 2 9 3 10 4 11 5 12 6 13 7 6 8 5 9 4 10 3 11 2 12 1 13
REMARK H PARENT
REMARK Flexibility Score: inf
ROOT
ATOM      1  C   UNL     1      58.557  29.877  51.105  1.00  0.00     0.000 C 
ENDROOT
BRANCH   1   2
ATOM      2  C   UNL     1      58.810  29.410  49.661  1.00  0.00     0.000 C 
BRANCH   2   3
ATOM      3  C   UNL     1      59.799  28.238  49.576  1.00  0.00     0.006 C 
BRANCH   3   4
ATOM      4  C   UNL     1      59.128  26.890  49.870  1.00  0.00     0.053 C 
BRANCH   4   5
ATOM      5  C   UNL     1      59.959  26.043  50.784  1.00  0.00     0.041 C 
ATOM      6  O   UNL     1      60.699  26.580  51.650  1.00  0.00    -0.550 OA
ATOM      7  O   UNL     1      59.938  24.659  50.660  1.00  0.00    -0.550 OA
ENDBRANCH   4   5
ENDBRANCH   3   4
ENDBRANCH   2   3
ENDBRANCH   1   2
BRANCH   1   8
ATOM      8  C   UNL     1      57.170  29.474  51.652  1.00  0.00     0.000 C 
BRANCH   8   9
ATOM      9  C   UNL     1      56.195  29.087  50.530  1.00  0.00    -0.000 C 
BRANCH   9  10
ATOM     10  C   UNL     1      54.740  29.219  50.996  1.00  0.00    -0.000 C 
BRANCH  10  11
ATOM     11  C   UNL     1      53.836  28.217  50.262  1.00  0.00    -0.000 C 
BRANCH  11  12
ATOM     12  C   UNL     1      54.420  26.796  50.245  1.00  0.00    -0.003 C 
ATOM     13  C   UNL     1      53.567  25.815  49.441  1.00  0.00     0.004 C 
ENDBRANCH  11  12
ENDBRANCH  10  11
ENDBRANCH   9  10
ENDBRANCH   8   9
ENDBRANCH   1   8
TORSDOF 9
ENDMDL
MODEL 2
REMARK VINA RESULT:    -3.444      1.512      2.150
REMARK INTER + INTRA:          -5.870
REMARK INTER:                  -5.230
REMARK INTRA:                  -0.640
REMARK UNBOUND:                -0.613
REMARK SMILES CCCCCCCCCCC(=O)[O-]
REMARK SMILES IDX 7 1 8 2 9 3 10 4 11 5 12 6 13 7 6 8 5 9 4 10 3 11 2 12 1 13
REMARK H PARENT
REMARK Flexibility Score: inf
ROOT
ATOM      1  C   UNL     1      56.650  30.020  52.550  1.00  0.00     0.000 C 
ENDROOT
BRANCH   1   2
ATOM      2  C   UNL     1      57.698  29.126  51.866  1.00  0.00     0.000 C 
BRANCH   2   3
ATOM      3  C   UNL     1      57.620  29.180  50.332  1.00  0.00     0.006 C 
BRANCH   3   4
ATOM      4  C   UNL     1      58.986  29.457  49.691  1.00  0.00     0.053 C 
BRANCH   4   5
ATOM      5  C   UNL     1      59.841  28.228  49.652  1.00  0.00     0.041 C 
ATOM      6  O   UNL     1      61.096  28.328  49.626  1.00  0.00    -0.550 OA
ATOM      7  O   UNL     1      59.251  26.972  49.614  1.00  0.00    -0.550 OA
ENDBRANCH   4   5
ENDBRANCH   3   4
ENDBRANCH   2   3
ENDBRANCH   1   2
BRANCH   1   8
ATOM      8  C   UNL     1      55.214  29.456  52.477  1.00  0.00     0.000 C 
BRANCH   8   9
ATOM      9  C   UNL     1      54.266  30.382  51.700  1.00  0.00    -0.000 C 
BRANCH   9  10
ATOM     10  C   UNL     1      53.537  29.616  50.590  1.00  0.00    -0.000 C 
BRANCH  10  11
ATOM     11  C   UNL     1      54.207  28.260  50.327  1.00  0.00    -0.000 C 
BRANCH  11  12
ATOM     12  C   UNL     1      53.190  27.142  50.050  1.00  0.00    -0.003 C 
ATOM     13  C   UNL     1      53.854  25.811  49.695  1.00  0.00     0.004 C 
ENDBRANCH  11  12
ENDBRANCH  10  11
ENDBRANCH   9  10
ENDBRANCH   8   9
ENDBRANCH   1   8
TORSDOF 9
ENDMDL
MODEL 3
REMARK VINA RESULT:    -3.443      1.509      2.545
REMARK INTER + INTRA:          -5.867
REMARK INTER:                  -4.928
REMARK INTRA:                  -0.940
REMARK UNBOUND:                -0.613
REMARK SMILES CCCCCCCCCCC(=O)[O-]
REMARK SMILES IDX 7 1 8 2 9 3 10 4 11 5 12 6 13 7 6 8 5 9 4 10 3 11 2 12 1 13
REMARK H PARENT
REMARK Flexibility Score: inf
ROOT
ATOM      1  C   UNL     1      57.450  28.028  51.403  1.00  0.00     0.000 C 
ENDROOT
BRANCH   1   2
ATOM      2  C   UNL     1      57.404  29.120  50.320  1.00  0.00     0.000 C 
BRANCH   2   3
ATOM      3  C   UNL     1      58.768  29.357  49.652  1.00  0.00     0.006 C 
BRANCH   3   4
ATOM      4  C   UNL     1      59.937  29.038  50.592  1.00  0.00     0.053 C 
BRANCH   4   5
ATOM      5  C   UNL     1      60.847  27.997  50.015  1.00  0.00     0.041 C 
ATOM      6  O   UNL     1      61.967  28.325  49.543  1.00  0.00    -0.550 OA
ATOM      7  O   UNL     1      60.445  26.668  49.972  1.00  0.00    -0.550 OA
ENDBRANCH   4   5
ENDBRANCH   3   4
ENDBRANCH   2   3
ENDBRANCH   1   2
BRANCH   1   8
ATOM      8  C   UNL     1      57.065  26.626  50.883  1.00  0.00     0.000 C 
BRANCH   8   9
ATOM      9  C   UNL     1      55.611  26.261  51.220  1.00  0.00    -0.000 C 
BRANCH   9  10
ATOM     10  C   UNL     1      54.704  26.431  49.996  1.00  0.00    -0.000 C 
BRANCH  10  11
ATOM     11  C   UNL     1      53.474  27.286  50.339  1.00  0.00    -0.000 C 
BRANCH  11  12
ATOM     12  C   UNL     1      53.764  28.794  50.264  1.00  0.00    -0.003 C 
ATOM     13  C   UNL     1      53.875  29.444  51.643  1.00  0.00     0.004 C 
ENDBRANCH  11  12
ENDBRANCH  10  11
ENDBRANCH   9  10
ENDBRANCH   8   9
ENDBRANCH   1   8
TORSDOF 9
ENDMDL
MODEL 4
REMARK VINA RESULT:    -3.431      2.832      5.067
REMARK INTER + INTRA:          -5.850
REMARK INTER:                  -4.627
REMARK INTRA:                  -1.223
REMARK UNBOUND:                -0.613
REMARK SMILES CCCCCCCCCCC(=O)[O-]
REMARK SMILES IDX 7 1 8 2 9 3 10 4 11 5 12 6 13 7 6 8 5 9 4 10 3 11 2 12 1 13
REMARK H PARENT
REMARK Flexibility Score: inf
ROOT
ATOM      1  C   UNL     1      56.893  28.978  51.046  1.00  0.00     0.000 C 
ENDROOT
BRANCH   1   2
ATOM      2  C   UNL     1      56.753  28.025  52.246  1.00  0.00     0.000 C 
BRANCH   2   3
ATOM      3  C   UNL     1      56.170  26.657  51.859  1.00  0.00     0.006 C 
BRANCH   3   4
ATOM      4  C   UNL     1      55.889  26.552  50.354  1.00  0.00     0.053 C 
BRANCH   4   5
ATOM      5  C   UNL     1      54.421  26.516  50.063  1.00  0.00     0.041 C 
ATOM      6  O   UNL     1      53.879  25.454  49.660  1.00  0.00    -0.550 OA
ATOM      7  O   UNL     1      53.655  27.666  50.210  1.00  0.00    -0.550 OA
ENDBRANCH   4   5
ENDBRANCH   3   4
ENDBRANCH   2   3
ENDBRANCH   1   2
BRANCH   1   8
ATOM      8  C   UNL     1      58.185  29.823  51.076  1.00  0.00     0.000 C 
BRANCH   8   9
ATOM      9  C   UNL     1      58.983  29.710  49.769  1.00  0.00    -0.000 C 
BRANCH   9  10
ATOM     10  C   UNL     1      59.265  28.243  49.422  1.00  0.00    -0.000 C 
BRANCH  10  11
ATOM     11  C   UNL     1      60.583  27.772  50.055  1.00  0.00    -0.000 C 
BRANCH  11  12
ATOM     12  C   UNL     1      60.367  26.745  51.177  1.00  0.00    -0.003 C 
ATOM     13  C   UNL     1      59.563  25.528  50.718  1.00  0.00     0.004 C 
ENDBRANCH  11  12
ENDBRANCH  10  11
ENDBRANCH   9  10
ENDBRANCH   8   9
ENDBRANCH   1   8
TORSDOF 9
ENDMDL
MODEL 5
REMARK VINA RESULT:    -3.418     11.775     13.756
REMARK INTER + INTRA:          -5.830
REMARK INTER:                  -5.471
REMARK INTRA:                  -0.359
REMARK UNBOUND:                -0.613
REMARK SMILES CCCCCCCCCCC(=O)[O-]
REMARK SMILES IDX 7 1 8 2 9 3 10 4 11 5 12 6 13 7 6 8 5 9 4 10 3 11 2 12 1 13
REMARK H PARENT
REMARK Flexibility Score: inf
ROOT
ATOM      1  C   UNL     1      62.959  31.539  59.576  1.00  0.00     0.000 C 
ENDROOT
BRANCH   1   2
ATOM      2  C   UNL     1      63.786  30.945  60.730  1.00  0.00     0.000 C 
BRANCH   2   3
ATOM      3  C   UNL     1      63.053  29.818  61.473  1.00  0.00     0.006 C 
BRANCH   3   4
ATOM      4  C   UNL     1      62.717  28.639  60.551  1.00  0.00     0.053 C 
BRANCH   4   5
ATOM      5  C   UNL     1      63.512  27.418  60.897  1.00  0.00     0.041 C 
ATOM      6  O   UNL     1      62.928  26.345  61.205  1.00  0.00    -0.550 OA
ATOM      7  O   UNL     1      64.900  27.472  60.907  1.00  0.00    -0.550 OA
ENDBRANCH   4   5
ENDBRANCH   3   4
ENDBRANCH   2   3
ENDBRANCH   1   2
BRANCH   1   8
ATOM      8  C   UNL     1      62.807  33.074  59.650  1.00  0.00     0.000 C 
BRANCH   8   9
ATOM      9  C   UNL     1      63.600  33.679  60.818  1.00  0.00    -0.000 C 
BRANCH   9  10
ATOM     10  C   UNL     1      63.098  35.089  61.151  1.00  0.00    -0.000 C 
BRANCH  10  11
ATOM     11  C   UNL     1      63.855  35.672  62.354  1.00  0.00    -0.000 C 
BRANCH  11  12
ATOM     12  C   UNL     1      63.046  36.746  63.098  1.00  0.00    -0.003 C 
ATOM     13  C   UNL     1      63.258  36.704  64.611  1.00  0.00     0.004 C 
ENDBRANCH  11  12
ENDBRANCH  10  11
ENDBRANCH   9  10
ENDBRANCH   8   9
ENDBRANCH   1   8
TORSDOF 9
ENDMDL
MODEL 6
REMARK VINA RESULT:    -3.401      3.312      5.619
REMARK INTER + INTRA:          -5.804
REMARK INTER:                  -4.565
REMARK INTRA:                  -1.239
REMARK UNBOUND:                -0.613
REMARK SMILES CCCCCCCCCCC(=O)[O-]
REMARK SMILES IDX 7 1 8 2 9 3 10 4 11 5 12 6 13 7 6 8 5 9 4 10 3 11 2 12 1 13
REMARK H PARENT
REMARK Flexibility Score: inf
ROOT
ATOM      1  C   UNL     1      57.635  25.878  51.466  1.00  0.00     0.000 C 
ENDROOT
BRANCH   1   2
ATOM      2  C   UNL     1      56.566  26.592  50.622  1.00  0.00     0.000 C 
BRANCH   2   3
ATOM      3  C   UNL     1      55.665  27.517  51.455  1.00  0.00     0.006 C 
BRANCH   3   4
ATOM      4  C   UNL     1      55.335  28.822  50.720  1.00  0.00     0.053 C 
BRANCH   4   5
ATOM      5  C   UNL     1      53.876  28.927  50.400  1.00  0.00     0.041 C 
ATOM      6  O   UNL     1      53.270  30.021  50.550  1.00  0.00    -0.550 OA
ATOM      7  O   UNL     1      53.177  27.808  49.964  1.00  0.00    -0.550 OA
ENDBRANCH   4   5
ENDBRANCH   3   4
ENDBRANCH   2   3
ENDBRANCH   1   2
BRANCH   1   8
ATOM      8  C   UNL     1      59.081  26.281  51.102  1.00  0.00     0.000 C 
BRANCH   8   9
ATOM      9  C   UNL     1      59.188  26.828  49.671  1.00  0.00    -0.000 C 
BRANCH   9  10
ATOM     10  C   UNL     1      59.913  28.179  49.651  1.00  0.00    -0.000 C 
BRANCH  10  11
ATOM     11  C   UNL     1      58.915  29.340  49.775  1.00  0.00    -0.000 C 
BRANCH  11  12
ATOM     12  C   UNL     1      59.209  30.245  50.982  1.00  0.00    -0.003 C 
ATOM     13  C   UNL     1      58.578  29.731  52.275  1.00  0.00     0.004 C 
ENDBRANCH  11  12
ENDBRANCH  10  11
ENDBRANCH   9  10
ENDBRANCH   8   9
ENDBRANCH   1   8
TORSDOF 9
ENDMDL
MODEL 7
REMARK VINA RESULT:    -3.345      1.959      4.002
REMARK INTER + INTRA:          -5.719
REMARK INTER:                  -4.634
REMARK INTRA:                  -1.085
REMARK UNBOUND:                -0.613
REMARK SMILES CCCCCCCCCCC(=O)[O-]
REMARK SMILES IDX 7 1 8 2 9 3 10 4 11 5 12 6 13 7 6 8 5 9 4 10 3 11 2 12 1 13
REMARK H PARENT
REMARK Flexibility Score: inf
ROOT
ATOM      1  C   UNL     1      54.762  26.242  49.968  1.00  0.00     0.000 C 
ENDROOT
BRANCH   1   2
ATOM      2  C   UNL     1      55.645  26.745  51.123  1.00  0.00     0.000 C 
BRANCH   2   3
ATOM      3  C   UNL     1      57.093  27.021  50.692  1.00  0.00     0.006 C 
BRANCH   3   4
ATOM      4  C   UNL     1      57.353  28.514  50.454  1.00  0.00     0.053 C 
BRANCH   4   5
ATOM      5  C   UNL     1      58.721  28.758  49.896  1.00  0.00     0.041 C 
ATOM      6  O   UNL     1      59.420  27.796  49.482  1.00  0.00    -0.550 OA
ATOM      7  O   UNL     1      59.237  30.048  49.861  1.00  0.00    -0.550 OA
ENDBRANCH   4   5
ENDBRANCH   3   4
ENDBRANCH   2   3
ENDBRANCH   1   2
BRANCH   1   8
ATOM      8  C   UNL     1      53.325  26.808  49.996  1.00  0.00     0.000 C 
BRANCH   8   9
ATOM      9  C   UNL     1      53.168  27.940  51.022  1.00  0.00    -0.000 C 
BRANCH   9  10
ATOM     10  C   UNL     1      53.135  29.308  50.331  1.00  0.00    -0.000 C 
BRANCH  10  11
ATOM     11  C   UNL     1      53.856  30.368  51.176  1.00  0.00    -0.000 C 
BRANCH  11  12
ATOM     12  C   UNL     1      54.147  29.886  52.607  1.00  0.00    -0.003 C 
ATOM     13  C   UNL     1      55.543  30.278  53.091  1.00  0.00     0.004 C 
ENDBRANCH  11  12
ENDBRANCH  10  11
ENDBRANCH   9  10
ENDBRANCH   8   9
ENDBRANCH   1   8
TORSDOF 9
ENDMDL
MODEL 8
REMARK VINA RESULT:    -3.315      2.792      5.059
REMARK INTER + INTRA:          -5.673
REMARK INTER:                  -4.389
REMARK INTRA:                  -1.284
REMARK UNBOUND:                -0.613
REMARK SMILES CCCCCCCCCCC(=O)[O-]
REMARK SMILES IDX 7 1 8 2 9 3 10 4 11 5 12 6 13 7 6 8 5 9 4 10 3 11 2 12 1 13
REMARK H PARENT
REMARK Flexibility Score: inf
ROOT
ATOM      1  C   UNL     1      58.834  29.783  50.633  1.00  0.00     0.000 C 
ENDROOT
BRANCH   1   2
ATOM      2  C   UNL     1      57.656  29.273  51.480  1.00  0.00     0.000 C 
BRANCH   2   3
ATOM      3  C   UNL     1      56.443  28.861  50.632  1.00  0.00     0.006 C 
BRANCH   3   4
ATOM      4  C   UNL     1      56.030  27.405  50.879  1.00  0.00     0.053 C 
BRANCH   4   5
ATOM      5  C   UNL     1      54.682  27.103  50.301  1.00  0.00     0.041 C 
ATOM      6  O   UNL     1      54.400  25.936  49.922  1.00  0.00    -0.550 OA
ATOM      7  O   UNL     1      53.746  28.119  50.153  1.00  0.00    -0.550 OA
ENDBRANCH   4   5
ENDBRANCH   3   4
ENDBRANCH   2   3
ENDBRANCH   1   2
BRANCH   1   8
ATOM      8  C   UNL     1      59.248  28.815  49.503  1.00  0.00     0.000 C 
BRANCH   8   9
ATOM      9  C   UNL     1      60.154  27.684  50.012  1.00  0.00    -0.000 C 
BRANCH   9  10
ATOM     10  C   UNL     1      59.457  26.323  49.890  1.00  0.00    -0.000 C 
BRANCH  10  11
ATOM     11  C   UNL     1      59.386  25.619  51.253  1.00  0.00    -0.000 C 
BRANCH  11  12
ATOM     12  C   UNL     1      59.993  26.461  52.386  1.00  0.00    -0.003 C 
ATOM     13  C   UNL     1      59.051  26.614  53.580  1.00  0.00     0.004 C 
ENDBRANCH  11  12
ENDBRANCH  10  11
ENDBRANCH   9  10
ENDBRANCH   8   9
ENDBRANCH   1   8
TORSDOF 9
ENDMDL
MODEL 9
REMARK VINA RESULT:    -3.304      1.428      2.197
REMARK INTER + INTRA:          -5.656
REMARK INTER:                  -5.048
REMARK INTRA:                  -0.608
REMARK UNBOUND:                -0.613
REMARK SMILES CCCCCCCCCCC(=O)[O-]
REMARK SMILES IDX 7 1 8 2 9 3 10 4 11 5 12 6 13 7 6 8 5 9 4 10 3 11 2 12 1 13
REMARK H PARENT
REMARK Flexibility Score: inf
ROOT
ATOM      1  C   UNL     1      57.193  28.115  50.967  1.00  0.00     0.000 C 
ENDROOT
BRANCH   1   2
ATOM      2  C   UNL     1      57.686  29.513  50.553  1.00  0.00     0.000 C 
BRANCH   2   3
ATOM      3  C   UNL     1      58.845  29.464  49.545  1.00  0.00     0.006 C 
BRANCH   3   4
ATOM      4  C   UNL     1      59.523  28.089  49.507  1.00  0.00     0.053 C 
BRANCH   4   5
ATOM      5  C   UNL     1      60.828  28.092  50.241  1.00  0.00     0.041 C 
ATOM      6  O   UNL     1      61.050  27.247  51.148  1.00  0.00    -0.550 OA
ATOM      7  O   UNL     1      61.791  29.048  49.942  1.00  0.00    -0.550 OA
ENDBRANCH   4   5
ENDBRANCH   3   4
ENDBRANCH   2   3
ENDBRANCH   1   2
BRANCH   1   8
ATOM      8  C   UNL     1      55.757  28.109  51.534  1.00  0.00     0.000 C 
BRANCH   8   9
ATOM      9  C   UNL     1      54.776  28.879  50.637  1.00  0.00    -0.000 C 
BRANCH   9  10
ATOM     10  C   UNL     1      53.582  28.000  50.246  1.00  0.00    -0.000 C 
BRANCH  10  11
ATOM     11  C   UNL     1      54.033  26.563  49.946  1.00  0.00    -0.000 C 
BRANCH  11  12
ATOM     12  C   UNL     1      53.002  25.514  50.392  1.00  0.00    -0.003 C 
ATOM     13  C   UNL     1      53.244  25.015  51.817  1.00  0.00     0.004 C 
ENDBRANCH  11  12
ENDBRANCH  10  11
ENDBRANCH   9  10
ENDBRANCH   8   9
ENDBRANCH   1   8
TORSDOF 9
ENDMDL
