MODEL 1
REMARK VINA RESULT:    35.378      0.000      0.000
REMARK INTER + INTRA:          51.897
REMARK INTER:                  48.822
REMARK INTRA:                   3.075
REMARK UNBOUND:                 3.075
REMARK SMILES CC[C@H](CC[C@H](C)[C@H]1CC[C@H]2C3=CC[C@H]4C[C@H](O)CC[C@@]4(C)[C@@H]3CC[C@]12C)C(C)C
REMARK SMILES IDX 5 1 4 2 3 3 2 4 1 5 28 6 29 7 30 8 6 9 7 10 8 11 9 12 26 13
REMARK SMILES IDX 10 14 11 15 25 16 27 17 12 18 24 19 23 20 13 21 21 22 14 23
REMARK SMILES IDX 15 24 20 25 22 26 16 27 19 28 17 29 18 30
REMARK H PARENT 18 31
REMARK Flexibility Score: inf
ROOT
ATOM      1  C   UNL     1      15.611  13.915  39.972  1.00  0.00     0.004 C 
ENDROOT
BRANCH   1   2
ATOM      2  C   UNL     1      17.080  14.027  40.443  1.00  0.00     0.004 C 
BRANCH   2   3
ATOM      3  C   UNL     1      17.429  13.008  41.562  1.00  0.00    -0.009 C 
BRANCH   3   4
ATOM      4  C   UNL     1      18.289  11.860  40.957  1.00  0.00     0.000 C 
ATOM      5  C   UNL     1      19.768  12.209  40.787  1.00  0.00     0.004 C 
ENDBRANCH   3   4
BRANCH   3   6
ATOM      6  C   UNL     1      18.070  13.741  42.798  1.00  0.00    -0.014 C 
ATOM      7  C   UNL     1      17.033  14.121  43.866  1.00  0.00     0.007 C 
ATOM      8  C   UNL     1      19.255  12.994  43.430  1.00  0.00     0.007 C 
ENDBRANCH   3   6
ENDBRANCH   2   3
ENDBRANCH   1   2
BRANCH   1   9
ATOM      9  C   UNL     1      15.192  12.452  39.686  1.00  0.00    -0.011 C 
ATOM     10  C   UNL     1      15.919  11.514  40.679  1.00  0.00     0.008 C 
BRANCH   9  11
ATOM     11  C   UNL     1      15.499  12.003  38.213  1.00  0.00    -0.002 C 
ATOM     12  C   UNL     1      15.524  10.451  38.083  1.00  0.00     0.005 C 
ATOM     13  C   UNL     1      14.530  12.456  37.072  1.00  0.00    -0.023 C 
ATOM     14  C   UNL     1      14.968  10.088  36.703  1.00  0.00     0.009 C 
ATOM     15  C   UNL     1      14.877  11.423  35.983  1.00  0.00     0.021 C 
ATOM     16  C   UNL     1      14.784  13.894  36.496  1.00  0.00     0.008 C 
ATOM     17  C   UNL     1      13.046  12.330  37.540  1.00  0.00     0.012 C 
ATOM     18  C   UNL     1      13.973  11.583  34.780  1.00  0.00    -0.067 C 
ATOM     19  C   UNL     1      14.762  13.991  34.943  1.00  0.00     0.009 C 
ATOM     20  C   UNL     1      13.766  13.004  34.260  1.00  0.00     0.021 C 
ATOM     21  C   UNL     1      13.327  10.559  34.194  1.00  0.00    -0.027 C 
ATOM     22  C   UNL     1      13.686  13.104  32.663  1.00  0.00    -0.023 C 
ATOM     23  C   UNL     1      12.538  10.810  32.944  1.00  0.00     0.031 C 
ATOM     24  C   UNL     1      13.396  11.688  32.018  1.00  0.00     0.002 C 
ATOM     25  C   UNL     1      12.544  14.116  32.317  1.00  0.00     0.010 C 
ATOM     26  C   UNL     1      15.020  13.627  32.060  1.00  0.00     0.012 C 
ATOM     27  C   UNL     1      12.833  11.738  30.576  1.00  0.00     0.036 C 
ATOM     28  C   UNL     1      12.133  14.124  30.844  1.00  0.00     0.032 C 
ATOM     29  C   UNL     1      11.678  12.727  30.417  1.00  0.00     0.114 C 
BRANCH  29  30
ATOM     30  O   UNL     1      11.276  12.748  29.073  1.00  0.00    -0.393 OA
ATOM     31  H   UNL     1      11.591  13.612  28.694  1.00  0.00     0.210 HD
ENDBRANCH  29  30
ENDBRANCH   9  11
ENDBRANCH   1   9
TORSDOF 7
ENDMDL
MODEL 2
REMARK VINA RESULT:    37.596      3.745      9.031
REMARK INTER + INTRA:          54.957
REMARK INTER:                  54.492
REMARK INTRA:                   0.465
REMARK UNBOUND:                 3.075
REMARK SMILES CC[C@H](CC[C@H](C)[C@H]1CC[C@H]2C3=CC[C@H]4C[C@H](O)CC[C@@]4(C)[C@@H]3CC[C@]12C)C(C)C
REMARK SMILES IDX 5 1 4 2 3 3 2 4 1 5 28 6 29 7 30 8 6 9 7 10 8 11 9 12 26 13
REMARK SMILES IDX 10 14 11 15 25 16 27 17 12 18 24 19 23 20 13 21 21 22 14 23
REMARK SMILES IDX 15 24 20 25 22 26 16 27 19 28 17 29 18 30
REMARK H PARENT 18 31
REMARK Flexibility Score: inf
ROOT
ATOM      1  C   UNL     1      15.878  12.023  32.512  1.00  0.00     0.004 C 
ENDROOT
BRANCH   1   2
ATOM      2  C   UNL     1      15.938  10.939  31.412  1.00  0.00     0.004 C 
BRANCH   2   3
ATOM      3  C   UNL     1      17.386  10.665  30.919  1.00  0.00    -0.009 C 
BRANCH   3   4
ATOM      4  C   UNL     1      17.558   9.140  30.664  1.00  0.00     0.000 C 
ATOM      5  C   UNL     1      16.565   8.558  29.656  1.00  0.00     0.004 C 
ENDBRANCH   3   4
BRANCH   3   6
ATOM      6  C   UNL     1      17.738  11.590  29.696  1.00  0.00    -0.014 C 
ATOM      7  C   UNL     1      18.383  12.918  30.123  1.00  0.00     0.007 C 
ATOM      8  C   UNL     1      18.575  10.904  28.606  1.00  0.00     0.007 C 
ENDBRANCH   3   6
ENDBRANCH   2   3
ENDBRANCH   1   2
BRANCH   1   9
ATOM      9  C   UNL     1      14.431  12.497  32.797  1.00  0.00    -0.011 C 
ATOM     10  C   UNL     1      14.297  13.983  32.389  1.00  0.00     0.008 C 
BRANCH   9  11
ATOM     11  C   UNL     1      14.012  12.321  34.300  1.00  0.00    -0.002 C 
ATOM     12  C   UNL     1      13.391  10.917  34.558  1.00  0.00     0.005 C 
ATOM     13  C   UNL     1      15.110  12.451  35.406  1.00  0.00    -0.023 C 
ATOM     14  C   UNL     1      13.797  10.477  35.968  1.00  0.00     0.009 C 
ATOM     15  C   UNL     1      14.417  11.725  36.575  1.00  0.00     0.021 C 
ATOM     16  C   UNL     1      15.449  13.916  35.859  1.00  0.00     0.008 C 
ATOM     17  C   UNL     1      16.416  11.722  34.961  1.00  0.00     0.012 C 
ATOM     18  C   UNL     1      15.343  11.616  37.767  1.00  0.00    -0.067 C 
ATOM     19  C   UNL     1      15.547  14.120  37.399  1.00  0.00     0.009 C 
ATOM     20  C   UNL     1      16.098  12.881  38.168  1.00  0.00     0.021 C 
ATOM     21  C   UNL     1      15.556  10.471  38.441  1.00  0.00    -0.027 C 
ATOM     22  C   UNL     1      16.252  13.068  39.752  1.00  0.00    -0.023 C 
ATOM     23  C   UNL     1      16.412  10.494  39.671  1.00  0.00     0.031 C 
ATOM     24  C   UNL     1      15.986  11.707  40.515  1.00  0.00     0.002 C 
ATOM     25  C   UNL     1      17.705  13.581  40.021  1.00  0.00     0.010 C 
ATOM     26  C   UNL     1      15.241  14.115  40.300  1.00  0.00     0.012 C 
ATOM     27  C   UNL     1      16.562  11.649  41.951  1.00  0.00     0.036 C 
ATOM     28  C   UNL     1      18.124  13.546  41.491  1.00  0.00     0.032 C 
ATOM     29  C   UNL     1      18.013  12.120  42.036  1.00  0.00     0.114 C 
BRANCH  29  30
ATOM     30  O   UNL     1      18.426  12.091  43.377  1.00  0.00    -0.393 OA
ATOM     31  H   UNL     1      17.600  12.059  43.930  1.00  0.00     0.210 HD
ENDBRANCH  29  30
ENDBRANCH   9  11
ENDBRANCH   1   9
TORSDOF 7
ENDMDL
MODEL 3
REMARK VINA RESULT:    38.041      1.056      1.837
REMARK INTER + INTRA:          55.572
REMARK INTER:                  53.920
REMARK INTRA:                   1.652
REMARK UNBOUND:                 3.075
REMARK SMILES CC[C@H](CC[C@H](C)[C@H]1CC[C@H]2C3=CC[C@H]4C[C@H](O)CC[C@@]4(C)[C@@H]3CC[C@]12C)C(C)C
REMARK SMILES IDX 5 1 4 2 3 3 2 4 1 5 28 6 29 7 30 8 6 9 7 10 8 11 9 12 26 13
REMARK SMILES IDX 10 14 11 15 25 16 27 17 12 18 24 19 23 20 13 21 21 22 14 23
REMARK SMILES IDX 15 24 20 25 22 26 16 27 19 28 17 29 18 30
REMARK H PARENT 18 31
REMARK Flexibility Score: inf
ROOT
ATOM      1  C   UNL     1      16.027  12.765  40.586  1.00  0.00     0.004 C 
ENDROOT
BRANCH   1   2
ATOM      2  C   UNL     1      16.750  13.751  41.533  1.00  0.00     0.004 C 
BRANCH   2   3
ATOM      3  C   UNL     1      18.289  13.544  41.552  1.00  0.00    -0.009 C 
BRANCH   3   4
ATOM      4  C   UNL     1      18.865  14.123  42.876  1.00  0.00     0.000 C 
ATOM      5  C   UNL     1      17.969  13.908  44.096  1.00  0.00     0.004 C 
ENDBRANCH   3   4
BRANCH   3   6
ATOM      6  C   UNL     1      18.647  12.037  41.271  1.00  0.00    -0.014 C 
ATOM      7  C   UNL     1      17.441  11.100  41.439  1.00  0.00     0.007 C 
ATOM      8  C   UNL     1      19.342  11.795  39.922  1.00  0.00     0.007 C 
ENDBRANCH   3   6
ENDBRANCH   2   3
ENDBRANCH   1   2
BRANCH   1   9
ATOM      9  C   UNL     1      15.388  13.476  39.368  1.00  0.00    -0.011 C 
ATOM     10  C   UNL     1      14.023  14.071  39.788  1.00  0.00     0.008 C 
BRANCH   9  11
ATOM     11  C   UNL     1      15.193  12.524  38.135  1.00  0.00    -0.002 C 
ATOM     12  C   UNL     1      14.286  11.309  38.491  1.00  0.00     0.005 C 
ATOM     13  C   UNL     1      14.546  13.102  36.834  1.00  0.00    -0.023 C 
ATOM     14  C   UNL     1      13.463  10.960  37.248  1.00  0.00     0.009 C 
ATOM     15  C   UNL     1      14.087  11.802  36.147  1.00  0.00     0.021 C 
ATOM     16  C   UNL     1      15.524  13.859  35.867  1.00  0.00     0.008 C 
ATOM     17  C   UNL     1      13.341  14.026  37.193  1.00  0.00     0.012 C 
ATOM     18  C   UNL     1      13.313  12.104  34.883  1.00  0.00    -0.067 C 
ATOM     19  C   UNL     1      15.377  13.487  34.363  1.00  0.00     0.009 C 
ATOM     20  C   UNL     1      13.918  13.137  33.936  1.00  0.00     0.021 C 
ATOM     21  C   UNL     1      12.124  11.547  34.588  1.00  0.00    -0.027 C 
ATOM     22  C   UNL     1      13.721  12.790  32.385  1.00  0.00    -0.023 C 
ATOM     23  C   UNL     1      11.489  11.835  33.261  1.00  0.00     0.031 C 
ATOM     24  C   UNL     1      12.580  11.711  32.184  1.00  0.00     0.002 C 
ATOM     25  C   UNL     1      13.359  14.123  31.651  1.00  0.00     0.010 C 
ATOM     26  C   UNL     1      15.023  12.212  31.763  1.00  0.00     0.012 C 
ATOM     27  C   UNL     1      11.986  11.658  30.755  1.00  0.00     0.036 C 
ATOM     28  C   UNL     1      12.858  13.939  30.218  1.00  0.00     0.032 C 
ATOM     29  C   UNL     1      11.622  13.037  30.205  1.00  0.00     0.114 C 
BRANCH  29  30
ATOM     30  O   UNL     1      11.151  12.895  28.890  1.00  0.00    -0.393 OA
ATOM     31  H   UNL     1      10.814  13.788  28.610  1.00  0.00     0.210 HD
ENDBRANCH  29  30
ENDBRANCH   9  11
ENDBRANCH   1   9
TORSDOF 7
ENDMDL
MODEL 4
REMARK VINA RESULT:    38.173      3.499      9.311
REMARK INTER + INTRA:          55.753
REMARK INTER:                  56.494
REMARK INTRA:                  -0.741
REMARK UNBOUND:                 3.075
REMARK SMILES CC[C@H](CC[C@H](C)[C@H]1CC[C@H]2C3=CC[C@H]4C[C@H](O)CC[C@@]4(C)[C@@H]3CC[C@]12C)C(C)C
REMARK SMILES IDX 5 1 4 2 3 3 2 4 1 5 28 6 29 7 30 8 6 9 7 10 8 11 9 12 26 13
REMARK SMILES IDX 10 14 11 15 25 16 27 17 12 18 24 19 23 20 13 21 21 22 14 23
REMARK SMILES IDX 15 24 20 25 22 26 16 27 19 28 17 29 18 30
REMARK H PARENT 18 31
REMARK Flexibility Score: inf
ROOT
ATOM      1  C   UNL     1      15.004  10.837  32.738  1.00  0.00     0.004 C 
ENDROOT
BRANCH   1   2
ATOM      2  C   UNL     1      14.580   9.386  32.412  1.00  0.00     0.004 C 
BRANCH   2   3
ATOM      3  C   UNL     1      13.930   9.253  31.007  1.00  0.00    -0.009 C 
BRANCH   3   4
ATOM      4  C   UNL     1      14.774   8.268  30.146  1.00  0.00     0.000 C 
ATOM      5  C   UNL     1      15.894   8.936  29.347  1.00  0.00     0.004 C 
ENDBRANCH   3   4
BRANCH   3   6
ATOM      6  C   UNL     1      12.405   8.888  31.136  1.00  0.00    -0.014 C 
ATOM      7  C   UNL     1      12.094   7.461  30.660  1.00  0.00     0.007 C 
ATOM      8  C   UNL     1      11.812   9.139  32.531  1.00  0.00     0.007 C 
ENDBRANCH   3   6
ENDBRANCH   2   3
ENDBRANCH   1   2
BRANCH   1   9
ATOM      9  C   UNL     1      13.810  11.715  33.187  1.00  0.00    -0.011 C 
ATOM     10  C   UNL     1      13.202  12.414  31.949  1.00  0.00     0.008 C 
BRANCH   9  11
ATOM     11  C   UNL     1      14.208  12.790  34.260  1.00  0.00    -0.002 C 
ATOM     12  C   UNL     1      12.994  13.686  34.646  1.00  0.00     0.005 C 
ATOM     13  C   UNL     1      14.767  12.306  35.637  1.00  0.00    -0.023 C 
ATOM     14  C   UNL     1      13.129  14.041  36.130  1.00  0.00     0.009 C 
ATOM     15  C   UNL     1      14.524  13.562  36.495  1.00  0.00     0.021 C 
ATOM     16  C   UNL     1      16.300  11.968  35.669  1.00  0.00     0.008 C 
ATOM     17  C   UNL     1      13.948  11.082  36.155  1.00  0.00     0.012 C 
ATOM     18  C   UNL     1      14.891  13.307  37.941  1.00  0.00    -0.067 C 
ATOM     19  C   UNL     1      17.073  12.544  36.891  1.00  0.00     0.009 C 
ATOM     20  C   UNL     1      16.228  12.616  38.199  1.00  0.00     0.021 C 
ATOM     21  C   UNL     1      14.091  13.617  38.977  1.00  0.00    -0.027 C 
ATOM     22  C   UNL     1      17.003  13.165  39.489  1.00  0.00    -0.023 C 
ATOM     23  C   UNL     1      14.593  13.419  40.376  1.00  0.00     0.031 C 
ATOM     24  C   UNL     1      16.028  13.970  40.440  1.00  0.00     0.002 C 
ATOM     25  C   UNL     1      17.607  11.927  40.231  1.00  0.00     0.010 C 
ATOM     26  C   UNL     1      18.161  14.123  39.090  1.00  0.00     0.012 C 
ATOM     27  C   UNL     1      16.528  14.124  41.897  1.00  0.00     0.036 C 
ATOM     28  C   UNL     1      18.138  12.230  41.633  1.00  0.00     0.032 C 
ATOM     29  C   UNL     1      17.023  12.812  42.504  1.00  0.00     0.114 C 
BRANCH  29  30
ATOM     30  O   UNL     1      17.510  13.061  43.797  1.00  0.00    -0.393 OA
ATOM     31  H   UNL     1      16.793  13.548  44.284  1.00  0.00     0.210 HD
ENDBRANCH  29  30
ENDBRANCH   9  11
ENDBRANCH   1   9
TORSDOF 7
ENDMDL
