MODEL 1
REMARK VINA RESULT:    -4.615      0.000      0.000
REMARK INTER + INTRA:         -11.910
REMARK INTER:                 -10.010
REMARK INTRA:                  -1.900
REMARK UNBOUND:                -1.900
REMARK SMILES CCCCCCCCCCCCCCCCCCCCCC(=O)[O-]
REMARK SMILES IDX 12 1 11 2 10 3 9 4 8 5 7 6 6 7 5 8 4 9 3 10 2 11 1 12 13 13
REMARK SMILES IDX 14 14 15 15 16 16 17 17 18 18 19 19 20 20 21 21 22 22 23 23
REMARK SMILES IDX 24 24
REMARK H PARENT
REMARK Flexibility Score: inf
ROOT
ATOM      1  C   UNL     1      -4.912   7.462  -6.340  1.00  0.00     0.000 C 
ENDROOT
BRANCH   1   2
ATOM      2  C   UNL     1      -5.457   7.449  -4.900  1.00  0.00     0.000 C 
BRANCH   2   3
ATOM      3  C   UNL     1      -4.817   6.335  -4.044  1.00  0.00     0.000 C 
BRANCH   3   4
ATOM      4  C   UNL     1      -5.789   5.684  -3.045  1.00  0.00    -0.000 C 
BRANCH   4   5
ATOM      5  C   UNL     1      -6.961   4.970  -3.736  1.00  0.00    -0.000 C 
BRANCH   5   6
ATOM      6  C   UNL     1      -8.336   5.476  -3.262  1.00  0.00    -0.000 C 
BRANCH   6   7
ATOM      7  C   UNL     1      -8.457   7.005  -3.096  1.00  0.00    -0.000 C 
BRANCH   7   8
ATOM      8  C   UNL     1      -9.486   7.686  -4.017  1.00  0.00    -0.000 C 
BRANCH   8   9
ATOM      9  C   UNL     1     -10.609   8.388  -3.240  1.00  0.00    -0.000 C 
BRANCH   9  10
ATOM     10  C   UNL     1     -10.413   8.226  -1.728  1.00  0.00    -0.000 C 
BRANCH  10  11
ATOM     11  C   UNL     1     -11.713   8.522  -0.971  1.00  0.00    -0.003 C 
ATOM     12  C   UNL     1     -12.324   9.846  -1.421  1.00  0.00     0.004 C 
ENDBRANCH  10  11
ENDBRANCH   9  10
ENDBRANCH   8   9
ENDBRANCH   7   8
ENDBRANCH   6   7
ENDBRANCH   5   6
ENDBRANCH   4   5
ENDBRANCH   3   4
ENDBRANCH   2   3
ENDBRANCH   1   2
BRANCH   1  13
ATOM     13  C   UNL     1      -5.997   7.105  -7.379  1.00  0.00     0.000 C 
BRANCH  13  14
ATOM     14  C   UNL     1      -7.369   6.793  -6.756  1.00  0.00     0.000 C 
BRANCH  14  15
ATOM     15  C   UNL     1      -7.932   5.436  -7.200  1.00  0.00     0.000 C 
BRANCH  15  16
ATOM     16  C   UNL     1      -9.127   5.620  -8.146  1.00  0.00     0.000 C 
BRANCH  16  17
ATOM     17  C   UNL     1      -9.191   4.544  -9.244  1.00  0.00     0.000 C 
BRANCH  17  18
ATOM     18  C   UNL     1      -9.493   5.073 -10.661  1.00  0.00     0.000 C 
BRANCH  18  19
ATOM     19  C   UNL     1      -8.274   5.175 -11.594  1.00  0.00     0.000 C 
BRANCH  19  20
ATOM     20  C   UNL     1      -8.494   4.469 -12.944  1.00  0.00     0.006 C 
BRANCH  20  21
ATOM     21  C   UNL     1      -7.842   5.229 -14.107  1.00  0.00     0.053 C 
BRANCH  21  22
ATOM     22  C   UNL     1      -6.442   4.761 -14.361  1.00  0.00     0.041 C 
ATOM     23  O   UNL     1      -5.478   5.567 -14.271  1.00  0.00    -0.550 OA
ATOM     24  O   UNL     1      -6.203   3.443 -14.726  1.00  0.00    -0.550 OA
ENDBRANCH  21  22
ENDBRANCH  20  21
ENDBRANCH  19  20
ENDBRANCH  18  19
ENDBRANCH  17  18
ENDBRANCH  16  17
ENDBRANCH  15  16
ENDBRANCH  14  15
ENDBRANCH  13  14
ENDBRANCH   1  13
TORSDOF 20
ENDMDL
MODEL 2
REMARK VINA RESULT:    -4.589      4.449     11.153
REMARK INTER + INTRA:         -11.855
REMARK INTER:                 -10.614
REMARK INTRA:                  -1.241
REMARK UNBOUND:                -1.900
REMARK SMILES CCCCCCCCCCCCCCCCCCCCCC(=O)[O-]
REMARK SMILES IDX 12 1 11 2 10 3 9 4 8 5 7 6 6 7 5 8 4 9 3 10 2 11 1 12 13 13
REMARK SMILES IDX 14 14 15 15 16 16 17 17 18 18 19 19 20 20 21 21 22 22 23 23
REMARK SMILES IDX 24 24
REMARK H PARENT
REMARK Flexibility Score: inf
ROOT
ATOM      1  C   UNL     1      -9.484   5.209 -10.657  1.00  0.00     0.000 C 
ENDROOT
BRANCH   1   2
ATOM      2  C   UNL     1      -8.259   5.134 -11.588  1.00  0.00     0.000 C 
BRANCH   2   3
ATOM      3  C   UNL     1      -8.560   4.354 -12.886  1.00  0.00     0.000 C 
BRANCH   3   4
ATOM      4  C   UNL     1      -7.307   4.020 -13.713  1.00  0.00    -0.000 C 
BRANCH   4   5
ATOM      5  C   UNL     1      -6.212   5.091 -13.592  1.00  0.00    -0.000 C 
BRANCH   5   6
ATOM      6  C   UNL     1      -5.717   5.602 -14.958  1.00  0.00    -0.000 C 
BRANCH   6   7
ATOM      7  C   UNL     1      -6.756   5.555 -16.098  1.00  0.00    -0.000 C 
BRANCH   7   8
ATOM      8  C   UNL     1      -7.982   6.465 -15.905  1.00  0.00    -0.000 C 
BRANCH   8   9
ATOM      9  C   UNL     1      -7.996   7.660 -16.870  1.00  0.00    -0.000 C 
BRANCH   9  10
ATOM     10  C   UNL     1      -7.948   7.186 -18.328  1.00  0.00    -0.000 C 
BRANCH  10  11
ATOM     11  C   UNL     1      -9.312   6.646 -18.775  1.00  0.00    -0.003 C 
ATOM     12  C   UNL     1      -9.178   5.258 -19.395  1.00  0.00     0.004 C 
ENDBRANCH  10  11
ENDBRANCH   9  10
ENDBRANCH   8   9
ENDBRANCH   7   8
ENDBRANCH   6   7
ENDBRANCH   5   6
ENDBRANCH   4   5
ENDBRANCH   3   4
ENDBRANCH   2   3
ENDBRANCH   1   2
BRANCH   1  13
ATOM     13  C   UNL     1      -9.232   4.511  -9.303  1.00  0.00     0.000 C 
BRANCH  13  14
ATOM     14  C   UNL     1      -8.958   5.487  -8.147  1.00  0.00     0.000 C 
BRANCH  14  15
ATOM     15  C   UNL     1      -7.462   5.648  -7.842  1.00  0.00     0.000 C 
BRANCH  15  16
ATOM     16  C   UNL     1      -7.246   6.219  -6.433  1.00  0.00     0.000 C 
BRANCH  16  17
ATOM     17  C   UNL     1      -7.621   5.222  -5.321  1.00  0.00     0.000 C 
BRANCH  17  18
ATOM     18  C   UNL     1      -8.879   5.592  -4.509  1.00  0.00     0.000 C 
BRANCH  18  19
ATOM     19  C   UNL     1      -9.458   6.988  -4.799  1.00  0.00     0.000 C 
BRANCH  19  20
ATOM     20  C   UNL     1      -9.216   7.985  -3.652  1.00  0.00     0.006 C 
BRANCH  20  21
ATOM     21  C   UNL     1     -10.492   8.259  -2.845  1.00  0.00     0.053 C 
BRANCH  21  22
ATOM     22  C   UNL     1     -10.955   9.675  -2.999  1.00  0.00     0.041 C 
ATOM     23  O   UNL     1     -12.154   9.922  -3.293  1.00  0.00    -0.550 OA
ATOM     24  O   UNL     1     -10.054  10.722  -2.847  1.00  0.00    -0.550 OA
ENDBRANCH  21  22
ENDBRANCH  20  21
ENDBRANCH  19  20
ENDBRANCH  18  19
ENDBRANCH  17  18
ENDBRANCH  16  17
ENDBRANCH  15  16
ENDBRANCH  14  15
ENDBRANCH  13  14
ENDBRANCH   1  13
TORSDOF 20
ENDMDL
MODEL 3
REMARK VINA RESULT:    -4.555      4.524     10.874
REMARK INTER + INTRA:         -11.780
REMARK INTER:                 -10.439
REMARK INTRA:                  -1.341
REMARK UNBOUND:                -1.900
REMARK SMILES CCCCCCCCCCCCCCCCCCCCCC(=O)[O-]
REMARK SMILES IDX 12 1 11 2 10 3 9 4 8 5 7 6 6 7 5 8 4 9 3 10 2 11 1 12 13 13
REMARK SMILES IDX 14 14 15 15 16 16 17 17 18 18 19 19 20 20 21 21 22 22 23 23
REMARK SMILES IDX 24 24
REMARK H PARENT
REMARK Flexibility Score: inf
ROOT
ATOM      1  C   UNL     1      -8.992   5.530  -8.241  1.00  0.00     0.000 C 
ENDROOT
BRANCH   1   2
ATOM      2  C   UNL     1      -9.196   4.500  -9.368  1.00  0.00     0.000 C 
BRANCH   2   3
ATOM      3  C   UNL     1      -9.496   5.172 -10.725  1.00  0.00     0.000 C 
BRANCH   3   4
ATOM      4  C   UNL     1      -8.648   4.627 -11.888  1.00  0.00    -0.000 C 
BRANCH   4   5
ATOM      5  C   UNL     1      -7.508   5.576 -12.288  1.00  0.00    -0.000 C 
BRANCH   5   6
ATOM      6  C   UNL     1      -6.347   4.855 -12.997  1.00  0.00    -0.000 C 
BRANCH   6   7
ATOM      7  C   UNL     1      -6.598   4.489 -14.474  1.00  0.00    -0.000 C 
BRANCH   7   8
ATOM      8  C   UNL     1      -6.553   5.671 -15.459  1.00  0.00    -0.000 C 
BRANCH   8   9
ATOM      9  C   UNL     1      -7.939   6.054 -15.997  1.00  0.00    -0.000 C 
BRANCH   9  10
ATOM     10  C   UNL     1      -7.902   7.427 -16.678  1.00  0.00    -0.000 C 
BRANCH  10  11
ATOM     11  C   UNL     1      -8.416   7.340 -18.120  1.00  0.00    -0.003 C 
ATOM     12  C   UNL     1      -8.872   5.923 -18.457  1.00  0.00     0.004 C 
ENDBRANCH  10  11
ENDBRANCH   9  10
ENDBRANCH   8   9
ENDBRANCH   7   8
ENDBRANCH   6   7
ENDBRANCH   5   6
ENDBRANCH   4   5
ENDBRANCH   3   4
ENDBRANCH   2   3
ENDBRANCH   1   2
BRANCH   1  13
ATOM     13  C   UNL     1      -7.520   5.613  -7.785  1.00  0.00     0.000 C 
BRANCH  13  14
ATOM     14  C   UNL     1      -7.344   6.197  -6.373  1.00  0.00     0.000 C 
BRANCH  14  15
ATOM     15  C   UNL     1      -7.588   5.164  -5.264  1.00  0.00     0.000 C 
BRANCH  15  16
ATOM     16  C   UNL     1      -8.756   5.591  -4.363  1.00  0.00     0.000 C 
BRANCH  16  17
ATOM     17  C   UNL     1      -9.325   6.971  -4.737  1.00  0.00     0.000 C 
BRANCH  17  18
ATOM     18  C   UNL     1      -9.163   8.059  -3.656  1.00  0.00     0.000 C 
BRANCH  18  19
ATOM     19  C   UNL     1      -9.778   7.719  -2.288  1.00  0.00     0.000 C 
BRANCH  19  20
ATOM     20  C   UNL     1     -10.992   8.600  -1.942  1.00  0.00     0.006 C 
BRANCH  20  21
ATOM     21  C   UNL     1     -11.440   9.460  -3.132  1.00  0.00     0.053 C 
BRANCH  21  22
ATOM     22  C   UNL     1     -11.254  10.921  -2.863  1.00  0.00     0.041 C 
ATOM     23  O   UNL     1     -12.123  11.751  -3.239  1.00  0.00    -0.550 OA
ATOM     24  O   UNL     1     -10.106  11.370  -2.223  1.00  0.00    -0.550 OA
ENDBRANCH  21  22
ENDBRANCH  20  21
ENDBRANCH  19  20
ENDBRANCH  18  19
ENDBRANCH  17  18
ENDBRANCH  16  17
ENDBRANCH  15  16
ENDBRANCH  14  15
ENDBRANCH  13  14
ENDBRANCH   1  13
TORSDOF 20
ENDMDL
MODEL 4
REMARK VINA RESULT:    -4.547      4.307     10.864
REMARK INTER + INTRA:         -11.764
REMARK INTER:                  -9.825
REMARK INTRA:                  -1.939
REMARK UNBOUND:                -1.900
REMARK SMILES CCCCCCCCCCCCCCCCCCCCCC(=O)[O-]
REMARK SMILES IDX 12 1 11 2 10 3 9 4 8 5 7 6 6 7 5 8 4 9 3 10 2 11 1 12 13 13
REMARK SMILES IDX 14 14 15 15 16 16 17 17 18 18 19 19 20 20 21 21 22 22 23 23
REMARK SMILES IDX 24 24
REMARK H PARENT
REMARK Flexibility Score: inf
ROOT
ATOM      1  C   UNL     1      -9.522   5.169 -10.562  1.00  0.00     0.000 C 
ENDROOT
BRANCH   1   2
ATOM      2  C   UNL     1      -8.311   5.016 -11.502  1.00  0.00     0.000 C 
BRANCH   2   3
ATOM      3  C   UNL     1      -8.721   4.527 -12.907  1.00  0.00     0.000 C 
BRANCH   3   4
ATOM      4  C   UNL     1      -8.013   5.270 -14.054  1.00  0.00    -0.000 C 
BRANCH   4   5
ATOM      5  C   UNL     1      -6.486   5.293 -13.893  1.00  0.00    -0.000 C 
BRANCH   5   6
ATOM      6  C   UNL     1      -5.749   4.599 -15.053  1.00  0.00    -0.000 C 
BRANCH   6   7
ATOM      7  C   UNL     1      -4.470   5.308 -15.544  1.00  0.00    -0.000 C 
BRANCH   7   8
ATOM      8  C   UNL     1      -4.661   6.769 -15.992  1.00  0.00    -0.000 C 
BRANCH   8   9
ATOM      9  C   UNL     1      -5.584   6.904 -17.212  1.00  0.00    -0.000 C 
BRANCH   9  10
ATOM     10  C   UNL     1      -6.585   8.049 -17.017  1.00  0.00    -0.000 C 
BRANCH  10  11
ATOM     11  C   UNL     1      -8.017   7.514 -16.906  1.00  0.00    -0.003 C 
ATOM     12  C   UNL     1      -8.156   6.164 -17.604  1.00  0.00     0.004 C 
ENDBRANCH  10  11
ENDBRANCH   9  10
ENDBRANCH   8   9
ENDBRANCH   7   8
ENDBRANCH   6   7
ENDBRANCH   5   6
ENDBRANCH   4   5
ENDBRANCH   3   4
ENDBRANCH   2   3
ENDBRANCH   1   2
BRANCH   1  13
ATOM     13  C   UNL     1      -9.271   4.533  -9.178  1.00  0.00     0.000 C 
BRANCH  13  14
ATOM     14  C   UNL     1      -9.122   5.561  -8.044  1.00  0.00     0.000 C 
BRANCH  14  15
ATOM     15  C   UNL     1      -7.835   5.370  -7.230  1.00  0.00     0.000 C 
BRANCH  15  16
ATOM     16  C   UNL     1      -6.743   6.347  -7.690  1.00  0.00     0.000 C 
BRANCH  16  17
ATOM     17  C   UNL     1      -5.989   6.995  -6.516  1.00  0.00     0.000 C 
BRANCH  17  18
ATOM     18  C   UNL     1      -6.868   7.816  -5.549  1.00  0.00     0.000 C 
BRANCH  18  19
ATOM     19  C   UNL     1      -6.656   7.513  -4.056  1.00  0.00     0.000 C 
BRANCH  19  20
ATOM     20  C   UNL     1      -7.025   6.067  -3.683  1.00  0.00     0.006 C 
BRANCH  20  21
ATOM     21  C   UNL     1      -8.543   5.863  -3.588  1.00  0.00     0.053 C 
BRANCH  21  22
ATOM     22  C   UNL     1      -8.999   5.729  -2.167  1.00  0.00     0.041 C 
ATOM     23  O   UNL     1      -9.663   6.651  -1.624  1.00  0.00    -0.550 OA
ATOM     24  O   UNL     1      -8.665   4.598  -1.433  1.00  0.00    -0.550 OA
ENDBRANCH  21  22
ENDBRANCH  20  21
ENDBRANCH  19  20
ENDBRANCH  18  19
ENDBRANCH  17  18
ENDBRANCH  16  17
ENDBRANCH  15  16
ENDBRANCH  14  15
ENDBRANCH  13  14
ENDBRANCH   1  13
TORSDOF 20
ENDMDL
MODEL 5
REMARK VINA RESULT:    -4.523      2.374      4.063
REMARK INTER + INTRA:         -11.711
REMARK INTER:                 -10.656
REMARK INTRA:                  -1.055
REMARK UNBOUND:                -1.900
REMARK SMILES CCCCCCCCCCCCCCCCCCCCCC(=O)[O-]
REMARK SMILES IDX 12 1 11 2 10 3 9 4 8 5 7 6 6 7 5 8 4 9 3 10 2 11 1 12 13 13
REMARK SMILES IDX 14 14 15 15 16 16 17 17 18 18 19 19 20 20 21 21 22 22 23 23
REMARK SMILES IDX 24 24
REMARK H PARENT
REMARK Flexibility Score: inf
ROOT
ATOM      1  C   UNL     1      -9.059   5.408  -8.169  1.00  0.00     0.000 C 
ENDROOT
BRANCH   1   2
ATOM      2  C   UNL     1      -7.627   5.903  -7.894  1.00  0.00     0.000 C 
BRANCH   2   3
ATOM      3  C   UNL     1      -7.423   6.308  -6.419  1.00  0.00     0.000 C 
BRANCH   3   4
ATOM      4  C   UNL     1      -7.847   5.223  -5.413  1.00  0.00    -0.000 C 
BRANCH   4   5
ATOM      5  C   UNL     1      -9.054   5.642  -4.561  1.00  0.00    -0.000 C 
BRANCH   5   6
ATOM      6  C   UNL     1      -9.441   7.120  -4.754  1.00  0.00    -0.000 C 
BRANCH   6   7
ATOM      7  C   UNL     1      -9.560   7.948  -3.457  1.00  0.00    -0.000 C 
BRANCH   7   8
ATOM      8  C   UNL     1     -10.928   8.613  -3.226  1.00  0.00    -0.000 C 
BRANCH   8   9
ATOM      9  C   UNL     1     -10.950   9.518  -1.986  1.00  0.00    -0.000 C 
BRANCH   9  10
ATOM     10  C   UNL     1     -12.222  10.375  -1.956  1.00  0.00    -0.000 C 
BRANCH  10  11
ATOM     11  C   UNL     1     -12.541  10.933  -3.348  1.00  0.00    -0.003 C 
ATOM     12  C   UNL     1     -14.033  10.837  -3.651  1.00  0.00     0.004 C 
ENDBRANCH  10  11
ENDBRANCH   9  10
ENDBRANCH   8   9
ENDBRANCH   7   8
ENDBRANCH   6   7
ENDBRANCH   5   6
ENDBRANCH   4   5
ENDBRANCH   3   4
ENDBRANCH   2   3
ENDBRANCH   1   2
BRANCH   1  13
ATOM     13  C   UNL     1      -9.131   4.485  -9.404  1.00  0.00     0.000 C 
BRANCH  13  14
ATOM     14  C   UNL     1      -9.375   5.237 -10.724  1.00  0.00     0.000 C 
BRANCH  14  15
ATOM     15  C   UNL     1      -8.770   4.522 -11.939  1.00  0.00     0.000 C 
BRANCH  15  16
ATOM     16  C   UNL     1      -7.423   5.148 -12.331  1.00  0.00     0.000 C 
BRANCH  16  17
ATOM     17  C   UNL     1      -6.841   4.552 -13.624  1.00  0.00     0.000 C 
BRANCH  17  18
ATOM     18  C   UNL     1      -7.217   5.304 -14.918  1.00  0.00     0.000 C 
BRANCH  18  19
ATOM     19  C   UNL     1      -6.064   6.072 -15.586  1.00  0.00     0.000 C 
BRANCH  19  20
ATOM     20  C   UNL     1      -6.519   6.883 -16.812  1.00  0.00     0.006 C 
BRANCH  20  21
ATOM     21  C   UNL     1      -8.037   6.811 -17.023  1.00  0.00     0.053 C 
BRANCH  21  22
ATOM     22  C   UNL     1      -8.385   6.307 -18.390  1.00  0.00     0.041 C 
ATOM     23  O   UNL     1      -9.434   5.632 -18.569  1.00  0.00    -0.550 OA
ATOM     24  O   UNL     1      -7.537   6.556 -19.461  1.00  0.00    -0.550 OA
ENDBRANCH  21  22
ENDBRANCH  20  21
ENDBRANCH  19  20
ENDBRANCH  18  19
ENDBRANCH  17  18
ENDBRANCH  16  17
ENDBRANCH  15  16
ENDBRANCH  14  15
ENDBRANCH  13  14
ENDBRANCH   1  13
TORSDOF 20
ENDMDL
MODEL 6
REMARK VINA RESULT:    -4.494      3.898     10.417
REMARK INTER + INTRA:         -11.648
REMARK INTER:                  -9.862
REMARK INTRA:                  -1.786
REMARK UNBOUND:                -1.900
REMARK SMILES CCCCCCCCCCCCCCCCCCCCCC(=O)[O-]
REMARK SMILES IDX 12 1 11 2 10 3 9 4 8 5 7 6 6 7 5 8 4 9 3 10 2 11 1 12 13 13
REMARK SMILES IDX 14 14 15 15 16 16 17 17 18 18 19 19 20 20 21 21 22 22 23 23
REMARK SMILES IDX 24 24
REMARK H PARENT
REMARK Flexibility Score: inf
ROOT
ATOM      1  C   UNL     1      -9.158   4.567  -9.142  1.00  0.00     0.000 C 
ENDROOT
BRANCH   1   2
ATOM      2  C   UNL     1      -9.561   5.217 -10.479  1.00  0.00     0.000 C 
BRANCH   2   3
ATOM      3  C   UNL     1      -8.418   5.174 -11.516  1.00  0.00     0.000 C 
BRANCH   3   4
ATOM      4  C   UNL     1      -8.760   4.371 -12.783  1.00  0.00    -0.000 C 
BRANCH   4   5
ATOM      5  C   UNL     1      -7.565   4.232 -13.739  1.00  0.00    -0.000 C 
BRANCH   5   6
ATOM      6  C   UNL     1      -6.326   5.018 -13.270  1.00  0.00    -0.000 C 
BRANCH   6   7
ATOM      7  C   UNL     1      -5.448   5.603 -14.395  1.00  0.00    -0.000 C 
BRANCH   7   8
ATOM      8  C   UNL     1      -5.423   4.785 -15.699  1.00  0.00    -0.000 C 
BRANCH   8   9
ATOM      9  C   UNL     1      -6.227   5.441 -16.831  1.00  0.00    -0.000 C 
BRANCH   9  10
ATOM     10  C   UNL     1      -6.906   6.728 -16.346  1.00  0.00    -0.000 C 
BRANCH  10  11
ATOM     11  C   UNL     1      -6.904   7.798 -17.444  1.00  0.00    -0.003 C 
ATOM     12  C   UNL     1      -5.618   8.618 -17.412  1.00  0.00     0.004 C 
ENDBRANCH  10  11
ENDBRANCH   9  10
ENDBRANCH   8   9
ENDBRANCH   7   8
ENDBRANCH   6   7
ENDBRANCH   5   6
ENDBRANCH   4   5
ENDBRANCH   3   4
ENDBRANCH   2   3
ENDBRANCH   1   2
BRANCH   1  13
ATOM     13  C   UNL     1      -9.030   5.603  -8.005  1.00  0.00     0.000 C 
BRANCH  13  14
ATOM     14  C   UNL     1      -7.673   5.562  -7.283  1.00  0.00     0.000 C 
BRANCH  14  15
ATOM     15  C   UNL     1      -6.526   6.126  -8.135  1.00  0.00     0.000 C 
BRANCH  15  16
ATOM     16  C   UNL     1      -5.705   7.152  -7.341  1.00  0.00     0.000 C 
BRANCH  16  17
ATOM     17  C   UNL     1      -6.421   7.632  -6.066  1.00  0.00     0.000 C 
BRANCH  17  18
ATOM     18  C   UNL     1      -5.549   7.652  -4.794  1.00  0.00     0.000 C 
BRANCH  18  19
ATOM     19  C   UNL     1      -4.801   6.341  -4.493  1.00  0.00     0.000 C 
BRANCH  19  20
ATOM     20  C   UNL     1      -5.455   5.526  -3.364  1.00  0.00     0.006 C 
BRANCH  20  21
ATOM     21  C   UNL     1      -6.711   4.784  -3.838  1.00  0.00     0.053 C 
BRANCH  21  22
ATOM     22  C   UNL     1      -7.959   5.376  -3.259  1.00  0.00     0.041 C 
ATOM     23  O   UNL     1      -8.109   5.441  -2.010  1.00  0.00    -0.550 OA
ATOM     24  O   UNL     1      -8.969   5.828  -4.098  1.00  0.00    -0.550 OA
ENDBRANCH  21  22
ENDBRANCH  20  21
ENDBRANCH  19  20
ENDBRANCH  18  19
ENDBRANCH  17  18
ENDBRANCH  16  17
ENDBRANCH  15  16
ENDBRANCH  14  15
ENDBRANCH  13  14
ENDBRANCH   1  13
TORSDOF 20
ENDMDL
MODEL 7
REMARK VINA RESULT:    -4.478      2.432      4.729
REMARK INTER + INTRA:         -11.613
REMARK INTER:                  -9.758
REMARK INTRA:                  -1.855
REMARK UNBOUND:                -1.900
REMARK SMILES CCCCCCCCCCCCCCCCCCCCCC(=O)[O-]
REMARK SMILES IDX 12 1 11 2 10 3 9 4 8 5 7 6 6 7 5 8 4 9 3 10 2 11 1 12 13 13
REMARK SMILES IDX 14 14 15 15 16 16 17 17 18 18 19 19 20 20 21 21 22 22 23 23
REMARK SMILES IDX 24 24
REMARK H PARENT
REMARK Flexibility Score: inf
ROOT
ATOM      1  C   UNL     1      -8.731   5.502  -7.862  1.00  0.00     0.000 C 
ENDROOT
BRANCH   1   2
ATOM      2  C   UNL     1      -7.203   5.667  -7.763  1.00  0.00     0.000 C 
BRANCH   2   3
ATOM      3  C   UNL     1      -6.798   7.079  -7.290  1.00  0.00     0.000 C 
BRANCH   3   4
ATOM      4  C   UNL     1      -5.518   7.104  -6.437  1.00  0.00    -0.000 C 
BRANCH   4   5
ATOM      5  C   UNL     1      -5.508   8.252  -5.415  1.00  0.00    -0.000 C 
BRANCH   5   6
ATOM      6  C   UNL     1      -6.910   8.830  -5.147  1.00  0.00    -0.000 C 
BRANCH   6   7
ATOM      7  C   UNL     1      -7.651   8.233  -3.934  1.00  0.00    -0.000 C 
BRANCH   7   8
ATOM      8  C   UNL     1      -8.916   7.423  -4.271  1.00  0.00    -0.000 C 
BRANCH   8   9
ATOM      9  C   UNL     1      -8.889   6.003  -3.686  1.00  0.00    -0.000 C 
BRANCH   9  10
ATOM     10  C   UNL     1      -7.671   5.224  -4.196  1.00  0.00    -0.000 C 
BRANCH  10  11
ATOM     11  C   UNL     1      -6.845   4.671  -3.029  1.00  0.00    -0.003 C 
ATOM     12  C   UNL     1      -6.167   3.357  -3.408  1.00  0.00     0.004 C 
ENDBRANCH  10  11
ENDBRANCH   9  10
ENDBRANCH   8   9
ENDBRANCH   7   8
ENDBRANCH   6   7
ENDBRANCH   5   6
ENDBRANCH   4   5
ENDBRANCH   3   4
ENDBRANCH   2   3
ENDBRANCH   1   2
BRANCH   1  13
ATOM     13  C   UNL     1      -9.144   4.553  -9.007  1.00  0.00     0.000 C 
BRANCH  13  14
ATOM     14  C   UNL     1      -9.516   5.281 -10.310  1.00  0.00     0.000 C 
BRANCH  14  15
ATOM     15  C   UNL     1      -9.009   4.558 -11.565  1.00  0.00     0.000 C 
BRANCH  15  16
ATOM     16  C   UNL     1      -7.924   5.382 -12.273  1.00  0.00     0.000 C 
BRANCH  16  17
ATOM     17  C   UNL     1      -7.045   4.532 -13.209  1.00  0.00     0.000 C 
BRANCH  17  18
ATOM     18  C   UNL     1      -6.508   5.273 -14.451  1.00  0.00     0.000 C 
BRANCH  18  19
ATOM     19  C   UNL     1      -7.585   5.823 -15.401  1.00  0.00     0.000 C 
BRANCH  19  20
ATOM     20  C   UNL     1      -6.993   6.456 -16.673  1.00  0.00     0.006 C 
BRANCH  20  21
ATOM     21  C   UNL     1      -7.877   7.584 -17.223  1.00  0.00     0.053 C 
BRANCH  21  22
ATOM     22  C   UNL     1      -8.770   7.103 -18.325  1.00  0.00     0.041 C 
ATOM     23  O   UNL     1      -8.476   6.064 -18.972  1.00  0.00    -0.550 OA
ATOM     24  O   UNL     1      -9.914   7.818 -18.656  1.00  0.00    -0.550 OA
ENDBRANCH  21  22
ENDBRANCH  20  21
ENDBRANCH  19  20
ENDBRANCH  18  19
ENDBRANCH  17  18
ENDBRANCH  16  17
ENDBRANCH  15  16
ENDBRANCH  14  15
ENDBRANCH  13  14
ENDBRANCH   1  13
TORSDOF 20
ENDMDL
MODEL 8
REMARK VINA RESULT:    -4.475      1.504      2.351
REMARK INTER + INTRA:         -11.607
REMARK INTER:                  -9.518
REMARK INTRA:                  -2.089
REMARK UNBOUND:                -1.900
REMARK SMILES CCCCCCCCCCCCCCCCCCCCCC(=O)[O-]
REMARK SMILES IDX 12 1 11 2 10 3 9 4 8 5 7 6 6 7 5 8 4 9 3 10 2 11 1 12 13 13
REMARK SMILES IDX 14 14 15 15 16 16 17 17 18 18 19 19 20 20 21 21 22 22 23 23
REMARK SMILES IDX 24 24
REMARK H PARENT
REMARK Flexibility Score: inf
ROOT
ATOM      1  C   UNL     1      -7.319   4.700  -4.567  1.00  0.00     0.000 C 
ENDROOT
BRANCH   1   2
ATOM      2  C   UNL     1      -5.973   5.221  -4.031  1.00  0.00     0.000 C 
BRANCH   2   3
ATOM      3  C   UNL     1      -6.109   5.858  -2.631  1.00  0.00     0.000 C 
BRANCH   3   4
ATOM      4  C   UNL     1      -6.191   4.832  -1.488  1.00  0.00    -0.000 C 
BRANCH   4   5
ATOM      5  C   UNL     1      -7.272   5.181  -0.453  1.00  0.00    -0.000 C 
BRANCH   5   6
ATOM      6  C   UNL     1      -8.687   4.765  -0.899  1.00  0.00    -0.000 C 
BRANCH   6   7
ATOM      7  C   UNL     1      -9.518   5.873  -1.579  1.00  0.00    -0.000 C 
BRANCH   7   8
ATOM      8  C   UNL     1     -10.243   6.832  -0.619  1.00  0.00    -0.000 C 
BRANCH   8   9
ATOM      9  C   UNL     1     -11.003   7.948  -1.351  1.00  0.00    -0.000 C 
BRANCH   9  10
ATOM     10  C   UNL     1     -10.328   8.285  -2.686  1.00  0.00    -0.000 C 
BRANCH  10  11
ATOM     11  C   UNL     1      -9.300   9.409  -2.514  1.00  0.00    -0.003 C 
ATOM     12  C   UNL     1      -7.958   9.027  -3.130  1.00  0.00     0.004 C 
ENDBRANCH  10  11
ENDBRANCH   9  10
ENDBRANCH   8   9
ENDBRANCH   7   8
ENDBRANCH   6   7
ENDBRANCH   5   6
ENDBRANCH   4   5
ENDBRANCH   3   4
ENDBRANCH   2   3
ENDBRANCH   1   2
BRANCH   1  13
ATOM     13  C   UNL     1      -8.254   5.846  -5.010  1.00  0.00     0.000 C 
BRANCH  13  14
ATOM     14  C   UNL     1      -7.746   6.618  -6.238  1.00  0.00     0.000 C 
BRANCH  14  15
ATOM     15  C   UNL     1      -7.691   5.755  -7.506  1.00  0.00     0.000 C 
BRANCH  15  16
ATOM     16  C   UNL     1      -9.088   5.594  -8.123  1.00  0.00     0.000 C 
BRANCH  16  17
ATOM     17  C   UNL     1      -9.120   4.568  -9.269  1.00  0.00     0.000 C 
BRANCH  17  18
ATOM     18  C   UNL     1      -9.493   5.143 -10.651  1.00  0.00     0.000 C 
BRANCH  18  19
ATOM     19  C   UNL     1      -8.706   4.559 -11.837  1.00  0.00     0.000 C 
BRANCH  19  20
ATOM     20  C   UNL     1      -7.614   5.511 -12.354  1.00  0.00     0.006 C 
BRANCH  20  21
ATOM     21  C   UNL     1      -6.651   4.814 -13.326  1.00  0.00     0.053 C 
BRANCH  21  22
ATOM     22  C   UNL     1      -6.945   5.168 -14.751  1.00  0.00     0.041 C 
ATOM     23  O   UNL     1      -6.207   4.739 -15.677  1.00  0.00    -0.550 OA
ATOM     24  O   UNL     1      -8.018   5.996 -15.055  1.00  0.00    -0.550 OA
ENDBRANCH  21  22
ENDBRANCH  20  21
ENDBRANCH  19  20
ENDBRANCH  18  19
ENDBRANCH  17  18
ENDBRANCH  16  17
ENDBRANCH  15  16
ENDBRANCH  14  15
ENDBRANCH  13  14
ENDBRANCH   1  13
TORSDOF 20
ENDMDL
MODEL 9
REMARK VINA RESULT:    -4.462      3.040      5.968
REMARK INTER + INTRA:         -11.580
REMARK INTER:                  -9.996
REMARK INTRA:                  -1.584
REMARK UNBOUND:                -1.900
REMARK SMILES CCCCCCCCCCCCCCCCCCCCCC(=O)[O-]
REMARK SMILES IDX 12 1 11 2 10 3 9 4 8 5 7 6 6 7 5 8 4 9 3 10 2 11 1 12 13 13
REMARK SMILES IDX 14 14 15 15 16 16 17 17 18 18 19 19 20 20 21 21 22 22 23 23
REMARK SMILES IDX 24 24
REMARK H PARENT
REMARK Flexibility Score: inf
ROOT
ATOM      1  C   UNL     1      -9.554   5.176 -10.649  1.00  0.00     0.000 C 
ENDROOT
BRANCH   1   2
ATOM      2  C   UNL     1      -9.419   4.518  -9.263  1.00  0.00     0.000 C 
BRANCH   2   3
ATOM      3  C   UNL     1      -9.132   5.552  -8.153  1.00  0.00     0.000 C 
BRANCH   3   4
ATOM      4  C   UNL     1      -7.669   5.564  -7.678  1.00  0.00    -0.000 C 
BRANCH   4   5
ATOM      5  C   UNL     1      -7.540   5.573  -6.147  1.00  0.00    -0.000 C 
BRANCH   5   6
ATOM      6  C   UNL     1      -7.711   6.978  -5.539  1.00  0.00    -0.000 C 
BRANCH   6   7
ATOM      7  C   UNL     1      -6.492   7.513  -4.759  1.00  0.00    -0.000 C 
BRANCH   7   8
ATOM      8  C   UNL     1      -5.122   7.044  -5.280  1.00  0.00    -0.000 C 
BRANCH   8   9
ATOM      9  C   UNL     1      -4.309   6.282  -4.223  1.00  0.00    -0.000 C 
BRANCH   9  10
ATOM     10  C   UNL     1      -5.233   5.641  -3.181  1.00  0.00    -0.000 C 
BRANCH  10  11
ATOM     11  C   UNL     1      -5.020   4.124  -3.117  1.00  0.00    -0.003 C 
ATOM     12  C   UNL     1      -6.318   3.373  -3.396  1.00  0.00     0.004 C 
ENDBRANCH  10  11
ENDBRANCH   9  10
ENDBRANCH   8   9
ENDBRANCH   7   8
ENDBRANCH   6   7
ENDBRANCH   5   6
ENDBRANCH   4   5
ENDBRANCH   3   4
ENDBRANCH   2   3
ENDBRANCH   1   2
BRANCH   1  13
ATOM     13  C   UNL     1      -8.337   4.886 -11.554  1.00  0.00     0.000 C 
BRANCH  13  14
ATOM     14  C   UNL     1      -8.715   4.543 -13.005  1.00  0.00     0.000 C 
BRANCH  14  15
ATOM     15  C   UNL     1      -7.845   5.273 -14.037  1.00  0.00     0.000 C 
BRANCH  15  16
ATOM     16  C   UNL     1      -6.374   5.298 -13.596  1.00  0.00     0.000 C 
BRANCH  16  17
ATOM     17  C   UNL     1      -5.397   5.376 -14.783  1.00  0.00     0.000 C 
BRANCH  17  18
ATOM     18  C   UNL     1      -6.029   5.802 -16.124  1.00  0.00     0.000 C 
BRANCH  18  19
ATOM     19  C   UNL     1      -5.637   7.207 -16.614  1.00  0.00     0.000 C 
BRANCH  19  20
ATOM     20  C   UNL     1      -6.750   7.887 -17.430  1.00  0.00     0.006 C 
BRANCH  20  21
ATOM     21  C   UNL     1      -8.145   7.373 -17.046  1.00  0.00     0.053 C 
BRANCH  21  22
ATOM     22  C   UNL     1      -8.983   7.085 -18.253  1.00  0.00     0.041 C 
ATOM     23  O   UNL     1      -9.686   7.993 -18.769  1.00  0.00    -0.550 OA
ATOM     24  O   UNL     1      -9.010   5.805 -18.792  1.00  0.00    -0.550 OA
ENDBRANCH  21  22
ENDBRANCH  20  21
ENDBRANCH  19  20
ENDBRANCH  18  19
ENDBRANCH  17  18
ENDBRANCH  16  17
ENDBRANCH  15  16
ENDBRANCH  14  15
ENDBRANCH  13  14
ENDBRANCH   1  13
TORSDOF 20
ENDMDL
