MODEL 1
REMARK VINA RESULT:    -4.698      0.000      0.000
REMARK INTER + INTRA:         -14.156
REMARK INTER:                 -10.191
REMARK INTRA:                  -3.965
REMARK UNBOUND:                -3.965
REMARK SMILES CCCCCCCCCCCCCCCCCCCCCC(=O)[O-]
REMARK SMILES IDX 12 1 11 2 10 3 9 4 8 5 7 6 6 7 5 8 4 9 3 10 2 11 1 12 13 13
REMARK SMILES IDX 14 14 15 15 16 16 17 17 18 18 19 19 20 20 21 21 22 22 23 23
REMARK SMILES IDX 24 24
REMARK H PARENT
REMARK Flexibility Score: inf
ROOT
ATOM      1  C   UNL     1     -20.675  60.836  28.508  1.00  0.00     0.000 C 
ENDROOT
BRANCH   1   2
ATOM      2  C   UNL     1     -21.785  61.615  27.770  1.00  0.00     0.000 C 
BRANCH   2   3
ATOM      3  C   UNL     1     -23.145  60.890  27.744  1.00  0.00     0.000 C 
BRANCH   3   4
ATOM      4  C   UNL     1     -23.071  59.360  27.884  1.00  0.00    -0.000 C 
BRANCH   4   5
ATOM      5  C   UNL     1     -23.880  58.832  29.082  1.00  0.00    -0.000 C 
BRANCH   5   6
ATOM      6  C   UNL     1     -22.993  58.177  30.156  1.00  0.00    -0.000 C 
BRANCH   6   7
ATOM      7  C   UNL     1     -23.553  58.246  31.590  1.00  0.00    -0.000 C 
BRANCH   7   8
ATOM      8  C   UNL     1     -22.509  58.716  32.616  1.00  0.00    -0.000 C 
BRANCH   8   9
ATOM      9  C   UNL     1     -23.094  58.877  34.028  1.00  0.00    -0.000 C 
BRANCH   9  10
ATOM     10  C   UNL     1     -23.978  60.131  34.158  1.00  0.00    -0.000 C 
BRANCH  10  11
ATOM     11  C   UNL     1     -23.517  61.062  35.289  1.00  0.00    -0.003 C 
ATOM     12  C   UNL     1     -22.157  61.705  35.012  1.00  0.00     0.004 C 
ENDBRANCH  10  11
ENDBRANCH   9  10
ENDBRANCH   8   9
ENDBRANCH   7   8
ENDBRANCH   6   7
ENDBRANCH   5   6
ENDBRANCH   4   5
ENDBRANCH   3   4
ENDBRANCH   2   3
ENDBRANCH   1   2
BRANCH   1  13
ATOM     13  C   UNL     1     -19.992  61.686  29.594  1.00  0.00     0.000 C 
BRANCH  13  14
ATOM     14  C   UNL     1     -20.562  61.421  30.998  1.00  0.00     0.000 C 
BRANCH  14  15
ATOM     15  C   UNL     1     -21.606  62.470  31.416  1.00  0.00     0.000 C 
BRANCH  15  16
ATOM     16  C   UNL     1     -23.050  61.940  31.343  1.00  0.00     0.000 C 
BRANCH  16  17
ATOM     17  C   UNL     1     -24.025  62.807  30.527  1.00  0.00     0.000 C 
BRANCH  17  18
ATOM     18  C   UNL     1     -25.494  62.599  30.925  1.00  0.00     0.000 C 
BRANCH  18  19
ATOM     19  C   UNL     1     -25.853  61.108  30.936  1.00  0.00     0.000 C 
BRANCH  19  20
ATOM     20  C   UNL     1     -26.895  60.800  32.018  1.00  0.00     0.006 C 
BRANCH  20  21
ATOM     21  C   UNL     1     -27.114  62.011  32.929  1.00  0.00     0.053 C 
BRANCH  21  22
ATOM     22  C   UNL     1     -27.398  61.570  34.329  1.00  0.00     0.041 C 
ATOM     23  O   UNL     1     -27.391  62.406  35.271  1.00  0.00    -0.550 OA
ATOM     24  O   UNL     1     -27.627  60.227  34.603  1.00  0.00    -0.550 OA
ENDBRANCH  21  22
ENDBRANCH  20  21
ENDBRANCH  19  20
ENDBRANCH  18  19
ENDBRANCH  17  18
ENDBRANCH  16  17
ENDBRANCH  15  16
ENDBRANCH  14  15
ENDBRANCH  13  14
ENDBRANCH   1  13
TORSDOF 20
ENDMDL
MODEL 2
REMARK VINA RESULT:    -4.618      2.167      4.687
REMARK INTER + INTRA:         -13.982
REMARK INTER:                  -9.848
REMARK INTRA:                  -4.134
REMARK UNBOUND:                -3.965
REMARK SMILES CCCCCCCCCCCCCCCCCCCCCC(=O)[O-]
REMARK SMILES IDX 12 1 11 2 10 3 9 4 8 5 7 6 6 7 5 8 4 9 3 10 2 11 1 12 13 13
REMARK SMILES IDX 14 14 15 15 16 16 17 17 18 18 19 19 20 20 21 21 22 22 23 23
REMARK SMILES IDX 24 24
REMARK H PARENT
REMARK Flexibility Score: inf
ROOT
ATOM      1  C   UNL     1     -23.427  58.414  29.477  1.00  0.00     0.000 C 
ENDROOT
BRANCH   1   2
ATOM      2  C   UNL     1     -24.062  59.338  28.417  1.00  0.00     0.000 C 
BRANCH   2   3
ATOM      3  C   UNL     1     -23.063  60.307  27.754  1.00  0.00     0.000 C 
BRANCH   3   4
ATOM      4  C   UNL     1     -23.258  61.791  28.112  1.00  0.00    -0.000 C 
BRANCH   4   5
ATOM      5  C   UNL     1     -24.354  62.010  29.169  1.00  0.00    -0.000 C 
BRANCH   5   6
ATOM      6  C   UNL     1     -23.821  62.675  30.451  1.00  0.00    -0.000 C 
BRANCH   6   7
ATOM      7  C   UNL     1     -22.969  61.760  31.351  1.00  0.00    -0.000 C 
BRANCH   7   8
ATOM      8  C   UNL     1     -21.541  62.291  31.561  1.00  0.00    -0.000 C 
BRANCH   8   9
ATOM      9  C   UNL     1     -20.592  61.912  30.414  1.00  0.00    -0.000 C 
BRANCH   9  10
ATOM     10  C   UNL     1     -20.380  60.391  30.306  1.00  0.00    -0.000 C 
BRANCH  10  11
ATOM     11  C   UNL     1     -19.890  59.769  31.622  1.00  0.00    -0.003 C 
ATOM     12  C   UNL     1     -20.662  58.505  32.005  1.00  0.00     0.004 C 
ENDBRANCH  10  11
ENDBRANCH   9  10
ENDBRANCH   8   9
ENDBRANCH   7   8
ENDBRANCH   6   7
ENDBRANCH   5   6
ENDBRANCH   4   5
ENDBRANCH   3   4
ENDBRANCH   2   3
ENDBRANCH   1   2
BRANCH   1  13
ATOM     13  C   UNL     1     -24.271  58.338  30.762  1.00  0.00     0.000 C 
BRANCH  13  14
ATOM     14  C   UNL     1     -25.640  59.021  30.612  1.00  0.00     0.000 C 
BRANCH  14  15
ATOM     15  C   UNL     1     -26.253  59.414  31.967  1.00  0.00     0.000 C 
BRANCH  15  16
ATOM     16  C   UNL     1     -26.662  60.897  32.033  1.00  0.00     0.000 C 
BRANCH  16  17
ATOM     17  C   UNL     1     -26.721  61.498  33.448  1.00  0.00     0.000 C 
BRANCH  17  18
ATOM     18  C   UNL     1     -25.943  60.674  34.486  1.00  0.00     0.000 C 
BRANCH  18  19
ATOM     19  C   UNL     1     -24.546  61.261  34.716  1.00  0.00     0.000 C 
BRANCH  19  20
ATOM     20  C   UNL     1     -23.589  60.202  35.277  1.00  0.00     0.006 C 
BRANCH  20  21
ATOM     21  C   UNL     1     -22.148  60.478  34.837  1.00  0.00     0.053 C 
BRANCH  21  22
ATOM     22  C   UNL     1     -21.584  61.642  35.588  1.00  0.00     0.041 C 
ATOM     23  O   UNL     1     -21.234  62.684  34.973  1.00  0.00    -0.550 OA
ATOM     24  O   UNL     1     -21.402  61.561  36.963  1.00  0.00    -0.550 OA
ENDBRANCH  21  22
ENDBRANCH  20  21
ENDBRANCH  19  20
ENDBRANCH  18  19
ENDBRANCH  17  18
ENDBRANCH  16  17
ENDBRANCH  15  16
ENDBRANCH  14  15
ENDBRANCH  13  14
ENDBRANCH   1  13
TORSDOF 20
ENDMDL
MODEL 3
REMARK VINA RESULT:    -4.579      1.389      3.827
REMARK INTER + INTRA:         -13.899
REMARK INTER:                 -10.061
REMARK INTRA:                  -3.837
REMARK UNBOUND:                -3.965
REMARK SMILES CCCCCCCCCCCCCCCCCCCCCC(=O)[O-]
REMARK SMILES IDX 12 1 11 2 10 3 9 4 8 5 7 6 6 7 5 8 4 9 3 10 2 11 1 12 13 13
REMARK SMILES IDX 14 14 15 15 16 16 17 17 18 18 19 19 20 20 21 21 22 22 23 23
REMARK SMILES IDX 24 24
REMARK H PARENT
REMARK Flexibility Score: inf
ROOT
ATOM      1  C   UNL     1     -20.949  60.953  29.520  1.00  0.00     0.000 C 
ENDROOT
BRANCH   1   2
ATOM      2  C   UNL     1     -21.100  61.604  28.129  1.00  0.00     0.000 C 
BRANCH   2   3
ATOM      3  C   UNL     1     -22.548  61.619  27.600  1.00  0.00     0.000 C 
BRANCH   3   4
ATOM      4  C   UNL     1     -23.635  61.772  28.678  1.00  0.00    -0.000 C 
BRANCH   4   5
ATOM      5  C   UNL     1     -24.802  60.786  28.492  1.00  0.00    -0.000 C 
BRANCH   5   6
ATOM      6  C   UNL     1     -25.431  60.349  29.827  1.00  0.00    -0.000 C 
BRANCH   6   7
ATOM      7  C   UNL     1     -25.118  58.901  30.248  1.00  0.00    -0.000 C 
BRANCH   7   8
ATOM      8  C   UNL     1     -23.885  58.798  31.162  1.00  0.00    -0.000 C 
BRANCH   8   9
ATOM      9  C   UNL     1     -22.793  57.885  30.584  1.00  0.00    -0.000 C 
BRANCH   9  10
ATOM     10  C   UNL     1     -23.169  57.321  29.201  1.00  0.00    -0.000 C 
BRANCH  10  11
ATOM     11  C   UNL     1     -22.151  57.698  28.114  1.00  0.00    -0.003 C 
ATOM     12  C   UNL     1     -22.813  58.143  26.809  1.00  0.00     0.004 C 
ENDBRANCH  10  11
ENDBRANCH   9  10
ENDBRANCH   8   9
ENDBRANCH   7   8
ENDBRANCH   6   7
ENDBRANCH   5   6
ENDBRANCH   4   5
ENDBRANCH   3   4
ENDBRANCH   2   3
ENDBRANCH   1   2
BRANCH   1  13
ATOM     13  C   UNL     1     -20.255  61.888  30.527  1.00  0.00     0.000 C 
BRANCH  13  14
ATOM     14  C   UNL     1     -21.255  62.675  31.390  1.00  0.00     0.000 C 
BRANCH  14  15
ATOM     15  C   UNL     1     -22.230  61.757  32.146  1.00  0.00     0.000 C 
BRANCH  15  16
ATOM     16  C   UNL     1     -21.815  61.516  33.609  1.00  0.00     0.000 C 
BRANCH  16  17
ATOM     17  C   UNL     1     -21.985  60.070  34.109  1.00  0.00     0.000 C 
BRANCH  17  18
ATOM     18  C   UNL     1     -23.019  59.941  35.238  1.00  0.00     0.000 C 
BRANCH  18  19
ATOM     19  C   UNL     1     -23.844  61.226  35.374  1.00  0.00     0.000 C 
BRANCH  19  20
ATOM     20  C   UNL     1     -25.342  60.940  35.210  1.00  0.00     0.006 C 
BRANCH  20  21
ATOM     21  C   UNL     1     -25.670  60.548  33.767  1.00  0.00     0.053 C 
BRANCH  21  22
ATOM     22  C   UNL     1     -27.006  61.089  33.367  1.00  0.00     0.041 C 
ATOM     23  O   UNL     1     -27.728  60.456  32.552  1.00  0.00    -0.550 OA
ATOM     24  O   UNL     1     -27.435  62.316  33.857  1.00  0.00    -0.550 OA
ENDBRANCH  21  22
ENDBRANCH  20  21
ENDBRANCH  19  20
ENDBRANCH  18  19
ENDBRANCH  17  18
ENDBRANCH  16  17
ENDBRANCH  15  16
ENDBRANCH  14  15
ENDBRANCH  13  14
ENDBRANCH   1  13
TORSDOF 20
ENDMDL
MODEL 4
REMARK VINA RESULT:    -4.558      3.065      5.712
REMARK INTER + INTRA:         -13.853
REMARK INTER:                 -10.456
REMARK INTRA:                  -3.397
REMARK UNBOUND:                -3.965
REMARK SMILES CCCCCCCCCCCCCCCCCCCCCC(=O)[O-]
REMARK SMILES IDX 12 1 11 2 10 3 9 4 8 5 7 6 6 7 5 8 4 9 3 10 2 11 1 12 13 13
REMARK SMILES IDX 14 14 15 15 16 16 17 17 18 18 19 19 20 20 21 21 22 22 23 23
REMARK SMILES IDX 24 24
REMARK H PARENT
REMARK Flexibility Score: inf
ROOT
ATOM      1  C   UNL     1     -22.938  62.006  31.600  1.00  0.00     0.000 C 
ENDROOT
BRANCH   1   2
ATOM      2  C   UNL     1     -21.460  62.348  31.886  1.00  0.00     0.000 C 
BRANCH   2   3
ATOM      3  C   UNL     1     -20.808  61.450  32.956  1.00  0.00     0.000 C 
BRANCH   3   4
ATOM      4  C   UNL     1     -20.313  62.185  34.213  1.00  0.00    -0.000 C 
BRANCH   4   5
ATOM      5  C   UNL     1     -20.635  61.427  35.512  1.00  0.00    -0.000 C 
BRANCH   5   6
ATOM      6  C   UNL     1     -21.957  61.883  36.156  1.00  0.00    -0.000 C 
BRANCH   6   7
ATOM      7  C   UNL     1     -22.966  60.754  36.437  1.00  0.00    -0.000 C 
BRANCH   7   8
ATOM      8  C   UNL     1     -23.131  59.793  35.247  1.00  0.00    -0.000 C 
BRANCH   8   9
ATOM      9  C   UNL     1     -24.249  60.225  34.286  1.00  0.00    -0.000 C 
BRANCH   9  10
ATOM     10  C   UNL     1     -25.300  61.119  34.971  1.00  0.00    -0.000 C 
BRANCH  10  11
ATOM     11  C   UNL     1     -26.739  60.711  34.621  1.00  0.00    -0.003 C 
ATOM     12  C   UNL     1     -27.541  61.848  33.986  1.00  0.00     0.004 C 
ENDBRANCH  10  11
ENDBRANCH   9  10
ENDBRANCH   8   9
ENDBRANCH   7   8
ENDBRANCH   6   7
ENDBRANCH   5   6
ENDBRANCH   4   5
ENDBRANCH   3   4
ENDBRANCH   2   3
ENDBRANCH   1   2
BRANCH   1  13
ATOM     13  C   UNL     1     -23.479  62.755  30.369  1.00  0.00     0.000 C 
BRANCH  13  14
ATOM     14  C   UNL     1     -25.003  62.620  30.217  1.00  0.00     0.000 C 
BRANCH  14  15
ATOM     15  C   UNL     1     -25.602  61.590  31.188  1.00  0.00     0.000 C 
BRANCH  15  16
ATOM     16  C   UNL     1     -25.976  60.264  30.500  1.00  0.00     0.000 C 
BRANCH  16  17
ATOM     17  C   UNL     1     -25.080  59.065  30.858  1.00  0.00     0.000 C 
BRANCH  17  18
ATOM     18  C   UNL     1     -23.906  58.878  29.885  1.00  0.00     0.000 C 
BRANCH  18  19
ATOM     19  C   UNL     1     -24.258  59.413  28.493  1.00  0.00     0.000 C 
BRANCH  19  20
ATOM     20  C   UNL     1     -22.992  59.718  27.683  1.00  0.00     0.006 C 
BRANCH  20  21
ATOM     21  C   UNL     1     -21.835  60.116  28.604  1.00  0.00     0.053 C 
BRANCH  21  22
ATOM     22  C   UNL     1     -21.153  61.344  28.088  1.00  0.00     0.041 C 
ATOM     23  O   UNL     1     -20.120  61.782  28.660  1.00  0.00    -0.550 OA
ATOM     24  O   UNL     1     -21.684  62.032  27.004  1.00  0.00    -0.550 OA
ENDBRANCH  21  22
ENDBRANCH  20  21
ENDBRANCH  19  20
ENDBRANCH  18  19
ENDBRANCH  17  18
ENDBRANCH  16  17
ENDBRANCH  15  16
ENDBRANCH  14  15
ENDBRANCH  13  14
ENDBRANCH   1  13
TORSDOF 20
ENDMDL
MODEL 5
REMARK VINA RESULT:    -4.534      1.982      4.231
REMARK INTER + INTRA:         -13.801
REMARK INTER:                  -9.672
REMARK INTRA:                  -4.129
REMARK UNBOUND:                -3.965
REMARK SMILES CCCCCCCCCCCCCCCCCCCCCC(=O)[O-]
REMARK SMILES IDX 12 1 11 2 10 3 9 4 8 5 7 6 6 7 5 8 4 9 3 10 2 11 1 12 13 13
REMARK SMILES IDX 14 14 15 15 16 16 17 17 18 18 19 19 20 20 21 21 22 22 23 23
REMARK SMILES IDX 24 24
REMARK H PARENT
REMARK Flexibility Score: inf
ROOT
ATOM      1  C   UNL     1     -21.492  61.005  31.250  1.00  0.00     0.000 C 
ENDROOT
BRANCH   1   2
ATOM      2  C   UNL     1     -21.862  61.631  32.611  1.00  0.00     0.000 C 
BRANCH   2   3
ATOM      3  C   UNL     1     -20.666  62.261  33.353  1.00  0.00     0.000 C 
BRANCH   3   4
ATOM      4  C   UNL     1     -20.848  62.413  34.873  1.00  0.00    -0.000 C 
BRANCH   4   5
ATOM      5  C   UNL     1     -22.194  61.857  35.371  1.00  0.00    -0.000 C 
BRANCH   5   6
ATOM      6  C   UNL     1     -22.071  61.116  36.715  1.00  0.00    -0.000 C 
BRANCH   6   7
ATOM      7  C   UNL     1     -22.357  59.604  36.650  1.00  0.00    -0.000 C 
BRANCH   7   8
ATOM      8  C   UNL     1     -22.143  59.016  35.245  1.00  0.00    -0.000 C 
BRANCH   8   9
ATOM      9  C   UNL     1     -20.802  58.278  35.108  1.00  0.00    -0.000 C 
BRANCH   9  10
ATOM     10  C   UNL     1     -20.049  58.661  33.821  1.00  0.00    -0.000 C 
BRANCH  10  11
ATOM     11  C   UNL     1     -18.627  59.170  34.100  1.00  0.00    -0.003 C 
ATOM     12  C   UNL     1     -18.452  59.692  35.527  1.00  0.00     0.004 C 
ENDBRANCH  10  11
ENDBRANCH   9  10
ENDBRANCH   8   9
ENDBRANCH   7   8
ENDBRANCH   6   7
ENDBRANCH   5   6
ENDBRANCH   4   5
ENDBRANCH   3   4
ENDBRANCH   2   3
ENDBRANCH   1   2
BRANCH   1  13
ATOM     13  C   UNL     1     -22.367  61.545  30.105  1.00  0.00     0.000 C 
BRANCH  13  14
ATOM     14  C   UNL     1     -23.513  62.439  30.607  1.00  0.00     0.000 C 
BRANCH  14  15
ATOM     15  C   UNL     1     -24.757  62.361  29.707  1.00  0.00     0.000 C 
BRANCH  15  16
ATOM     16  C   UNL     1     -25.405  60.964  29.701  1.00  0.00     0.000 C 
BRANCH  16  17
ATOM     17  C   UNL     1     -26.222  60.615  30.957  1.00  0.00     0.000 C 
BRANCH  17  18
ATOM     18  C   UNL     1     -25.809  59.278  31.592  1.00  0.00     0.000 C 
BRANCH  18  19
ATOM     19  C   UNL     1     -24.979  59.507  32.861  1.00  0.00     0.000 C 
BRANCH  19  20
ATOM     20  C   UNL     1     -25.224  60.908  33.434  1.00  0.00     0.006 C 
BRANCH  20  21
ATOM     21  C   UNL     1     -25.727  60.828  34.879  1.00  0.00     0.053 C 
BRANCH  21  22
ATOM     22  C   UNL     1     -27.012  61.579  35.029  1.00  0.00     0.041 C 
ATOM     23  O   UNL     1     -27.511  61.761  36.171  1.00  0.00    -0.550 OA
ATOM     24  O   UNL     1     -27.684  62.040  33.903  1.00  0.00    -0.550 OA
ENDBRANCH  21  22
ENDBRANCH  20  21
ENDBRANCH  19  20
ENDBRANCH  18  19
ENDBRANCH  17  18
ENDBRANCH  16  17
ENDBRANCH  15  16
ENDBRANCH  14  15
ENDBRANCH  13  14
ENDBRANCH   1  13
TORSDOF 20
ENDMDL
MODEL 6
REMARK VINA RESULT:    -4.513      2.502      4.800
REMARK INTER + INTRA:         -13.754
REMARK INTER:                  -9.673
REMARK INTRA:                  -4.082
REMARK UNBOUND:                -3.965
REMARK SMILES CCCCCCCCCCCCCCCCCCCCCC(=O)[O-]
REMARK SMILES IDX 12 1 11 2 10 3 9 4 8 5 7 6 6 7 5 8 4 9 3 10 2 11 1 12 13 13
REMARK SMILES IDX 14 14 15 15 16 16 17 17 18 18 19 19 20 20 21 21 22 22 23 23
REMARK SMILES IDX 24 24
REMARK H PARENT
REMARK Flexibility Score: inf
ROOT
ATOM      1  C   UNL     1     -22.481  60.203  28.048  1.00  0.00     0.000 C 
ENDROOT
BRANCH   1   2
ATOM      2  C   UNL     1     -22.955  61.643  28.339  1.00  0.00     0.000 C 
BRANCH   2   3
ATOM      3  C   UNL     1     -24.334  61.719  29.024  1.00  0.00     0.000 C 
BRANCH   3   4
ATOM      4  C   UNL     1     -24.483  62.839  30.069  1.00  0.00    -0.000 C 
BRANCH   4   5
ATOM      5  C   UNL     1     -25.472  62.479  31.191  1.00  0.00    -0.000 C 
BRANCH   5   6
ATOM      6  C   UNL     1     -26.172  61.128  30.956  1.00  0.00    -0.000 C 
BRANCH   6   7
ATOM      7  C   UNL     1     -26.912  60.559  32.182  1.00  0.00    -0.000 C 
BRANCH   7   8
ATOM      8  C   UNL     1     -27.350  61.650  33.173  1.00  0.00    -0.000 C 
BRANCH   8   9
ATOM      9  C   UNL     1     -26.733  61.466  34.569  1.00  0.00    -0.000 C 
BRANCH   9  10
ATOM     10  C   UNL     1     -25.521  60.517  34.555  1.00  0.00    -0.000 C 
BRANCH  10  11
ATOM     11  C   UNL     1     -24.218  61.218  34.967  1.00  0.00    -0.003 C 
ATOM     12  C   UNL     1     -23.308  60.329  35.816  1.00  0.00     0.004 C 
ENDBRANCH  10  11
ENDBRANCH   9  10
ENDBRANCH   8   9
ENDBRANCH   7   8
ENDBRANCH   6   7
ENDBRANCH   5   6
ENDBRANCH   4   5
ENDBRANCH   3   4
ENDBRANCH   2   3
ENDBRANCH   1   2
BRANCH   1  13
ATOM     13  C   UNL     1     -23.648  59.199  28.034  1.00  0.00     0.000 C 
BRANCH  13  14
ATOM     14  C   UNL     1     -23.185  57.751  28.269  1.00  0.00     0.000 C 
BRANCH  14  15
ATOM     15  C   UNL     1     -23.088  57.400  29.763  1.00  0.00     0.000 C 
BRANCH  15  16
ATOM     16  C   UNL     1     -24.261  57.961  30.588  1.00  0.00     0.000 C 
BRANCH  16  17
ATOM     17  C   UNL     1     -23.897  58.440  32.004  1.00  0.00     0.000 C 
BRANCH  17  18
ATOM     18  C   UNL     1     -22.457  58.966  32.110  1.00  0.00     0.000 C 
BRANCH  18  19
ATOM     19  C   UNL     1     -22.416  60.488  31.932  1.00  0.00     0.000 C 
BRANCH  19  20
ATOM     20  C   UNL     1     -20.983  61.019  32.061  1.00  0.00     0.006 C 
BRANCH  20  21
ATOM     21  C   UNL     1     -20.947  62.299  32.902  1.00  0.00     0.053 C 
BRANCH  21  22
ATOM     22  C   UNL     1     -20.132  62.091  34.139  1.00  0.00     0.041 C 
ATOM     23  O   UNL     1     -20.592  62.417  35.265  1.00  0.00    -0.550 OA
ATOM     24  O   UNL     1     -18.843  61.580  34.045  1.00  0.00    -0.550 OA
ENDBRANCH  21  22
ENDBRANCH  20  21
ENDBRANCH  19  20
ENDBRANCH  18  19
ENDBRANCH  17  18
ENDBRANCH  16  17
ENDBRANCH  15  16
ENDBRANCH  14  15
ENDBRANCH  13  14
ENDBRANCH   1  13
TORSDOF 20
ENDMDL
MODEL 7
REMARK VINA RESULT:    -4.510      3.540      5.577
REMARK INTER + INTRA:         -13.748
REMARK INTER:                 -10.086
REMARK INTRA:                  -3.662
REMARK UNBOUND:                -3.965
REMARK SMILES CCCCCCCCCCCCCCCCCCCCCC(=O)[O-]
REMARK SMILES IDX 12 1 11 2 10 3 9 4 8 5 7 6 6 7 5 8 4 9 3 10 2 11 1 12 13 13
REMARK SMILES IDX 14 14 15 15 16 16 17 17 18 18 19 19 20 20 21 21 22 22 23 23
REMARK SMILES IDX 24 24
REMARK H PARENT
REMARK Flexibility Score: inf
ROOT
ATOM      1  C   UNL     1     -20.351  61.357  30.160  1.00  0.00     0.000 C 
ENDROOT
BRANCH   1   2
ATOM      2  C   UNL     1     -20.608  61.663  28.669  1.00  0.00     0.000 C 
BRANCH   2   3
ATOM      3  C   UNL     1     -21.849  60.953  28.092  1.00  0.00     0.000 C 
BRANCH   3   4
ATOM      4  C   UNL     1     -23.084  61.849  27.900  1.00  0.00    -0.000 C 
BRANCH   4   5
ATOM      5  C   UNL     1     -24.210  61.534  28.899  1.00  0.00    -0.000 C 
BRANCH   5   6
ATOM      6  C   UNL     1     -24.562  62.733  29.798  1.00  0.00    -0.000 C 
BRANCH   6   7
ATOM      7  C   UNL     1     -25.405  62.388  31.040  1.00  0.00    -0.000 C 
BRANCH   7   8
ATOM      8  C   UNL     1     -26.228  61.101  30.863  1.00  0.00    -0.000 C 
BRANCH   8   9
ATOM      9  C   UNL     1     -26.838  60.600  32.182  1.00  0.00    -0.000 C 
BRANCH   9  10
ATOM     10  C   UNL     1     -27.477  61.736  33.002  1.00  0.00    -0.000 C 
BRANCH  10  11
ATOM     11  C   UNL     1     -27.069  61.697  34.482  1.00  0.00    -0.003 C 
ATOM     12  C   UNL     1     -25.751  60.957  34.716  1.00  0.00     0.004 C 
ENDBRANCH  10  11
ENDBRANCH   9  10
ENDBRANCH   8   9
ENDBRANCH   7   8
ENDBRANCH   6   7
ENDBRANCH   5   6
ENDBRANCH   4   5
ENDBRANCH   3   4
ENDBRANCH   2   3
ENDBRANCH   1   2
BRANCH   1  13
ATOM     13  C   UNL     1     -21.157  62.281  31.090  1.00  0.00     0.000 C 
BRANCH  13  14
ATOM     14  C   UNL     1     -21.987  61.503  32.125  1.00  0.00     0.000 C 
BRANCH  14  15
ATOM     15  C   UNL     1     -22.019  59.993  31.837  1.00  0.00     0.000 C 
BRANCH  15  16
ATOM     16  C   UNL     1     -23.329  59.323  32.293  1.00  0.00     0.000 C 
BRANCH  16  17
ATOM     17  C   UNL     1     -23.937  58.325  31.292  1.00  0.00     0.000 C 
BRANCH  17  18
ATOM     18  C   UNL     1     -23.206  58.305  29.941  1.00  0.00     0.000 C 
BRANCH  18  19
ATOM     19  C   UNL     1     -22.664  56.904  29.633  1.00  0.00     0.000 C 
BRANCH  19  20
ATOM     20  C   UNL     1     -22.981  56.496  28.189  1.00  0.00     0.006 C 
BRANCH  20  21
ATOM     21  C   UNL     1     -23.097  57.727  27.285  1.00  0.00     0.053 C 
BRANCH  21  22
ATOM     22  C   UNL     1     -22.555  57.430  25.923  1.00  0.00     0.041 C 
ATOM     23  O   UNL     1     -22.422  58.354  25.078  1.00  0.00    -0.550 OA
ATOM     24  O   UNL     1     -22.239  56.124  25.569  1.00  0.00    -0.550 OA
ENDBRANCH  21  22
ENDBRANCH  20  21
ENDBRANCH  19  20
ENDBRANCH  18  19
ENDBRANCH  17  18
ENDBRANCH  16  17
ENDBRANCH  15  16
ENDBRANCH  14  15
ENDBRANCH  13  14
ENDBRANCH   1  13
TORSDOF 20
ENDMDL
MODEL 8
REMARK VINA RESULT:    -4.488      2.795      5.708
REMARK INTER + INTRA:         -13.700
REMARK INTER:                  -9.494
REMARK INTRA:                  -4.206
REMARK UNBOUND:                -3.965
REMARK SMILES CCCCCCCCCCCCCCCCCCCCCC(=O)[O-]
REMARK SMILES IDX 12 1 11 2 10 3 9 4 8 5 7 6 6 7 5 8 4 9 3 10 2 11 1 12 13 13
REMARK SMILES IDX 14 14 15 15 16 16 17 17 18 18 19 19 20 20 21 21 22 22 23 23
REMARK SMILES IDX 24 24
REMARK H PARENT
REMARK Flexibility Score: inf
ROOT
ATOM      1  C   UNL     1     -25.296  59.002  30.554  1.00  0.00     0.000 C 
ENDROOT
BRANCH   1   2
ATOM      2  C   UNL     1     -25.504  60.104  29.493  1.00  0.00     0.000 C 
BRANCH   2   3
ATOM      3  C   UNL     1     -24.203  60.808  29.061  1.00  0.00     0.000 C 
BRANCH   3   4
ATOM      4  C   UNL     1     -24.194  62.335  29.249  1.00  0.00    -0.000 C 
BRANCH   4   5
ATOM      5  C   UNL     1     -23.917  62.755  30.703  1.00  0.00    -0.000 C 
BRANCH   5   6
ATOM      6  C   UNL     1     -22.821  61.903  31.369  1.00  0.00    -0.000 C 
BRANCH   6   7
ATOM      7  C   UNL     1     -21.453  62.600  31.508  1.00  0.00    -0.000 C 
BRANCH   7   8
ATOM      8  C   UNL     1     -20.303  61.782  30.898  1.00  0.00    -0.000 C 
BRANCH   8   9
ATOM      9  C   UNL     1     -20.449  61.593  29.380  1.00  0.00    -0.000 C 
BRANCH   9  10
ATOM     10  C   UNL     1     -20.655  60.118  28.988  1.00  0.00    -0.000 C 
BRANCH  10  11
ATOM     11  C   UNL     1     -20.450  59.161  30.172  1.00  0.00    -0.003 C 
ATOM     12  C   UNL     1     -21.715  58.380  30.531  1.00  0.00     0.004 C 
ENDBRANCH  10  11
ENDBRANCH   9  10
ENDBRANCH   8   9
ENDBRANCH   7   8
ENDBRANCH   6   7
ENDBRANCH   5   6
ENDBRANCH   4   5
ENDBRANCH   3   4
ENDBRANCH   2   3
ENDBRANCH   1   2
BRANCH   1  13
ATOM     13  C   UNL     1     -26.012  59.326  31.877  1.00  0.00     0.000 C 
BRANCH  13  14
ATOM     14  C   UNL     1     -26.771  60.663  31.828  1.00  0.00     0.000 C 
BRANCH  14  15
ATOM     15  C   UNL     1     -26.633  61.465  33.132  1.00  0.00     0.000 C 
BRANCH  15  16
ATOM     16  C   UNL     1     -26.291  60.581  34.346  1.00  0.00     0.000 C 
BRANCH  16  17
ATOM     17  C   UNL     1     -25.148  61.103  35.235  1.00  0.00     0.000 C 
BRANCH  17  18
ATOM     18  C   UNL     1     -23.756  60.706  34.721  1.00  0.00     0.000 C 
BRANCH  18  19
ATOM     19  C   UNL     1     -22.678  61.640  35.282  1.00  0.00     0.000 C 
BRANCH  19  20
ATOM     20  C   UNL     1     -21.274  61.079  35.024  1.00  0.00     0.006 C 
BRANCH  20  21
ATOM     21  C   UNL     1     -21.330  59.876  34.078  1.00  0.00     0.053 C 
BRANCH  21  22
ATOM     22  C   UNL     1     -19.959  59.322  33.852  1.00  0.00     0.041 C 
ATOM     23  O   UNL     1     -18.970  60.096  33.759  1.00  0.00    -0.550 OA
ATOM     24  O   UNL     1     -19.779  57.953  33.698  1.00  0.00    -0.550 OA
ENDBRANCH  21  22
ENDBRANCH  20  21
ENDBRANCH  19  20
ENDBRANCH  18  19
ENDBRANCH  17  18
ENDBRANCH  16  17
ENDBRANCH  15  16
ENDBRANCH  14  15
ENDBRANCH  13  14
ENDBRANCH   1  13
TORSDOF 20
ENDMDL
MODEL 9
REMARK VINA RESULT:    -4.479      1.688      4.094
REMARK INTER + INTRA:         -13.681
REMARK INTER:                  -9.878
REMARK INTRA:                  -3.804
REMARK UNBOUND:                -3.965
REMARK SMILES CCCCCCCCCCCCCCCCCCCCCC(=O)[O-]
REMARK SMILES IDX 12 1 11 2 10 3 9 4 8 5 7 6 6 7 5 8 4 9 3 10 2 11 1 12 13 13
REMARK SMILES IDX 14 14 15 15 16 16 17 17 18 18 19 19 20 20 21 21 22 22 23 23
REMARK SMILES IDX 24 24
REMARK H PARENT
REMARK Flexibility Score: inf
ROOT
ATOM      1  C   UNL     1     -21.641  61.763  32.023  1.00  0.00     0.000 C 
ENDROOT
BRANCH   1   2
ATOM      2  C   UNL     1     -20.841  62.382  30.857  1.00  0.00     0.000 C 
BRANCH   2   3
ATOM      3  C   UNL     1     -19.877  61.395  30.169  1.00  0.00     0.000 C 
BRANCH   3   4
ATOM      4  C   UNL     1     -20.439  60.697  28.920  1.00  0.00    -0.000 C 
BRANCH   4   5
ATOM      5  C   UNL     1     -21.410  61.587  28.125  1.00  0.00    -0.000 C 
BRANCH   5   6
ATOM      6  C   UNL     1     -22.725  60.868  27.773  1.00  0.00    -0.000 C 
BRANCH   6   7
ATOM      7  C   UNL     1     -22.552  59.488  27.111  1.00  0.00    -0.000 C 
BRANCH   7   8
ATOM      8  C   UNL     1     -23.314  58.373  27.847  1.00  0.00    -0.000 C 
BRANCH   8   9
ATOM      9  C   UNL     1     -23.927  58.849  29.173  1.00  0.00    -0.000 C 
BRANCH   9  10
ATOM     10  C   UNL     1     -23.620  57.891  30.339  1.00  0.00    -0.000 C 
BRANCH  10  11
ATOM     11  C   UNL     1     -22.280  58.204  31.021  1.00  0.00    -0.003 C 
ATOM     12  C   UNL     1     -21.155  57.268  30.577  1.00  0.00     0.004 C 
ENDBRANCH  10  11
ENDBRANCH   9  10
ENDBRANCH   8   9
ENDBRANCH   7   8
ENDBRANCH   6   7
ENDBRANCH   5   6
ENDBRANCH   4   5
ENDBRANCH   3   4
ENDBRANCH   2   3
ENDBRANCH   1   2
BRANCH   1  13
ATOM     13  C   UNL     1     -23.125  61.562  31.666  1.00  0.00     0.000 C 
BRANCH  13  14
ATOM     14  C   UNL     1     -23.668  62.667  30.745  1.00  0.00     0.000 C 
BRANCH  14  15
ATOM     15  C   UNL     1     -25.204  62.706  30.714  1.00  0.00     0.000 C 
BRANCH  15  16
ATOM     16  C   UNL     1     -25.835  61.315  30.511  1.00  0.00     0.000 C 
BRANCH  16  17
ATOM     17  C   UNL     1     -26.631  60.775  31.712  1.00  0.00     0.000 C 
BRANCH  17  18
ATOM     18  C   UNL     1     -27.130  61.883  32.651  1.00  0.00     0.000 C 
BRANCH  18  19
ATOM     19  C   UNL     1     -26.791  61.558  34.111  1.00  0.00     0.000 C 
BRANCH  19  20
ATOM     20  C   UNL     1     -25.542  60.672  34.202  1.00  0.00     0.006 C 
BRANCH  20  21
ATOM     21  C   UNL     1     -24.710  61.025  35.438  1.00  0.00     0.053 C 
BRANCH  21  22
ATOM     22  C   UNL     1     -23.273  60.669  35.222  1.00  0.00     0.041 C 
ATOM     23  O   UNL     1     -22.365  61.491  35.513  1.00  0.00    -0.550 OA
ATOM     24  O   UNL     1     -22.937  59.445  34.656  1.00  0.00    -0.550 OA
ENDBRANCH  21  22
ENDBRANCH  20  21
ENDBRANCH  19  20
ENDBRANCH  18  19
ENDBRANCH  17  18
ENDBRANCH  16  17
ENDBRANCH  15  16
ENDBRANCH  14  15
ENDBRANCH  13  14
ENDBRANCH   1  13
TORSDOF 20
ENDMDL
