MODEL 1
REMARK VINA RESULT:    -7.254      0.000      0.000
REMARK INTER + INTRA:          -8.794
REMARK INTER:                  -8.526
REMARK INTRA:                  -0.268
REMARK UNBOUND:                -0.268
REMARK SMILES O=c1cc(-c2ccc(O)c(O)c2)oc2cc(O)cc(O)c12
REMARK SMILES IDX 4 1 3 2 2 3 1 4 21 5 19 6 18 7 16 8 15 9 14 10 13 11 5 12
REMARK SMILES IDX 6 13 7 14 8 15 12 16 10 17 9 18 11 20 20 22 17 24
REMARK H PARENT 9 19 11 21 20 23 17 25
REMARK Flexibility Score: inf
ROOT
ATOM      1  C   UNL     1       4.919 -36.028  43.986  1.00  0.00     0.138 A 
ATOM      2  C   UNL     1       5.999 -36.900  44.182  1.00  0.00     0.100 A 
ATOM      3  C   UNL     1       7.184 -36.417  44.741  1.00  0.00     0.197 A 
ATOM      4  O   UNL     1       8.156 -37.208  44.846  1.00  0.00    -0.289 OA
ATOM      5  C   UNL     1       7.274 -35.059  45.133  1.00  0.00     0.107 A 
ATOM      6  C   UNL     1       8.417 -34.467  45.750  1.00  0.00     0.134 A 
ATOM      7  C   UNL     1       8.433 -33.087  45.988  1.00  0.00     0.093 A 
ATOM      8  C   UNL     1       7.326 -32.290  45.688  1.00  0.00     0.123 A 
ATOM      9  C   UNL     1       6.186 -32.869  45.135  1.00  0.00     0.094 A 
ATOM     10  C   UNL     1       6.151 -34.237  44.854  1.00  0.00     0.146 A 
ATOM     11  O   UNL     1       5.049 -34.746  44.312  1.00  0.00    -0.456 OA
ENDROOT
BRANCH   1  12
ATOM     12  C   UNL     1       3.636 -36.489  43.397  1.00  0.00     0.021 A 
ATOM     13  C   UNL     1       3.577 -36.801  42.028  1.00  0.00     0.016 A 
ATOM     14  C   UNL     1       2.381 -37.230  41.448  1.00  0.00     0.051 A 
ATOM     15  C   UNL     1       1.222 -37.345  42.221  1.00  0.00     0.157 A 
ATOM     16  C   UNL     1       2.463 -36.594  44.168  1.00  0.00     0.062 A 
ATOM     17  C   UNL     1       1.261 -37.022  43.587  1.00  0.00     0.158 A 
BRANCH  15  18
ATOM     18  O   UNL     1       0.043 -37.777  41.614  1.00  0.00    -0.504 OA
ATOM     19  H   UNL     1      -0.643 -37.127  41.248  1.00  0.00     0.293 HD
ENDBRANCH  15  18
BRANCH  17  20
ATOM     20  O   UNL     1       0.105 -37.124  44.360  1.00  0.00    -0.504 OA
ATOM     21  H   UNL     1      -0.395 -36.303  44.679  1.00  0.00     0.293 HD
ENDBRANCH  17  20
ENDBRANCH   1  12
BRANCH   6  22
ATOM     22  O   UNL     1       9.540 -35.186  46.168  1.00  0.00    -0.507 OA
ATOM     23  H   UNL     1      10.065 -34.999  47.008  1.00  0.00     0.293 HD
ENDBRANCH   6  22
BRANCH   8  24
ATOM     24  O   UNL     1       7.346 -30.920  45.942  1.00  0.00    -0.508 OA
ATOM     25  H   UNL     1       6.491 -30.397  46.092  1.00  0.00     0.293 HD
ENDBRANCH   8  24
TORSDOF 5
ENDMDL
MODEL 2
REMARK VINA RESULT:    -7.210      1.932      6.815
REMARK INTER + INTRA:          -8.743
REMARK INTER:                  -8.464
REMARK INTRA:                  -0.279
REMARK UNBOUND:                -0.268
REMARK SMILES O=c1cc(-c2ccc(O)c(O)c2)oc2cc(O)cc(O)c12
REMARK SMILES IDX 4 1 3 2 2 3 1 4 21 5 19 6 18 7 16 8 15 9 14 10 13 11 5 12
REMARK SMILES IDX 6 13 7 14 8 15 12 16 10 17 9 18 11 20 20 22 17 24
REMARK H PARENT 9 19 11 21 20 23 17 25
REMARK Flexibility Score: inf
ROOT
ATOM      1  C   UNL     1       7.201 -34.046  44.828  1.00  0.00     0.138 A 
ATOM      2  C   UNL     1       7.981 -35.205  44.939  1.00  0.00     0.100 A 
ATOM      3  C   UNL     1       7.360 -36.455  44.959  1.00  0.00     0.197 A 
ATOM      4  O   UNL     1       8.081 -37.473  45.123  1.00  0.00    -0.289 OA
ATOM      5  C   UNL     1       5.953 -36.544  44.834  1.00  0.00     0.107 A 
ATOM      6  C   UNL     1       5.216 -37.766  44.801  1.00  0.00     0.134 A 
ATOM      7  C   UNL     1       3.816 -37.726  44.793  1.00  0.00     0.093 A 
ATOM      8  C   UNL     1       3.129 -36.511  44.754  1.00  0.00     0.123 A 
ATOM      9  C   UNL     1       3.841 -35.314  44.733  1.00  0.00     0.094 A 
ATOM     10  C   UNL     1       5.238 -35.319  44.775  1.00  0.00     0.146 A 
ATOM     11  O   UNL     1       5.878 -34.154  44.768  1.00  0.00    -0.456 OA
ENDROOT
BRANCH   1  12
ATOM     12  C   UNL     1       7.810 -32.691  44.801  1.00  0.00     0.021 A 
ATOM     13  C   UNL     1       8.748 -32.374  43.804  1.00  0.00     0.016 A 
ATOM     14  C   UNL     1       9.340 -31.110  43.761  1.00  0.00     0.051 A 
ATOM     15  C   UNL     1       9.015 -30.144  44.717  1.00  0.00     0.157 A 
ATOM     16  C   UNL     1       7.495 -31.719  45.770  1.00  0.00     0.062 A 
ATOM     17  C   UNL     1       8.091 -30.450  45.729  1.00  0.00     0.158 A 
BRANCH  15  18
ATOM     18  O   UNL     1       9.622 -28.890  44.648  1.00  0.00    -0.504 OA
ATOM     19  H   UNL     1      10.401 -28.704  44.028  1.00  0.00     0.293 HD
ENDBRANCH  15  18
BRANCH  17  20
ATOM     20  O   UNL     1       7.771 -29.495  46.693  1.00  0.00    -0.504 OA
ATOM     21  H   UNL     1       8.467 -29.129  47.331  1.00  0.00     0.293 HD
ENDBRANCH  17  20
ENDBRANCH   1  12
BRANCH   6  22
ATOM     22  O   UNL     1       5.806 -39.032  44.750  1.00  0.00    -0.507 OA
ATOM     23  H   UNL     1       5.719 -39.678  43.980  1.00  0.00     0.293 HD
ENDBRANCH   6  22
BRANCH   8  24
ATOM     24  O   UNL     1       1.736 -36.482  44.731  1.00  0.00    -0.508 OA
ATOM     25  H   UNL     1       1.216 -35.725  45.158  1.00  0.00     0.293 HD
ENDBRANCH   8  24
TORSDOF 5
ENDMDL
MODEL 3
REMARK VINA RESULT:    -7.128      1.679      7.533
REMARK INTER + INTRA:          -8.647
REMARK INTER:                  -8.383
REMARK INTRA:                  -0.263
REMARK UNBOUND:                -0.268
REMARK SMILES O=c1cc(-c2ccc(O)c(O)c2)oc2cc(O)cc(O)c12
REMARK SMILES IDX 4 1 3 2 2 3 1 4 21 5 19 6 18 7 16 8 15 9 14 10 13 11 5 12
REMARK SMILES IDX 6 13 7 14 8 15 12 16 10 17 9 18 11 20 20 22 17 24
REMARK H PARENT 9 19 11 21 20 23 17 25
REMARK Flexibility Score: inf
ROOT
ATOM      1  C   UNL     1       3.584 -36.501  43.110  1.00  0.00     0.138 A 
ATOM      2  C   UNL     1       2.436 -36.836  43.840  1.00  0.00     0.100 A 
ATOM      3  C   UNL     1       1.264 -37.180  43.165  1.00  0.00     0.197 A 
ATOM      4  O   UNL     1       0.233 -37.414  43.846  1.00  0.00    -0.289 OA
ATOM      5  C   UNL     1       1.253 -37.217  41.749  1.00  0.00     0.107 A 
ATOM      6  C   UNL     1       0.127 -37.591  40.956  1.00  0.00     0.134 A 
ATOM      7  C   UNL     1       0.198 -37.478  39.561  1.00  0.00     0.093 A 
ATOM      8  C   UNL     1       1.373 -37.063  38.931  1.00  0.00     0.123 A 
ATOM      9  C   UNL     1       2.494 -36.746  39.695  1.00  0.00     0.094 A 
ATOM     10  C   UNL     1       2.444 -36.816  41.090  1.00  0.00     0.146 A 
ATOM     11  O   UNL     1       3.531 -36.491  41.782  1.00  0.00    -0.456 OA
ENDROOT
BRANCH   1  12
ATOM     12  C   UNL     1       4.858 -36.130  43.778  1.00  0.00     0.021 A 
ATOM     13  C   UNL     1       5.123 -34.779  44.058  1.00  0.00     0.016 A 
ATOM     14  C   UNL     1       6.316 -34.403  44.679  1.00  0.00     0.051 A 
ATOM     15  C   UNL     1       7.269 -35.366  45.020  1.00  0.00     0.157 A 
ATOM     16  C   UNL     1       5.827 -37.095  44.111  1.00  0.00     0.062 A 
ATOM     17  C   UNL     1       7.027 -36.718  44.732  1.00  0.00     0.158 A 
BRANCH  15  18
ATOM     18  O   UNL     1       8.451 -34.959  45.640  1.00  0.00    -0.504 OA
ATOM     19  H   UNL     1       9.282 -34.725  45.112  1.00  0.00     0.293 HD
ENDBRANCH  15  18
BRANCH  17  20
ATOM     20  O   UNL     1       7.979 -37.682  45.060  1.00  0.00    -0.504 OA
ATOM     21  H   UNL     1       8.968 -37.531  44.896  1.00  0.00     0.293 HD
ENDBRANCH  17  20
ENDBRANCH   1  12
BRANCH   6  22
ATOM     22  O   UNL     1      -1.064 -38.100  41.481  1.00  0.00    -0.507 OA
ATOM     23  H   UNL     1      -1.418 -37.904  42.404  1.00  0.00     0.293 HD
ENDBRANCH   6  22
BRANCH   8  24
ATOM     24  O   UNL     1       1.440 -36.968  37.542  1.00  0.00    -0.508 OA
ATOM     25  H   UNL     1       0.604 -36.978  36.971  1.00  0.00     0.293 HD
ENDBRANCH   8  24
TORSDOF 5
ENDMDL
MODEL 4
REMARK VINA RESULT:    -6.733      2.769      3.796
REMARK INTER + INTRA:          -8.183
REMARK INTER:                  -7.889
REMARK INTRA:                  -0.293
REMARK UNBOUND:                -0.268
REMARK SMILES O=c1cc(-c2ccc(O)c(O)c2)oc2cc(O)cc(O)c12
REMARK SMILES IDX 4 1 3 2 2 3 1 4 21 5 19 6 18 7 16 8 15 9 14 10 13 11 5 12
REMARK SMILES IDX 6 13 7 14 8 15 12 16 10 17 9 18 11 20 20 22 17 24
REMARK H PARENT 9 19 11 21 20 23 17 25
REMARK Flexibility Score: inf
ROOT
ATOM      1  C   UNL     1       7.120 -34.565  44.325  1.00  0.00     0.138 A 
ATOM      2  C   UNL     1       7.872 -34.430  43.150  1.00  0.00     0.100 A 
ATOM      3  C   UNL     1       8.568 -33.244  42.908  1.00  0.00     0.197 A 
ATOM      4  O   UNL     1       9.182 -33.129  41.817  1.00  0.00    -0.289 OA
ATOM      5  C   UNL     1       8.534 -32.201  43.865  1.00  0.00     0.107 A 
ATOM      6  C   UNL     1       9.237 -30.965  43.743  1.00  0.00     0.134 A 
ATOM      7  C   UNL     1       9.035 -29.960  44.698  1.00  0.00     0.093 A 
ATOM      8  C   UNL     1       8.204 -30.170  45.801  1.00  0.00     0.123 A 
ATOM      9  C   UNL     1       7.555 -31.393  45.955  1.00  0.00     0.094 A 
ATOM     10  C   UNL     1       7.709 -32.403  45.003  1.00  0.00     0.146 A 
ATOM     11  O   UNL     1       7.060 -33.549  45.181  1.00  0.00    -0.456 OA
ENDROOT
BRANCH   1  12
ATOM     12  C   UNL     1       6.361 -35.804  44.633  1.00  0.00     0.021 A 
ATOM     13  C   UNL     1       6.964 -37.055  44.416  1.00  0.00     0.016 A 
ATOM     14  C   UNL     1       6.270 -38.235  44.690  1.00  0.00     0.051 A 
ATOM     15  C   UNL     1       4.960 -38.189  45.175  1.00  0.00     0.157 A 
ATOM     16  C   UNL     1       5.037 -35.762  45.108  1.00  0.00     0.062 A 
ATOM     17  C   UNL     1       4.337 -36.947  45.382  1.00  0.00     0.158 A 
BRANCH  15  18
ATOM     18  O   UNL     1       4.293 -39.385  45.441  1.00  0.00    -0.504 OA
ATOM     19  H   UNL     1       4.481 -39.932  46.272  1.00  0.00     0.293 HD
ENDBRANCH  15  18
BRANCH  17  20
ATOM     20  O   UNL     1       3.027 -36.894  45.855  1.00  0.00    -0.504 OA
ATOM     21  H   UNL     1       2.815 -36.601  46.801  1.00  0.00     0.293 HD
ENDBRANCH  17  20
ENDBRANCH   1  12
BRANCH   6  22
ATOM     22  O   UNL     1      10.156 -30.686  42.728  1.00  0.00    -0.507 OA
ATOM     23  H   UNL     1      11.107 -31.021  42.702  1.00  0.00     0.293 HD
ENDBRANCH   6  22
BRANCH   8  24
ATOM     24  O   UNL     1       8.020 -29.170  46.754  1.00  0.00    -0.508 OA
ATOM     25  H   UNL     1       7.112 -28.751  46.912  1.00  0.00     0.293 HD
ENDBRANCH   8  24
TORSDOF 5
ENDMDL
MODEL 5
REMARK VINA RESULT:    -6.612      0.988      1.643
REMARK INTER + INTRA:          -8.039
REMARK INTER:                  -7.769
REMARK INTRA:                  -0.270
REMARK UNBOUND:                -0.268
REMARK SMILES O=c1cc(-c2ccc(O)c(O)c2)oc2cc(O)cc(O)c12
REMARK SMILES IDX 4 1 3 2 2 3 1 4 21 5 19 6 18 7 16 8 15 9 14 10 13 11 5 12
REMARK SMILES IDX 6 13 7 14 8 15 12 16 10 17 9 18 11 20 20 22 17 24
REMARK H PARENT 9 19 11 21 20 23 17 25
REMARK Flexibility Score: inf
ROOT
ATOM      1  C   UNL     1       4.755 -36.290  43.751  1.00  0.00     0.138 A 
ATOM      2  C   UNL     1       5.645 -37.274  44.203  1.00  0.00     0.100 A 
ATOM      3  C   UNL     1       6.913 -36.904  44.653  1.00  0.00     0.197 A 
ATOM      4  O   UNL     1       7.711 -37.815  44.993  1.00  0.00    -0.289 OA
ATOM      5  C   UNL     1       7.279 -35.537  44.678  1.00  0.00     0.107 A 
ATOM      6  C   UNL     1       8.530 -35.040  45.154  1.00  0.00     0.134 A 
ATOM      7  C   UNL     1       8.825 -33.677  45.022  1.00  0.00     0.093 A 
ATOM      8  C   UNL     1       7.892 -32.786  44.489  1.00  0.00     0.123 A 
ATOM      9  C   UNL     1       6.648 -33.253  44.071  1.00  0.00     0.094 A 
ATOM     10  C   UNL     1       6.336 -34.612  44.158  1.00  0.00     0.146 A 
ATOM     11  O   UNL     1       5.144 -35.019  43.734  1.00  0.00    -0.456 OA
ENDROOT
BRANCH   1  12
ATOM     12  C   UNL     1       3.394 -36.628  43.263  1.00  0.00     0.021 A 
ATOM     13  C   UNL     1       2.403 -37.005  44.185  1.00  0.00     0.016 A 
ATOM     14  C   UNL     1       1.117 -37.335  43.751  1.00  0.00     0.051 A 
ATOM     15  C   UNL     1       0.800 -37.304  42.390  1.00  0.00     0.157 A 
ATOM     16  C   UNL     1       3.074 -36.612  41.891  1.00  0.00     0.062 A 
ATOM     17  C   UNL     1       1.784 -36.945  41.454  1.00  0.00     0.158 A 
BRANCH  15  18
ATOM     18  O   UNL     1      -0.493 -37.637  41.987  1.00  0.00    -0.504 OA
ATOM     19  H   UNL     1      -0.711 -38.533  41.567  1.00  0.00     0.293 HD
ENDBRANCH  15  18
BRANCH  17  20
ATOM     20  O   UNL     1       1.477 -36.923  40.095  1.00  0.00    -0.504 OA
ATOM     21  H   UNL     1       2.175 -36.697  39.396  1.00  0.00     0.293 HD
ENDBRANCH  17  20
ENDBRANCH   1  12
BRANCH   6  22
ATOM     22  O   UNL     1       9.497 -35.831  45.781  1.00  0.00    -0.507 OA
ATOM     23  H   UNL     1       9.338 -36.758  46.143  1.00  0.00     0.293 HD
ENDBRANCH   6  22
BRANCH   8  24
ATOM     24  O   UNL     1       8.189 -31.429  44.375  1.00  0.00    -0.508 OA
ATOM     25  H   UNL     1       7.605 -30.803  43.833  1.00  0.00     0.293 HD
ENDBRANCH   8  24
TORSDOF 5
ENDMDL
MODEL 6
REMARK VINA RESULT:    -6.588      1.701      7.202
REMARK INTER + INTRA:          -8.011
REMARK INTER:                  -7.745
REMARK INTRA:                  -0.266
REMARK UNBOUND:                -0.268
REMARK SMILES O=c1cc(-c2ccc(O)c(O)c2)oc2cc(O)cc(O)c12
REMARK SMILES IDX 4 1 3 2 2 3 1 4 21 5 19 6 18 7 16 8 15 9 14 10 13 11 5 12
REMARK SMILES IDX 6 13 7 14 8 15 12 16 10 17 9 18 11 20 20 22 17 24
REMARK H PARENT 9 19 11 21 20 23 17 25
REMARK Flexibility Score: inf
ROOT
ATOM      1  C   UNL     1       4.768 -35.510  43.031  1.00  0.00     0.138 A 
ATOM      2  C   UNL     1       4.860 -35.396  41.637  1.00  0.00     0.100 A 
ATOM      3  C   UNL     1       3.844 -35.918  40.834  1.00  0.00     0.197 A 
ATOM      4  O   UNL     1       3.984 -35.857  39.585  1.00  0.00    -0.289 OA
ATOM      5  C   UNL     1       2.717 -36.529  41.434  1.00  0.00     0.107 A 
ATOM      6  C   UNL     1       1.603 -37.060  40.717  1.00  0.00     0.134 A 
ATOM      7  C   UNL     1       0.599 -37.746  41.412  1.00  0.00     0.093 A 
ATOM      8  C   UNL     1       0.639 -37.867  42.803  1.00  0.00     0.123 A 
ATOM      9  C   UNL     1       1.695 -37.306  43.516  1.00  0.00     0.094 A 
ATOM     10  C   UNL     1       2.730 -36.645  42.849  1.00  0.00     0.146 A 
ATOM     11  O   UNL     1       3.726 -36.137  43.566  1.00  0.00    -0.456 OA
ENDROOT
BRANCH   1  12
ATOM     12  C   UNL     1       5.819 -34.971  43.932  1.00  0.00     0.021 A 
ATOM     13  C   UNL     1       6.990 -35.717  44.151  1.00  0.00     0.016 A 
ATOM     14  C   UNL     1       7.990 -35.236  44.999  1.00  0.00     0.051 A 
ATOM     15  C   UNL     1       7.835 -34.010  45.651  1.00  0.00     0.157 A 
ATOM     16  C   UNL     1       5.661 -33.743  44.602  1.00  0.00     0.062 A 
ATOM     17  C   UNL     1       6.664 -33.260  45.455  1.00  0.00     0.158 A 
BRANCH  15  18
ATOM     18  O   UNL     1       8.852 -33.556  46.491  1.00  0.00    -0.504 OA
ATOM     19  H   UNL     1       9.461 -32.789  46.232  1.00  0.00     0.293 HD
ENDBRANCH  15  18
BRANCH  17  20
ATOM     20  O   UNL     1       6.499 -32.042  46.112  1.00  0.00    -0.504 OA
ATOM     21  H   UNL     1       5.676 -31.845  46.670  1.00  0.00     0.293 HD
ENDBRANCH  17  20
ENDBRANCH   1  12
BRANCH   6  22
ATOM     22  O   UNL     1       1.423 -36.919  39.338  1.00  0.00    -0.507 OA
ATOM     23  H   UNL     1       0.856 -37.525  38.765  1.00  0.00     0.293 HD
ENDBRANCH   6  22
BRANCH   8  24
ATOM     24  O   UNL     1      -0.373 -38.538  43.487  1.00  0.00    -0.508 OA
ATOM     25  H   UNL     1      -1.322 -38.187  43.506  1.00  0.00     0.293 HD
ENDBRANCH   8  24
TORSDOF 5
ENDMDL
MODEL 7
REMARK VINA RESULT:    -6.566      1.900      2.029
REMARK INTER + INTRA:          -7.986
REMARK INTER:                  -7.669
REMARK INTRA:                  -0.317
REMARK UNBOUND:                -0.268
REMARK SMILES O=c1cc(-c2ccc(O)c(O)c2)oc2cc(O)cc(O)c12
REMARK SMILES IDX 4 1 3 2 2 3 1 4 21 5 19 6 18 7 16 8 15 9 14 10 13 11 5 12
REMARK SMILES IDX 6 13 7 14 8 15 12 16 10 17 9 18 11 20 20 22 17 24
REMARK H PARENT 9 19 11 21 20 23 17 25
REMARK Flexibility Score: inf
ROOT
ATOM      1  C   UNL     1       4.662 -35.897  42.479  1.00  0.00     0.138 A 
ATOM      2  C   UNL     1       5.619 -35.882  41.456  1.00  0.00     0.100 A 
ATOM      3  C   UNL     1       6.875 -35.321  41.694  1.00  0.00     0.197 A 
ATOM      4  O   UNL     1       7.691 -35.265  40.738  1.00  0.00    -0.289 OA
ATOM      5  C   UNL     1       7.182 -34.802  42.975  1.00  0.00     0.107 A 
ATOM      6  C   UNL     1       8.442 -34.243  43.343  1.00  0.00     0.134 A 
ATOM      7  C   UNL     1       8.593 -33.654  44.605  1.00  0.00     0.093 A 
ATOM      8  C   UNL     1       7.547 -33.658  45.532  1.00  0.00     0.123 A 
ATOM      9  C   UNL     1       6.330 -34.248  45.200  1.00  0.00     0.094 A 
ATOM     10  C   UNL     1       6.138 -34.814  43.937  1.00  0.00     0.146 A 
ATOM     11  O   UNL     1       4.957 -35.353  43.655  1.00  0.00    -0.456 OA
ENDROOT
BRANCH   1  12
ATOM     12  C   UNL     1       3.311 -36.482  42.280  1.00  0.00     0.021 A 
ATOM     13  C   UNL     1       2.929 -36.922  41.001  1.00  0.00     0.016 A 
ATOM     14  C   UNL     1       1.662 -37.469  40.786  1.00  0.00     0.051 A 
ATOM     15  C   UNL     1       0.751 -37.576  41.840  1.00  0.00     0.157 A 
ATOM     16  C   UNL     1       2.384 -36.580  43.336  1.00  0.00     0.062 A 
ATOM     17  C   UNL     1       1.110 -37.127  43.121  1.00  0.00     0.158 A 
BRANCH  15  18
ATOM     18  O   UNL     1      -0.507 -38.128  41.595  1.00  0.00    -0.504 OA
ATOM     19  H   UNL     1      -0.625 -39.097  41.325  1.00  0.00     0.293 HD
ENDBRANCH  15  18
BRANCH  17  20
ATOM     20  O   UNL     1       0.201 -37.221  44.173  1.00  0.00    -0.504 OA
ATOM     21  H   UNL     1      -0.332 -36.420  44.489  1.00  0.00     0.293 HD
ENDBRANCH  17  20
ENDBRANCH   1  12
BRANCH   6  22
ATOM     22  O   UNL     1       9.576 -34.264  42.525  1.00  0.00    -0.507 OA
ATOM     23  H   UNL     1      10.359 -34.888  42.642  1.00  0.00     0.293 HD
ENDBRANCH   6  22
BRANCH   8  24
ATOM     24  O   UNL     1       7.711 -33.082  46.791  1.00  0.00    -0.508 OA
ATOM     25  H   UNL     1       8.622 -32.796  47.127  1.00  0.00     0.293 HD
ENDBRANCH   8  24
TORSDOF 5
ENDMDL
MODEL 8
REMARK VINA RESULT:    -6.483      1.973      7.630
REMARK INTER + INTRA:          -7.888
REMARK INTER:                  -7.624
REMARK INTRA:                  -0.264
REMARK UNBOUND:                -0.268
REMARK SMILES O=c1cc(-c2ccc(O)c(O)c2)oc2cc(O)cc(O)c12
REMARK SMILES IDX 4 1 3 2 2 3 1 4 21 5 19 6 18 7 16 8 15 9 14 10 13 11 5 12
REMARK SMILES IDX 6 13 7 14 8 15 12 16 10 17 9 18 11 20 20 22 17 24
REMARK H PARENT 9 19 11 21 20 23 17 25
REMARK Flexibility Score: inf
ROOT
ATOM      1  C   UNL     1       3.971 -36.420  42.042  1.00  0.00     0.138 A 
ATOM      2  C   UNL     1       4.209 -36.397  40.661  1.00  0.00     0.100 A 
ATOM      3  C   UNL     1       3.180 -36.731  39.778  1.00  0.00     0.197 A 
ATOM      4  O   UNL     1       3.441 -36.761  38.548  1.00  0.00    -0.289 OA
ATOM      5  C   UNL     1       1.899 -37.061  40.283  1.00  0.00     0.107 A 
ATOM      6  C   UNL     1       0.766 -37.379  39.476  1.00  0.00     0.134 A 
ATOM      7  C   UNL     1      -0.420 -37.803  40.089  1.00  0.00     0.093 A 
ATOM      8  C   UNL     1      -0.531 -37.862  41.480  1.00  0.00     0.123 A 
ATOM      9  C   UNL     1       0.554 -37.502  42.277  1.00  0.00     0.094 A 
ATOM     10  C   UNL     1       1.761 -37.107  41.695  1.00  0.00     0.146 A 
ATOM     11  O   UNL     1       2.775 -36.787  42.491  1.00  0.00    -0.456 OA
ENDROOT
BRANCH   1  12
ATOM     12  C   UNL     1       5.029 -36.072  43.026  1.00  0.00     0.021 A 
ATOM     13  C   UNL     1       5.169 -34.739  43.447  1.00  0.00     0.016 A 
ATOM     14  C   UNL     1       6.160 -34.385  44.366  1.00  0.00     0.051 A 
ATOM     15  C   UNL     1       7.034 -35.351  44.870  1.00  0.00     0.157 A 
ATOM     16  C   UNL     1       5.921 -37.040  43.526  1.00  0.00     0.062 A 
ATOM     17  C   UNL     1       6.918 -36.685  44.447  1.00  0.00     0.158 A 
BRANCH  15  18
ATOM     18  O   UNL     1       8.013 -34.967  45.787  1.00  0.00    -0.504 OA
ATOM     19  H   UNL     1       8.801 -34.390  45.521  1.00  0.00     0.293 HD
ENDBRANCH  15  18
BRANCH  17  20
ATOM     20  O   UNL     1       7.794 -37.651  44.939  1.00  0.00    -0.504 OA
ATOM     21  H   UNL     1       7.468 -38.565  45.232  1.00  0.00     0.293 HD
ENDBRANCH  17  20
ENDBRANCH   1  12
BRANCH   6  22
ATOM     22  O   UNL     1       0.745 -37.271  38.082  1.00  0.00    -0.507 OA
ATOM     23  H   UNL     1       0.219 -36.583  37.565  1.00  0.00     0.293 HD
ENDBRANCH   6  22
BRANCH   8  24
ATOM     24  O   UNL     1      -1.720 -38.271  42.082  1.00  0.00    -0.508 OA
ATOM     25  H   UNL     1      -2.056 -37.840  42.934  1.00  0.00     0.293 HD
ENDBRANCH   8  24
TORSDOF 5
ENDMDL
MODEL 9
REMARK VINA RESULT:    -6.451      2.187      6.919
REMARK INTER + INTRA:          -7.850
REMARK INTER:                  -7.586
REMARK INTRA:                  -0.264
REMARK UNBOUND:                -0.268
REMARK SMILES O=c1cc(-c2ccc(O)c(O)c2)oc2cc(O)cc(O)c12
REMARK SMILES IDX 4 1 3 2 2 3 1 4 21 5 19 6 18 7 16 8 15 9 14 10 13 11 5 12
REMARK SMILES IDX 6 13 7 14 8 15 12 16 10 17 9 18 11 20 20 22 17 24
REMARK H PARENT 9 19 11 21 20 23 17 25
REMARK Flexibility Score: inf
ROOT
ATOM      1  C   UNL     1       6.122 -34.856  43.746  1.00  0.00     0.138 A 
ATOM      2  C   UNL     1       5.133 -34.845  42.753  1.00  0.00     0.100 A 
ATOM      3  C   UNL     1       4.417 -36.012  42.480  1.00  0.00     0.197 A 
ATOM      4  O   UNL     1       3.581 -35.988  41.540  1.00  0.00    -0.289 OA
ATOM      5  C   UNL     1       4.673 -37.186  43.228  1.00  0.00     0.107 A 
ATOM      6  C   UNL     1       3.977 -38.421  43.064  1.00  0.00     0.134 A 
ATOM      7  C   UNL     1       4.396 -39.549  43.781  1.00  0.00     0.093 A 
ATOM      8  C   UNL     1       5.445 -39.471  44.699  1.00  0.00     0.123 A 
ATOM      9  C   UNL     1       6.096 -38.256  44.905  1.00  0.00     0.094 A 
ATOM     10  C   UNL     1       5.724 -37.121  44.181  1.00  0.00     0.146 A 
ATOM     11  O   UNL     1       6.380 -35.986  44.396  1.00  0.00    -0.456 OA
ENDROOT
BRANCH   1  12
ATOM     12  C   UNL     1       6.912 -33.643  44.079  1.00  0.00     0.021 A 
ATOM     13  C   UNL     1       8.110 -33.388  43.390  1.00  0.00     0.016 A 
ATOM     14  C   UNL     1       8.875 -32.258  43.689  1.00  0.00     0.051 A 
ATOM     15  C   UNL     1       8.465 -31.370  44.686  1.00  0.00     0.157 A 
ATOM     16  C   UNL     1       6.510 -32.752  45.093  1.00  0.00     0.062 A 
ATOM     17  C   UNL     1       7.279 -31.619  45.395  1.00  0.00     0.158 A 
BRANCH  15  18
ATOM     18  O   UNL     1       9.250 -30.250  44.961  1.00  0.00    -0.504 OA
ATOM     19  H   UNL     1       9.950 -29.912  44.312  1.00  0.00     0.293 HD
ENDBRANCH  15  18
BRANCH  17  20
ATOM     20  O   UNL     1       6.870 -30.742  46.399  1.00  0.00    -0.504 OA
ATOM     21  H   UNL     1       5.897 -30.486  46.517  1.00  0.00     0.293 HD
ENDBRANCH  17  20
ENDBRANCH   1  12
BRANCH   6  22
ATOM     22  O   UNL     1       2.862 -38.586  42.237  1.00  0.00    -0.507 OA
ATOM     23  H   UNL     1       2.244 -39.382  42.254  1.00  0.00     0.293 HD
ENDBRANCH   6  22
BRANCH   8  24
ATOM     24  O   UNL     1       5.846 -40.595  45.419  1.00  0.00    -0.508 OA
ATOM     25  H   UNL     1       6.686 -41.107  45.176  1.00  0.00     0.293 HD
ENDBRANCH   8  24
TORSDOF 5
ENDMDL
