MODEL 1
REMARK VINA RESULT:    39.365      0.000      0.000
REMARK INTER + INTRA:          47.199
REMARK INTER:                  47.420
REMARK INTRA:                  -0.221
REMARK UNBOUND:                -0.221
REMARK SMILES Oc1cc(O)c2cc(O)c(-c3ccc(O)c(O)c3)[o+]c2c1.[Cl-]
REMARK SMILES IDX 10 1 19 2 20 3 21 4 2 5 3 6 4 7 6 8 7 9 8 10 11 11 12 12
REMARK SMILES IDX 13 13 14 14 18 15 16 16 15 17 17 19 9 21 1 23 5 25
REMARK H PARENT 15 18 17 20 9 22 1 24 5 26
REMARK Flexibility Score: inf
ROOT
ATOM      1  C   UNL     1      -9.780  23.002 -22.560  1.00  0.00     0.402 A 
ATOM      2  O   UNL     1      -9.176  23.785 -23.449  1.00  0.00    -0.202 OA
ATOM      3  C   UNL     1      -9.786  24.788 -24.073  1.00  0.00     0.368 A 
ATOM      4  C   UNL     1      -9.067  25.553 -24.995  1.00  0.00     0.162 A 
ATOM      5  C   UNL     1      -9.686  26.611 -25.667  1.00  0.00     0.128 A 
ATOM      6  C   UNL     1     -11.029  26.904 -25.418  1.00  0.00     0.093 A 
ATOM      7  C   UNL     1     -11.770  26.151 -24.500  1.00  0.00     0.136 A 
ATOM      8  C   UNL     1     -11.147  25.078 -23.812  1.00  0.00     0.125 A 
ATOM      9  C   UNL     1     -11.808  24.278 -22.866  1.00  0.00     0.078 A 
ATOM     10  C   UNL     1     -11.126  23.240 -22.225  1.00  0.00     0.223 A 
ENDROOT
BRANCH   1  11
ATOM     11  C   UNL     1      -8.995  21.910 -21.940  1.00  0.00     0.087 A 
ATOM     12  C   UNL     1      -9.346  20.576 -22.195  1.00  0.00     0.022 A 
ATOM     13  C   UNL     1      -8.633  19.529 -21.605  1.00  0.00     0.051 A 
ATOM     14  C   UNL     1      -7.568  19.800 -20.742  1.00  0.00     0.157 A 
ATOM     15  C   UNL     1      -7.936  22.181 -21.055  1.00  0.00     0.068 A 
ATOM     16  C   UNL     1      -7.219  21.132 -20.460  1.00  0.00     0.158 A 
BRANCH  14  17
ATOM     17  O   UNL     1      -6.872  18.735 -20.169  1.00  0.00    -0.504 OA
ATOM     18  H   UNL     1      -6.233  18.159 -20.705  1.00  0.00     0.293 HD
ENDBRANCH  14  17
BRANCH  16  19
ATOM     19  O   UNL     1      -6.167  21.408 -19.588  1.00  0.00    -0.504 OA
ATOM     20  H   UNL     1      -5.723  22.318 -19.564  1.00  0.00     0.293 HD
ENDBRANCH  16  19
ENDBRANCH   1  11
BRANCH  10  21
ATOM     21  O   UNL     1     -11.769  22.479 -21.248  1.00  0.00    -0.500 OA
ATOM     22  H   UNL     1     -11.580  22.608 -20.261  1.00  0.00     0.294 HD
ENDBRANCH  10  21
BRANCH   5  23
ATOM     23  O   UNL     1      -8.974  27.379 -26.587  1.00  0.00    -0.507 OA
ATOM     24  H   UNL     1      -7.982  27.553 -26.478  1.00  0.00     0.293 HD
ENDBRANCH   5  23
BRANCH   7  25
ATOM     25  O   UNL     1     -13.109  26.505 -24.309  1.00  0.00    -0.507 OA
ATOM     26  H   UNL     1     -13.745  26.756 -25.052  1.00  0.00     0.293 HD
ENDBRANCH   7  25
TORSDOF 6
ENDMDL
MODEL 2
REMARK VINA RESULT:    40.005      0.520      0.520
REMARK INTER + INTRA:          47.969
REMARK INTER:                  47.810
REMARK INTRA:                   0.160
REMARK UNBOUND:                -0.221
REMARK SMILES Oc1cc(O)c2cc(O)c(-c3ccc(O)c(O)c3)[o+]c2c1.[Cl-]
REMARK SMILES IDX 10 1 19 2 20 3 21 4 2 5 3 6 4 7 6 8 7 9 8 10 11 11 12 12
REMARK SMILES IDX 13 13 14 14 18 15 16 16 15 17 17 19 9 21 1 23 5 25
REMARK H PARENT 15 18 17 20 9 22 1 24 5 26
REMARK Flexibility Score: inf
ROOT
ATOM      1  C   UNL     1      -9.948  23.099 -22.581  1.00  0.00     0.402 A 
ATOM      2  O   UNL     1      -9.343  23.831 -23.512  1.00  0.00    -0.202 OA
ATOM      3  C   UNL     1      -9.907  24.884 -24.094  1.00  0.00     0.368 A 
ATOM      4  C   UNL     1      -9.191  25.588 -25.065  1.00  0.00     0.162 A 
ATOM      5  C   UNL     1      -9.763  26.698 -25.696  1.00  0.00     0.128 A 
ATOM      6  C   UNL     1     -11.055  27.104 -25.354  1.00  0.00     0.093 A 
ATOM      7  C   UNL     1     -11.792  26.414 -24.384  1.00  0.00     0.136 A 
ATOM      8  C   UNL     1     -11.216  25.289 -23.739  1.00  0.00     0.125 A 
ATOM      9  C   UNL     1     -11.876  24.546 -22.747  1.00  0.00     0.078 A 
ATOM     10  C   UNL     1     -11.242  23.451 -22.152  1.00  0.00     0.223 A 
ENDROOT
BRANCH   1  11
ATOM     11  C   UNL     1      -9.218  21.942 -22.014  1.00  0.00     0.087 A 
ATOM     12  C   UNL     1      -9.925  20.776 -21.681  1.00  0.00     0.022 A 
ATOM     13  C   UNL     1      -9.260  19.678 -21.127  1.00  0.00     0.051 A 
ATOM     14  C   UNL     1      -7.885  19.734 -20.884  1.00  0.00     0.157 A 
ATOM     15  C   UNL     1      -7.838  22.004 -21.750  1.00  0.00     0.068 A 
ATOM     16  C   UNL     1      -7.169  20.904 -21.192  1.00  0.00     0.158 A 
BRANCH  14  17
ATOM     17  O   UNL     1      -7.248  18.623 -20.332  1.00  0.00    -0.504 OA
ATOM     18  H   UNL     1      -6.668  18.691 -19.504  1.00  0.00     0.293 HD
ENDBRANCH  14  17
BRANCH  16  19
ATOM     19  O   UNL     1      -5.800  20.971 -20.939  1.00  0.00    -0.504 OA
ATOM     20  H   UNL     1      -5.145  21.287 -21.644  1.00  0.00     0.293 HD
ENDBRANCH  16  19
ENDBRANCH   1  11
BRANCH  10  21
ATOM     21  O   UNL     1     -11.878  22.744 -21.131  1.00  0.00    -0.500 OA
ATOM     22  H   UNL     1     -12.857  22.887 -20.913  1.00  0.00     0.294 HD
ENDBRANCH  10  21
BRANCH   5  23
ATOM     23  O   UNL     1      -9.054  27.405 -26.665  1.00  0.00    -0.507 OA
ATOM     24  H   UNL     1      -9.036  27.106 -27.633  1.00  0.00     0.293 HD
ENDBRANCH   5  23
BRANCH   7  25
ATOM     25  O   UNL     1     -13.079  26.881 -24.101  1.00  0.00    -0.507 OA
ATOM     26  H   UNL     1     -13.761  27.134 -24.800  1.00  0.00     0.293 HD
ENDBRANCH   7  25
TORSDOF 6
ENDMDL
MODEL 3
REMARK VINA RESULT:    40.312      7.846     12.554
REMARK INTER + INTRA:          48.338
REMARK INTER:                  48.502
REMARK INTRA:                  -0.164
REMARK UNBOUND:                -0.221
REMARK SMILES Oc1cc(O)c2cc(O)c(-c3ccc(O)c(O)c3)[o+]c2c1.[Cl-]
REMARK SMILES IDX 10 1 19 2 20 3 21 4 2 5 3 6 4 7 6 8 7 9 8 10 11 11 12 12
REMARK SMILES IDX 13 13 14 14 18 15 16 16 15 17 17 19 9 21 1 23 5 25
REMARK H PARENT 15 18 17 20 9 22 1 24 5 26
REMARK Flexibility Score: inf
ROOT
ATOM      1  C   UNL     1      -2.907  15.896 -19.138  1.00  0.00     0.402 A 
ATOM      2  O   UNL     1      -2.565  15.092 -20.141  1.00  0.00    -0.202 OA
ATOM      3  C   UNL     1      -1.340  14.604 -20.301  1.00  0.00     0.368 A 
ATOM      4  C   UNL     1      -1.077  13.769 -21.390  1.00  0.00     0.162 A 
ATOM      5  C   UNL     1       0.204  13.245 -21.584  1.00  0.00     0.128 A 
ATOM      6  C   UNL     1       1.227  13.559 -20.685  1.00  0.00     0.093 A 
ATOM      7  C   UNL     1       0.990  14.394 -19.587  1.00  0.00     0.136 A 
ATOM      8  C   UNL     1      -0.310  14.926 -19.384  1.00  0.00     0.125 A 
ATOM      9  C   UNL     1      -0.643  15.761 -18.305  1.00  0.00     0.078 A 
ATOM     10  C   UNL     1      -1.948  16.243 -18.168  1.00  0.00     0.223 A 
ENDROOT
BRANCH   1  11
ATOM     11  C   UNL     1      -4.304  16.383 -19.074  1.00  0.00     0.087 A 
ATOM     12  C   UNL     1      -5.120  15.999 -17.999  1.00  0.00     0.022 A 
ATOM     13  C   UNL     1      -6.448  16.429 -17.928  1.00  0.00     0.051 A 
ATOM     14  C   UNL     1      -6.984  17.236 -18.935  1.00  0.00     0.157 A 
ATOM     15  C   UNL     1      -4.851  17.178 -20.097  1.00  0.00     0.068 A 
ATOM     16  C   UNL     1      -6.184  17.610 -20.029  1.00  0.00     0.158 A 
BRANCH  14  17
ATOM     17  O   UNL     1      -8.311  17.653 -18.837  1.00  0.00    -0.504 OA
ATOM     18  H   UNL     1      -8.613  18.567 -19.153  1.00  0.00     0.293 HD
ENDBRANCH  14  17
BRANCH  16  19
ATOM     19  O   UNL     1      -6.716  18.403 -21.044  1.00  0.00    -0.504 OA
ATOM     20  H   UNL     1      -7.146  19.300 -20.846  1.00  0.00     0.293 HD
ENDBRANCH  16  19
ENDBRANCH   1  11
BRANCH  10  21
ATOM     21  O   UNL     1      -2.291  17.031 -17.069  1.00  0.00    -0.500 OA
ATOM     22  H   UNL     1      -1.601  17.583 -16.572  1.00  0.00     0.294 HD
ENDBRANCH  10  21
BRANCH   5  23
ATOM     23  O   UNL     1       0.473  12.411 -22.667  1.00  0.00    -0.507 OA
ATOM     24  H   UNL     1      -0.241  11.811 -23.064  1.00  0.00     0.293 HD
ENDBRANCH   5  23
BRANCH   7  25
ATOM     25  O   UNL     1       2.066  14.662 -18.737  1.00  0.00    -0.507 OA
ATOM     26  H   UNL     1       2.246  15.558 -18.309  1.00  0.00     0.293 HD
ENDBRANCH   7  25
TORSDOF 6
ENDMDL
