MODEL 1
REMARK VINA RESULT:    -6.056      0.000      0.000
REMARK INTER + INTRA:          -6.507
REMARK INTER:                  -6.410
REMARK INTRA:                  -0.097
REMARK UNBOUND:                -0.097
REMARK SMILES C=C(C)[C@@H]1CC=C(C)C(=O)C1
REMARK SMILES IDX 8 1 7 2 6 3 5 4 4 5 11 6 9 7 10 8 2 9 1 10 3 11
REMARK H PARENT
REMARK Flexibility Score: inf
ROOT
ATOM      1  C   UNL     1      34.792  20.113  15.450  1.00  0.00     0.048 C 
ATOM      2  C   UNL     1      34.190  20.443  16.788  1.00  0.00    -0.012 C 
ATOM      3  C   UNL     1      34.835  21.274  17.625  1.00  0.00    -0.019 C 
ATOM      4  C   UNL     1      34.268  21.653  18.968  1.00  0.00     0.036 C 
ATOM      5  C   UNL     1      33.448  20.496  19.570  1.00  0.00     0.025 C 
ATOM      6  C   UNL     1      32.356  20.045  18.583  1.00  0.00     0.089 C 
ATOM      7  C   UNL     1      32.951  19.756  17.231  1.00  0.00     0.158 C 
ATOM      8  O   UNL     1      32.365  18.948  16.462  1.00  0.00    -0.295 OA
ENDROOT
BRANCH   5   9
ATOM      9  C   UNL     1      32.861  20.869  20.925  1.00  0.00    -0.077 C 
ATOM     10  C   UNL     1      33.148  22.044  21.512  1.00  0.00     0.008 C 
ATOM     11  C   UNL     1      31.939  19.913  21.637  1.00  0.00     0.039 C 
ENDBRANCH   5   9
TORSDOF 1
ENDMDL
MODEL 2
REMARK VINA RESULT:    -6.055      1.650      4.356
REMARK INTER + INTRA:          -6.506
REMARK INTER:                  -6.413
REMARK INTRA:                  -0.093
REMARK UNBOUND:                -0.097
REMARK SMILES C=C(C)[C@@H]1CC=C(C)C(=O)C1
REMARK SMILES IDX 8 1 7 2 6 3 5 4 4 5 11 6 9 7 10 8 2 9 1 10 3 11
REMARK H PARENT
REMARK Flexibility Score: inf
ROOT
ATOM      1  C   UNL     1      33.416  21.301  21.313  1.00  0.00     0.048 C 
ATOM      2  C   UNL     1      33.375  20.891  19.866  1.00  0.00    -0.012 C 
ATOM      3  C   UNL     1      34.156  21.520  18.971  1.00  0.00    -0.019 C 
ATOM      4  C   UNL     1      34.167  21.138  17.513  1.00  0.00     0.036 C 
ATOM      5  C   UNL     1      32.780  20.644  17.059  1.00  0.00     0.025 C 
ATOM      6  C   UNL     1      32.302  19.490  17.961  1.00  0.00     0.089 C 
ATOM      7  C   UNL     1      32.385  19.884  19.411  1.00  0.00     0.158 C 
ATOM      8  O   UNL     1      31.626  19.320  20.244  1.00  0.00    -0.295 OA
ENDROOT
BRANCH   5   9
ATOM      9  C   UNL     1      32.779  20.245  15.590  1.00  0.00    -0.077 C 
ATOM     10  C   UNL     1      31.641  20.209  14.876  1.00  0.00     0.008 C 
ATOM     11  C   UNL     1      34.071  19.880  14.905  1.00  0.00     0.039 C 
ENDBRANCH   5   9
TORSDOF 1
ENDMDL
MODEL 3
REMARK VINA RESULT:    -5.992      2.035      4.643
REMARK INTER + INTRA:          -6.439
REMARK INTER:                  -6.343
REMARK INTRA:                  -0.096
REMARK UNBOUND:                -0.097
REMARK SMILES C=C(C)[C@@H]1CC=C(C)C(=O)C1
REMARK SMILES IDX 8 1 7 2 6 3 5 4 4 5 11 6 9 7 10 8 2 9 1 10 3 11
REMARK H PARENT
REMARK Flexibility Score: inf
ROOT
ATOM      1  C   UNL     1      33.210  21.427  21.147  1.00  0.00     0.048 C 
ATOM      2  C   UNL     1      33.048  20.621  19.887  1.00  0.00    -0.012 C 
ATOM      3  C   UNL     1      32.278  19.519  19.893  1.00  0.00    -0.019 C 
ATOM      4  C   UNL     1      32.068  18.685  18.655  1.00  0.00     0.036 C 
ATOM      5  C   UNL     1      33.319  18.702  17.756  1.00  0.00     0.025 C 
ATOM      6  C   UNL     1      33.717  20.152  17.422  1.00  0.00     0.089 C 
ATOM      7  C   UNL     1      33.836  20.971  18.679  1.00  0.00     0.158 C 
ATOM      8  O   UNL     1      34.587  21.983  18.683  1.00  0.00    -0.295 OA
ENDROOT
BRANCH   5   9
ATOM      9  C   UNL     1      33.117  17.871  16.497  1.00  0.00    -0.077 C 
ATOM     10  C   UNL     1      31.898  17.434  16.135  1.00  0.00     0.008 C 
ATOM     11  C   UNL     1      34.296  17.520  15.626  1.00  0.00     0.039 C 
ENDBRANCH   5   9
TORSDOF 1
ENDMDL
MODEL 4
REMARK VINA RESULT:    -5.935      6.160      8.811
REMARK INTER + INTRA:          -6.378
REMARK INTER:                  -6.280
REMARK INTRA:                  -0.098
REMARK UNBOUND:                -0.097
REMARK SMILES C=C(C)[C@@H]1CC=C(C)C(=O)C1
REMARK SMILES IDX 8 1 7 2 6 3 5 4 4 5 11 6 9 7 10 8 2 9 1 10 3 11
REMARK H PARENT
REMARK Flexibility Score: inf
ROOT
ATOM      1  C   UNL     1      31.002  19.403  22.990  1.00  0.00     0.048 C 
ATOM      2  C   UNL     1      30.385  18.886  24.260  1.00  0.00    -0.012 C 
ATOM      3  C   UNL     1      29.083  19.111  24.511  1.00  0.00    -0.019 C 
ATOM      4  C   UNL     1      28.410  18.601  25.759  1.00  0.00     0.036 C 
ATOM      5  C   UNL     1      29.392  18.571  26.946  1.00  0.00     0.025 C 
ATOM      6  C   UNL     1      30.645  17.752  26.582  1.00  0.00     0.089 C 
ATOM      7  C   UNL     1      31.239  18.240  25.288  1.00  0.00     0.158 C 
ATOM      8  O   UNL     1      32.467  18.062  25.071  1.00  0.00    -0.295 OA
ENDROOT
BRANCH   5   9
ATOM      9  C   UNL     1      28.727  18.048  28.212  1.00  0.00    -0.077 C 
ATOM     10  C   UNL     1      29.436  17.417  29.164  1.00  0.00     0.008 C 
ATOM     11  C   UNL     1      27.246  18.232  28.419  1.00  0.00     0.039 C 
ENDBRANCH   5   9
TORSDOF 1
ENDMDL
MODEL 5
REMARK VINA RESULT:    -5.846      1.906      4.738
REMARK INTER + INTRA:          -6.284
REMARK INTER:                  -6.192
REMARK INTRA:                  -0.092
REMARK UNBOUND:                -0.097
REMARK SMILES C=C(C)[C@@H]1CC=C(C)C(=O)C1
REMARK SMILES IDX 8 1 7 2 6 3 5 4 4 5 11 6 9 7 10 8 2 9 1 10 3 11
REMARK H PARENT
REMARK Flexibility Score: inf
ROOT
ATOM      1  C   UNL     1      31.846  19.459  21.323  1.00  0.00     0.048 C 
ATOM      2  C   UNL     1      32.311  19.619  19.902  1.00  0.00    -0.012 C 
ATOM      3  C   UNL     1      32.016  18.674  18.992  1.00  0.00    -0.019 C 
ATOM      4  C   UNL     1      32.441  18.792  17.551  1.00  0.00     0.036 C 
ATOM      5  C   UNL     1      33.785  19.535  17.429  1.00  0.00     0.025 C 
ATOM      6  C   UNL     1      33.704  20.906  18.128  1.00  0.00     0.089 C 
ATOM      7  C   UNL     1      33.197  20.752  19.537  1.00  0.00     0.158 C 
ATOM      8  O   UNL     1      33.505  21.619  20.397  1.00  0.00    -0.295 OA
ENDROOT
BRANCH   5   9
ATOM      9  C   UNL     1      34.223  19.671  15.977  1.00  0.00    -0.077 C 
ATOM     10  C   UNL     1      35.523  19.690  15.637  1.00  0.00     0.008 C 
ATOM     11  C   UNL     1      33.191  19.786  14.885  1.00  0.00     0.039 C 
ENDBRANCH   5   9
TORSDOF 1
ENDMDL
MODEL 6
REMARK VINA RESULT:    -5.786      1.400      2.009
REMARK INTER + INTRA:          -6.221
REMARK INTER:                  -6.123
REMARK INTRA:                  -0.098
REMARK UNBOUND:                -0.097
REMARK SMILES C=C(C)[C@@H]1CC=C(C)C(=O)C1
REMARK SMILES IDX 8 1 7 2 6 3 5 4 4 5 11 6 9 7 10 8 2 9 1 10 3 11
REMARK H PARENT
REMARK Flexibility Score: inf
ROOT
ATOM      1  C   UNL     1      34.352  19.754  15.182  1.00  0.00     0.048 C 
ATOM      2  C   UNL     1      34.092  19.899  16.656  1.00  0.00    -0.012 C 
ATOM      3  C   UNL     1      33.347  18.981  17.297  1.00  0.00    -0.019 C 
ATOM      4  C   UNL     1      33.070  19.067  18.775  1.00  0.00     0.036 C 
ATOM      5  C   UNL     1      32.985  20.534  19.239  1.00  0.00     0.025 C 
ATOM      6  C   UNL     1      34.263  21.295  18.839  1.00  0.00     0.089 C 
ATOM      7  C   UNL     1      34.549  21.115  17.372  1.00  0.00     0.158 C 
ATOM      8  O   UNL     1      35.216  21.996  16.765  1.00  0.00    -0.295 OA
ENDROOT
BRANCH   5   9
ATOM      9  C   UNL     1      32.714  20.636  20.733  1.00  0.00    -0.077 C 
ATOM     10  C   UNL     1      33.112  21.705  21.444  1.00  0.00     0.008 C 
ATOM     11  C   UNL     1      31.987  19.526  21.447  1.00  0.00     0.039 C 
ENDBRANCH   5   9
TORSDOF 1
ENDMDL
MODEL 7
REMARK VINA RESULT:    -5.766      8.622     10.316
REMARK INTER + INTRA:          -6.200
REMARK INTER:                  -6.106
REMARK INTRA:                  -0.094
REMARK UNBOUND:                -0.097
REMARK SMILES C=C(C)[C@@H]1CC=C(C)C(=O)C1
REMARK SMILES IDX 8 1 7 2 6 3 5 4 4 5 11 6 9 7 10 8 2 9 1 10 3 11
REMARK H PARENT
REMARK Flexibility Score: inf
ROOT
ATOM      1  C   UNL     1      31.284  17.590  25.726  1.00  0.00     0.048 C 
ATOM      2  C   UNL     1      30.083  18.278  26.315  1.00  0.00    -0.012 C 
ATOM      3  C   UNL     1      29.522  19.314  25.669  1.00  0.00    -0.019 C 
ATOM      4  C   UNL     1      28.308  20.028  26.206  1.00  0.00     0.036 C 
ATOM      5  C   UNL     1      28.305  20.034  27.746  1.00  0.00     0.025 C 
ATOM      6  C   UNL     1      28.423  18.597  28.287  1.00  0.00     0.089 C 
ATOM      7  C   UNL     1      29.599  17.893  27.665  1.00  0.00     0.158 C 
ATOM      8  O   UNL     1      30.147  16.945  28.289  1.00  0.00    -0.295 OA
ENDROOT
BRANCH   5   9
ATOM      9  C   UNL     1      27.078  20.744  28.303  1.00  0.00    -0.077 C 
ATOM     10  C   UNL     1      25.867  20.595  27.738  1.00  0.00     0.008 C 
ATOM     11  C   UNL     1      27.204  21.636  29.511  1.00  0.00     0.039 C 
ENDBRANCH   5   9
TORSDOF 1
ENDMDL
MODEL 8
REMARK VINA RESULT:    -5.740      6.059      8.628
REMARK INTER + INTRA:          -6.173
REMARK INTER:                  -6.079
REMARK INTRA:                  -0.094
REMARK UNBOUND:                -0.097
REMARK SMILES C=C(C)[C@@H]1CC=C(C)C(=O)C1
REMARK SMILES IDX 8 1 7 2 6 3 5 4 4 5 11 6 9 7 10 8 2 9 1 10 3 11
REMARK H PARENT
REMARK Flexibility Score: inf
ROOT
ATOM      1  C   UNL     1      32.216  18.527  23.663  1.00  0.00     0.048 C 
ATOM      2  C   UNL     1      31.120  18.620  24.689  1.00  0.00    -0.012 C 
ATOM      3  C   UNL     1      31.220  17.928  25.838  1.00  0.00    -0.019 C 
ATOM      4  C   UNL     1      30.161  17.999  26.907  1.00  0.00     0.036 C 
ATOM      5  C   UNL     1      28.763  18.202  26.291  1.00  0.00     0.025 C 
ATOM      6  C   UNL     1      28.756  19.443  25.380  1.00  0.00     0.089 C 
ATOM      7  C   UNL     1      29.879  19.372  24.380  1.00  0.00     0.158 C 
ATOM      8  O   UNL     1      29.768  19.991  23.288  1.00  0.00    -0.295 OA
ENDROOT
BRANCH   5   9
ATOM      9  C   UNL     1      27.684  18.284  27.361  1.00  0.00    -0.077 C 
ATOM     10  C   UNL     1      26.391  18.061  27.069  1.00  0.00     0.008 C 
ATOM     11  C   UNL     1      28.053  18.623  28.783  1.00  0.00     0.039 C 
ENDBRANCH   5   9
TORSDOF 1
ENDMDL
MODEL 9
REMARK VINA RESULT:    -5.573      6.642      9.717
REMARK INTER + INTRA:          -5.995
REMARK INTER:                  -5.899
REMARK INTRA:                  -0.097
REMARK UNBOUND:                -0.097
REMARK SMILES C=C(C)[C@@H]1CC=C(C)C(=O)C1
REMARK SMILES IDX 8 1 7 2 6 3 5 4 4 5 11 6 9 7 10 8 2 9 1 10 3 11
REMARK H PARENT
REMARK Flexibility Score: inf
ROOT
ATOM      1  C   UNL     1      27.132  18.635  28.717  1.00  0.00     0.048 C 
ATOM      2  C   UNL     1      28.125  18.821  27.603  1.00  0.00    -0.012 C 
ATOM      3  C   UNL     1      27.870  19.703  26.621  1.00  0.00    -0.019 C 
ATOM      4  C   UNL     1      28.838  19.942  25.491  1.00  0.00     0.036 C 
ATOM      5  C   UNL     1      29.609  18.656  25.140  1.00  0.00     0.025 C 
ATOM      6  C   UNL     1      30.304  18.090  26.393  1.00  0.00     0.089 C 
ATOM      7  C   UNL     1      29.320  17.945  27.523  1.00  0.00     0.158 C 
ATOM      8  O   UNL     1      29.542  17.091  28.423  1.00  0.00    -0.295 OA
ENDROOT
BRANCH   5   9
ATOM      9  C   UNL     1      30.598  18.885  24.005  1.00  0.00    -0.077 C 
ATOM     10  C   UNL     1      31.905  18.603  24.148  1.00  0.00     0.008 C 
ATOM     11  C   UNL     1      30.121  19.439  22.687  1.00  0.00     0.039 C 
ENDBRANCH   5   9
TORSDOF 1
ENDMDL
