MODEL 1
REMARK VINA RESULT:    -2.649      0.000      0.000
REMARK INTER + INTRA:          -4.544
REMARK INTER:                  -3.579
REMARK INTRA:                  -0.965
REMARK UNBOUND:                -0.965
REMARK SMILES O=c1c(-c2ccc(O)cc2)coc2c([C@@H]3O[C@H](CO)[C@H](O)[C@@H](O)[C@@H]3O)c(O)ccc12
REMARK SMILES IDX 3 1 11 2 12 3 13 4 30 5 2 6 1 7 29 8 28 9 26 10 14 11 4 12
REMARK SMILES IDX 5 13 6 14 7 15 10 16 9 17 8 18 15 20 24 21 16 22 22 23 17 24
REMARK SMILES IDX 20 25 25 26 23 28 18 30 19 31 21 33 27 35
REMARK H PARENT 8 19 25 27 23 29 19 32 21 34 27 36
REMARK Flexibility Score: inf
ROOT
ATOM      1  C   UNL     1      34.994 -31.426  12.219  1.00  0.00     0.065 A 
ATOM      2  C   UNL     1      36.068 -31.293  13.113  1.00  0.00     0.208 A 
ATOM      3  O   UNL     1      37.224 -30.798  12.702  1.00  0.00    -0.463 OA
ATOM      4  C   UNL     1      37.439 -30.364  11.466  1.00  0.00     0.147 A 
ATOM      5  C   UNL     1      36.347 -30.247  10.580  1.00  0.00     0.066 A 
ATOM      6  C   UNL     1      35.125 -30.853  10.946  1.00  0.00     0.200 A 
ATOM      7  O   UNL     1      34.173 -30.927  10.117  1.00  0.00    -0.288 OA
ATOM      8  C   UNL     1      36.523 -29.603   9.352  1.00  0.00     0.020 A 
ATOM      9  C   UNL     1      37.782 -29.131   8.995  1.00  0.00     0.047 A 
ATOM     10  C   UNL     1      38.895 -29.338   9.816  1.00  0.00     0.125 A 
ATOM     11  C   UNL     1      38.763 -30.067  11.032  1.00  0.00     0.069 A 
ENDROOT
BRANCH   1  12
ATOM     12  C   UNL     1      33.932 -32.402  12.536  1.00  0.00    -0.011 A 
ATOM     13  C   UNL     1      33.983 -33.696  11.998  1.00  0.00     0.013 A 
ATOM     14  C   UNL     1      32.829 -34.499  11.997  1.00  0.00     0.047 A 
ATOM     15  C   UNL     1      31.621 -34.000  12.533  1.00  0.00     0.115 A 
ATOM     16  C   UNL     1      32.750 -31.935  13.125  1.00  0.00     0.013 A 
ATOM     17  C   UNL     1      31.594 -32.728  13.117  1.00  0.00     0.047 A 
BRANCH  15  18
ATOM     18  O   UNL     1      30.446 -34.758  12.482  1.00  0.00    -0.508 OA
ATOM     19  H   UNL     1      30.118 -35.259  13.295  1.00  0.00     0.293 HD
ENDBRANCH  15  18
ENDBRANCH   1  12
BRANCH  11  20
ATOM     20  C   UNL     1      40.022 -30.699  11.691  1.00  0.00     0.188 C 
ATOM     21  C   UNL     1      40.434 -32.111  11.123  1.00  0.00     0.179 C 
ATOM     22  O   UNL     1      41.116 -29.800  11.513  1.00  0.00    -0.362 OA
ATOM     23  C   UNL     1      41.842 -32.576  11.605  1.00  0.00     0.177 C 
ATOM     24  C   UNL     1      42.271 -30.221  12.222  1.00  0.00     0.176 C 
ATOM     25  C   UNL     1      42.879 -31.441  11.521  1.00  0.00     0.177 C 
BRANCH  21  26
ATOM     26  O   UNL     1      40.419 -32.140   9.714  1.00  0.00    -0.387 OA
ATOM     27  H   UNL     1      41.069 -32.827   9.413  1.00  0.00     0.211 HD
ENDBRANCH  21  26
BRANCH  23  28
ATOM     28  O   UNL     1      41.834 -33.108  12.914  1.00  0.00    -0.387 OA
ATOM     29  H   UNL     1      41.609 -32.389  13.553  1.00  0.00     0.211 HD
ENDBRANCH  23  28
BRANCH  24  30
ATOM     30  C   UNL     1      43.278 -29.061  12.255  1.00  0.00     0.191 C 
BRANCH  30  31
ATOM     31  O   UNL     1      44.569 -29.531  12.513  1.00  0.00    -0.394 OA
ATOM     32  H   UNL     1      44.713 -29.412  13.492  1.00  0.00     0.210 HD
ENDBRANCH  30  31
ENDBRANCH  24  30
BRANCH  25  33
ATOM     33  O   UNL     1      43.184 -31.110  10.178  1.00  0.00    -0.388 OA
ATOM     34  H   UNL     1      42.415 -31.402   9.616  1.00  0.00     0.211 HD
ENDBRANCH  25  33
ENDBRANCH  11  20
BRANCH  10  35
ATOM     35  O   UNL     1      40.126 -28.875   9.376  1.00  0.00    -0.507 OA
ATOM     36  H   UNL     1      40.690 -28.229   9.923  1.00  0.00     0.293 HD
ENDBRANCH  10  35
TORSDOF 9
ENDMDL
MODEL 2
REMARK VINA RESULT:    -1.532      3.161      8.176
REMARK INTER + INTRA:          -3.034
REMARK INTER:                  -2.452
REMARK INTRA:                  -0.582
REMARK UNBOUND:                -0.965
REMARK SMILES O=c1c(-c2ccc(O)cc2)coc2c([C@@H]3O[C@H](CO)[C@H](O)[C@@H](O)[C@@H]3O)c(O)ccc12
REMARK SMILES IDX 3 1 11 2 12 3 13 4 30 5 2 6 1 7 29 8 28 9 26 10 14 11 4 12
REMARK SMILES IDX 5 13 6 14 7 15 10 16 9 17 8 18 15 20 24 21 16 22 22 23 17 24
REMARK SMILES IDX 20 25 25 26 23 28 18 30 19 31 21 33 27 35
REMARK H PARENT 8 19 25 27 23 29 19 32 21 34 27 36
REMARK Flexibility Score: inf
ROOT
ATOM      1  C   UNL     1      41.722 -30.379  10.952  1.00  0.00     0.065 A 
ATOM      2  C   UNL     1      41.228 -29.687   9.835  1.00  0.00     0.208 A 
ATOM      3  O   UNL     1      39.962 -29.306   9.790  1.00  0.00    -0.463 OA
ATOM      4  C   UNL     1      39.100 -29.503  10.780  1.00  0.00     0.147 A 
ATOM      5  C   UNL     1      39.576 -29.978  12.021  1.00  0.00     0.066 A 
ATOM      6  C   UNL     1      40.892 -30.486  12.077  1.00  0.00     0.200 A 
ATOM      7  O   UNL     1      41.306 -31.080  13.115  1.00  0.00    -0.288 OA
ATOM      8  C   UNL     1      38.720 -29.996  13.125  1.00  0.00     0.020 A 
ATOM      9  C   UNL     1      37.396 -29.594  12.978  1.00  0.00     0.047 A 
ATOM     10  C   UNL     1      36.884 -29.226  11.731  1.00  0.00     0.125 A 
ATOM     11  C   UNL     1      37.708 -29.281  10.572  1.00  0.00     0.069 A 
ENDROOT
BRANCH   1  12
ATOM     12  C   UNL     1      42.932 -31.209  10.787  1.00  0.00    -0.011 A 
ATOM     13  C   UNL     1      42.823 -32.526  10.314  1.00  0.00     0.013 A 
ATOM     14  C   UNL     1      43.892 -33.421  10.487  1.00  0.00     0.047 A 
ATOM     15  C   UNL     1      45.071 -32.998  11.140  1.00  0.00     0.115 A 
ATOM     16  C   UNL     1      44.127 -30.774  11.375  1.00  0.00     0.013 A 
ATOM     17  C   UNL     1      45.191 -31.667  11.559  1.00  0.00     0.047 A 
BRANCH  15  18
ATOM     18  O   UNL     1      46.119 -33.892  11.380  1.00  0.00    -0.508 OA
ATOM     19  H   UNL     1      46.770 -33.735  12.136  1.00  0.00     0.293 HD
ENDBRANCH  15  18
ENDBRANCH   1  12
BRANCH  11  20
ATOM     20  C   UNL     1      37.053 -29.340   9.162  1.00  0.00     0.188 C 
ATOM     21  C   UNL     1      37.831 -30.209   8.101  1.00  0.00     0.179 C 
ATOM     22  O   UNL     1      35.735 -29.868   9.306  1.00  0.00    -0.362 OA
ATOM     23  C   UNL     1      37.006 -30.469   6.804  1.00  0.00     0.177 C 
ATOM     24  C   UNL     1      35.003 -29.810   8.092  1.00  0.00     0.176 C 
ATOM     25  C   UNL     1      35.550 -30.859   7.118  1.00  0.00     0.177 C 
BRANCH  21  26
ATOM     26  O   UNL     1      38.229 -31.454   8.626  1.00  0.00    -0.387 OA
ATOM     27  H   UNL     1      37.698 -32.162   8.177  1.00  0.00     0.211 HD
ENDBRANCH  21  26
BRANCH  23  28
ATOM     28  O   UNL     1      37.015 -29.374   5.910  1.00  0.00    -0.387 OA
ATOM     29  H   UNL     1      37.502 -28.622   6.326  1.00  0.00     0.211 HD
ENDBRANCH  23  28
BRANCH  24  30
ATOM     30  C   UNL     1      33.521 -30.079   8.398  1.00  0.00     0.191 C 
BRANCH  30  31
ATOM     31  O   UNL     1      33.337 -30.358   9.756  1.00  0.00    -0.394 OA
ATOM     32  H   UNL     1      34.183 -30.784  10.066  1.00  0.00     0.210 HD
ENDBRANCH  30  31
ENDBRANCH  24  30
BRANCH  25  33
ATOM     33  O   UNL     1      35.470 -32.142   7.713  1.00  0.00    -0.388 OA
ATOM     34  H   UNL     1      36.282 -32.261   8.278  1.00  0.00     0.211 HD
ENDBRANCH  25  33
ENDBRANCH  11  20
BRANCH  10  35
ATOM     35  O   UNL     1      35.543 -28.876  11.653  1.00  0.00    -0.507 OA
ATOM     36  H   UNL     1      35.105 -28.255  12.330  1.00  0.00     0.293 HD
ENDBRANCH  10  35
TORSDOF 9
ENDMDL
MODEL 3
REMARK VINA RESULT:    -0.173      2.379      8.677
REMARK INTER + INTRA:          -1.199
REMARK INTER:                  -1.173
REMARK INTRA:                  -0.026
REMARK UNBOUND:                -0.965
REMARK SMILES O=c1c(-c2ccc(O)cc2)coc2c([C@@H]3O[C@H](CO)[C@H](O)[C@@H](O)[C@@H]3O)c(O)ccc12
REMARK SMILES IDX 3 1 11 2 12 3 13 4 30 5 2 6 1 7 29 8 28 9 26 10 14 11 4 12
REMARK SMILES IDX 5 13 6 14 7 15 10 16 9 17 8 18 15 20 24 21 16 22 22 23 17 24
REMARK SMILES IDX 20 25 25 26 23 28 18 30 19 31 21 33 27 35
REMARK H PARENT 8 19 25 27 23 29 19 32 21 34 27 36
REMARK Flexibility Score: inf
ROOT
ATOM      1  C   UNL     1      41.825 -29.765  10.560  1.00  0.00     0.065 A 
ATOM      2  C   UNL     1      40.811 -28.884  10.152  1.00  0.00     0.208 A 
ATOM      3  O   UNL     1      39.550 -29.118  10.477  1.00  0.00    -0.463 OA
ATOM      4  C   UNL     1      39.162 -30.144  11.225  1.00  0.00     0.147 A 
ATOM      5  C   UNL     1      40.140 -30.935  11.865  1.00  0.00     0.066 A 
ATOM      6  C   UNL     1      41.486 -30.780  11.466  1.00  0.00     0.200 A 
ATOM      7  O   UNL     1      42.373 -31.581  11.881  1.00  0.00    -0.288 OA
ATOM      8  C   UNL     1      39.746 -31.884  12.811  1.00  0.00     0.020 A 
ATOM      9  C   UNL     1      38.393 -32.075  13.075  1.00  0.00     0.047 A 
ATOM     10  C   UNL     1      37.411 -31.374  12.369  1.00  0.00     0.125 A 
ATOM     11  C   UNL     1      37.779 -30.465  11.338  1.00  0.00     0.069 A 
ENDROOT
BRANCH   1  12
ATOM     12  C   UNL     1      43.092 -29.780   9.801  1.00  0.00    -0.011 A 
ATOM     13  C   UNL     1      43.278 -28.896   8.728  1.00  0.00     0.013 A 
ATOM     14  C   UNL     1      44.304 -29.135   7.797  1.00  0.00     0.047 A 
ATOM     15  C   UNL     1      45.139 -30.265   7.939  1.00  0.00     0.115 A 
ATOM     16  C   UNL     1      43.963 -30.862   9.976  1.00  0.00     0.013 A 
ATOM     17  C   UNL     1      44.980 -31.110   9.044  1.00  0.00     0.047 A 
BRANCH  15  18
ATOM     18  O   UNL     1      46.122 -30.556   6.987  1.00  0.00    -0.508 OA
ATOM     19  H   UNL     1      46.830 -29.878   6.750  1.00  0.00     0.293 HD
ENDBRANCH  15  18
ENDBRANCH   1  12
BRANCH  11  20
ATOM     20  C   UNL     1      36.735 -30.059  10.259  1.00  0.00     0.188 C 
ATOM     21  C   UNL     1      37.133 -30.418   8.777  1.00  0.00     0.179 C 
ATOM     22  O   UNL     1      35.501 -30.706  10.569  1.00  0.00    -0.362 OA
ATOM     23  C   UNL     1      35.953 -30.254   7.771  1.00  0.00     0.177 C 
ATOM     24  C   UNL     1      34.445 -30.268   9.729  1.00  0.00     0.176 C 
ATOM     25  C   UNL     1      34.643 -30.845   8.322  1.00  0.00     0.177 C 
BRANCH  21  26
ATOM     26  O   UNL     1      37.626 -31.734   8.665  1.00  0.00    -0.387 OA
ATOM     27  H   UNL     1      36.869 -32.360   8.808  1.00  0.00     0.211 HD
ENDBRANCH  21  26
BRANCH  23  28
ATOM     28  O   UNL     1      35.735 -28.911   7.384  1.00  0.00    -0.387 OA
ATOM     29  H   UNL     1      34.906 -28.584   7.809  1.00  0.00     0.211 HD
ENDBRANCH  23  28
BRANCH  24  30
ATOM     30  C   UNL     1      33.112 -30.747  10.325  1.00  0.00     0.191 C 
BRANCH  30  31
ATOM     31  O   UNL     1      33.325 -31.735  11.291  1.00  0.00    -0.394 OA
ATOM     32  H   UNL     1      32.444 -32.180  11.427  1.00  0.00     0.210 HD
ENDBRANCH  30  31
ENDBRANCH  24  30
BRANCH  25  33
ATOM     33  O   UNL     1      34.698 -32.258   8.395  1.00  0.00    -0.388 OA
ATOM     34  H   UNL     1      34.903 -32.597   7.481  1.00  0.00     0.211 HD
ENDBRANCH  25  33
ENDBRANCH  11  20
BRANCH  10  35
ATOM     35  O   UNL     1      36.081 -31.647  12.657  1.00  0.00    -0.507 OA
ATOM     36  H   UNL     1      35.405 -31.878  11.933  1.00  0.00     0.293 HD
ENDBRANCH  10  35
TORSDOF 9
ENDMDL
