MODEL 1
REMARK VINA RESULT:    -5.573      0.000      0.000
REMARK INTER + INTRA:          -6.961
REMARK INTER:                  -6.713
REMARK INTRA:                  -0.248
REMARK UNBOUND:                -0.248
REMARK SMILES O=c1c(O)c(-c2ccc(O)c(O)c2)oc2cc(O)cc(O)c12
REMARK SMILES IDX 5 1 3 2 2 3 1 4 22 5 20 6 19 7 17 8 16 9 15 10 14 11 6 12
REMARK SMILES IDX 7 13 8 14 9 15 13 16 11 17 10 18 12 20 4 22 21 24 18 26
REMARK H PARENT 10 19 12 21 4 23 21 25 18 27
REMARK Flexibility Score: inf
ROOT
ATOM      1  C   UNL     1      46.045  15.063  -3.859  1.00  0.00     0.180 A 
ATOM      2  C   UNL     1      46.831  13.993  -3.400  1.00  0.00     0.208 A 
ATOM      3  C   UNL     1      48.193  13.953  -3.739  1.00  0.00     0.238 A 
ATOM      4  O   UNL     1      48.878  12.963  -3.369  1.00  0.00    -0.285 OA
ATOM      5  C   UNL     1      48.756  14.990  -4.520  1.00  0.00     0.111 A 
ATOM      6  C   UNL     1      50.132  15.072  -4.889  1.00  0.00     0.134 A 
ATOM      7  C   UNL     1      50.552  16.073  -5.773  1.00  0.00     0.093 A 
ATOM      8  C   UNL     1      49.661  17.034  -6.248  1.00  0.00     0.123 A 
ATOM      9  C   UNL     1      48.324  16.999  -5.847  1.00  0.00     0.094 A 
ATOM     10  C   UNL     1      47.868  15.991  -4.995  1.00  0.00     0.146 A 
ATOM     11  O   UNL     1      46.587  15.987  -4.645  1.00  0.00    -0.452 OA
ENDROOT
BRANCH   1  12
ATOM     12  C   UNL     1      44.609  15.189  -3.522  1.00  0.00     0.025 A 
ATOM     13  C   UNL     1      43.672  14.367  -4.171  1.00  0.00     0.016 A 
ATOM     14  C   UNL     1      42.310  14.482  -3.884  1.00  0.00     0.051 A 
ATOM     15  C   UNL     1      41.863  15.432  -2.955  1.00  0.00     0.157 A 
ATOM     16  C   UNL     1      44.153  16.154  -2.607  1.00  0.00     0.062 A 
ATOM     17  C   UNL     1      42.785  16.271  -2.319  1.00  0.00     0.158 A 
BRANCH  15  18
ATOM     18  O   UNL     1      40.505  15.548  -2.664  1.00  0.00    -0.504 OA
ATOM     19  H   UNL     1      40.102  15.129  -1.835  1.00  0.00     0.293 HD
ENDBRANCH  15  18
BRANCH  17  20
ATOM     20  O   UNL     1      42.335  17.224  -1.406  1.00  0.00    -0.504 OA
ATOM     21  H   UNL     1      42.173  16.992  -0.433  1.00  0.00     0.293 HD
ENDBRANCH  17  20
ENDBRANCH   1  12
BRANCH   2  22
ATOM     22  O   UNL     1      46.251  12.967  -2.648  1.00  0.00    -0.502 OA
ATOM     23  H   UNL     1      46.746  12.490  -1.905  1.00  0.00     0.293 HD
ENDBRANCH   2  22
BRANCH   6  24
ATOM     24  O   UNL     1      51.123  14.217  -4.397  1.00  0.00    -0.507 OA
ATOM     25  H   UNL     1      51.015  13.609  -3.600  1.00  0.00     0.293 HD
ENDBRANCH   6  24
BRANCH   8  26
ATOM     26  O   UNL     1      50.116  18.026  -7.114  1.00  0.00    -0.508 OA
ATOM     27  H   UNL     1      51.059  18.014  -7.485  1.00  0.00     0.293 HD
ENDBRANCH   8  26
TORSDOF 6
ENDMDL
MODEL 2
REMARK VINA RESULT:    -5.432      1.101      1.125
REMARK INTER + INTRA:          -6.792
REMARK INTER:                  -6.621
REMARK INTRA:                  -0.170
REMARK UNBOUND:                -0.248
REMARK SMILES O=c1c(O)c(-c2ccc(O)c(O)c2)oc2cc(O)cc(O)c12
REMARK SMILES IDX 5 1 3 2 2 3 1 4 22 5 20 6 19 7 17 8 16 9 15 10 14 11 6 12
REMARK SMILES IDX 7 13 8 14 9 15 13 16 11 17 10 18 12 20 4 22 21 24 18 26
REMARK H PARENT 10 19 12 21 4 23 21 25 18 27
REMARK Flexibility Score: inf
ROOT
ATOM      1  C   UNL     1      45.837  15.764  -4.136  1.00  0.00     0.180 A 
ATOM      2  C   UNL     1      46.316  14.567  -3.577  1.00  0.00     0.208 A 
ATOM      3  C   UNL     1      47.654  14.201  -3.795  1.00  0.00     0.238 A 
ATOM      4  O   UNL     1      48.062  13.101  -3.337  1.00  0.00    -0.285 OA
ATOM      5  C   UNL     1      48.500  15.043  -4.556  1.00  0.00     0.111 A 
ATOM      6  C   UNL     1      49.882  14.791  -4.807  1.00  0.00     0.134 A 
ATOM      7  C   UNL     1      50.589  15.625  -5.681  1.00  0.00     0.093 A 
ATOM      8  C   UNL     1      49.983  16.738  -6.262  1.00  0.00     0.123 A 
ATOM      9  C   UNL     1      48.648  17.029  -5.977  1.00  0.00     0.094 A 
ATOM     10  C   UNL     1      47.907  16.194  -5.137  1.00  0.00     0.146 A 
ATOM     11  O   UNL     1      46.636  16.500  -4.900  1.00  0.00    -0.452 OA
ENDROOT
BRANCH   1  12
ATOM     12  C   UNL     1      44.446  16.229  -3.929  1.00  0.00     0.025 A 
ATOM     13  C   UNL     1      43.608  16.419  -5.040  1.00  0.00     0.016 A 
ATOM     14  C   UNL     1      42.300  16.877  -4.869  1.00  0.00     0.051 A 
ATOM     15  C   UNL     1      41.815  17.167  -3.587  1.00  0.00     0.157 A 
ATOM     16  C   UNL     1      43.962  16.541  -2.646  1.00  0.00     0.062 A 
ATOM     17  C   UNL     1      42.648  17.002  -2.474  1.00  0.00     0.158 A 
BRANCH  15  18
ATOM     18  O   UNL     1      40.509  17.623  -3.413  1.00  0.00    -0.504 OA
ATOM     19  H   UNL     1      40.304  18.605  -3.276  1.00  0.00     0.293 HD
ENDBRANCH  15  18
BRANCH  17  20
ATOM     20  O   UNL     1      42.168  17.305  -1.201  1.00  0.00    -0.504 OA
ATOM     21  H   UNL     1      41.584  18.116  -1.033  1.00  0.00     0.293 HD
ENDBRANCH  17  20
ENDBRANCH   1  12
BRANCH   2  22
ATOM     22  O   UNL     1      45.458  13.739  -2.847  1.00  0.00    -0.502 OA
ATOM     23  H   UNL     1      44.960  14.061  -2.026  1.00  0.00     0.293 HD
ENDBRANCH   2  22
BRANCH   6  24
ATOM     24  O   UNL     1      50.608  13.759  -4.205  1.00  0.00    -0.507 OA
ATOM     25  H   UNL     1      50.199  12.961  -3.744  1.00  0.00     0.293 HD
ENDBRANCH   6  24
BRANCH   8  26
ATOM     26  O   UNL     1      50.721  17.556  -7.115  1.00  0.00    -0.508 OA
ATOM     27  H   UNL     1      50.685  17.442  -8.121  1.00  0.00     0.293 HD
ENDBRANCH   8  26
TORSDOF 6
ENDMDL
MODEL 3
REMARK VINA RESULT:    -5.418      1.863      2.474
REMARK INTER + INTRA:          -6.774
REMARK INTER:                  -6.694
REMARK INTRA:                  -0.081
REMARK UNBOUND:                -0.248
REMARK SMILES O=c1c(O)c(-c2ccc(O)c(O)c2)oc2cc(O)cc(O)c12
REMARK SMILES IDX 5 1 3 2 2 3 1 4 22 5 20 6 19 7 17 8 16 9 15 10 14 11 6 12
REMARK SMILES IDX 7 13 8 14 9 15 13 16 11 17 10 18 12 20 4 22 21 24 18 26
REMARK H PARENT 10 19 12 21 4 23 21 25 18 27
REMARK Flexibility Score: inf
ROOT
ATOM      1  C   UNL     1      46.186  15.854  -4.154  1.00  0.00     0.180 A 
ATOM      2  C   UNL     1      45.981  14.516  -3.778  1.00  0.00     0.208 A 
ATOM      3  C   UNL     1      47.075  13.634  -3.775  1.00  0.00     0.238 A 
ATOM      4  O   UNL     1      46.874  12.425  -3.490  1.00  0.00    -0.285 OA
ATOM      5  C   UNL     1      48.361  14.105  -4.133  1.00  0.00     0.111 A 
ATOM      6  C   UNL     1      49.546  13.310  -4.126  1.00  0.00     0.134 A 
ATOM      7  C   UNL     1      50.739  13.845  -4.624  1.00  0.00     0.093 A 
ATOM      8  C   UNL     1      50.807  15.166  -5.066  1.00  0.00     0.123 A 
ATOM      9  C   UNL     1      49.668  15.972  -5.022  1.00  0.00     0.094 A 
ATOM     10  C   UNL     1      48.454  15.454  -4.564  1.00  0.00     0.146 A 
ATOM     11  O   UNL     1      47.392  16.250  -4.548  1.00  0.00    -0.452 OA
ENDROOT
BRANCH   1  12
ATOM     12  C   UNL     1      45.089  16.849  -4.157  1.00  0.00     0.025 A 
ATOM     13  C   UNL     1      44.853  17.614  -5.311  1.00  0.00     0.016 A 
ATOM     14  C   UNL     1      43.837  18.573  -5.330  1.00  0.00     0.051 A 
ATOM     15  C   UNL     1      43.052  18.790  -4.190  1.00  0.00     0.157 A 
ATOM     16  C   UNL     1      44.312  17.086  -3.010  1.00  0.00     0.062 A 
ATOM     17  C   UNL     1      43.292  18.049  -3.027  1.00  0.00     0.158 A 
BRANCH  15  18
ATOM     18  O   UNL     1      42.036  19.744  -4.205  1.00  0.00    -0.504 OA
ATOM     19  H   UNL     1      42.133  20.631  -3.724  1.00  0.00     0.293 HD
ENDBRANCH  15  18
BRANCH  17  20
ATOM     20  O   UNL     1      42.519  18.278  -1.890  1.00  0.00    -0.504 OA
ATOM     21  H   UNL     1      41.518  18.117  -1.888  1.00  0.00     0.293 HD
ENDBRANCH  17  20
ENDBRANCH   1  12
BRANCH   2  22
ATOM     22  O   UNL     1      44.699  14.067  -3.449  1.00  0.00    -0.502 OA
ATOM     23  H   UNL     1      44.363  14.033  -2.495  1.00  0.00     0.293 HD
ENDBRANCH   2  22
BRANCH   6  24
ATOM     24  O   UNL     1      49.609  12.008  -3.621  1.00  0.00    -0.507 OA
ATOM     25  H   UNL     1      48.931  11.602  -2.993  1.00  0.00     0.293 HD
ENDBRANCH   6  24
BRANCH   8  26
ATOM     26  O   UNL     1      52.016  15.671  -5.541  1.00  0.00    -0.508 OA
ATOM     27  H   UNL     1      52.065  16.560  -6.024  1.00  0.00     0.293 HD
ENDBRANCH   8  26
TORSDOF 6
ENDMDL
MODEL 4
REMARK VINA RESULT:    -5.306      1.765      3.548
REMARK INTER + INTRA:          -6.640
REMARK INTER:                  -6.936
REMARK INTRA:                   0.296
REMARK UNBOUND:                -0.248
REMARK SMILES O=c1c(O)c(-c2ccc(O)c(O)c2)oc2cc(O)cc(O)c12
REMARK SMILES IDX 5 1 3 2 2 3 1 4 22 5 20 6 19 7 17 8 16 9 15 10 14 11 6 12
REMARK SMILES IDX 7 13 8 14 9 15 13 16 11 17 10 18 12 20 4 22 21 24 18 26
REMARK H PARENT 10 19 12 21 4 23 21 25 18 27
REMARK Flexibility Score: inf
ROOT
ATOM      1  C   UNL     1      45.495  16.001  -3.766  1.00  0.00     0.180 A 
ATOM      2  C   UNL     1      46.161  16.504  -4.897  1.00  0.00     0.208 A 
ATOM      3  C   UNL     1      47.332  15.865  -5.338  1.00  0.00     0.238 A 
ATOM      4  O   UNL     1      47.953  16.353  -6.318  1.00  0.00    -0.285 OA
ATOM      5  C   UNL     1      47.813  14.724  -4.652  1.00  0.00     0.111 A 
ATOM      6  C   UNL     1      48.966  13.975  -5.036  1.00  0.00     0.134 A 
ATOM      7  C   UNL     1      49.425  12.943  -4.209  1.00  0.00     0.093 A 
ATOM      8  C   UNL     1      48.736  12.589  -3.050  1.00  0.00     0.123 A 
ATOM      9  C   UNL     1      47.573  13.275  -2.697  1.00  0.00     0.094 A 
ATOM     10  C   UNL     1      47.112  14.334  -3.482  1.00  0.00     0.146 A 
ATOM     11  O   UNL     1      46.007  14.968  -3.106  1.00  0.00    -0.452 OA
ENDROOT
BRANCH   1  12
ATOM     12  C   UNL     1      44.242  16.604  -3.257  1.00  0.00     0.025 A 
ATOM     13  C   UNL     1      44.046  17.990  -3.371  1.00  0.00     0.016 A 
ATOM     14  C   UNL     1      42.881  18.583  -2.879  1.00  0.00     0.051 A 
ATOM     15  C   UNL     1      41.902  17.801  -2.251  1.00  0.00     0.157 A 
ATOM     16  C   UNL     1      43.267  15.826  -2.607  1.00  0.00     0.062 A 
ATOM     17  C   UNL     1      42.097  16.422  -2.112  1.00  0.00     0.158 A 
BRANCH  15  18
ATOM     18  O   UNL     1      40.738  18.388  -1.760  1.00  0.00    -0.504 OA
ATOM     19  H   UNL     1      39.820  18.066  -2.044  1.00  0.00     0.293 HD
ENDBRANCH  15  18
BRANCH  17  20
ATOM     20  O   UNL     1      41.128  15.648  -1.474  1.00  0.00    -0.504 OA
ATOM     21  H   UNL     1      41.137  15.509  -0.470  1.00  0.00     0.293 HD
ENDBRANCH  17  20
ENDBRANCH   1  12
BRANCH   2  22
ATOM     22  O   UNL     1      45.681  17.645  -5.546  1.00  0.00    -0.502 OA
ATOM     23  H   UNL     1      45.491  17.665  -6.540  1.00  0.00     0.293 HD
ENDBRANCH   2  22
BRANCH   6  24
ATOM     24  O   UNL     1      49.675  14.186  -6.222  1.00  0.00    -0.507 OA
ATOM     25  H   UNL     1      50.269  14.981  -6.403  1.00  0.00     0.293 HD
ENDBRANCH   6  24
BRANCH   8  26
ATOM     26  O   UNL     1      49.212  11.545  -2.258  1.00  0.00    -0.508 OA
ATOM     27  H   UNL     1      48.584  10.867  -1.841  1.00  0.00     0.293 HD
ENDBRANCH   8  26
TORSDOF 6
ENDMDL
MODEL 5
REMARK VINA RESULT:    -5.226      3.437      4.873
REMARK INTER + INTRA:          -6.543
REMARK INTER:                  -6.240
REMARK INTRA:                  -0.304
REMARK UNBOUND:                -0.248
REMARK SMILES O=c1c(O)c(-c2ccc(O)c(O)c2)oc2cc(O)cc(O)c12
REMARK SMILES IDX 5 1 3 2 2 3 1 4 22 5 20 6 19 7 17 8 16 9 15 10 14 11 6 12
REMARK SMILES IDX 7 13 8 14 9 15 13 16 11 17 10 18 12 20 4 22 21 24 18 26
REMARK H PARENT 10 19 12 21 4 23 21 25 18 27
REMARK Flexibility Score: inf
ROOT
ATOM      1  C   UNL     1      49.280  13.741  -4.656  1.00  0.00     0.180 A 
ATOM      2  C   UNL     1      49.231  15.137  -4.805  1.00  0.00     0.208 A 
ATOM      3  C   UNL     1      50.301  15.792  -5.437  1.00  0.00     0.238 A 
ATOM      4  O   UNL     1      50.276  17.048  -5.518  1.00  0.00    -0.285 OA
ATOM      5  C   UNL     1      51.398  15.041  -5.924  1.00  0.00     0.111 A 
ATOM      6  C   UNL     1      52.517  15.596  -6.615  1.00  0.00     0.134 A 
ATOM      7  C   UNL     1      53.605  14.777  -6.937  1.00  0.00     0.093 A 
ATOM      8  C   UNL     1      53.589  13.413  -6.652  1.00  0.00     0.123 A 
ATOM      9  C   UNL     1      52.474  12.847  -6.030  1.00  0.00     0.094 A 
ATOM     10  C   UNL     1      51.388  13.646  -5.664  1.00  0.00     0.146 A 
ATOM     11  O   UNL     1      50.352  13.071  -5.065  1.00  0.00    -0.452 OA
ENDROOT
BRANCH   1  12
ATOM     12  C   UNL     1      48.179  12.977  -4.024  1.00  0.00     0.025 A 
ATOM     13  C   UNL     1      47.038  12.658  -4.779  1.00  0.00     0.016 A 
ATOM     14  C   UNL     1      45.979  11.956  -4.198  1.00  0.00     0.051 A 
ATOM     15  C   UNL     1      46.039  11.577  -2.850  1.00  0.00     0.157 A 
ATOM     16  C   UNL     1      48.225  12.612  -2.667  1.00  0.00     0.062 A 
ATOM     17  C   UNL     1      47.161  11.909  -2.083  1.00  0.00     0.158 A 
BRANCH  15  18
ATOM     18  O   UNL     1      44.985  10.875  -2.267  1.00  0.00    -0.504 OA
ATOM     19  H   UNL     1      44.524  10.112  -2.750  1.00  0.00     0.293 HD
ENDBRANCH  15  18
BRANCH  17  20
ATOM     20  O   UNL     1      47.212  11.543  -0.738  1.00  0.00    -0.504 OA
ATOM     21  H   UNL     1      48.093  11.444  -0.248  1.00  0.00     0.293 HD
ENDBRANCH  17  20
ENDBRANCH   1  12
BRANCH   2  22
ATOM     22  O   UNL     1      48.149  15.861  -4.297  1.00  0.00    -0.502 OA
ATOM     23  H   UNL     1      47.311  15.413  -3.948  1.00  0.00     0.293 HD
ENDBRANCH   2  22
BRANCH   6  24
ATOM     24  O   UNL     1      52.595  16.929  -7.029  1.00  0.00    -0.507 OA
ATOM     25  H   UNL     1      52.850  17.230  -7.957  1.00  0.00     0.293 HD
ENDBRANCH   6  24
BRANCH   8  26
ATOM     26  O   UNL     1      54.683  12.624  -7.001  1.00  0.00    -0.508 OA
ATOM     27  H   UNL     1      55.402  12.962  -7.629  1.00  0.00     0.293 HD
ENDBRANCH   8  26
TORSDOF 6
ENDMDL
MODEL 6
REMARK VINA RESULT:    -5.211      1.917      7.171
REMARK INTER + INTRA:          -6.525
REMARK INTER:                  -6.926
REMARK INTRA:                   0.401
REMARK UNBOUND:                -0.248
REMARK SMILES O=c1c(O)c(-c2ccc(O)c(O)c2)oc2cc(O)cc(O)c12
REMARK SMILES IDX 5 1 3 2 2 3 1 4 22 5 20 6 19 7 17 8 16 9 15 10 14 11 6 12
REMARK SMILES IDX 7 13 8 14 9 15 13 16 11 17 10 18 12 20 4 22 21 24 18 26
REMARK H PARENT 10 19 12 21 4 23 21 25 18 27
REMARK Flexibility Score: inf
ROOT
ATOM      1  C   UNL     1      46.504  16.318  -4.610  1.00  0.00     0.180 A 
ATOM      2  C   UNL     1      46.123  17.297  -5.542  1.00  0.00     0.208 A 
ATOM      3  C   UNL     1      44.847  17.876  -5.439  1.00  0.00     0.238 A 
ATOM      4  O   UNL     1      44.492  18.713  -6.310  1.00  0.00    -0.285 OA
ATOM      5  C   UNL     1      43.975  17.478  -4.397  1.00  0.00     0.111 A 
ATOM      6  C   UNL     1      42.676  18.026  -4.174  1.00  0.00     0.134 A 
ATOM      7  C   UNL     1      41.850  17.466  -3.193  1.00  0.00     0.093 A 
ATOM      8  C   UNL     1      42.297  16.424  -2.384  1.00  0.00     0.123 A 
ATOM      9  C   UNL     1      43.588  15.919  -2.553  1.00  0.00     0.094 A 
ATOM     10  C   UNL     1      44.423  16.434  -3.548  1.00  0.00     0.146 A 
ATOM     11  O   UNL     1      45.639  15.919  -3.683  1.00  0.00    -0.452 OA
ENDROOT
BRANCH   1  12
ATOM     12  C   UNL     1      47.841  15.681  -4.637  1.00  0.00     0.025 A 
ATOM     13  C   UNL     1      48.907  16.341  -5.271  1.00  0.00     0.016 A 
ATOM     14  C   UNL     1      50.172  15.750  -5.327  1.00  0.00     0.051 A 
ATOM     15  C   UNL     1      50.385  14.484  -4.765  1.00  0.00     0.157 A 
ATOM     16  C   UNL     1      48.055  14.403  -4.093  1.00  0.00     0.062 A 
ATOM     17  C   UNL     1      49.324  13.808  -4.150  1.00  0.00     0.158 A 
BRANCH  15  18
ATOM     18  O   UNL     1      51.645  13.892  -4.817  1.00  0.00    -0.504 OA
ATOM     19  H   UNL     1      51.955  13.374  -5.631  1.00  0.00     0.293 HD
ENDBRANCH  15  18
BRANCH  17  20
ATOM     20  O   UNL     1      49.536  12.543  -3.604  1.00  0.00    -0.504 OA
ATOM     21  H   UNL     1      50.421  12.288  -3.182  1.00  0.00     0.293 HD
ENDBRANCH  17  20
ENDBRANCH   1  12
BRANCH   2  22
ATOM     22  O   UNL     1      46.991  17.659  -6.576  1.00  0.00    -0.502 OA
ATOM     23  H   UNL     1      47.950  17.936  -6.409  1.00  0.00     0.293 HD
ENDBRANCH   2  22
BRANCH   6  24
ATOM     24  O   UNL     1      42.165  19.129  -4.866  1.00  0.00    -0.507 OA
ATOM     25  H   UNL     1      41.896  20.002  -4.438  1.00  0.00     0.293 HD
ENDBRANCH   6  24
BRANCH   8  26
ATOM     26  O   UNL     1      41.454  15.900  -1.406  1.00  0.00    -0.508 OA
ATOM     27  H   UNL     1      41.812  15.339  -0.642  1.00  0.00     0.293 HD
ENDBRANCH   8  26
TORSDOF 6
ENDMDL
MODEL 7
REMARK VINA RESULT:    -4.930      2.120      7.233
REMARK INTER + INTRA:          -6.187
REMARK INTER:                  -6.200
REMARK INTRA:                   0.013
REMARK UNBOUND:                -0.248
REMARK SMILES O=c1c(O)c(-c2ccc(O)c(O)c2)oc2cc(O)cc(O)c12
REMARK SMILES IDX 5 1 3 2 2 3 1 4 22 5 20 6 19 7 17 8 16 9 15 10 14 11 6 12
REMARK SMILES IDX 7 13 8 14 9 15 13 16 11 17 10 18 12 20 4 22 21 24 18 26
REMARK H PARENT 10 19 12 21 4 23 21 25 18 27
REMARK Flexibility Score: inf
ROOT
ATOM      1  C   UNL     1      49.261  14.728  -4.945  1.00  0.00     0.180 A 
ATOM      2  C   UNL     1      48.796  13.746  -4.053  1.00  0.00     0.208 A 
ATOM      3  C   UNL     1      47.464  13.805  -3.610  1.00  0.00     0.238 A 
ATOM      4  O   UNL     1      47.070  12.954  -2.770  1.00  0.00    -0.285 OA
ATOM      5  C   UNL     1      46.611  14.835  -4.075  1.00  0.00     0.111 A 
ATOM      6  C   UNL     1      45.234  14.967  -3.723  1.00  0.00     0.134 A 
ATOM      7  C   UNL     1      44.522  16.098  -4.139  1.00  0.00     0.093 A 
ATOM      8  C   UNL     1      45.115  17.067  -4.947  1.00  0.00     0.123 A 
ATOM      9  C   UNL     1      46.444  16.917  -5.347  1.00  0.00     0.094 A 
ATOM     10  C   UNL     1      47.191  15.818  -4.918  1.00  0.00     0.146 A 
ATOM     11  O   UNL     1      48.456  15.719  -5.312  1.00  0.00    -0.452 OA
ENDROOT
BRANCH   1  12
ATOM     12  C   UNL     1      50.643  14.718  -5.476  1.00  0.00     0.025 A 
ATOM     13  C   UNL     1      51.379  15.914  -5.511  1.00  0.00     0.016 A 
ATOM     14  C   UNL     1      52.677  15.932  -6.027  1.00  0.00     0.051 A 
ATOM     15  C   UNL     1      53.252  14.758  -6.530  1.00  0.00     0.157 A 
ATOM     16  C   UNL     1      51.218  13.547  -6.001  1.00  0.00     0.062 A 
ATOM     17  C   UNL     1      52.521  13.564  -6.520  1.00  0.00     0.158 A 
BRANCH  15  18
ATOM     18  O   UNL     1      54.548  14.772  -7.044  1.00  0.00    -0.504 OA
ATOM     19  H   UNL     1      55.251  14.113  -6.730  1.00  0.00     0.293 HD
ENDBRANCH  15  18
BRANCH  17  20
ATOM     20  O   UNL     1      53.091  12.401  -7.034  1.00  0.00    -0.504 OA
ATOM     21  H   UNL     1      53.271  11.594  -6.448  1.00  0.00     0.293 HD
ENDBRANCH  17  20
ENDBRANCH   1  12
BRANCH   2  22
ATOM     22  O   UNL     1      49.660  12.751  -3.590  1.00  0.00    -0.502 OA
ATOM     23  H   UNL     1      49.330  11.926  -3.104  1.00  0.00     0.293 HD
ENDBRANCH   2  22
BRANCH   6  24
ATOM     24  O   UNL     1      44.520  14.011  -2.996  1.00  0.00    -0.507 OA
ATOM     25  H   UNL     1      44.936  13.251  -2.480  1.00  0.00     0.293 HD
ENDBRANCH   6  24
BRANCH   8  26
ATOM     26  O   UNL     1      44.371  18.172  -5.355  1.00  0.00    -0.508 OA
ATOM     27  H   UNL     1      44.330  18.453  -6.328  1.00  0.00     0.293 HD
ENDBRANCH   8  26
TORSDOF 6
ENDMDL
MODEL 8
REMARK VINA RESULT:    -4.905      1.258      6.794
REMARK INTER + INTRA:          -6.156
REMARK INTER:                  -6.260
REMARK INTRA:                   0.104
REMARK UNBOUND:                -0.248
REMARK SMILES O=c1c(O)c(-c2ccc(O)c(O)c2)oc2cc(O)cc(O)c12
REMARK SMILES IDX 5 1 3 2 2 3 1 4 22 5 20 6 19 7 17 8 16 9 15 10 14 11 6 12
REMARK SMILES IDX 7 13 8 14 9 15 13 16 11 17 10 18 12 20 4 22 21 24 18 26
REMARK H PARENT 10 19 12 21 4 23 21 25 18 27
REMARK Flexibility Score: inf
ROOT
ATOM      1  C   UNL     1      46.653  15.487  -4.371  1.00  0.00     0.180 A 
ATOM      2  C   UNL     1      46.130  14.186  -4.278  1.00  0.00     0.208 A 
ATOM      3  C   UNL     1      44.815  14.012  -3.818  1.00  0.00     0.238 A 
ATOM      4  O   UNL     1      44.372  12.841  -3.685  1.00  0.00    -0.285 OA
ATOM      5  C   UNL     1      44.035  15.141  -3.470  1.00  0.00     0.111 A 
ATOM      6  C   UNL     1      42.678  15.084  -3.030  1.00  0.00     0.134 A 
ATOM      7  C   UNL     1      42.046  16.253  -2.588  1.00  0.00     0.093 A 
ATOM      8  C   UNL     1      42.697  17.484  -2.633  1.00  0.00     0.123 A 
ATOM      9  C   UNL     1      44.004  17.561  -3.118  1.00  0.00     0.094 A 
ATOM     10  C   UNL     1      44.673  16.407  -3.531  1.00  0.00     0.146 A 
ATOM     11  O   UNL     1      45.919  16.522  -3.975  1.00  0.00    -0.452 OA
ENDROOT
BRANCH   1  12
ATOM     12  C   UNL     1      48.021  15.753  -4.872  1.00  0.00     0.025 A 
ATOM     13  C   UNL     1      48.224  16.765  -5.824  1.00  0.00     0.016 A 
ATOM     14  C   UNL     1      49.503  17.019  -6.326  1.00  0.00     0.051 A 
ATOM     15  C   UNL     1      50.595  16.254  -5.894  1.00  0.00     0.157 A 
ATOM     16  C   UNL     1      49.117  14.975  -4.458  1.00  0.00     0.062 A 
ATOM     17  C   UNL     1      50.401  15.228  -4.962  1.00  0.00     0.158 A 
BRANCH  15  18
ATOM     18  O   UNL     1      51.872  16.506  -6.391  1.00  0.00    -0.504 OA
ATOM     19  H   UNL     1      52.694  16.436  -5.803  1.00  0.00     0.293 HD
ENDBRANCH  15  18
BRANCH  17  20
ATOM     20  O   UNL     1      51.487  14.460  -4.545  1.00  0.00    -0.504 OA
ATOM     21  H   UNL     1      51.601  14.183  -3.577  1.00  0.00     0.293 HD
ENDBRANCH  17  20
ENDBRANCH   1  12
BRANCH   2  22
ATOM     22  O   UNL     1      46.925  13.084  -4.606  1.00  0.00    -0.502 OA
ATOM     23  H   UNL     1      46.534  12.171  -4.803  1.00  0.00     0.293 HD
ENDBRANCH   2  22
BRANCH   6  24
ATOM     24  O   UNL     1      41.906  13.919  -3.032  1.00  0.00    -0.507 OA
ATOM     25  H   UNL     1      42.243  13.006  -3.294  1.00  0.00     0.293 HD
ENDBRANCH   6  24
BRANCH   8  26
ATOM     26  O   UNL     1      42.032  18.630  -2.201  1.00  0.00    -0.508 OA
ATOM     27  H   UNL     1      42.403  19.209  -1.457  1.00  0.00     0.293 HD
ENDBRANCH   8  26
TORSDOF 6
ENDMDL
MODEL 9
REMARK VINA RESULT:    -4.889      2.360      3.690
REMARK INTER + INTRA:          -6.137
REMARK INTER:                  -6.093
REMARK INTRA:                  -0.044
REMARK UNBOUND:                -0.248
REMARK SMILES O=c1c(O)c(-c2ccc(O)c(O)c2)oc2cc(O)cc(O)c12
REMARK SMILES IDX 5 1 3 2 2 3 1 4 22 5 20 6 19 7 17 8 16 9 15 10 14 11 6 12
REMARK SMILES IDX 7 13 8 14 9 15 13 16 11 17 10 18 12 20 4 22 21 24 18 26
REMARK H PARENT 10 19 12 21 4 23 21 25 18 27
REMARK Flexibility Score: inf
ROOT
ATOM      1  C   UNL     1      45.473  15.696  -3.823  1.00  0.00     0.180 A 
ATOM      2  C   UNL     1      44.856  14.506  -3.403  1.00  0.00     0.208 A 
ATOM      3  C   UNL     1      45.638  13.349  -3.252  1.00  0.00     0.238 A 
ATOM      4  O   UNL     1      45.069  12.274  -2.928  1.00  0.00    -0.285 OA
ATOM      5  C   UNL     1      47.029  13.401  -3.509  1.00  0.00     0.111 A 
ATOM      6  C   UNL     1      47.924  12.300  -3.349  1.00  0.00     0.134 A 
ATOM      7  C   UNL     1      49.256  12.430  -3.757  1.00  0.00     0.093 A 
ATOM      8  C   UNL     1      49.743  13.637  -4.255  1.00  0.00     0.123 A 
ATOM      9  C   UNL     1      48.892  14.738  -4.359  1.00  0.00     0.094 A 
ATOM     10  C   UNL     1      47.548  14.629  -3.995  1.00  0.00     0.146 A 
ATOM     11  O   UNL     1      46.768  15.697  -4.119  1.00  0.00    -0.452 OA
ENDROOT
BRANCH   1  12
ATOM     12  C   UNL     1      44.720  16.962  -3.981  1.00  0.00     0.025 A 
ATOM     13  C   UNL     1      43.966  17.456  -2.903  1.00  0.00     0.016 A 
ATOM     14  C   UNL     1      43.232  18.637  -3.036  1.00  0.00     0.051 A 
ATOM     15  C   UNL     1      43.228  19.333  -4.252  1.00  0.00     0.157 A 
ATOM     16  C   UNL     1      44.697  17.653  -5.205  1.00  0.00     0.062 A 
ATOM     17  C   UNL     1      43.959  18.839  -5.339  1.00  0.00     0.158 A 
BRANCH  15  18
ATOM     18  O   UNL     1      42.499  20.512  -4.387  1.00  0.00    -0.504 OA
ATOM     19  H   UNL     1      41.508  20.551  -4.178  1.00  0.00     0.293 HD
ENDBRANCH  15  18
BRANCH  17  20
ATOM     20  O   UNL     1      43.942  19.525  -6.552  1.00  0.00    -0.504 OA
ATOM     21  H   UNL     1      43.077  19.702  -7.050  1.00  0.00     0.293 HD
ENDBRANCH  17  20
ENDBRANCH   1  12
BRANCH   2  22
ATOM     22  O   UNL     1      43.477  14.472  -3.176  1.00  0.00    -0.502 OA
ATOM     23  H   UNL     1      42.806  14.832  -3.844  1.00  0.00     0.293 HD
ENDBRANCH   2  22
BRANCH   6  24
ATOM     24  O   UNL     1      47.562  11.078  -2.776  1.00  0.00    -0.507 OA
ATOM     25  H   UNL     1      48.074  10.612  -2.042  1.00  0.00     0.293 HD
ENDBRANCH   6  24
BRANCH   8  26
ATOM     26  O   UNL     1      51.080  13.735  -4.636  1.00  0.00    -0.508 OA
ATOM     27  H   UNL     1      51.503  14.629  -4.859  1.00  0.00     0.293 HD
ENDBRANCH   8  26
TORSDOF 6
ENDMDL
