MODEL 1
REMARK VINA RESULT:    -3.864      0.000      0.000
REMARK INTER + INTRA:          -6.091
REMARK INTER:                  -5.898
REMARK INTRA:                  -0.194
REMARK UNBOUND:                -0.194
REMARK SMILES CC1=CCC[C@@H](C)C(=O)C[C@H](C(C)C)C(=O)C1
REMARK SMILES IDX 8 1 9 2 6 3 7 4 5 5 4 6 3 7 2 8 1 9 10 11 11 12 15 13 16 14
REMARK SMILES IDX 17 15 12 17 13 18 14 19
REMARK H PARENT
REMARK Flexibility Score: 70.00
ROOT
ATOM      1  C   UNL     1      -2.468 -28.616  12.134  1.00  0.00     0.136 C 
ATOM      2  O   UNL     1      -3.097 -28.807  11.103  1.00  0.00    -0.299 OA
ENDROOT
BRANCH   1   3
ATOM      3  C   UNL     1      -3.163 -27.839  13.251  1.00  0.00     0.053 C 
ATOM      4  C   UNL     1      -4.504 -28.519  13.563  1.00  0.00     0.016 C 
BRANCH   3   5
ATOM      5  C   UNL     1      -3.395 -26.323  13.009  1.00  0.00     0.015 C 
BRANCH   5   6
ATOM      6  C   UNL     1      -2.408 -25.398  13.762  1.00  0.00     0.028 C 
BRANCH   6   7
ATOM      7  C   UNL     1      -1.982 -26.006  15.079  1.00  0.00    -0.028 C 
ATOM      8  C   UNL     1      -0.743 -26.465  15.374  1.00  0.00    -0.070 CG0
ATOM      9  C   UNL     1      -0.495 -26.983  16.768  1.00  0.00     0.039 C 
ATOM     10  G   UNL     1       0.392 -26.495  14.367  1.00  0.00     0.000 G0
ENDBRANCH   6   7
ENDBRANCH   5   6
ENDBRANCH   3   5
ENDBRANCH   1   3
BRANCH   1  11
ATOM     11  C   UNL     1      -1.041 -29.123  12.197  1.00  0.00     0.087 C 
BRANCH  11  12
ATOM     12  C   UNL     1       0.030 -27.995  12.243  1.00  0.00     0.066 C 
BRANCH  12  13
ATOM     13  C   UNL     1       0.528 -27.815  13.669  1.00  0.00     0.140 C 
ATOM     14  O   UNL     1       1.067 -28.749  14.244  1.00  0.00    -0.299 OA
BRANCH  13  15
ATOM     15  C   UNL     1       0.403 -26.498  14.389  1.00  0.00     0.106 CG0
ATOM     16  G   UNL     1      -0.744 -26.487  15.382  1.00  0.00     0.000 G0
ENDBRANCH  13  15
ENDBRANCH  12  13
BRANCH  12  17
ATOM     17  C   UNL     1       1.220 -28.178  11.245  1.00  0.00    -0.006 C 
ATOM     18  C   UNL     1       0.829 -28.998  10.002  1.00  0.00     0.008 C 
ATOM     19  C   UNL     1       1.763 -26.811  10.786  1.00  0.00     0.008 C 
ENDBRANCH  12  17
ENDBRANCH  11  12
ENDBRANCH   1  11
TORSDOF 1
ENDMDL
MODEL 2
REMARK VINA RESULT:    -3.762     18.105     20.035
REMARK INTER + INTRA:          -5.935
REMARK INTER:                  -5.674
REMARK INTRA:                  -0.262
REMARK UNBOUND:                -0.194
REMARK SMILES CC1=CCC[C@@H](C)C(=O)C[C@H](C(C)C)C(=O)C1
REMARK SMILES IDX 8 1 9 2 6 3 7 4 5 5 4 6 3 7 2 8 1 9 10 11 11 12 15 13 16 14
REMARK SMILES IDX 17 15 12 17 13 18 14 19
REMARK H PARENT
REMARK Flexibility Score: 70.00
ROOT
ATOM      1  C   UNL     1      10.138 -13.355  17.206  1.00  0.00     0.136 C 
ATOM      2  O   UNL     1      10.506 -13.407  18.371  1.00  0.00    -0.299 OA
ENDROOT
BRANCH   1   3
ATOM      3  C   UNL     1      10.035 -14.671  16.438  1.00  0.00     0.053 C 
ATOM      4  C   UNL     1       9.306 -15.698  17.316  1.00  0.00     0.016 C 
BRANCH   3   5
ATOM      5  C   UNL     1      11.365 -15.284  15.921  1.00  0.00     0.015 C 
BRANCH   5   6
ATOM      6  C   UNL     1      12.268 -14.291  15.150  1.00  0.00     0.028 C 
BRANCH   6   7
ATOM      7  C   UNL     1      11.601 -13.813  13.880  1.00  0.00    -0.028 C 
ATOM      8  C   UNL     1      11.624 -12.547  13.403  1.00  0.00    -0.070 CG0
ATOM      9  C   UNL     1      10.948 -12.277  12.082  1.00  0.00     0.039 C 
ATOM     10  G   UNL     1      12.279 -11.394  14.141  1.00  0.00     0.000 G0
ENDBRANCH   6   7
ENDBRANCH   5   6
ENDBRANCH   3   5
ENDBRANCH   1   3
BRANCH   1  11
ATOM     11  C   UNL     1       9.861 -11.987  16.612  1.00  0.00     0.087 C 
BRANCH  11  12
ATOM     12  C   UNL     1      11.121 -11.082  16.495  1.00  0.00     0.066 C 
BRANCH  12  13
ATOM     13  C   UNL     1      11.319 -10.657  15.048  1.00  0.00     0.140 C 
ATOM     14  O   UNL     1      10.709  -9.691  14.614  1.00  0.00    -0.299 OA
BRANCH  13  15
ATOM     15  C   UNL     1      12.276 -11.378  14.137  1.00  0.00     0.106 CG0
ATOM     16  G   UNL     1      11.619 -12.532  13.402  1.00  0.00     0.000 G0
ENDBRANCH  13  15
ENDBRANCH  12  13
BRANCH  12  17
ATOM     17  C   UNL     1      11.135  -9.848  17.457  1.00  0.00    -0.006 C 
ATOM     18  C   UNL     1       9.751  -9.556  18.065  1.00  0.00     0.008 C 
ATOM     19  C   UNL     1      12.144 -10.060  18.602  1.00  0.00     0.008 C 
ENDBRANCH  12  17
ENDBRANCH  11  12
ENDBRANCH   1  11
TORSDOF 1
ENDMDL
MODEL 3
REMARK VINA RESULT:    -3.718      1.810      3.515
REMARK INTER + INTRA:          -5.868
REMARK INTER:                  -6.127
REMARK INTRA:                   0.259
REMARK UNBOUND:                -0.194
REMARK SMILES CC1=CCC[C@@H](C)C(=O)C[C@H](C(C)C)C(=O)C1
REMARK SMILES IDX 8 1 9 2 6 3 7 4 5 5 4 6 3 7 2 8 1 9 10 11 11 12 15 13 16 14
REMARK SMILES IDX 17 15 12 17 13 18 14 19
REMARK H PARENT
REMARK Flexibility Score: 70.00
ROOT
ATOM      1  C   UNL     1       0.440 -25.451  13.734  1.00  0.00     0.136 C 
ATOM      2  O   UNL     1       1.502 -24.866  13.889  1.00  0.00    -0.299 OA
ENDROOT
BRANCH   1   3
ATOM      3  C   UNL     1      -0.549 -25.440  14.898  1.00  0.00     0.053 C 
ATOM      4  C   UNL     1      -1.108 -24.018  15.054  1.00  0.00     0.016 C 
BRANCH   3   5
ATOM      5  C   UNL     1      -0.022 -25.942  16.269  1.00  0.00     0.015 C 
BRANCH   5   6
ATOM      6  C   UNL     1      -0.619 -27.296  16.724  1.00  0.00     0.028 C 
BRANCH   6   7
ATOM      7  C   UNL     1      -1.864 -27.640  15.937  1.00  0.00    -0.028 C 
ATOM      8  C   UNL     1      -1.912 -28.435  14.843  1.00  0.00    -0.070 CG0
ATOM      9  C   UNL     1      -3.262 -28.709  14.229  1.00  0.00     0.039 C 
ATOM     10  G   UNL     1      -0.677 -29.041  14.203  1.00  0.00     0.000 G0
ENDBRANCH   6   7
ENDBRANCH   5   6
ENDBRANCH   3   5
ENDBRANCH   1   3
BRANCH   1  11
ATOM     11  C   UNL     1       0.217 -26.176  12.421  1.00  0.00     0.087 C 
BRANCH  11  12
ATOM     12  C   UNL     1       0.705 -27.654  12.424  1.00  0.00     0.066 C 
BRANCH  12  13
ATOM     13  C   UNL     1      -0.448 -28.578  12.782  1.00  0.00     0.140 C 
ATOM     14  O   UNL     1      -1.202 -28.971  11.904  1.00  0.00    -0.299 OA
BRANCH  13  15
ATOM     15  C   UNL     1      -0.672 -29.052  14.193  1.00  0.00     0.106 CG0
ATOM     16  G   UNL     1      -1.900 -28.427  14.828  1.00  0.00     0.000 G0
ENDBRANCH  13  15
ENDBRANCH  12  13
BRANCH  12  17
ATOM     17  C   UNL     1       1.414 -28.113  11.106  1.00  0.00    -0.006 C 
ATOM     18  C   UNL     1       1.879 -26.928  10.241  1.00  0.00     0.008 C 
ATOM     19  C   UNL     1       2.631 -29.004  11.423  1.00  0.00     0.008 C 
ENDBRANCH  12  17
ENDBRANCH  11  12
ENDBRANCH   1  11
TORSDOF 1
ENDMDL
MODEL 4
REMARK VINA RESULT:    -3.528     18.139     20.025
REMARK INTER + INTRA:          -5.578
REMARK INTER:                  -5.588
REMARK INTRA:                   0.010
REMARK UNBOUND:                -0.194
REMARK SMILES CC1=CCC[C@@H](C)C(=O)C[C@H](C(C)C)C(=O)C1
REMARK SMILES IDX 8 1 9 2 6 3 7 4 5 5 4 6 3 7 2 8 1 9 10 11 11 12 15 13 16 14
REMARK SMILES IDX 17 15 12 17 13 18 14 19
REMARK H PARENT
REMARK Flexibility Score: 70.00
ROOT
ATOM      1  C   UNL     1      11.151 -12.235  18.086  1.00  0.00     0.136 C 
ATOM      2  O   UNL     1      10.051 -12.282  18.617  1.00  0.00    -0.299 OA
ENDROOT
BRANCH   1   3
ATOM      3  C   UNL     1      11.956 -10.946  18.243  1.00  0.00     0.053 C 
ATOM      4  C   UNL     1      11.626 -10.322  19.606  1.00  0.00     0.016 C 
BRANCH   3   5
ATOM      5  C   UNL     1      11.788  -9.877  17.130  1.00  0.00     0.015 C 
BRANCH   5   6
ATOM      6  C   UNL     1      12.808  -9.997  15.971  1.00  0.00     0.028 C 
BRANCH   6   7
ATOM      7  C   UNL     1      12.110 -10.172  14.641  1.00  0.00    -0.028 C 
ATOM      8  C   UNL     1      11.855 -11.354  14.033  1.00  0.00    -0.070 CG0
ATOM      9  C   UNL     1      11.091 -11.327  12.733  1.00  0.00     0.039 C 
ATOM     10  G   UNL     1      12.314 -12.689  14.588  1.00  0.00     0.000 G0
ENDBRANCH   6   7
ENDBRANCH   5   6
ENDBRANCH   3   5
ENDBRANCH   1   3
BRANCH   1  11
ATOM     11  C   UNL     1      11.600 -13.439  17.281  1.00  0.00     0.087 C 
BRANCH  11  12
ATOM     12  C   UNL     1      10.583 -13.885  16.190  1.00  0.00     0.066 C 
BRANCH  12  13
ATOM     13  C   UNL     1      11.182 -13.674  14.808  1.00  0.00     0.140 C 
ATOM     14  O   UNL     1      10.718 -14.275  13.850  1.00  0.00    -0.299 OA
BRANCH  13  15
ATOM     15  C   UNL     1      12.319 -12.714  14.578  1.00  0.00     0.106 CG0
ATOM     16  G   UNL     1      11.849 -11.376  14.038  1.00  0.00     0.000 G0
ENDBRANCH  13  15
ENDBRANCH  12  13
BRANCH  12  17
ATOM     17  C   UNL     1      10.040 -15.342  16.358  1.00  0.00    -0.006 C 
ATOM     18  C   UNL     1      11.166 -16.385  16.466  1.00  0.00     0.008 C 
ATOM     19  C   UNL     1       9.142 -15.450  17.606  1.00  0.00     0.008 C 
ENDBRANCH  12  17
ENDBRANCH  11  12
ENDBRANCH   1  11
TORSDOF 1
ENDMDL
MODEL 5
REMARK VINA RESULT:    -3.497     17.689     19.503
REMARK INTER + INTRA:          -5.531
REMARK INTER:                  -5.481
REMARK INTRA:                  -0.050
REMARK UNBOUND:                -0.194
REMARK SMILES CC1=CCC[C@@H](C)C(=O)C[C@H](C(C)C)C(=O)C1
REMARK SMILES IDX 8 1 9 2 6 3 7 4 5 5 4 6 3 7 2 8 1 9 10 11 11 12 15 13 16 14
REMARK SMILES IDX 17 15 12 17 13 18 14 19
REMARK H PARENT
REMARK Flexibility Score: 70.00
ROOT
ATOM      1  C   UNL     1      10.463 -14.128  14.162  1.00  0.00     0.136 C 
ATOM      2  O   UNL     1      10.472 -15.324  13.909  1.00  0.00    -0.299 OA
ENDROOT
BRANCH   1   3
ATOM      3  C   UNL     1      11.037 -13.179  13.113  1.00  0.00     0.053 C 
ATOM      4  C   UNL     1      10.607 -13.665  11.721  1.00  0.00     0.016 C 
BRANCH   3   5
ATOM      5  C   UNL     1      12.575 -12.962  13.132  1.00  0.00     0.015 C 
BRANCH   5   6
ATOM      6  C   UNL     1      13.122 -12.399  14.467  1.00  0.00     0.028 C 
BRANCH   6   7
ATOM      7  C   UNL     1      12.465 -11.083  14.818  1.00  0.00    -0.028 C 
ATOM      8  C   UNL     1      12.095 -10.691  16.060  1.00  0.00    -0.070 CG0
ATOM      9  C   UNL     1      11.508  -9.312  16.219  1.00  0.00     0.039 C 
ATOM     10  G   UNL     1      12.230 -11.578  17.284  1.00  0.00     0.000 G0
ENDBRANCH   6   7
ENDBRANCH   5   6
ENDBRANCH   3   5
ENDBRANCH   1   3
BRANCH   1  11
ATOM     11  C   UNL     1       9.926 -13.695  15.513  1.00  0.00     0.087 C 
BRANCH  11  12
ATOM     12  C   UNL     1      10.951 -13.837  16.675  1.00  0.00     0.066 C 
BRANCH  12  13
ATOM     13  C   UNL     1      11.036 -12.531  17.450  1.00  0.00     0.140 C 
ATOM     14  O   UNL     1      10.144 -12.232  18.231  1.00  0.00    -0.299 OA
BRANCH  13  15
ATOM     15  C   UNL     1      12.213 -11.602  17.306  1.00  0.00     0.106 CG0
ATOM     16  G   UNL     1      12.100 -10.708  16.085  1.00  0.00     0.000 G0
ENDBRANCH  13  15
ENDBRANCH  12  13
BRANCH  12  17
ATOM     17  C   UNL     1      10.696 -15.049  17.631  1.00  0.00    -0.006 C 
ATOM     18  C   UNL     1       9.203 -15.404  17.752  1.00  0.00     0.008 C 
ATOM     19  C   UNL     1      11.464 -16.295  17.149  1.00  0.00     0.008 C 
ENDBRANCH  12  17
ENDBRANCH  11  12
ENDBRANCH   1  11
TORSDOF 1
ENDMDL
MODEL 6
REMARK VINA RESULT:    -3.412     16.886     18.524
REMARK INTER + INTRA:          -5.401
REMARK INTER:                  -5.651
REMARK INTRA:                   0.250
REMARK UNBOUND:                -0.194
REMARK SMILES CC1=CCC[C@@H](C)C(=O)C[C@H](C(C)C)C(=O)C1
REMARK SMILES IDX 8 1 9 2 6 3 7 4 5 5 4 6 3 7 2 8 1 9 10 11 11 12 15 13 16 14
REMARK SMILES IDX 17 15 12 17 13 18 14 19
REMARK H PARENT
REMARK Flexibility Score: 70.00
ROOT
ATOM      1  C   UNL     1      10.227 -14.228  17.426  1.00  0.00     0.136 C 
ATOM      2  O   UNL     1       9.979 -14.958  18.374  1.00  0.00    -0.299 OA
ENDROOT
BRANCH   1   3
ATOM      3  C   UNL     1      10.985 -12.933  17.711  1.00  0.00     0.053 C 
ATOM      4  C   UNL     1       9.969 -11.832  18.048  1.00  0.00     0.016 C 
BRANCH   3   5
ATOM      5  C   UNL     1      11.948 -12.427  16.603  1.00  0.00     0.015 C 
BRANCH   5   6
ATOM      6  C   UNL     1      11.236 -11.848  15.356  1.00  0.00     0.028 C 
BRANCH   6   7
ATOM      7  C   UNL     1      11.988 -12.185  14.088  1.00  0.00    -0.028 C 
ATOM      8  C   UNL     1      11.631 -13.128  13.185  1.00  0.00    -0.070 CG0
ATOM      9  C   UNL     1      12.480 -13.276  11.947  1.00  0.00     0.039 C 
ATOM     10  G   UNL     1      10.437 -14.045  13.370  1.00  0.00     0.000 G0
ENDBRANCH   6   7
ENDBRANCH   5   6
ENDBRANCH   3   5
ENDBRANCH   1   3
BRANCH   1  11
ATOM     11  C   UNL     1       9.721 -14.646  16.059  1.00  0.00     0.087 C 
BRANCH  11  12
ATOM     12  C   UNL     1      10.575 -15.756  15.381  1.00  0.00     0.066 C 
BRANCH  12  13
ATOM     13  C   UNL     1      10.791 -15.417  13.914  1.00  0.00     0.140 C 
ATOM     14  O   UNL     1      11.246 -16.264  13.159  1.00  0.00    -0.299 OA
BRANCH  13  15
ATOM     15  C   UNL     1      10.429 -14.068  13.353  1.00  0.00     0.106 CG0
ATOM     16  G   UNL     1      11.635 -13.159  13.203  1.00  0.00     0.000 G0
ENDBRANCH  13  15
ENDBRANCH  12  13
BRANCH  12  17
ATOM     17  C   UNL     1      11.930 -16.070  16.097  1.00  0.00    -0.006 C 
ATOM     18  C   UNL     1      12.179 -17.581  16.257  1.00  0.00     0.008 C 
ATOM     19  C   UNL     1      13.111 -15.452  15.325  1.00  0.00     0.008 C 
ENDBRANCH  12  17
ENDBRANCH  11  12
ENDBRANCH   1  11
TORSDOF 1
ENDMDL
MODEL 7
REMARK VINA RESULT:    -3.334      2.113      4.211
REMARK INTER + INTRA:          -5.281
REMARK INTER:                  -5.739
REMARK INTRA:                   0.457
REMARK UNBOUND:                -0.194
REMARK SMILES CC1=CCC[C@@H](C)C(=O)C[C@H](C(C)C)C(=O)C1
REMARK SMILES IDX 8 1 9 2 6 3 7 4 5 5 4 6 3 7 2 8 1 9 10 11 11 12 15 13 16 14
REMARK SMILES IDX 17 15 12 17 13 18 14 19
REMARK H PARENT
REMARK Flexibility Score: 70.00
ROOT
ATOM      1  C   UNL     1       0.559 -26.452  12.749  1.00  0.00     0.136 C 
ATOM      2  O   UNL     1       1.113 -26.335  11.666  1.00  0.00    -0.299 OA
ENDROOT
BRANCH   1   3
ATOM      3  C   UNL     1      -0.148 -27.774  13.041  1.00  0.00     0.053 C 
ATOM      4  C   UNL     1       0.728 -28.925  12.527  1.00  0.00     0.016 C 
BRANCH   3   5
ATOM      5  C   UNL     1      -1.590 -27.934  12.486  1.00  0.00     0.015 C 
BRANCH   5   6
ATOM      6  C   UNL     1      -2.693 -27.946  13.573  1.00  0.00     0.028 C 
BRANCH   6   7
ATOM      7  C   UNL     1      -2.211 -28.620  14.838  1.00  0.00    -0.028 C 
ATOM      8  C   UNL     1      -1.959 -28.002  16.015  1.00  0.00    -0.070 CG0
ATOM      9  C   UNL     1      -1.542 -28.857  17.186  1.00  0.00     0.039 C 
ATOM     10  G   UNL     1      -2.059 -26.499  16.202  1.00  0.00     0.000 G0
ENDBRANCH   6   7
ENDBRANCH   5   6
ENDBRANCH   3   5
ENDBRANCH   1   3
BRANCH   1  11
ATOM     11  C   UNL     1       0.581 -25.261  13.688  1.00  0.00     0.087 C 
BRANCH  11  12
ATOM     12  C   UNL     1      -0.772 -25.001  14.411  1.00  0.00     0.066 C 
BRANCH  12  13
ATOM     13  C   UNL     1      -0.810 -25.765  15.725  1.00  0.00     0.140 C 
ATOM     14  O   UNL     1       0.179 -25.782  16.443  1.00  0.00    -0.299 OA
BRANCH  13  15
ATOM     15  C   UNL     1      -2.051 -26.482  16.187  1.00  0.00     0.106 CG0
ATOM     16  G   UNL     1      -1.950 -27.987  16.014  1.00  0.00     0.000 G0
ENDBRANCH  13  15
ENDBRANCH  12  13
BRANCH  12  17
ATOM     17  C   UNL     1      -1.124 -23.491  14.621  1.00  0.00    -0.006 C 
ATOM     18  C   UNL     1      -2.443 -23.090  13.937  1.00  0.00     0.008 C 
ATOM     19  C   UNL     1      -1.222 -23.158  16.122  1.00  0.00     0.008 C 
ENDBRANCH  12  17
ENDBRANCH  11  12
ENDBRANCH   1  11
TORSDOF 1
ENDMDL
MODEL 8
REMARK VINA RESULT:    -3.128      2.113      5.054
REMARK INTER + INTRA:          -4.968
REMARK INTER:                  -5.154
REMARK INTRA:                   0.186
REMARK UNBOUND:                -0.194
REMARK SMILES CC1=CCC[C@@H](C)C(=O)C[C@H](C(C)C)C(=O)C1
REMARK SMILES IDX 8 1 9 2 6 3 7 4 5 5 4 6 3 7 2 8 1 9 10 11 11 12 15 13 16 14
REMARK SMILES IDX 17 15 12 17 13 18 14 19
REMARK H PARENT
REMARK Flexibility Score: 70.00
ROOT
ATOM      1  C   UNL     1       0.789 -25.597  13.039  1.00  0.00     0.136 C 
ATOM      2  O   UNL     1       1.324 -24.535  12.756  1.00  0.00    -0.299 OA
ENDROOT
BRANCH   1   3
ATOM      3  C   UNL     1       1.117 -26.808  12.167  1.00  0.00     0.053 C 
ATOM      4  C   UNL     1       1.822 -26.320  10.893  1.00  0.00     0.016 C 
BRANCH   3   5
ATOM      5  C   UNL     1      -0.068 -27.733  11.780  1.00  0.00     0.015 C 
BRANCH   5   6
ATOM      6  C   UNL     1      -0.415 -28.802  12.845  1.00  0.00     0.028 C 
BRANCH   6   7
ATOM      7  C   UNL     1      -1.894 -29.121  12.842  1.00  0.00    -0.028 C 
ATOM      8  C   UNL     1      -2.849 -28.440  13.517  1.00  0.00    -0.070 CG0
ATOM      9  C   UNL     1      -4.283 -28.874  13.340  1.00  0.00     0.039 C 
ATOM     10  G   UNL     1      -2.542 -27.283  14.449  1.00  0.00     0.000 G0
ENDBRANCH   6   7
ENDBRANCH   5   6
ENDBRANCH   3   5
ENDBRANCH   1   3
BRANCH   1  11
ATOM     11  C   UNL     1      -0.187 -25.611  14.200  1.00  0.00     0.087 C 
BRANCH  11  12
ATOM     12  C   UNL     1      -1.539 -24.903  13.896  1.00  0.00     0.066 C 
BRANCH  12  13
ATOM     13  C   UNL     1      -2.650 -25.937  13.791  1.00  0.00     0.140 C 
ATOM     14  O   UNL     1      -3.645 -25.689  13.125  1.00  0.00    -0.299 OA
BRANCH  13  15
ATOM     15  C   UNL     1      -2.546 -27.280  14.463  1.00  0.00     0.106 CG0
ATOM     16  G   UNL     1      -2.846 -28.427  13.516  1.00  0.00     0.000 G0
ENDBRANCH  13  15
ENDBRANCH  12  13
BRANCH  12  17
ATOM     17  C   UNL     1      -1.920 -23.760  14.894  1.00  0.00    -0.006 C 
ATOM     18  C   UNL     1      -0.935 -23.650  16.072  1.00  0.00     0.008 C 
ATOM     19  C   UNL     1      -1.979 -22.401  14.169  1.00  0.00     0.008 C 
ENDBRANCH  12  17
ENDBRANCH  11  12
ENDBRANCH   1  11
TORSDOF 1
ENDMDL
MODEL 9
REMARK VINA RESULT:    -3.051      2.405      3.911
REMARK INTER + INTRA:          -4.850
REMARK INTER:                  -5.060
REMARK INTRA:                   0.211
REMARK UNBOUND:                -0.194
REMARK SMILES CC1=CCC[C@@H](C)C(=O)C[C@H](C(C)C)C(=O)C1
REMARK SMILES IDX 8 1 9 2 6 3 7 4 5 5 4 6 3 7 2 8 1 9 10 11 11 12 15 13 16 14
REMARK SMILES IDX 17 15 12 17 13 18 14 19
REMARK H PARENT
REMARK Flexibility Score: 70.00
ROOT
ATOM      1  C   UNL     1      -1.497 -27.126  13.483  1.00  0.00     0.136 C 
ATOM      2  O   UNL     1      -0.769 -27.677  12.670  1.00  0.00    -0.299 OA
ENDROOT
BRANCH   1   3
ATOM      3  C   UNL     1      -2.314 -28.017  14.416  1.00  0.00     0.053 C 
ATOM      4  C   UNL     1      -3.602 -28.437  13.693  1.00  0.00     0.016 C 
BRANCH   3   5
ATOM      5  C   UNL     1      -2.670 -27.430  15.809  1.00  0.00     0.015 C 
BRANCH   5   6
ATOM      6  C   UNL     1      -1.751 -27.912  16.958  1.00  0.00     0.028 C 
BRANCH   6   7
ATOM      7  C   UNL     1      -0.416 -28.389  16.430  1.00  0.00    -0.028 C 
ATOM      8  C   UNL     1       0.671 -27.612  16.216  1.00  0.00    -0.070 CG0
ATOM      9  C   UNL     1       1.935 -28.284  15.742  1.00  0.00     0.039 C 
ATOM     10  G   UNL     1       0.669 -26.108  16.414  1.00  0.00     0.000 G0
ENDBRANCH   6   7
ENDBRANCH   5   6
ENDBRANCH   3   5
ENDBRANCH   1   3
BRANCH   1  11
ATOM     11  C   UNL     1      -1.561 -25.611  13.462  1.00  0.00     0.087 C 
BRANCH  11  12
ATOM     12  C   UNL     1      -1.076 -24.940  14.779  1.00  0.00     0.066 C 
BRANCH  12  13
ATOM     13  C   UNL     1       0.341 -25.392  15.097  1.00  0.00     0.140 C 
ATOM     14  O   UNL     1       1.244 -25.151  14.308  1.00  0.00    -0.299 OA
BRANCH  13  15
ATOM     15  C   UNL     1       0.673 -26.107  16.380  1.00  0.00     0.106 CG0
ATOM     16  G   UNL     1       0.677 -27.616  16.219  1.00  0.00     0.000 G0
ENDBRANCH  13  15
ENDBRANCH  12  13
BRANCH  12  17
ATOM     17  C   UNL     1      -1.192 -23.380  14.802  1.00  0.00    -0.006 C 
ATOM     18  C   UNL     1      -2.315 -22.857  13.887  1.00  0.00     0.008 C 
ATOM     19  C   UNL     1      -1.444 -22.872  16.235  1.00  0.00     0.008 C 
ENDBRANCH  12  17
ENDBRANCH  11  12
ENDBRANCH   1  11
TORSDOF 1
ENDMDL
