MODEL 1
REMARK VINA RESULT:    -4.581      0.000      0.000
REMARK INTER + INTRA:         -15.119
REMARK INTER:                 -10.472
REMARK INTRA:                  -4.647
REMARK UNBOUND:                -4.647
REMARK SMILES CCCCCCCCCCCCCCCCCCCCCCCC(=O)[O-]
REMARK SMILES IDX 13 1 14 2 15 3 16 4 17 5 18 6 19 7 20 8 21 9 22 10 23 11
REMARK SMILES IDX 24 12 25 13 26 14 12 15 11 16 10 17 9 18 8 19 7 20 6 21 5 22
REMARK SMILES IDX 4 23 3 24 2 25 1 26
REMARK H PARENT
REMARK Flexibility Score: inf
ROOT
ATOM      1  C   UNL     1      17.170  -6.759 -19.011  1.00  0.00     0.000 C 
ENDROOT
BRANCH   1   2
ATOM      2  C   UNL     1      16.219  -6.339 -17.876  1.00  0.00     0.000 C 
BRANCH   2   3
ATOM      3  C   UNL     1      16.888  -6.128 -16.505  1.00  0.00     0.000 C 
BRANCH   3   4
ATOM      4  C   UNL     1      16.746  -4.688 -15.984  1.00  0.00     0.000 C 
BRANCH   4   5
ATOM      5  C   UNL     1      15.940  -3.785 -16.934  1.00  0.00     0.000 C 
BRANCH   5   6
ATOM      6  C   UNL     1      16.739  -2.645 -17.597  1.00  0.00     0.000 C 
BRANCH   6   7
ATOM      7  C   UNL     1      16.682  -2.617 -19.137  1.00  0.00     0.000 C 
BRANCH   7   8
ATOM      8  C   UNL     1      15.453  -3.316 -19.755  1.00  0.00     0.000 C 
BRANCH   8   9
ATOM      9  C   UNL     1      15.524  -3.537 -21.278  1.00  0.00     0.000 C 
BRANCH   9  10
ATOM     10  C   UNL     1      16.871  -4.071 -21.804  1.00  0.00     0.006 C 
BRANCH  10  11
ATOM     11  C   UNL     1      16.752  -4.911 -23.090  1.00  0.00     0.053 C 
BRANCH  11  12
ATOM     12  C   UNL     1      16.610  -6.376 -22.812  1.00  0.00     0.041 C 
ATOM     13  O   UNL     1      17.614  -7.060 -22.477  1.00  0.00    -0.550 OA
ATOM     14  O   UNL     1      15.361  -6.981 -22.884  1.00  0.00    -0.550 OA
ENDBRANCH  11  12
ENDBRANCH  10  11
ENDBRANCH   9  10
ENDBRANCH   8   9
ENDBRANCH   7   8
ENDBRANCH   6   7
ENDBRANCH   5   6
ENDBRANCH   4   5
ENDBRANCH   3   4
ENDBRANCH   2   3
ENDBRANCH   1   2
BRANCH   1  15
ATOM     15  C   UNL     1      18.493  -5.979 -19.005  1.00  0.00     0.000 C 
BRANCH  15  16
ATOM     16  C   UNL     1      19.651  -6.865 -18.522  1.00  0.00     0.000 C 
BRANCH  16  17
ATOM     17  C   UNL     1      20.433  -6.247 -17.348  1.00  0.00     0.000 C 
BRANCH  17  18
ATOM     18  C   UNL     1      21.510  -5.221 -17.749  1.00  0.00    -0.000 C 
BRANCH  18  19
ATOM     19  C   UNL     1      21.245  -3.779 -17.275  1.00  0.00    -0.000 C 
BRANCH  19  20
ATOM     20  C   UNL     1      20.282  -2.988 -18.190  1.00  0.00    -0.000 C 
BRANCH  20  21
ATOM     21  C   UNL     1      20.878  -2.573 -19.551  1.00  0.00    -0.000 C 
BRANCH  21  22
ATOM     22  C   UNL     1      20.075  -3.024 -20.787  1.00  0.00    -0.000 C 
BRANCH  22  23
ATOM     23  C   UNL     1      20.956  -3.615 -21.897  1.00  0.00    -0.000 C 
BRANCH  23  24
ATOM     24  C   UNL     1      20.564  -5.071 -22.190  1.00  0.00    -0.000 C 
BRANCH  24  25
ATOM     25  C   UNL     1      21.423  -6.082 -21.415  1.00  0.00    -0.003 C 
ATOM     26  C   UNL     1      21.199  -7.523 -21.873  1.00  0.00     0.004 C 
ENDBRANCH  24  25
ENDBRANCH  23  24
ENDBRANCH  22  23
ENDBRANCH  21  22
ENDBRANCH  20  21
ENDBRANCH  19  20
ENDBRANCH  18  19
ENDBRANCH  17  18
ENDBRANCH  16  17
ENDBRANCH  15  16
ENDBRANCH   1  15
TORSDOF 22
ENDMDL
MODEL 2
REMARK VINA RESULT:    -4.567      7.486     11.104
REMARK INTER + INTRA:         -15.088
REMARK INTER:                 -10.483
REMARK INTRA:                  -4.605
REMARK UNBOUND:                -4.647
REMARK SMILES CCCCCCCCCCCCCCCCCCCCCCCC(=O)[O-]
REMARK SMILES IDX 13 1 14 2 15 3 16 4 17 5 18 6 19 7 20 8 21 9 22 10 23 11
REMARK SMILES IDX 24 12 25 13 26 14 12 15 11 16 10 17 9 18 8 19 7 20 6 21 5 22
REMARK SMILES IDX 4 23 3 24 2 25 1 26
REMARK H PARENT
REMARK Flexibility Score: inf
ROOT
ATOM      1  C   UNL     1       8.102  -5.341 -21.667  1.00  0.00     0.000 C 
ENDROOT
BRANCH   1   2
ATOM      2  C   UNL     1       6.851  -6.228 -21.802  1.00  0.00     0.000 C 
BRANCH   2   3
ATOM      3  C   UNL     1       7.094  -7.737 -21.605  1.00  0.00     0.000 C 
BRANCH   3   4
ATOM      4  C   UNL     1       8.263  -8.036 -20.652  1.00  0.00     0.000 C 
BRANCH   4   5
ATOM      5  C   UNL     1       8.910  -9.408 -20.911  1.00  0.00     0.000 C 
BRANCH   5   6
ATOM      6  C   UNL     1      10.326  -9.590 -20.328  1.00  0.00     0.000 C 
BRANCH   6   7
ATOM      7  C   UNL     1      11.449  -8.873 -21.103  1.00  0.00     0.000 C 
BRANCH   7   8
ATOM      8  C   UNL     1      12.027  -7.625 -20.405  1.00  0.00     0.000 C 
BRANCH   8   9
ATOM      9  C   UNL     1      11.576  -6.277 -20.998  1.00  0.00     0.000 C 
BRANCH   9  10
ATOM     10  C   UNL     1      11.416  -5.130 -19.980  1.00  0.00     0.006 C 
BRANCH  10  11
ATOM     11  C   UNL     1      12.717  -4.354 -19.702  1.00  0.00     0.053 C 
BRANCH  11  12
ATOM     12  C   UNL     1      13.401  -3.903 -20.956  1.00  0.00     0.041 C 
ATOM     13  O   UNL     1      14.551  -4.332 -21.242  1.00  0.00    -0.550 OA
ATOM     14  O   UNL     1      12.753  -3.041 -21.832  1.00  0.00    -0.550 OA
ENDBRANCH  11  12
ENDBRANCH  10  11
ENDBRANCH   9  10
ENDBRANCH   8   9
ENDBRANCH   7   8
ENDBRANCH   6   7
ENDBRANCH   5   6
ENDBRANCH   4   5
ENDBRANCH   3   4
ENDBRANCH   2   3
ENDBRANCH   1   2
BRANCH   1  15
ATOM     15  C   UNL     1       8.128  -4.183 -22.675  1.00  0.00     0.000 C 
BRANCH  15  16
ATOM     16  C   UNL     1       9.566  -3.873 -23.118  1.00  0.00     0.000 C 
BRANCH  16  17
ATOM     17  C   UNL     1       9.712  -3.751 -24.646  1.00  0.00     0.000 C 
BRANCH  17  18
ATOM     18  C   UNL     1      10.007  -5.072 -25.381  1.00  0.00    -0.000 C 
BRANCH  18  19
ATOM     19  C   UNL     1      10.665  -6.167 -24.518  1.00  0.00    -0.000 C 
BRANCH  19  20
ATOM     20  C   UNL     1       9.766  -7.403 -24.285  1.00  0.00    -0.000 C 
BRANCH  20  21
ATOM     21  C   UNL     1       8.889  -7.800 -25.490  1.00  0.00    -0.000 C 
BRANCH  21  22
ATOM     22  C   UNL     1       7.370  -7.810 -25.224  1.00  0.00    -0.000 C 
BRANCH  22  23
ATOM     23  C   UNL     1       6.600  -6.796 -26.082  1.00  0.00    -0.000 C 
BRANCH  23  24
ATOM     24  C   UNL     1       6.285  -5.525 -25.278  1.00  0.00    -0.000 C 
BRANCH  24  25
ATOM     25  C   UNL     1       6.349  -4.252 -26.136  1.00  0.00    -0.003 C 
ATOM     26  C   UNL     1       5.762  -3.031 -25.428  1.00  0.00     0.004 C 
ENDBRANCH  24  25
ENDBRANCH  23  24
ENDBRANCH  22  23
ENDBRANCH  21  22
ENDBRANCH  20  21
ENDBRANCH  19  20
ENDBRANCH  18  19
ENDBRANCH  17  18
ENDBRANCH  16  17
ENDBRANCH  15  16
ENDBRANCH   1  15
TORSDOF 22
ENDMDL
MODEL 3
REMARK VINA RESULT:    -4.372      3.206      5.146
REMARK INTER + INTRA:         -14.642
REMARK INTER:                 -10.977
REMARK INTRA:                  -3.665
REMARK UNBOUND:                -4.647
REMARK SMILES CCCCCCCCCCCCCCCCCCCCCCCC(=O)[O-]
REMARK SMILES IDX 13 1 14 2 15 3 16 4 17 5 18 6 19 7 20 8 21 9 22 10 23 11
REMARK SMILES IDX 24 12 25 13 26 14 12 15 11 16 10 17 9 18 8 19 7 20 6 21 5 22
REMARK SMILES IDX 4 23 3 24 2 25 1 26
REMARK H PARENT
REMARK Flexibility Score: inf
ROOT
ATOM      1  C   UNL     1      18.250  -6.119 -20.597  1.00  0.00     0.000 C 
ENDROOT
BRANCH   1   2
ATOM      2  C   UNL     1      17.633  -6.100 -22.007  1.00  0.00     0.000 C 
BRANCH   2   3
ATOM      3  C   UNL     1      17.770  -4.766 -22.765  1.00  0.00     0.000 C 
BRANCH   3   4
ATOM      4  C   UNL     1      16.415  -4.169 -23.178  1.00  0.00     0.000 C 
BRANCH   4   5
ATOM      5  C   UNL     1      15.542  -3.776 -21.974  1.00  0.00     0.000 C 
BRANCH   5   6
ATOM      6  C   UNL     1      14.101  -4.325 -21.997  1.00  0.00     0.000 C 
BRANCH   6   7
ATOM      7  C   UNL     1      13.957  -5.760 -22.541  1.00  0.00     0.000 C 
BRANCH   7   8
ATOM      8  C   UNL     1      13.031  -5.901 -23.766  1.00  0.00     0.000 C 
BRANCH   8   9
ATOM      9  C   UNL     1      13.053  -4.711 -24.743  1.00  0.00     0.000 C 
BRANCH   9  10
ATOM     10  C   UNL     1      11.676  -4.100 -25.070  1.00  0.00     0.006 C 
BRANCH  10  11
ATOM     11  C   UNL     1      10.993  -3.419 -23.870  1.00  0.00     0.053 C 
BRANCH  11  12
ATOM     12  C   UNL     1       9.503  -3.583 -23.884  1.00  0.00     0.041 C 
ATOM     13  O   UNL     1       8.900  -3.991 -22.856  1.00  0.00    -0.550 OA
ATOM     14  O   UNL     1       8.775  -3.248 -25.019  1.00  0.00    -0.550 OA
ENDBRANCH  11  12
ENDBRANCH  10  11
ENDBRANCH   9  10
ENDBRANCH   8   9
ENDBRANCH   7   8
ENDBRANCH   6   7
ENDBRANCH   5   6
ENDBRANCH   4   5
ENDBRANCH   3   4
ENDBRANCH   2   3
ENDBRANCH   1   2
BRANCH   1  15
ATOM     15  C   UNL     1      17.201  -6.009 -19.480  1.00  0.00     0.000 C 
BRANCH  15  16
ATOM     16  C   UNL     1      17.816  -6.348 -18.114  1.00  0.00     0.000 C 
BRANCH  16  17
ATOM     17  C   UNL     1      16.816  -6.205 -16.952  1.00  0.00     0.000 C 
BRANCH  17  18
ATOM     18  C   UNL     1      16.933  -4.897 -16.147  1.00  0.00    -0.000 C 
BRANCH  18  19
ATOM     19  C   UNL     1      15.994  -3.764 -16.603  1.00  0.00    -0.000 C 
BRANCH  19  20
ATOM     20  C   UNL     1      16.730  -2.551 -17.219  1.00  0.00    -0.000 C 
BRANCH  20  21
ATOM     21  C   UNL     1      16.779  -2.540 -18.760  1.00  0.00    -0.000 C 
BRANCH  21  22
ATOM     22  C   UNL     1      18.178  -2.340 -19.374  1.00  0.00    -0.000 C 
BRANCH  22  23
ATOM     23  C   UNL     1      19.299  -2.982 -18.545  1.00  0.00    -0.000 C 
BRANCH  23  24
ATOM     24  C   UNL     1      20.606  -3.050 -19.351  1.00  0.00    -0.000 C 
BRANCH  24  25
ATOM     25  C   UNL     1      20.381  -2.865 -20.859  1.00  0.00    -0.003 C 
ATOM     26  C   UNL     1      21.129  -3.899 -21.700  1.00  0.00     0.004 C 
ENDBRANCH  24  25
ENDBRANCH  23  24
ENDBRANCH  22  23
ENDBRANCH  21  22
ENDBRANCH  20  21
ENDBRANCH  19  20
ENDBRANCH  18  19
ENDBRANCH  17  18
ENDBRANCH  16  17
ENDBRANCH  15  16
ENDBRANCH   1  15
TORSDOF 22
ENDMDL
MODEL 4
REMARK VINA RESULT:    -4.338      3.696      5.667
REMARK INTER + INTRA:         -14.565
REMARK INTER:                 -10.986
REMARK INTRA:                  -3.579
REMARK UNBOUND:                -4.647
REMARK SMILES CCCCCCCCCCCCCCCCCCCCCCCC(=O)[O-]
REMARK SMILES IDX 13 1 14 2 15 3 16 4 17 5 18 6 19 7 20 8 21 9 22 10 23 11
REMARK SMILES IDX 24 12 25 13 26 14 12 15 11 16 10 17 9 18 8 19 7 20 6 21 5 22
REMARK SMILES IDX 4 23 3 24 2 25 1 26
REMARK H PARENT
REMARK Flexibility Score: inf
ROOT
ATOM      1  C   UNL     1      19.524  -4.637 -21.922  1.00  0.00     0.000 C 
ENDROOT
BRANCH   1   2
ATOM      2  C   UNL     1      18.191  -4.112 -21.356  1.00  0.00     0.000 C 
BRANCH   2   3
ATOM      3  C   UNL     1      16.985  -5.052 -21.542  1.00  0.00     0.000 C 
BRANCH   3   4
ATOM      4  C   UNL     1      15.649  -4.396 -21.156  1.00  0.00     0.000 C 
BRANCH   4   5
ATOM      5  C   UNL     1      14.868  -5.204 -20.105  1.00  0.00     0.000 C 
BRANCH   5   6
ATOM      6  C   UNL     1      14.107  -4.364 -19.059  1.00  0.00     0.000 C 
BRANCH   6   7
ATOM      7  C   UNL     1      12.571  -4.431 -19.158  1.00  0.00     0.000 C 
BRANCH   7   8
ATOM      8  C   UNL     1      12.023  -4.749 -20.565  1.00  0.00     0.000 C 
BRANCH   8   9
ATOM      9  C   UNL     1      10.785  -5.665 -20.592  1.00  0.00     0.000 C 
BRANCH   9  10
ATOM     10  C   UNL     1      10.036  -5.721 -21.938  1.00  0.00     0.006 C 
BRANCH  10  11
ATOM     11  C   UNL     1       9.353  -4.397 -22.330  1.00  0.00     0.053 C 
BRANCH  11  12
ATOM     12  C   UNL     1       7.889  -4.561 -22.601  1.00  0.00     0.041 C 
ATOM     13  O   UNL     1       7.169  -5.238 -21.819  1.00  0.00    -0.550 OA
ATOM     14  O   UNL     1       7.308  -3.933 -23.696  1.00  0.00    -0.550 OA
ENDBRANCH  11  12
ENDBRANCH  10  11
ENDBRANCH   9  10
ENDBRANCH   8   9
ENDBRANCH   7   8
ENDBRANCH   6   7
ENDBRANCH   5   6
ENDBRANCH   4   5
ENDBRANCH   3   4
ENDBRANCH   2   3
ENDBRANCH   1   2
BRANCH   1  15
ATOM     15  C   UNL     1      20.725  -3.759 -21.542  1.00  0.00     0.000 C 
BRANCH  15  16
ATOM     16  C   UNL     1      20.395  -2.870 -20.334  1.00  0.00     0.000 C 
BRANCH  16  17
ATOM     17  C   UNL     1      21.242  -3.203 -19.092  1.00  0.00     0.000 C 
BRANCH  17  18
ATOM     18  C   UNL     1      21.447  -4.706 -18.826  1.00  0.00    -0.000 C 
BRANCH  18  19
ATOM     19  C   UNL     1      21.199  -5.151 -17.371  1.00  0.00    -0.000 C 
BRANCH  19  20
ATOM     20  C   UNL     1      20.324  -6.419 -17.246  1.00  0.00    -0.000 C 
BRANCH  20  21
ATOM     21  C   UNL     1      19.403  -6.690 -18.453  1.00  0.00    -0.000 C 
BRANCH  21  22
ATOM     22  C   UNL     1      17.919  -6.332 -18.244  1.00  0.00    -0.000 C 
BRANCH  22  23
ATOM     23  C   UNL     1      17.609  -5.850 -16.819  1.00  0.00    -0.000 C 
BRANCH  23  24
ATOM     24  C   UNL     1      16.985  -4.445 -16.841  1.00  0.00    -0.000 C 
BRANCH  24  25
ATOM     25  C   UNL     1      17.935  -3.386 -17.421  1.00  0.00    -0.003 C 
ATOM     26  C   UNL     1      17.221  -2.389 -18.335  1.00  0.00     0.004 C 
ENDBRANCH  24  25
ENDBRANCH  23  24
ENDBRANCH  22  23
ENDBRANCH  21  22
ENDBRANCH  20  21
ENDBRANCH  19  20
ENDBRANCH  18  19
ENDBRANCH  17  18
ENDBRANCH  16  17
ENDBRANCH  15  16
ENDBRANCH   1  15
TORSDOF 22
ENDMDL
MODEL 5
REMARK VINA RESULT:    -4.304      2.306      3.388
REMARK INTER + INTRA:         -14.487
REMARK INTER:                 -10.458
REMARK INTRA:                  -4.029
REMARK UNBOUND:                -4.647
REMARK SMILES CCCCCCCCCCCCCCCCCCCCCCCC(=O)[O-]
REMARK SMILES IDX 13 1 14 2 15 3 16 4 17 5 18 6 19 7 20 8 21 9 22 10 23 11
REMARK SMILES IDX 24 12 25 13 26 14 12 15 11 16 10 17 9 18 8 19 7 20 6 21 5 22
REMARK SMILES IDX 4 23 3 24 2 25 1 26
REMARK H PARENT
REMARK Flexibility Score: inf
ROOT
ATOM      1  C   UNL     1      18.469  -6.361 -16.608  1.00  0.00     0.000 C 
ENDROOT
BRANCH   1   2
ATOM      2  C   UNL     1      17.015  -5.878 -16.768  1.00  0.00     0.000 C 
BRANCH   2   3
ATOM      3  C   UNL     1      16.655  -4.610 -15.971  1.00  0.00     0.000 C 
BRANCH   3   4
ATOM      4  C   UNL     1      16.000  -3.523 -16.840  1.00  0.00     0.000 C 
BRANCH   4   5
ATOM      5  C   UNL     1      15.956  -3.895 -18.332  1.00  0.00     0.000 C 
BRANCH   5   6
ATOM      6  C   UNL     1      15.785  -2.709 -19.303  1.00  0.00     0.000 C 
BRANCH   6   7
ATOM      7  C   UNL     1      14.633  -2.855 -20.317  1.00  0.00     0.000 C 
BRANCH   7   8
ATOM      8  C   UNL     1      13.773  -4.124 -20.146  1.00  0.00     0.000 C 
BRANCH   8   9
ATOM      9  C   UNL     1      13.626  -4.989 -21.412  1.00  0.00     0.000 C 
BRANCH   9  10
ATOM     10  C   UNL     1      13.394  -4.209 -22.721  1.00  0.00     0.006 C 
BRANCH  10  11
ATOM     11  C   UNL     1      12.042  -3.474 -22.780  1.00  0.00     0.053 C 
BRANCH  11  12
ATOM     12  C   UNL     1      10.875  -4.413 -22.820  1.00  0.00     0.041 C 
ATOM     13  O   UNL     1       9.948  -4.311 -21.972  1.00  0.00    -0.550 OA
ATOM     14  O   UNL     1      10.788  -5.375 -23.818  1.00  0.00    -0.550 OA
ENDBRANCH  11  12
ENDBRANCH  10  11
ENDBRANCH   9  10
ENDBRANCH   8   9
ENDBRANCH   7   8
ENDBRANCH   6   7
ENDBRANCH   5   6
ENDBRANCH   4   5
ENDBRANCH   3   4
ENDBRANCH   2   3
ENDBRANCH   1   2
BRANCH   1  15
ATOM     15  C   UNL     1      19.329  -6.098 -17.853  1.00  0.00     0.000 C 
BRANCH  15  16
ATOM     16  C   UNL     1      20.705  -5.539 -17.461  1.00  0.00     0.000 C 
BRANCH  16  17
ATOM     17  C   UNL     1      20.884  -4.058 -17.842  1.00  0.00     0.000 C 
BRANCH  17  18
ATOM     18  C   UNL     1      19.575  -3.290 -18.108  1.00  0.00    -0.000 C 
BRANCH  18  19
ATOM     19  C   UNL     1      19.397  -2.785 -19.553  1.00  0.00    -0.000 C 
BRANCH  19  20
ATOM     20  C   UNL     1      20.729  -2.570 -20.309  1.00  0.00    -0.000 C 
BRANCH  20  21
ATOM     21  C   UNL     1      20.872  -3.386 -21.610  1.00  0.00    -0.000 C 
BRANCH  21  22
ATOM     22  C   UNL     1      20.822  -4.916 -21.437  1.00  0.00    -0.000 C 
BRANCH  22  23
ATOM     23  C   UNL     1      19.759  -5.590 -22.317  1.00  0.00    -0.000 C 
BRANCH  23  24
ATOM     24  C   UNL     1      18.572  -6.074 -21.470  1.00  0.00    -0.000 C 
BRANCH  24  25
ATOM     25  C   UNL     1      17.369  -5.121 -21.539  1.00  0.00    -0.003 C 
ATOM     26  C   UNL     1      17.110  -4.597 -22.951  1.00  0.00     0.004 C 
ENDBRANCH  24  25
ENDBRANCH  23  24
ENDBRANCH  22  23
ENDBRANCH  21  22
ENDBRANCH  20  21
ENDBRANCH  19  20
ENDBRANCH  18  19
ENDBRANCH  17  18
ENDBRANCH  16  17
ENDBRANCH  15  16
ENDBRANCH   1  15
TORSDOF 22
ENDMDL
MODEL 6
REMARK VINA RESULT:    -4.252      2.379      3.402
REMARK INTER + INTRA:         -14.367
REMARK INTER:                 -10.546
REMARK INTRA:                  -3.821
REMARK UNBOUND:                -4.647
REMARK SMILES CCCCCCCCCCCCCCCCCCCCCCCC(=O)[O-]
REMARK SMILES IDX 13 1 14 2 15 3 16 4 17 5 18 6 19 7 20 8 21 9 22 10 23 11
REMARK SMILES IDX 24 12 25 13 26 14 12 15 11 16 10 17 9 18 8 19 7 20 6 21 5 22
REMARK SMILES IDX 4 23 3 24 2 25 1 26
REMARK H PARENT
REMARK Flexibility Score: inf
ROOT
ATOM      1  C   UNL     1      17.044  -6.003 -16.549  1.00  0.00     0.000 C 
ENDROOT
BRANCH   1   2
ATOM      2  C   UNL     1      16.739  -4.591 -16.017  1.00  0.00     0.000 C 
BRANCH   2   3
ATOM      3  C   UNL     1      15.995  -3.668 -17.001  1.00  0.00     0.000 C 
BRANCH   3   4
ATOM      4  C   UNL     1      15.639  -4.365 -18.324  1.00  0.00     0.000 C 
BRANCH   4   5
ATOM      5  C   UNL     1      16.133  -3.591 -19.560  1.00  0.00     0.000 C 
BRANCH   5   6
ATOM      6  C   UNL     1      16.906  -4.430 -20.597  1.00  0.00     0.000 C 
BRANCH   6   7
ATOM      7  C   UNL     1      16.737  -3.978 -22.061  1.00  0.00     0.000 C 
BRANCH   7   8
ATOM      8  C   UNL     1      16.433  -5.112 -23.061  1.00  0.00     0.000 C 
BRANCH   8   9
ATOM      9  C   UNL     1      14.958  -5.553 -23.120  1.00  0.00     0.000 C 
BRANCH   9  10
ATOM     10  C   UNL     1      13.939  -4.419 -23.347  1.00  0.00     0.006 C 
BRANCH  10  11
ATOM     11  C   UNL     1      12.617  -4.884 -23.987  1.00  0.00     0.053 C 
BRANCH  11  12
ATOM     12  C   UNL     1      11.645  -3.761 -24.185  1.00  0.00     0.041 C 
ATOM     13  O   UNL     1      11.467  -3.270 -25.332  1.00  0.00    -0.550 OA
ATOM     14  O   UNL     1      10.905  -3.282 -23.112  1.00  0.00    -0.550 OA
ENDBRANCH  11  12
ENDBRANCH  10  11
ENDBRANCH   9  10
ENDBRANCH   8   9
ENDBRANCH   7   8
ENDBRANCH   6   7
ENDBRANCH   5   6
ENDBRANCH   4   5
ENDBRANCH   3   4
ENDBRANCH   2   3
ENDBRANCH   1   2
BRANCH   1  15
ATOM     15  C   UNL     1      18.549  -6.288 -16.668  1.00  0.00     0.000 C 
BRANCH  15  16
ATOM     16  C   UNL     1      19.138  -5.614 -17.916  1.00  0.00     0.000 C 
BRANCH  16  17
ATOM     17  C   UNL     1      20.124  -4.480 -17.578  1.00  0.00     0.000 C 
BRANCH  17  18
ATOM     18  C   UNL     1      19.752  -3.100 -18.153  1.00  0.00    -0.000 C 
BRANCH  18  19
ATOM     19  C   UNL     1      20.682  -2.586 -19.269  1.00  0.00    -0.000 C 
BRANCH  19  20
ATOM     20  C   UNL     1      20.085  -2.714 -20.689  1.00  0.00    -0.000 C 
BRANCH  20  21
ATOM     21  C   UNL     1      20.844  -3.677 -21.624  1.00  0.00    -0.000 C 
BRANCH  21  22
ATOM     22  C   UNL     1      21.567  -4.844 -20.922  1.00  0.00    -0.000 C 
BRANCH  22  23
ATOM     23  C   UNL     1      21.231  -6.215 -21.527  1.00  0.00    -0.000 C 
BRANCH  23  24
ATOM     24  C   UNL     1      19.977  -6.131 -22.412  1.00  0.00    -0.000 C 
BRANCH  24  25
ATOM     25  C   UNL     1      19.071  -7.364 -22.272  1.00  0.00    -0.003 C 
ATOM     26  C   UNL     1      18.890  -7.802 -20.819  1.00  0.00     0.004 C 
ENDBRANCH  24  25
ENDBRANCH  23  24
ENDBRANCH  22  23
ENDBRANCH  21  22
ENDBRANCH  20  21
ENDBRANCH  19  20
ENDBRANCH  18  19
ENDBRANCH  17  18
ENDBRANCH  16  17
ENDBRANCH  15  16
ENDBRANCH   1  15
TORSDOF 22
ENDMDL
MODEL 7
REMARK VINA RESULT:    -4.243      6.281     10.164
REMARK INTER + INTRA:         -14.347
REMARK INTER:                 -10.643
REMARK INTRA:                  -3.704
REMARK UNBOUND:                -4.647
REMARK SMILES CCCCCCCCCCCCCCCCCCCCCCCC(=O)[O-]
REMARK SMILES IDX 13 1 14 2 15 3 16 4 17 5 18 6 19 7 20 8 21 9 22 10 23 11
REMARK SMILES IDX 24 12 25 13 26 14 12 15 11 16 10 17 9 18 8 19 7 20 6 21 5 22
REMARK SMILES IDX 4 23 3 24 2 25 1 26
REMARK H PARENT
REMARK Flexibility Score: inf
ROOT
ATOM      1  C   UNL     1      11.283  -3.595 -24.660  1.00  0.00     0.000 C 
ENDROOT
BRANCH   1   2
ATOM      2  C   UNL     1      11.565  -3.326 -23.171  1.00  0.00     0.000 C 
BRANCH   2   3
ATOM      3  C   UNL     1      11.843  -4.579 -22.320  1.00  0.00     0.000 C 
BRANCH   3   4
ATOM      4  C   UNL     1      11.261  -4.481 -20.900  1.00  0.00     0.000 C 
BRANCH   4   5
ATOM      5  C   UNL     1      11.370  -5.800 -20.116  1.00  0.00     0.000 C 
BRANCH   5   6
ATOM      6  C   UNL     1      12.261  -6.880 -20.763  1.00  0.00     0.000 C 
BRANCH   6   7
ATOM      7  C   UNL     1      13.637  -7.077 -20.097  1.00  0.00     0.000 C 
BRANCH   7   8
ATOM      8  C   UNL     1      14.755  -6.157 -20.631  1.00  0.00     0.000 C 
BRANCH   8   9
ATOM      9  C   UNL     1      15.281  -5.117 -19.624  1.00  0.00     0.000 C 
BRANCH   9  10
ATOM     10  C   UNL     1      14.522  -3.775 -19.605  1.00  0.00     0.006 C 
BRANCH  10  11
ATOM     11  C   UNL     1      15.437  -2.538 -19.677  1.00  0.00     0.053 C 
BRANCH  11  12
ATOM     12  C   UNL     1      16.600  -2.624 -18.737  1.00  0.00     0.041 C 
ATOM     13  O   UNL     1      16.416  -2.568 -17.492  1.00  0.00    -0.550 OA
ATOM     14  O   UNL     1      17.885  -2.808 -19.233  1.00  0.00    -0.550 OA
ENDBRANCH  11  12
ENDBRANCH  10  11
ENDBRANCH   9  10
ENDBRANCH   8   9
ENDBRANCH   7   8
ENDBRANCH   6   7
ENDBRANCH   5   6
ENDBRANCH   4   5
ENDBRANCH   3   4
ENDBRANCH   2   3
ENDBRANCH   1   2
BRANCH   1  15
ATOM     15  C   UNL     1      12.042  -4.816 -25.203  1.00  0.00     0.000 C 
BRANCH  15  16
ATOM     16  C   UNL     1      11.071  -5.840 -25.810  1.00  0.00     0.000 C 
BRANCH  16  17
ATOM     17  C   UNL     1      10.120  -6.459 -24.768  1.00  0.00     0.000 C 
BRANCH  17  18
ATOM     18  C   UNL     1       8.859  -7.124 -25.350  1.00  0.00    -0.000 C 
BRANCH  18  19
ATOM     19  C   UNL     1       7.558  -6.314 -25.185  1.00  0.00    -0.000 C 
BRANCH  19  20
ATOM     20  C   UNL     1       7.778  -4.784 -25.134  1.00  0.00    -0.000 C 
BRANCH  20  21
ATOM     21  C   UNL     1       7.279  -4.103 -23.843  1.00  0.00    -0.000 C 
BRANCH  21  22
ATOM     22  C   UNL     1       8.067  -4.455 -22.566  1.00  0.00    -0.000 C 
BRANCH  22  23
ATOM     23  C   UNL     1       7.314  -5.418 -21.637  1.00  0.00    -0.000 C 
BRANCH  23  24
ATOM     24  C   UNL     1       8.013  -6.786 -21.585  1.00  0.00    -0.000 C 
BRANCH  24  25
ATOM     25  C   UNL     1       7.018  -7.957 -21.565  1.00  0.00    -0.003 C 
ATOM     26  C   UNL     1       7.489  -9.147 -22.401  1.00  0.00     0.004 C 
ENDBRANCH  24  25
ENDBRANCH  23  24
ENDBRANCH  22  23
ENDBRANCH  21  22
ENDBRANCH  20  21
ENDBRANCH  19  20
ENDBRANCH  18  19
ENDBRANCH  17  18
ENDBRANCH  16  17
ENDBRANCH  15  16
ENDBRANCH   1  15
TORSDOF 22
ENDMDL
MODEL 8
REMARK VINA RESULT:    -4.240      2.164      5.401
REMARK INTER + INTRA:         -14.340
REMARK INTER:                 -10.244
REMARK INTRA:                  -4.096
REMARK UNBOUND:                -4.647
REMARK SMILES CCCCCCCCCCCCCCCCCCCCCCCC(=O)[O-]
REMARK SMILES IDX 13 1 14 2 15 3 16 4 17 5 18 6 19 7 20 8 21 9 22 10 23 11
REMARK SMILES IDX 24 12 25 13 26 14 12 15 11 16 10 17 9 18 8 19 7 20 6 21 5 22
REMARK SMILES IDX 4 23 3 24 2 25 1 26
REMARK H PARENT
REMARK Flexibility Score: inf
ROOT
ATOM      1  C   UNL     1      17.447  -6.196 -17.859  1.00  0.00     0.000 C 
ENDROOT
BRANCH   1   2
ATOM      2  C   UNL     1      17.138  -6.005 -16.362  1.00  0.00     0.000 C 
BRANCH   2   3
ATOM      3  C   UNL     1      16.616  -4.609 -15.975  1.00  0.00     0.000 C 
BRANCH   3   4
ATOM      4  C   UNL     1      16.058  -3.824 -17.173  1.00  0.00     0.000 C 
BRANCH   4   5
ATOM      5  C   UNL     1      16.830  -2.521 -17.447  1.00  0.00     0.000 C 
BRANCH   5   6
ATOM      6  C   UNL     1      17.981  -2.639 -18.467  1.00  0.00     0.000 C 
BRANCH   6   7
ATOM      7  C   UNL     1      19.355  -2.992 -17.863  1.00  0.00     0.000 C 
BRANCH   7   8
ATOM      8  C   UNL     1      20.266  -3.841 -18.774  1.00  0.00     0.000 C 
BRANCH   8   9
ATOM      9  C   UNL     1      20.583  -3.216 -20.146  1.00  0.00     0.000 C 
BRANCH   9  10
ATOM     10  C   UNL     1      21.226  -4.170 -21.172  1.00  0.00     0.006 C 
BRANCH  10  11
ATOM     11  C   UNL     1      22.113  -5.261 -20.542  1.00  0.00     0.053 C 
BRANCH  11  12
ATOM     12  C   UNL     1      21.565  -6.641 -20.748  1.00  0.00     0.041 C 
ATOM     13  O   UNL     1      21.191  -7.330 -19.762  1.00  0.00    -0.550 OA
ATOM     14  O   UNL     1      21.428  -7.152 -22.033  1.00  0.00    -0.550 OA
ENDBRANCH  11  12
ENDBRANCH  10  11
ENDBRANCH   9  10
ENDBRANCH   8   9
ENDBRANCH   7   8
ENDBRANCH   6   7
ENDBRANCH   5   6
ENDBRANCH   4   5
ENDBRANCH   3   4
ENDBRANCH   2   3
ENDBRANCH   1   2
BRANCH   1  15
ATOM     15  C   UNL     1      16.344  -6.958 -18.607  1.00  0.00     0.000 C 
BRANCH  15  16
ATOM     16  C   UNL     1      16.433  -6.708 -20.120  1.00  0.00     0.000 C 
BRANCH  16  17
ATOM     17  C   UNL     1      17.866  -6.407 -20.596  1.00  0.00     0.000 C 
BRANCH  17  18
ATOM     18  C   UNL     1      17.963  -5.610 -21.911  1.00  0.00    -0.000 C 
BRANCH  18  19
ATOM     19  C   UNL     1      17.462  -4.155 -21.832  1.00  0.00    -0.000 C 
BRANCH  19  20
ATOM     20  C   UNL     1      16.255  -3.858 -22.752  1.00  0.00    -0.000 C 
BRANCH  20  21
ATOM     21  C   UNL     1      14.876  -4.041 -22.088  1.00  0.00    -0.000 C 
BRANCH  21  22
ATOM     22  C   UNL     1      14.720  -3.386 -20.701  1.00  0.00    -0.000 C 
BRANCH  22  23
ATOM     23  C   UNL     1      13.737  -4.131 -19.787  1.00  0.00    -0.000 C 
BRANCH  23  24
ATOM     24  C   UNL     1      13.039  -5.270 -20.547  1.00  0.00    -0.000 C 
BRANCH  24  25
ATOM     25  C   UNL     1      11.526  -5.047 -20.688  1.00  0.00    -0.003 C 
ATOM     26  C   UNL     1      10.713  -6.312 -20.415  1.00  0.00     0.004 C 
ENDBRANCH  24  25
ENDBRANCH  23  24
ENDBRANCH  22  23
ENDBRANCH  21  22
ENDBRANCH  20  21
ENDBRANCH  19  20
ENDBRANCH  18  19
ENDBRANCH  17  18
ENDBRANCH  16  17
ENDBRANCH  15  16
ENDBRANCH   1  15
TORSDOF 22
ENDMDL
MODEL 9
REMARK VINA RESULT:    -4.232      3.203      5.349
REMARK INTER + INTRA:         -14.321
REMARK INTER:                 -10.740
REMARK INTRA:                  -3.581
REMARK UNBOUND:                -4.647
REMARK SMILES CCCCCCCCCCCCCCCCCCCCCCCC(=O)[O-]
REMARK SMILES IDX 13 1 14 2 15 3 16 4 17 5 18 6 19 7 20 8 21 9 22 10 23 11
REMARK SMILES IDX 24 12 25 13 26 14 12 15 11 16 10 17 9 18 8 19 7 20 6 21 5 22
REMARK SMILES IDX 4 23 3 24 2 25 1 26
REMARK H PARENT
REMARK Flexibility Score: inf
ROOT
ATOM      1  C   UNL     1      17.611  -5.679 -20.948  1.00  0.00     0.000 C 
ENDROOT
BRANCH   1   2
ATOM      2  C   UNL     1      17.546  -5.322 -22.444  1.00  0.00     0.000 C 
BRANCH   2   3
ATOM      3  C   UNL     1      16.597  -4.161 -22.800  1.00  0.00     0.000 C 
BRANCH   3   4
ATOM      4  C   UNL     1      15.117  -4.501 -22.555  1.00  0.00     0.000 C 
BRANCH   4   5
ATOM      5  C   UNL     1      14.420  -3.497 -21.620  1.00  0.00     0.000 C 
BRANCH   5   6
ATOM      6  C   UNL     1      14.131  -4.013 -20.196  1.00  0.00     0.000 C 
BRANCH   6   7
ATOM      7  C   UNL     1      14.079  -5.547 -20.055  1.00  0.00     0.000 C 
BRANCH   7   8
ATOM      8  C   UNL     1      12.687  -6.173 -20.271  1.00  0.00     0.000 C 
BRANCH   8   9
ATOM      9  C   UNL     1      11.499  -5.218 -20.050  1.00  0.00     0.000 C 
BRANCH   9  10
ATOM     10  C   UNL     1      10.419  -5.242 -21.150  1.00  0.00     0.006 C 
BRANCH  10  11
ATOM     11  C   UNL     1      10.605  -4.162 -22.233  1.00  0.00     0.053 C 
BRANCH  11  12
ATOM     12  C   UNL     1       9.473  -4.128 -23.214  1.00  0.00     0.041 C 
ATOM     13  O   UNL     1       9.586  -3.485 -24.292  1.00  0.00    -0.550 OA
ATOM     14  O   UNL     1       8.307  -4.840 -22.959  1.00  0.00    -0.550 OA
ENDBRANCH  11  12
ENDBRANCH  10  11
ENDBRANCH   9  10
ENDBRANCH   8   9
ENDBRANCH   7   8
ENDBRANCH   6   7
ENDBRANCH   5   6
ENDBRANCH   4   5
ENDBRANCH   3   4
ENDBRANCH   2   3
ENDBRANCH   1   2
BRANCH   1  15
ATOM     15  C   UNL     1      18.911  -6.399 -20.559  1.00  0.00     0.000 C 
BRANCH  15  16
ATOM     16  C   UNL     1      20.114  -5.799 -21.302  1.00  0.00     0.000 C 
BRANCH  16  17
ATOM     17  C   UNL     1      20.759  -4.620 -20.550  1.00  0.00     0.000 C 
BRANCH  17  18
ATOM     18  C   UNL     1      20.410  -3.225 -21.103  1.00  0.00    -0.000 C 
BRANCH  18  19
ATOM     19  C   UNL     1      19.759  -2.265 -20.088  1.00  0.00    -0.000 C 
BRANCH  19  20
ATOM     20  C   UNL     1      18.922  -2.978 -19.002  1.00  0.00    -0.000 C 
BRANCH  20  21
ATOM     21  C   UNL     1      17.448  -2.529 -18.925  1.00  0.00    -0.000 C 
BRANCH  21  22
ATOM     22  C   UNL     1      16.785  -2.679 -17.541  1.00  0.00    -0.000 C 
BRANCH  22  23
ATOM     23  C   UNL     1      16.174  -4.069 -17.311  1.00  0.00    -0.000 C 
BRANCH  23  24
ATOM     24  C   UNL     1      16.820  -4.757 -16.099  1.00  0.00    -0.000 C 
BRANCH  24  25
ATOM     25  C   UNL     1      17.353  -6.160 -16.430  1.00  0.00    -0.003 C 
ATOM     26  C   UNL     1      18.826  -6.151 -16.839  1.00  0.00     0.004 C 
ENDBRANCH  24  25
ENDBRANCH  23  24
ENDBRANCH  22  23
ENDBRANCH  21  22
ENDBRANCH  20  21
ENDBRANCH  19  20
ENDBRANCH  18  19
ENDBRANCH  17  18
ENDBRANCH  16  17
ENDBRANCH  15  16
ENDBRANCH   1  15
TORSDOF 22
ENDMDL
