MODEL 1
REMARK VINA RESULT:    -5.536      0.000      0.000
REMARK INTER + INTRA:          -6.821
REMARK INTER:                  -6.507
REMARK INTRA:                  -0.314
REMARK UNBOUND:                -0.314
REMARK SMILES O=c1c(O)c(-c2ccc(O)c(O)c2)oc2cc(O)ccc12
REMARK SMILES IDX 5 1 3 2 2 3 1 4 21 5 15 6 14 7 16 8 17 9 19 10 20 11 6 12
REMARK SMILES IDX 7 13 8 14 9 15 13 16 11 17 10 18 12 20 4 22 18 24
REMARK H PARENT 10 19 12 21 4 23 18 25
REMARK Flexibility Score: inf
ROOT
ATOM      1  C   UNL     1       2.902   7.382  10.913  1.00  0.00     0.180 A 
ATOM      2  C   UNL     1       3.494   8.661  10.871  1.00  0.00     0.208 A 
ATOM      3  C   UNL     1       4.624   8.909  11.666  1.00  0.00     0.235 A 
ATOM      4  O   UNL     1       5.180  10.042  11.637  1.00  0.00    -0.285 OA
ATOM      5  C   UNL     1       5.124   7.892  12.494  1.00  0.00     0.069 A 
ATOM      6  C   UNL     1       4.458   6.646  12.496  1.00  0.00     0.142 A 
ATOM      7  O   UNL     1       3.397   6.449  11.723  1.00  0.00    -0.452 OA
ATOM      8  C   UNL     1       4.919   5.610  13.316  1.00  0.00     0.094 A 
ATOM      9  C   UNL     1       6.041   5.801  14.134  1.00  0.00     0.119 A 
ATOM     10  C   UNL     1       6.701   7.034  14.131  1.00  0.00     0.047 A 
ATOM     11  C   UNL     1       6.248   8.077  13.317  1.00  0.00     0.020 A 
ENDROOT
BRANCH   1  12
ATOM     12  C   UNL     1       1.719   7.036  10.091  1.00  0.00     0.025 A 
ATOM     13  C   UNL     1       0.414   7.300  10.542  1.00  0.00     0.016 A 
ATOM     14  C   UNL     1      -0.687   6.987   9.740  1.00  0.00     0.051 A 
ATOM     15  C   UNL     1      -0.502   6.422   8.474  1.00  0.00     0.157 A 
ATOM     16  C   UNL     1       1.902   6.487   8.812  1.00  0.00     0.062 A 
ATOM     17  C   UNL     1       0.799   6.172   8.005  1.00  0.00     0.158 A 
BRANCH  15  18
ATOM     18  O   UNL     1      -1.620   6.118   7.697  1.00  0.00    -0.504 OA
ATOM     19  H   UNL     1      -1.541   5.854   6.722  1.00  0.00     0.293 HD
ENDBRANCH  15  18
BRANCH  17  20
ATOM     20  O   UNL     1       0.991   5.615   6.742  1.00  0.00    -0.504 OA
ATOM     21  H   UNL     1       0.709   4.664   6.533  1.00  0.00     0.293 HD
ENDBRANCH  17  20
ENDBRANCH   1  12
BRANCH   2  22
ATOM     22  O   UNL     1       2.946   9.670  10.075  1.00  0.00    -0.502 OA
ATOM     23  H   UNL     1       2.025  10.056  10.246  1.00  0.00     0.293 HD
ENDBRANCH   2  22
BRANCH   9  24
ATOM     24  O   UNL     1       6.506   4.774  14.952  1.00  0.00    -0.508 OA
ATOM     25  H   UNL     1       6.246   3.809  14.789  1.00  0.00     0.293 HD
ENDBRANCH   9  24
TORSDOF 5
ENDMDL
MODEL 2
REMARK VINA RESULT:    -5.349      1.992      6.819
REMARK INTER + INTRA:          -6.602
REMARK INTER:                  -6.282
REMARK INTRA:                  -0.320
REMARK UNBOUND:                -0.314
REMARK SMILES O=c1c(O)c(-c2ccc(O)c(O)c2)oc2cc(O)ccc12
REMARK SMILES IDX 5 1 3 2 2 3 1 4 21 5 15 6 14 7 16 8 17 9 19 10 20 11 6 12
REMARK SMILES IDX 7 13 8 14 9 15 13 16 11 17 10 18 12 20 4 22 18 24
REMARK H PARENT 10 19 12 21 4 23 18 25
REMARK Flexibility Score: inf
ROOT
ATOM      1  C   UNL     1       3.265   7.107  11.833  1.00  0.00     0.180 A 
ATOM      2  C   UNL     1       4.100   6.672  10.784  1.00  0.00     0.208 A 
ATOM      3  C   UNL     1       3.528   6.400   9.532  1.00  0.00     0.235 A 
ATOM      4  O   UNL     1       4.256   6.020   8.573  1.00  0.00    -0.285 OA
ATOM      5  C   UNL     1       2.143   6.548   9.358  1.00  0.00     0.069 A 
ATOM      6  C   UNL     1       1.372   6.965  10.465  1.00  0.00     0.142 A 
ATOM      7  O   UNL     1       1.954   7.220  11.632  1.00  0.00    -0.452 OA
ATOM      8  C   UNL     1      -0.013   7.115  10.336  1.00  0.00     0.094 A 
ATOM      9  C   UNL     1      -0.640   6.854   9.110  1.00  0.00     0.119 A 
ATOM     10  C   UNL     1       0.122   6.442   8.012  1.00  0.00     0.047 A 
ATOM     11  C   UNL     1       1.507   6.288   8.131  1.00  0.00     0.020 A 
ENDROOT
BRANCH   1  12
ATOM     12  C   UNL     1       3.795   7.430  13.178  1.00  0.00     0.025 A 
ATOM     13  C   UNL     1       4.165   8.742  13.522  1.00  0.00     0.016 A 
ATOM     14  C   UNL     1       4.639   9.028  14.805  1.00  0.00     0.051 A 
ATOM     15  C   UNL     1       4.739   8.016  15.764  1.00  0.00     0.157 A 
ATOM     16  C   UNL     1       3.876   6.420  14.150  1.00  0.00     0.062 A 
ATOM     17  C   UNL     1       4.352   6.705  15.438  1.00  0.00     0.158 A 
BRANCH  15  18
ATOM     18  O   UNL     1       5.219   8.331  17.036  1.00  0.00    -0.504 OA
ATOM     19  H   UNL     1       5.131   9.261  17.429  1.00  0.00     0.293 HD
ENDBRANCH  15  18
BRANCH  17  20
ATOM     20  O   UNL     1       4.442   5.693  16.391  1.00  0.00    -0.504 OA
ATOM     21  H   UNL     1       3.748   4.955  16.450  1.00  0.00     0.293 HD
ENDBRANCH  17  20
ENDBRANCH   1  12
BRANCH   2  22
ATOM     22  O   UNL     1       5.469   6.485  10.999  1.00  0.00    -0.502 OA
ATOM     23  H   UNL     1       6.081   7.242  11.283  1.00  0.00     0.293 HD
ENDBRANCH   2  22
BRANCH   9  24
ATOM     24  O   UNL     1      -2.019   7.002   8.973  1.00  0.00    -0.508 OA
ATOM     25  H   UNL     1      -2.656   6.727   9.711  1.00  0.00     0.293 HD
ENDBRANCH   9  24
TORSDOF 5
ENDMDL
MODEL 3
REMARK VINA RESULT:    -5.332      1.998      2.541
REMARK INTER + INTRA:          -6.581
REMARK INTER:                  -6.485
REMARK INTRA:                  -0.096
REMARK UNBOUND:                -0.314
REMARK SMILES O=c1c(O)c(-c2ccc(O)c(O)c2)oc2cc(O)ccc12
REMARK SMILES IDX 5 1 3 2 2 3 1 4 21 5 15 6 14 7 16 8 17 9 19 10 20 11 6 12
REMARK SMILES IDX 7 13 8 14 9 15 13 16 11 17 10 18 12 20 4 22 18 24
REMARK H PARENT 10 19 12 21 4 23 18 25
REMARK Flexibility Score: inf
ROOT
ATOM      1  C   UNL     1       3.497   6.647  10.781  1.00  0.00     0.180 A 
ATOM      2  C   UNL     1       4.684   5.967  10.442  1.00  0.00     0.208 A 
ATOM      3  C   UNL     1       5.555   5.571  11.469  1.00  0.00     0.235 A 
ATOM      4  O   UNL     1       6.618   4.951  11.192  1.00  0.00    -0.285 OA
ATOM      5  C   UNL     1       5.235   5.875  12.801  1.00  0.00     0.069 A 
ATOM      6  C   UNL     1       4.038   6.580  13.056  1.00  0.00     0.142 A 
ATOM      7  O   UNL     1       3.238   6.930  12.056  1.00  0.00    -0.452 OA
ATOM      8  C   UNL     1       3.689   6.911  14.370  1.00  0.00     0.094 A 
ATOM      9  C   UNL     1       4.521   6.544  15.436  1.00  0.00     0.119 A 
ATOM     10  C   UNL     1       5.706   5.845  15.185  1.00  0.00     0.047 A 
ATOM     11  C   UNL     1       6.065   5.510  13.876  1.00  0.00     0.020 A 
ENDROOT
BRANCH   1  12
ATOM     12  C   UNL     1       2.520   7.083   9.757  1.00  0.00     0.025 A 
ATOM     13  C   UNL     1       2.212   8.442   9.572  1.00  0.00     0.016 A 
ATOM     14  C   UNL     1       1.305   8.832   8.583  1.00  0.00     0.051 A 
ATOM     15  C   UNL     1       0.704   7.877   7.758  1.00  0.00     0.157 A 
ATOM     16  C   UNL     1       1.930   6.128   8.914  1.00  0.00     0.062 A 
ATOM     17  C   UNL     1       1.020   6.517   7.920  1.00  0.00     0.158 A 
BRANCH  15  18
ATOM     18  O   UNL     1      -0.200   8.296   6.781  1.00  0.00    -0.504 OA
ATOM     19  H   UNL     1      -1.123   8.641   7.015  1.00  0.00     0.293 HD
ENDBRANCH  15  18
BRANCH  17  20
ATOM     20  O   UNL     1       0.430   5.560   7.097  1.00  0.00    -0.504 OA
ATOM     21  H   UNL     1      -0.419   5.755   6.579  1.00  0.00     0.293 HD
ENDBRANCH  17  20
ENDBRANCH   1  12
BRANCH   2  22
ATOM     22  O   UNL     1       5.002   5.721   9.103  1.00  0.00    -0.502 OA
ATOM     23  H   UNL     1       4.710   6.339   8.354  1.00  0.00     0.293 HD
ENDBRANCH   2  22
BRANCH   9  24
ATOM     24  O   UNL     1       4.179   6.870  16.747  1.00  0.00    -0.508 OA
ATOM     25  H   UNL     1       3.705   7.737  16.971  1.00  0.00     0.293 HD
ENDBRANCH   9  24
TORSDOF 5
ENDMDL
MODEL 4
REMARK VINA RESULT:    -5.245      4.257      5.007
REMARK INTER + INTRA:          -6.479
REMARK INTER:                  -6.276
REMARK INTRA:                  -0.203
REMARK UNBOUND:                -0.314
REMARK SMILES O=c1c(O)c(-c2ccc(O)c(O)c2)oc2cc(O)ccc12
REMARK SMILES IDX 5 1 3 2 2 3 1 4 21 5 15 6 14 7 16 8 17 9 19 10 20 11 6 12
REMARK SMILES IDX 7 13 8 14 9 15 13 16 11 17 10 18 12 20 4 22 18 24
REMARK H PARENT 10 19 12 21 4 23 18 25
REMARK Flexibility Score: inf
ROOT
ATOM      1  C   UNL     1       4.339   4.446   8.896  1.00  0.00     0.180 A 
ATOM      2  C   UNL     1       5.255   4.604   7.836  1.00  0.00     0.208 A 
ATOM      3  C   UNL     1       6.332   3.710   7.734  1.00  0.00     0.235 A 
ATOM      4  O   UNL     1       7.159   3.823   6.787  1.00  0.00    -0.285 OA
ATOM      5  C   UNL     1       6.483   2.698   8.694  1.00  0.00     0.069 A 
ATOM      6  C   UNL     1       5.537   2.622   9.739  1.00  0.00     0.142 A 
ATOM      7  O   UNL     1       4.527   3.483   9.795  1.00  0.00    -0.452 OA
ATOM      8  C   UNL     1       5.658   1.633  10.722  1.00  0.00     0.094 A 
ATOM      9  C   UNL     1       6.715   0.716  10.674  1.00  0.00     0.119 A 
ATOM     10  C   UNL     1       7.654   0.789   9.639  1.00  0.00     0.047 A 
ATOM     11  C   UNL     1       7.542   1.773   8.652  1.00  0.00     0.020 A 
ENDROOT
BRANCH   1  12
ATOM     12  C   UNL     1       3.168   5.337   9.062  1.00  0.00     0.025 A 
ATOM     13  C   UNL     1       3.108   6.280  10.103  1.00  0.00     0.016 A 
ATOM     14  C   UNL     1       2.004   7.127  10.226  1.00  0.00     0.051 A 
ATOM     15  C   UNL     1       0.952   7.056   9.308  1.00  0.00     0.157 A 
ATOM     16  C   UNL     1       2.119   5.282   8.130  1.00  0.00     0.062 A 
ATOM     17  C   UNL     1       1.010   6.131   8.251  1.00  0.00     0.158 A 
BRANCH  15  18
ATOM     18  O   UNL     1      -0.139   7.913   9.458  1.00  0.00    -0.504 OA
ATOM     19  H   UNL     1      -0.038   8.855   9.818  1.00  0.00     0.293 HD
ENDBRANCH  15  18
BRANCH  17  20
ATOM     20  O   UNL     1      -0.032   6.060   7.328  1.00  0.00    -0.504 OA
ATOM     21  H   UNL     1      -0.318   5.178   6.918  1.00  0.00     0.293 HD
ENDBRANCH  17  20
ENDBRANCH   1  12
BRANCH   2  22
ATOM     22  O   UNL     1       5.108   5.651   6.922  1.00  0.00    -0.502 OA
ATOM     23  H   UNL     1       4.554   6.475   7.126  1.00  0.00     0.293 HD
ENDBRANCH   2  22
BRANCH   9  24
ATOM     24  O   UNL     1       6.843  -0.272  11.648  1.00  0.00    -0.508 OA
ATOM     25  H   UNL     1       7.477  -0.164  12.431  1.00  0.00     0.293 HD
ENDBRANCH   9  24
TORSDOF 5
ENDMDL
MODEL 5
REMARK VINA RESULT:    -5.218      3.619      6.612
REMARK INTER + INTRA:          -6.447
REMARK INTER:                  -6.225
REMARK INTRA:                  -0.222
REMARK UNBOUND:                -0.314
REMARK SMILES O=c1c(O)c(-c2ccc(O)c(O)c2)oc2cc(O)ccc12
REMARK SMILES IDX 5 1 3 2 2 3 1 4 21 5 15 6 14 7 16 8 17 9 19 10 20 11 6 12
REMARK SMILES IDX 7 13 8 14 9 15 13 16 11 17 10 18 12 20 4 22 18 24
REMARK H PARENT 10 19 12 21 4 23 18 25
REMARK Flexibility Score: inf
ROOT
ATOM      1  C   UNL     1       4.126   4.915   9.833  1.00  0.00     0.180 A 
ATOM      2  C   UNL     1       4.315   5.849  10.872  1.00  0.00     0.208 A 
ATOM      3  C   UNL     1       3.345   6.843  11.073  1.00  0.00     0.235 A 
ATOM      4  O   UNL     1       3.485   7.684  12.004  1.00  0.00    -0.285 OA
ATOM      5  C   UNL     1       2.225   6.896  10.227  1.00  0.00     0.069 A 
ATOM      6  C   UNL     1       2.122   5.939   9.195  1.00  0.00     0.142 A 
ATOM      7  O   UNL     1       3.058   5.009   9.043  1.00  0.00    -0.452 OA
ATOM      8  C   UNL     1       1.026   5.965   8.324  1.00  0.00     0.094 A 
ATOM      9  C   UNL     1       0.029   6.937   8.474  1.00  0.00     0.119 A 
ATOM     10  C   UNL     1       0.129   7.886   9.497  1.00  0.00     0.047 A 
ATOM     11  C   UNL     1       1.220   7.869  10.372  1.00  0.00     0.020 A 
ENDROOT
BRANCH   1  12
ATOM     12  C   UNL     1       5.095   3.826   9.569  1.00  0.00     0.025 A 
ATOM     13  C   UNL     1       5.946   3.860   8.450  1.00  0.00     0.016 A 
ATOM     14  C   UNL     1       6.869   2.834   8.234  1.00  0.00     0.051 A 
ATOM     15  C   UNL     1       6.966   1.769   9.134  1.00  0.00     0.157 A 
ATOM     16  C   UNL     1       5.209   2.766  10.482  1.00  0.00     0.062 A 
ATOM     17  C   UNL     1       6.135   1.735  10.267  1.00  0.00     0.158 A 
BRANCH  15  18
ATOM     18  O   UNL     1       7.896   0.757   8.891  1.00  0.00    -0.504 OA
ATOM     19  H   UNL     1       8.853   0.958   8.628  1.00  0.00     0.293 HD
ENDBRANCH  15  18
BRANCH  17  20
ATOM     20  O   UNL     1       6.232   0.680  11.173  1.00  0.00    -0.504 OA
ATOM     21  H   UNL     1       6.387  -0.273  10.864  1.00  0.00     0.293 HD
ENDBRANCH  17  20
ENDBRANCH   1  12
BRANCH   2  22
ATOM     22  O   UNL     1       5.463   5.802  11.667  1.00  0.00    -0.502 OA
ATOM     23  H   UNL     1       6.381   6.038  11.308  1.00  0.00     0.293 HD
ENDBRANCH   2  22
BRANCH   9  24
ATOM     24  O   UNL     1      -1.065   6.969   7.612  1.00  0.00    -0.508 OA
ATOM     25  H   UNL     1      -1.757   6.229   7.607  1.00  0.00     0.293 HD
ENDBRANCH   9  24
TORSDOF 5
ENDMDL
MODEL 6
REMARK VINA RESULT:    -5.213      1.856      6.522
REMARK INTER + INTRA:          -6.441
REMARK INTER:                  -6.126
REMARK INTRA:                  -0.315
REMARK UNBOUND:                -0.314
REMARK SMILES O=c1c(O)c(-c2ccc(O)c(O)c2)oc2cc(O)ccc12
REMARK SMILES IDX 5 1 3 2 2 3 1 4 21 5 15 6 14 7 16 8 17 9 19 10 20 11 6 12
REMARK SMILES IDX 7 13 8 14 9 15 13 16 11 17 10 18 12 20 4 22 18 24
REMARK H PARENT 10 19 12 21 4 23 18 25
REMARK Flexibility Score: inf
ROOT
ATOM      1  C   UNL     1       2.900   8.137  11.630  1.00  0.00     0.180 A 
ATOM      2  C   UNL     1       3.558   9.033  10.764  1.00  0.00     0.208 A 
ATOM      3  C   UNL     1       3.032   9.240   9.479  1.00  0.00     0.235 A 
ATOM      4  O   UNL     1       3.596  10.046   8.688  1.00  0.00    -0.285 OA
ATOM      5  C   UNL     1       1.881   8.542   9.082  1.00  0.00     0.069 A 
ATOM      6  C   UNL     1       1.295   7.644  10.001  1.00  0.00     0.142 A 
ATOM      7  O   UNL     1       1.819   7.482  11.211  1.00  0.00    -0.452 OA
ATOM      8  C   UNL     1       0.152   6.921   9.640  1.00  0.00     0.094 A 
ATOM      9  C   UNL     1      -0.415   7.085   8.370  1.00  0.00     0.119 A 
ATOM     10  C   UNL     1       0.164   7.974   7.459  1.00  0.00     0.047 A 
ATOM     11  C   UNL     1       1.306   8.701   7.809  1.00  0.00     0.020 A 
ENDROOT
BRANCH   1  12
ATOM     12  C   UNL     1       3.382   7.877  13.007  1.00  0.00     0.025 A 
ATOM     13  C   UNL     1       3.060   8.738  14.070  1.00  0.00     0.016 A 
ATOM     14  C   UNL     1       3.505   8.460  15.364  1.00  0.00     0.051 A 
ATOM     15  C   UNL     1       4.265   7.315  15.620  1.00  0.00     0.157 A 
ATOM     16  C   UNL     1       4.128   6.717  13.270  1.00  0.00     0.062 A 
ATOM     17  C   UNL     1       4.577   6.435  14.568  1.00  0.00     0.158 A 
BRANCH  15  18
ATOM     18  O   UNL     1       4.699   7.064  16.922  1.00  0.00    -0.504 OA
ATOM     19  H   UNL     1       5.361   6.328  17.136  1.00  0.00     0.293 HD
ENDBRANCH  15  18
BRANCH  17  20
ATOM     20  O   UNL     1       5.328   5.288  14.817  1.00  0.00    -0.504 OA
ATOM     21  H   UNL     1       6.291   5.341  15.129  1.00  0.00     0.293 HD
ENDBRANCH  17  20
ENDBRANCH   1  12
BRANCH   2  22
ATOM     22  O   UNL     1       4.730   9.677  11.167  1.00  0.00    -0.502 OA
ATOM     23  H   UNL     1       4.984   9.780  12.143  1.00  0.00     0.293 HD
ENDBRANCH   2  22
BRANCH   9  24
ATOM     24  O   UNL     1      -1.552   6.369   8.003  1.00  0.00    -0.508 OA
ATOM     25  H   UNL     1      -2.412   6.432   8.535  1.00  0.00     0.293 HD
ENDBRANCH   9  24
TORSDOF 5
ENDMDL
MODEL 7
REMARK VINA RESULT:    -5.140     16.641     18.868
REMARK INTER + INTRA:          -6.356
REMARK INTER:                  -6.040
REMARK INTRA:                  -0.316
REMARK UNBOUND:                -0.314
REMARK SMILES O=c1c(O)c(-c2ccc(O)c(O)c2)oc2cc(O)ccc12
REMARK SMILES IDX 5 1 3 2 2 3 1 4 21 5 15 6 14 7 16 8 17 9 19 10 20 11 6 12
REMARK SMILES IDX 7 13 8 14 9 15 13 16 11 17 10 18 12 20 4 22 18 24
REMARK H PARENT 10 19 12 21 4 23 18 25
REMARK Flexibility Score: inf
ROOT
ATOM      1  C   UNL     1      -7.687  -7.293   9.414  1.00  0.00     0.180 A 
ATOM      2  C   UNL     1      -8.467  -6.862   8.322  1.00  0.00     0.208 A 
ATOM      3  C   UNL     1      -9.695  -6.230   8.574  1.00  0.00     0.235 A 
ATOM      4  O   UNL     1     -10.406  -5.825   7.613  1.00  0.00    -0.285 OA
ATOM      5  C   UNL     1     -10.124  -6.059   9.899  1.00  0.00     0.069 A 
ATOM      6  C   UNL     1      -9.296  -6.539  10.937  1.00  0.00     0.142 A 
ATOM      7  O   UNL     1      -8.137  -7.126  10.656  1.00  0.00    -0.452 OA
ATOM      8  C   UNL     1      -9.693  -6.397  12.271  1.00  0.00     0.094 A 
ATOM      9  C   UNL     1     -10.910  -5.777  12.583  1.00  0.00     0.119 A 
ATOM     10  C   UNL     1     -11.731  -5.300  11.556  1.00  0.00     0.047 A 
ATOM     11  C   UNL     1     -11.344  -5.438  10.220  1.00  0.00     0.020 A 
ENDROOT
BRANCH   1  12
ATOM     12  C   UNL     1      -6.373  -7.952   9.232  1.00  0.00     0.025 A 
ATOM     13  C   UNL     1      -6.265  -9.349   9.126  1.00  0.00     0.016 A 
ATOM     14  C   UNL     1      -5.018  -9.948   8.930  1.00  0.00     0.051 A 
ATOM     15  C   UNL     1      -3.866  -9.164   8.822  1.00  0.00     0.157 A 
ATOM     16  C   UNL     1      -5.217  -7.166   9.103  1.00  0.00     0.062 A 
ATOM     17  C   UNL     1      -3.965  -7.764   8.905  1.00  0.00     0.158 A 
BRANCH  15  18
ATOM     18  O   UNL     1      -2.634  -9.790   8.629  1.00  0.00    -0.504 OA
ATOM     19  H   UNL     1      -1.806  -9.274   8.356  1.00  0.00     0.293 HD
ENDBRANCH  15  18
BRANCH  17  20
ATOM     20  O   UNL     1      -2.821  -6.976   8.792  1.00  0.00    -0.504 OA
ATOM     21  H   UNL     1      -1.897  -7.387   8.719  1.00  0.00     0.293 HD
ENDBRANCH  17  20
ENDBRANCH   1  12
BRANCH   2  22
ATOM     22  O   UNL     1      -8.038  -7.090   7.011  1.00  0.00    -0.502 OA
ATOM     23  H   UNL     1      -7.296  -6.550   6.582  1.00  0.00     0.293 HD
ENDBRANCH   2  22
BRANCH   9  24
ATOM     24  O   UNL     1     -11.312  -5.631  13.909  1.00  0.00    -0.508 OA
ATOM     25  H   UNL     1     -10.944  -6.225  14.642  1.00  0.00     0.293 HD
ENDBRANCH   9  24
TORSDOF 5
ENDMDL
MODEL 8
REMARK VINA RESULT:    -5.057     16.439     18.974
REMARK INTER + INTRA:          -6.259
REMARK INTER:                  -6.038
REMARK INTRA:                  -0.221
REMARK UNBOUND:                -0.314
REMARK SMILES O=c1c(O)c(-c2ccc(O)c(O)c2)oc2cc(O)ccc12
REMARK SMILES IDX 5 1 3 2 2 3 1 4 21 5 15 6 14 7 16 8 17 9 19 10 20 11 6 12
REMARK SMILES IDX 7 13 8 14 9 15 13 16 11 17 10 18 12 20 4 22 18 24
REMARK H PARENT 10 19 12 21 4 23 18 25
REMARK Flexibility Score: inf
ROOT
ATOM      1  C   UNL     1      -7.690  -7.069  10.131  1.00  0.00     0.180 A 
ATOM      2  C   UNL     1      -8.291  -6.727  11.359  1.00  0.00     0.208 A 
ATOM      3  C   UNL     1      -9.580  -6.173  11.351  1.00  0.00     0.235 A 
ATOM      4  O   UNL     1     -10.145  -5.869  12.438  1.00  0.00    -0.285 OA
ATOM      5  C   UNL     1     -10.230  -5.956  10.126  1.00  0.00     0.069 A 
ATOM      6  C   UNL     1      -9.551  -6.303   8.938  1.00  0.00     0.142 A 
ATOM      7  O   UNL     1      -8.333  -6.832   8.990  1.00  0.00    -0.452 OA
ATOM      8  C   UNL     1     -10.161  -6.092   7.696  1.00  0.00     0.094 A 
ATOM      9  C   UNL     1     -11.446  -5.539   7.626  1.00  0.00     0.119 A 
ATOM     10  C   UNL     1     -12.121  -5.195   8.802  1.00  0.00     0.047 A 
ATOM     11  C   UNL     1     -11.520  -5.401  10.047  1.00  0.00     0.020 A 
ENDROOT
BRANCH   1  12
ATOM     12  C   UNL     1      -6.339  -7.673  10.057  1.00  0.00     0.025 A 
ATOM     13  C   UNL     1      -6.095  -8.976  10.524  1.00  0.00     0.016 A 
ATOM     14  C   UNL     1      -4.818  -9.535  10.422  1.00  0.00     0.051 A 
ATOM     15  C   UNL     1      -3.773  -8.810   9.842  1.00  0.00     0.157 A 
ATOM     16  C   UNL     1      -5.292  -6.955   9.457  1.00  0.00     0.062 A 
ATOM     17  C   UNL     1      -4.010  -7.514   9.353  1.00  0.00     0.158 A 
BRANCH  15  18
ATOM     18  O   UNL     1      -2.509  -9.393   9.757  1.00  0.00    -0.504 OA
ATOM     19  H   UNL     1      -2.103  -9.913  10.526  1.00  0.00     0.293 HD
ENDBRANCH  15  18
BRANCH  17  20
ATOM     20  O   UNL     1      -2.975  -6.788   8.768  1.00  0.00    -0.504 OA
ATOM     21  H   UNL     1      -3.148  -5.920   8.273  1.00  0.00     0.293 HD
ENDBRANCH  17  20
ENDBRANCH   1  12
BRANCH   2  22
ATOM     22  O   UNL     1      -7.600  -6.909  12.561  1.00  0.00    -0.502 OA
ATOM     23  H   UNL     1      -6.814  -7.543  12.643  1.00  0.00     0.293 HD
ENDBRANCH   2  22
BRANCH   9  24
ATOM     24  O   UNL     1     -12.060  -5.326   6.394  1.00  0.00    -0.508 OA
ATOM     25  H   UNL     1     -12.642  -4.514   6.225  1.00  0.00     0.293 HD
ENDBRANCH   9  24
TORSDOF 5
ENDMDL
MODEL 9
REMARK VINA RESULT:    -3.453     17.151     18.010
REMARK INTER + INTRA:          -4.373
REMARK INTER:                  -4.073
REMARK INTRA:                  -0.300
REMARK UNBOUND:                -0.314
REMARK SMILES O=c1c(O)c(-c2ccc(O)c(O)c2)oc2cc(O)ccc12
REMARK SMILES IDX 5 1 3 2 2 3 1 4 21 5 15 6 14 7 16 8 17 9 19 10 20 11 6 12
REMARK SMILES IDX 7 13 8 14 9 15 13 16 11 17 10 18 12 20 4 22 18 24
REMARK H PARENT 10 19 12 21 4 23 18 25
REMARK Flexibility Score: inf
ROOT
ATOM      1  C   UNL     1      -6.633  -7.995  11.353  1.00  0.00     0.180 A 
ATOM      2  C   UNL     1      -6.752  -8.034  12.757  1.00  0.00     0.208 A 
ATOM      3  C   UNL     1      -5.659  -8.479  13.517  1.00  0.00     0.235 A 
ATOM      4  O   UNL     1      -5.737  -8.512  14.777  1.00  0.00    -0.285 OA
ATOM      5  C   UNL     1      -4.486  -8.891  12.865  1.00  0.00     0.069 A 
ATOM      6  C   UNL     1      -4.455  -8.845  11.455  1.00  0.00     0.142 A 
ATOM      7  O   UNL     1      -5.509  -8.410  10.772  1.00  0.00    -0.452 OA
ATOM      8  C   UNL     1      -3.308  -9.257  10.767  1.00  0.00     0.094 A 
ATOM      9  C   UNL     1      -2.188  -9.714  11.473  1.00  0.00     0.119 A 
ATOM     10  C   UNL     1      -2.217  -9.759  12.870  1.00  0.00     0.047 A 
ATOM     11  C   UNL     1      -3.358  -9.351  13.567  1.00  0.00     0.020 A 
ENDROOT
BRANCH   1  12
ATOM     12  C   UNL     1      -7.734  -7.523  10.483  1.00  0.00     0.025 A 
ATOM     13  C   UNL     1      -8.795  -8.370  10.121  1.00  0.00     0.016 A 
ATOM     14  C   UNL     1      -9.836  -7.896   9.319  1.00  0.00     0.051 A 
ATOM     15  C   UNL     1      -9.841  -6.569   8.879  1.00  0.00     0.157 A 
ATOM     16  C   UNL     1      -7.752  -6.185  10.056  1.00  0.00     0.062 A 
ATOM     17  C   UNL     1      -8.796  -5.707   9.251  1.00  0.00     0.158 A 
BRANCH  15  18
ATOM     18  O   UNL     1     -10.892  -6.124   8.077  1.00  0.00    -0.504 OA
ATOM     19  H   UNL     1     -11.840  -6.462   8.195  1.00  0.00     0.293 HD
ENDBRANCH  15  18
BRANCH  17  20
ATOM     20  O   UNL     1      -8.798  -4.381   8.821  1.00  0.00    -0.504 OA
ATOM     21  H   UNL     1      -9.501  -3.722   9.136  1.00  0.00     0.293 HD
ENDBRANCH  17  20
ENDBRANCH   1  12
BRANCH   2  22
ATOM     22  O   UNL     1      -7.949  -7.665  13.377  1.00  0.00    -0.502 OA
ATOM     23  H   UNL     1      -8.728  -8.305  13.476  1.00  0.00     0.293 HD
ENDBRANCH   2  22
BRANCH   9  24
ATOM     24  O   UNL     1      -1.042 -10.125  10.795  1.00  0.00    -0.508 OA
ATOM     25  H   UNL     1      -0.607 -11.020  10.986  1.00  0.00     0.293 HD
ENDBRANCH   9  24
TORSDOF 5
ENDMDL
