MODEL 1
REMARK VINA RESULT:    -7.213      0.000      0.000
REMARK INTER + INTRA:         -10.621
REMARK INTER:                  -9.111
REMARK INTRA:                  -1.511
REMARK UNBOUND:                -1.511
REMARK SMILES CC(C)[C@H](C)C=C[C@H](C)[C@H]1CC[C@H]2C3=CC=C4C[C@@H](O)CC[C@]4(C)[C@H]3CC[C@@]12C
REMARK SMILES IDX 8 1 9 2 7 3 6 4 4 5 5 6 2 7 1 8 3 9 10 10 11 11 28 12 12 13
REMARK SMILES IDX 13 14 27 15 29 16 14 17 26 18 25 19 15 20 23 21 16 22 17 23
REMARK SMILES IDX 22 24 24 25 18 26 21 27 19 28 20 29
REMARK H PARENT 20 30
REMARK Flexibility Score: inf
ROOT
ATOM      1  C   UNL     1     188.969 194.173 190.519  1.00  0.00     0.012 C 
ATOM      2  C   UNL     1     190.156 193.359 191.070  1.00  0.00     0.012 C 
ENDROOT
BRANCH   1   3
ATOM      3  C   UNL     1     189.329 195.633 190.287  1.00  0.00    -0.028 C 
ATOM      4  C   UNL     1     189.214 196.681 191.136  1.00  0.00    -0.028 C 
BRANCH   4   5
ATOM      5  C   UNL     1     188.633 196.682 192.540  1.00  0.00     0.011 C 
ATOM      6  C   UNL     1     189.201 197.867 193.335  1.00  0.00     0.012 C 
BRANCH   5   7
ATOM      7  C   UNL     1     187.072 196.705 192.535  1.00  0.00    -0.011 C 
ATOM      8  C   UNL     1     186.459 197.239 191.227  1.00  0.00     0.008 C 
ATOM      9  C   UNL     1     186.483 195.326 192.860  1.00  0.00     0.008 C 
ENDBRANCH   5   7
ENDBRANCH   4   5
ENDBRANCH   1   3
BRANCH   1  10
ATOM     10  C   UNL     1     188.266 193.513 189.286  1.00  0.00     0.002 C 
ATOM     11  C   UNL     1     189.075 192.340 188.718  1.00  0.00     0.005 C 
ATOM     12  C   UNL     1     186.830 192.929 189.506  1.00  0.00    -0.023 C 
ATOM     13  C   UNL     1     188.083 191.404 188.040  1.00  0.00     0.009 C 
ATOM     14  C   UNL     1     186.679 191.957 188.318  1.00  0.00     0.021 C 
ATOM     15  C   UNL     1     186.711 192.139 190.836  1.00  0.00     0.008 C 
ATOM     16  C   UNL     1     185.747 194.034 189.425  1.00  0.00     0.012 C 
ATOM     17  C   UNL     1     185.669 190.835 188.507  1.00  0.00    -0.063 C 
ATOM     18  C   UNL     1     185.350 191.463 191.011  1.00  0.00     0.009 C 
ATOM     19  C   UNL     1     184.868 190.624 189.790  1.00  0.00     0.025 C 
ATOM     20  C   UNL     1     185.426 190.022 187.467  1.00  0.00    -0.000 C 
ATOM     21  C   UNL     1     184.666 189.089 190.091  1.00  0.00    -0.005 C 
ATOM     22  C   UNL     1     184.574 188.833 187.606  1.00  0.00    -0.000 C 
ATOM     23  C   UNL     1     184.174 188.393 188.811  1.00  0.00    -0.061 C 
ATOM     24  C   UNL     1     183.600 188.915 191.224  1.00  0.00     0.014 C 
ATOM     25  C   UNL     1     186.006 188.437 190.512  1.00  0.00     0.017 C 
ATOM     26  C   UNL     1     183.470 187.057 188.893  1.00  0.00     0.063 C 
ATOM     27  C   UNL     1     183.043 187.490 191.341  1.00  0.00     0.033 C 
ATOM     28  C   UNL     1     182.422 187.046 190.011  1.00  0.00     0.118 C 
BRANCH  28  29
ATOM     29  O   UNL     1     181.840 185.773 190.135  1.00  0.00    -0.393 OA
ATOM     30  H   UNL     1     181.061 185.855 190.746  1.00  0.00     0.210 HD
ENDBRANCH  28  29
ENDBRANCH   1  10
TORSDOF 5
ENDMDL
MODEL 2
REMARK VINA RESULT:    -7.151      4.365      7.806
REMARK INTER + INTRA:         -10.542
REMARK INTER:                  -9.134
REMARK INTRA:                  -1.408
REMARK UNBOUND:                -1.511
REMARK SMILES CC(C)[C@H](C)C=C[C@H](C)[C@H]1CC[C@H]2C3=CC=C4C[C@@H](O)CC[C@]4(C)[C@H]3CC[C@@]12C
REMARK SMILES IDX 8 1 9 2 7 3 6 4 4 5 5 6 2 7 1 8 3 9 10 10 11 11 28 12 12 13
REMARK SMILES IDX 13 14 27 15 29 16 14 17 26 18 25 19 15 20 23 21 16 22 17 23
REMARK SMILES IDX 22 24 24 25 18 26 21 27 19 28 20 29
REMARK H PARENT 20 30
REMARK Flexibility Score: inf
ROOT
ATOM      1  C   UNL     1     184.832 190.037 190.489  1.00  0.00     0.012 C 
ATOM      2  C   UNL     1     185.465 191.055 191.459  1.00  0.00     0.012 C 
ENDROOT
BRANCH   1   3
ATOM      3  C   UNL     1     183.465 189.564 190.960  1.00  0.00    -0.028 C 
ATOM      4  C   UNL     1     183.059 188.310 191.262  1.00  0.00    -0.028 C 
BRANCH   4   5
ATOM      5  C   UNL     1     183.857 187.020 191.151  1.00  0.00     0.011 C 
ATOM      6  C   UNL     1     183.466 186.279 189.863  1.00  0.00     0.012 C 
BRANCH   5   7
ATOM      7  C   UNL     1     185.396 187.269 191.212  1.00  0.00    -0.011 C 
ATOM      8  C   UNL     1     185.965 187.319 192.642  1.00  0.00     0.008 C 
ATOM      9  C   UNL     1     186.171 186.239 190.378  1.00  0.00     0.008 C 
ENDBRANCH   5   7
ENDBRANCH   4   5
ENDBRANCH   1   3
BRANCH   1  10
ATOM     10  C   UNL     1     184.839 190.499 188.993  1.00  0.00     0.002 C 
ATOM     11  C   UNL     1     185.379 191.926 188.831  1.00  0.00     0.005 C 
ATOM     12  C   UNL     1     185.676 189.645 187.981  1.00  0.00    -0.023 C 
ATOM     13  C   UNL     1     185.956 192.023 187.425  1.00  0.00     0.009 C 
ATOM     14  C   UNL     1     185.875 190.622 186.805  1.00  0.00     0.021 C 
ATOM     15  C   UNL     1     187.060 189.240 188.555  1.00  0.00     0.008 C 
ATOM     16  C   UNL     1     184.892 188.396 187.506  1.00  0.00     0.012 C 
ATOM     17  C   UNL     1     187.072 190.341 185.909  1.00  0.00    -0.063 C 
ATOM     18  C   UNL     1     187.936 188.507 187.538  1.00  0.00     0.009 C 
ATOM     19  C   UNL     1     188.061 189.203 186.150  1.00  0.00     0.025 C 
ATOM     20  C   UNL     1     187.233 191.100 184.814  1.00  0.00    -0.000 C 
ATOM     21  C   UNL     1     189.530 189.632 185.765  1.00  0.00    -0.005 C 
ATOM     22  C   UNL     1     188.434 190.989 183.974  1.00  0.00    -0.000 C 
ATOM     23  C   UNL     1     189.506 190.285 184.373  1.00  0.00    -0.061 C 
ATOM     24  C   UNL     1     190.452 188.368 185.734  1.00  0.00     0.014 C 
ATOM     25  C   UNL     1     190.077 190.669 186.776  1.00  0.00     0.017 C 
ATOM     26  C   UNL     1     190.774 190.378 183.554  1.00  0.00     0.063 C 
ATOM     27  C   UNL     1     191.788 188.589 185.014  1.00  0.00     0.033 C 
ATOM     28  C   UNL     1     191.550 189.057 183.573  1.00  0.00     0.118 C 
BRANCH  28  29
ATOM     29  O   UNL     1     192.768 189.185 182.884  1.00  0.00    -0.393 OA
ATOM     30  H   UNL     1     192.560 189.451 181.950  1.00  0.00     0.210 HD
ENDBRANCH  28  29
ENDBRANCH   1  10
TORSDOF 5
ENDMDL
MODEL 3
REMARK VINA RESULT:    -6.792      2.018      3.956
REMARK INTER + INTRA:         -10.089
REMARK INTER:                  -8.484
REMARK INTRA:                  -1.605
REMARK UNBOUND:                -1.511
REMARK SMILES CC(C)[C@H](C)C=C[C@H](C)[C@H]1CC[C@H]2C3=CC=C4C[C@@H](O)CC[C@]4(C)[C@H]3CC[C@@]12C
REMARK SMILES IDX 8 1 9 2 7 3 6 4 4 5 5 6 2 7 1 8 3 9 10 10 11 11 28 12 12 13
REMARK SMILES IDX 13 14 27 15 29 16 14 17 26 18 25 19 15 20 23 21 16 22 17 23
REMARK SMILES IDX 22 24 24 25 18 26 21 27 19 28 20 29
REMARK H PARENT 20 30
REMARK Flexibility Score: inf
ROOT
ATOM      1  C   UNL     1     189.669 197.905 192.125  1.00  0.00     0.012 C 
ATOM      2  C   UNL     1     191.134 197.442 192.007  1.00  0.00     0.012 C 
ENDROOT
BRANCH   1   3
ATOM      3  C   UNL     1     189.557 199.384 192.466  1.00  0.00    -0.028 C 
ATOM      4  C   UNL     1     189.397 199.966 193.676  1.00  0.00    -0.028 C 
BRANCH   4   5
ATOM      5  C   UNL     1     189.225 199.282 195.023  1.00  0.00     0.011 C 
ATOM      6  C   UNL     1     189.902 200.119 196.119  1.00  0.00     0.012 C 
BRANCH   5   7
ATOM      7  C   UNL     1     187.726 199.015 195.366  1.00  0.00    -0.011 C 
ATOM      8  C   UNL     1     186.739 199.888 194.570  1.00  0.00     0.008 C 
ATOM      9  C   UNL     1     187.361 197.533 195.199  1.00  0.00     0.008 C 
ENDBRANCH   5   7
ENDBRANCH   4   5
ENDBRANCH   1   3
BRANCH   1  10
ATOM     10  C   UNL     1     188.772 197.487 190.912  1.00  0.00     0.002 C 
ATOM     11  C   UNL     1     189.571 196.752 189.828  1.00  0.00     0.005 C 
ATOM     12  C   UNL     1     187.556 196.545 191.209  1.00  0.00    -0.023 C 
ATOM     13  C   UNL     1     188.592 195.849 189.091  1.00  0.00     0.009 C 
ATOM     14  C   UNL     1     187.245 195.953 189.820  1.00  0.00     0.021 C 
ATOM     15  C   UNL     1     187.923 195.398 192.187  1.00  0.00     0.008 C 
ATOM     16  C   UNL     1     186.334 197.341 191.731  1.00  0.00     0.012 C 
ATOM     17  C   UNL     1     186.509 194.622 189.819  1.00  0.00    -0.063 C 
ATOM     18  C   UNL     1     186.781 194.403 192.396  1.00  0.00     0.009 C 
ATOM     19  C   UNL     1     186.125 193.866 191.089  1.00  0.00     0.025 C 
ATOM     20  C   UNL     1     186.126 194.112 188.638  1.00  0.00    -0.000 C 
ATOM     21  C   UNL     1     186.252 192.306 190.886  1.00  0.00    -0.005 C 
ATOM     22  C   UNL     1     185.538 192.769 188.536  1.00  0.00    -0.000 C 
ATOM     23  C   UNL     1     185.550 191.918 189.575  1.00  0.00    -0.061 C 
ATOM     24  C   UNL     1     185.570 191.567 192.085  1.00  0.00     0.014 C 
ATOM     25  C   UNL     1     187.740 191.892 190.779  1.00  0.00     0.017 C 
ATOM     26  C   UNL     1     185.109 190.491 189.341  1.00  0.00     0.063 C 
ATOM     27  C   UNL     1     185.293 190.081 191.823  1.00  0.00     0.033 C 
ATOM     28  C   UNL     1     184.415 189.910 190.578  1.00  0.00     0.118 C 
BRANCH  28  29
ATOM     29  O   UNL     1     184.092 188.557 190.379  1.00  0.00    -0.393 OA
ATOM     30  H   UNL     1     183.105 188.467 190.460  1.00  0.00     0.210 HD
ENDBRANCH  28  29
ENDBRANCH   1  10
TORSDOF 5
ENDMDL
MODEL 4
REMARK VINA RESULT:    -6.757      4.251      8.195
REMARK INTER + INTRA:         -10.045
REMARK INTER:                  -8.747
REMARK INTRA:                  -1.298
REMARK UNBOUND:                -1.511
REMARK SMILES CC(C)[C@H](C)C=C[C@H](C)[C@H]1CC[C@H]2C3=CC=C4C[C@@H](O)CC[C@]4(C)[C@H]3CC[C@@]12C
REMARK SMILES IDX 8 1 9 2 7 3 6 4 4 5 5 6 2 7 1 8 3 9 10 10 11 11 28 12 12 13
REMARK SMILES IDX 13 14 27 15 29 16 14 17 26 18 25 19 15 20 23 21 16 22 17 23
REMARK SMILES IDX 22 24 24 25 18 26 21 27 19 28 20 29
REMARK H PARENT 20 30
REMARK Flexibility Score: inf
ROOT
ATOM      1  C   UNL     1     185.195 190.213 190.727  1.00  0.00     0.012 C 
ATOM      2  C   UNL     1     185.516 191.566 191.392  1.00  0.00     0.012 C 
ENDROOT
BRANCH   1   3
ATOM      3  C   UNL     1     183.845 189.662 191.162  1.00  0.00    -0.028 C 
ATOM      4  C   UNL     1     183.392 188.389 191.109  1.00  0.00    -0.028 C 
BRANCH   4   5
ATOM      5  C   UNL     1     184.100 187.171 190.539  1.00  0.00     0.011 C 
ATOM      6  C   UNL     1     184.627 186.294 191.685  1.00  0.00     0.012 C 
BRANCH   5   7
ATOM      7  C   UNL     1     183.184 186.349 189.578  1.00  0.00    -0.011 C 
ATOM      8  C   UNL     1     181.739 186.183 190.083  1.00  0.00     0.008 C 
ATOM      9  C   UNL     1     183.176 186.937 188.161  1.00  0.00     0.008 C 
ENDBRANCH   5   7
ENDBRANCH   4   5
ENDBRANCH   1   3
BRANCH   1  10
ATOM     10  C   UNL     1     185.386 190.209 189.174  1.00  0.00     0.002 C 
ATOM     11  C   UNL     1     185.279 191.617 188.574  1.00  0.00     0.005 C 
ATOM     12  C   UNL     1     186.738 189.648 188.617  1.00  0.00    -0.023 C 
ATOM     13  C   UNL     1     186.098 191.615 187.290  1.00  0.00     0.009 C 
ATOM     14  C   UNL     1     186.792 190.249 187.199  1.00  0.00     0.021 C 
ATOM     15  C   UNL     1     187.962 190.142 189.433  1.00  0.00     0.008 C 
ATOM     16  C   UNL     1     186.722 188.100 188.535  1.00  0.00     0.012 C 
ATOM     17  C   UNL     1     188.177 190.371 186.584  1.00  0.00    -0.063 C 
ATOM     18  C   UNL     1     189.298 189.698 188.834  1.00  0.00     0.009 C 
ATOM     19  C   UNL     1     189.462 189.976 187.309  1.00  0.00     0.025 C 
ATOM     20  C   UNL     1     188.271 190.794 185.315  1.00  0.00    -0.000 C 
ATOM     21  C   UNL     1     190.646 190.954 186.947  1.00  0.00    -0.005 C 
ATOM     22  C   UNL     1     189.573 191.074 184.693  1.00  0.00    -0.000 C 
ATOM     23  C   UNL     1     190.702 191.121 185.420  1.00  0.00    -0.061 C 
ATOM     24  C   UNL     1     191.997 190.350 187.457  1.00  0.00     0.014 C 
ATOM     25  C   UNL     1     190.412 192.348 187.578  1.00  0.00     0.017 C 
ATOM     26  C   UNL     1     191.968 191.608 184.753  1.00  0.00     0.063 C 
ATOM     27  C   UNL     1     193.242 191.003 186.844  1.00  0.00     0.033 C 
ATOM     28  C   UNL     1     193.205 190.898 185.315  1.00  0.00     0.118 C 
BRANCH  28  29
ATOM     29  O   UNL     1     194.380 191.423 184.751  1.00  0.00    -0.393 OA
ATOM     30  H   UNL     1     194.501 191.003 183.859  1.00  0.00     0.210 HD
ENDBRANCH  28  29
ENDBRANCH   1  10
TORSDOF 5
ENDMDL
MODEL 5
REMARK VINA RESULT:    -6.645      4.107      9.135
REMARK INTER + INTRA:          -9.904
REMARK INTER:                  -9.377
REMARK INTRA:                  -0.527
REMARK UNBOUND:                -1.511
REMARK SMILES CC(C)[C@H](C)C=C[C@H](C)[C@H]1CC[C@H]2C3=CC=C4C[C@@H](O)CC[C@]4(C)[C@H]3CC[C@@]12C
REMARK SMILES IDX 8 1 9 2 7 3 6 4 4 5 5 6 2 7 1 8 3 9 10 10 11 11 28 12 12 13
REMARK SMILES IDX 13 14 27 15 29 16 14 17 26 18 25 19 15 20 23 21 16 22 17 23
REMARK SMILES IDX 22 24 24 25 18 26 21 27 19 28 20 29
REMARK H PARENT 20 30
REMARK Flexibility Score: inf
ROOT
ATOM      1  C   UNL     1     185.498 185.636 191.562  1.00  0.00     0.012 C 
ATOM      2  C   UNL     1     185.485 186.208 192.993  1.00  0.00     0.012 C 
ENDROOT
BRANCH   1   3
ATOM      3  C   UNL     1     184.867 184.253 191.488  1.00  0.00    -0.028 C 
ATOM      4  C   UNL     1     185.357 183.072 191.929  1.00  0.00    -0.028 C 
BRANCH   4   5
ATOM      5  C   UNL     1     186.711 182.806 192.568  1.00  0.00     0.011 C 
ATOM      6  C   UNL     1     186.603 182.963 194.093  1.00  0.00     0.012 C 
BRANCH   5   7
ATOM      7  C   UNL     1     187.280 181.403 192.187  1.00  0.00    -0.011 C 
ATOM      8  C   UNL     1     186.614 180.234 192.935  1.00  0.00     0.008 C 
ATOM      9  C   UNL     1     187.216 181.157 190.673  1.00  0.00     0.008 C 
ENDBRANCH   5   7
ENDBRANCH   4   5
ENDBRANCH   1   3
BRANCH   1  10
ATOM     10  C   UNL     1     184.942 186.621 190.481  1.00  0.00     0.002 C 
ATOM     11  C   UNL     1     183.710 187.390 190.977  1.00  0.00     0.005 C 
ATOM     12  C   UNL     1     185.912 187.733 189.955  1.00  0.00    -0.023 C 
ATOM     13  C   UNL     1     183.667 188.703 190.207  1.00  0.00     0.009 C 
ATOM     14  C   UNL     1     184.940 188.767 189.352  1.00  0.00     0.021 C 
ATOM     15  C   UNL     1     186.724 188.396 191.099  1.00  0.00     0.008 C 
ATOM     16  C   UNL     1     186.857 187.190 188.854  1.00  0.00     0.012 C 
ATOM     17  C   UNL     1     185.468 190.190 189.251  1.00  0.00    -0.063 C 
ATOM     18  C   UNL     1     187.589 189.562 190.619  1.00  0.00     0.009 C 
ATOM     19  C   UNL     1     186.849 190.617 189.743  1.00  0.00     0.025 C 
ATOM     20  C   UNL     1     184.701 191.107 188.642  1.00  0.00    -0.000 C 
ATOM     21  C   UNL     1     186.812 192.068 190.360  1.00  0.00    -0.005 C 
ATOM     22  C   UNL     1     185.072 192.529 188.626  1.00  0.00    -0.000 C 
ATOM     23  C   UNL     1     186.073 193.002 189.387  1.00  0.00    -0.061 C 
ATOM     24  C   UNL     1     188.274 192.584 190.570  1.00  0.00     0.014 C 
ATOM     25  C   UNL     1     186.046 192.067 191.706  1.00  0.00     0.017 C 
ATOM     26  C   UNL     1     186.268 194.499 189.471  1.00  0.00     0.063 C 
ATOM     27  C   UNL     1     188.374 194.097 190.800  1.00  0.00     0.033 C 
ATOM     28  C   UNL     1     187.749 194.861 189.626  1.00  0.00     0.118 C 
BRANCH  28  29
ATOM     29  O   UNL     1     187.908 196.247 189.793  1.00  0.00    -0.393 OA
ATOM     30  H   UNL     1     188.650 196.540 189.200  1.00  0.00     0.210 HD
ENDBRANCH  28  29
ENDBRANCH   1  10
TORSDOF 5
ENDMDL
MODEL 6
REMARK VINA RESULT:    -6.645      2.729      5.087
REMARK INTER + INTRA:          -9.903
REMARK INTER:                  -8.634
REMARK INTRA:                  -1.269
REMARK UNBOUND:                -1.511
REMARK SMILES CC(C)[C@H](C)C=C[C@H](C)[C@H]1CC[C@H]2C3=CC=C4C[C@@H](O)CC[C@]4(C)[C@H]3CC[C@@]12C
REMARK SMILES IDX 8 1 9 2 7 3 6 4 4 5 5 6 2 7 1 8 3 9 10 10 11 11 28 12 12 13
REMARK SMILES IDX 13 14 27 15 29 16 14 17 26 18 25 19 15 20 23 21 16 22 17 23
REMARK SMILES IDX 22 24 24 25 18 26 21 27 19 28 20 29
REMARK H PARENT 20 30
REMARK Flexibility Score: inf
ROOT
ATOM      1  C   UNL     1     186.883 197.797 193.289  1.00  0.00     0.012 C 
ATOM      2  C   UNL     1     186.612 197.296 194.721  1.00  0.00     0.012 C 
ENDROOT
BRANCH   1   3
ATOM      3  C   UNL     1     187.077 199.305 193.232  1.00  0.00    -0.028 C 
ATOM      4  C   UNL     1     188.182 200.030 193.524  1.00  0.00    -0.028 C 
BRANCH   4   5
ATOM      5  C   UNL     1     189.516 199.524 194.048  1.00  0.00     0.011 C 
ATOM      6  C   UNL     1     190.621 199.821 193.023  1.00  0.00     0.012 C 
BRANCH   5   7
ATOM      7  C   UNL     1     189.870 200.124 195.446  1.00  0.00    -0.011 C 
ATOM      8  C   UNL     1     188.841 199.797 196.544  1.00  0.00     0.008 C 
ATOM      9  C   UNL     1     191.273 199.705 195.905  1.00  0.00     0.008 C 
ENDBRANCH   5   7
ENDBRANCH   4   5
ENDBRANCH   1   3
BRANCH   1  10
ATOM     10  C   UNL     1     188.010 197.007 192.544  1.00  0.00     0.002 C 
ATOM     11  C   UNL     1     188.491 195.790 193.345  1.00  0.00     0.005 C 
ATOM     12  C   UNL     1     187.669 196.433 191.127  1.00  0.00    -0.023 C 
ATOM     13  C   UNL     1     189.026 194.780 192.339  1.00  0.00     0.009 C 
ATOM     14  C   UNL     1     188.743 195.343 190.940  1.00  0.00     0.021 C 
ATOM     15  C   UNL     1     186.261 195.782 191.077  1.00  0.00     0.008 C 
ATOM     16  C   UNL     1     187.814 197.513 190.025  1.00  0.00     0.012 C 
ATOM     17  C   UNL     1     188.398 194.236 189.956  1.00  0.00    -0.063 C 
ATOM     18  C   UNL     1     185.959 195.114 189.736  1.00  0.00     0.009 C 
ATOM     19  C   UNL     1     187.065 194.149 189.214  1.00  0.00     0.025 C 
ATOM     20  C   UNL     1     189.337 193.318 189.681  1.00  0.00    -0.000 C 
ATOM     21  C   UNL     1     186.601 192.651 189.048  1.00  0.00    -0.005 C 
ATOM     22  C   UNL     1     189.040 192.140 188.854  1.00  0.00    -0.000 C 
ATOM     23  C   UNL     1     187.780 191.822 188.513  1.00  0.00    -0.061 C 
ATOM     24  C   UNL     1     185.410 192.582 188.035  1.00  0.00     0.014 C 
ATOM     25  C   UNL     1     186.175 192.059 190.414  1.00  0.00     0.017 C 
ATOM     26  C   UNL     1     187.532 190.495 187.833  1.00  0.00     0.063 C 
ATOM     27  C   UNL     1     185.125 191.172 187.505  1.00  0.00     0.033 C 
ATOM     28  C   UNL     1     186.373 190.587 186.834  1.00  0.00     0.118 C 
BRANCH  28  29
ATOM     29  O   UNL     1     186.095 189.327 186.277  1.00  0.00    -0.393 OA
ATOM     30  H   UNL     1     186.404 189.340 185.332  1.00  0.00     0.210 HD
ENDBRANCH  28  29
ENDBRANCH   1  10
TORSDOF 5
ENDMDL
MODEL 7
REMARK VINA RESULT:    -6.598      2.979      8.137
REMARK INTER + INTRA:          -9.844
REMARK INTER:                  -8.335
REMARK INTRA:                  -1.508
REMARK UNBOUND:                -1.511
REMARK SMILES CC(C)[C@H](C)C=C[C@H](C)[C@H]1CC[C@H]2C3=CC=C4C[C@@H](O)CC[C@]4(C)[C@H]3CC[C@@]12C
REMARK SMILES IDX 8 1 9 2 7 3 6 4 4 5 5 6 2 7 1 8 3 9 10 10 11 11 28 12 12 13
REMARK SMILES IDX 13 14 27 15 29 16 14 17 26 18 25 19 15 20 23 21 16 22 17 23
REMARK SMILES IDX 22 24 24 25 18 26 21 27 19 28 20 29
REMARK H PARENT 20 30
REMARK Flexibility Score: inf
ROOT
ATOM      1  C   UNL     1     185.106 189.186 188.216  1.00  0.00     0.012 C 
ATOM      2  C   UNL     1     184.275 189.734 187.039  1.00  0.00     0.012 C 
ENDROOT
BRANCH   1   3
ATOM      3  C   UNL     1     185.068 187.667 188.292  1.00  0.00    -0.028 C 
ATOM      4  C   UNL     1     184.201 186.874 188.962  1.00  0.00    -0.028 C 
BRANCH   4   5
ATOM      5  C   UNL     1     183.061 187.300 189.873  1.00  0.00     0.011 C 
ATOM      6  C   UNL     1     181.989 186.199 189.911  1.00  0.00     0.012 C 
BRANCH   5   7
ATOM      7  C   UNL     1     183.553 187.655 191.311  1.00  0.00    -0.011 C 
ATOM      8  C   UNL     1     184.823 186.898 191.742  1.00  0.00     0.008 C 
ATOM      9  C   UNL     1     183.763 189.165 191.483  1.00  0.00     0.008 C 
ENDBRANCH   5   7
ENDBRANCH   4   5
ENDBRANCH   1   3
BRANCH   1  10
ATOM     10  C   UNL     1     186.558 189.766 188.289  1.00  0.00     0.002 C 
ATOM     11  C   UNL     1     186.899 190.631 187.069  1.00  0.00     0.005 C 
ATOM     12  C   UNL     1     186.910 190.669 189.520  1.00  0.00    -0.023 C 
ATOM     13  C   UNL     1     187.959 191.629 187.514  1.00  0.00     0.009 C 
ATOM     14  C   UNL     1     188.151 191.440 189.025  1.00  0.00     0.021 C 
ATOM     15  C   UNL     1     185.778 191.676 189.856  1.00  0.00     0.008 C 
ATOM     16  C   UNL     1     187.276 189.820 190.763  1.00  0.00     0.012 C 
ATOM     17  C   UNL     1     188.425 192.765 189.720  1.00  0.00    -0.063 C 
ATOM     18  C   UNL     1     186.153 192.643 190.980  1.00  0.00     0.009 C 
ATOM     19  C   UNL     1     187.531 193.350 190.810  1.00  0.00     0.025 C 
ATOM     20  C   UNL     1     189.547 193.427 189.398  1.00  0.00    -0.000 C 
ATOM     21  C   UNL     1     187.449 194.922 190.699  1.00  0.00    -0.005 C 
ATOM     22  C   UNL     1     189.818 194.776 189.915  1.00  0.00    -0.000 C 
ATOM     23  C   UNL     1     188.873 195.484 190.556  1.00  0.00    -0.061 C 
ATOM     24  C   UNL     1     186.785 195.503 191.992  1.00  0.00     0.014 C 
ATOM     25  C   UNL     1     186.637 195.337 189.448  1.00  0.00     0.017 C 
ATOM     26  C   UNL     1     189.157 196.932 190.883  1.00  0.00     0.063 C 
ATOM     27  C   UNL     1     186.991 197.012 192.173  1.00  0.00     0.033 C 
ATOM     28  C   UNL     1     188.486 197.350 192.196  1.00  0.00     0.118 C 
BRANCH  28  29
ATOM     29  O   UNL     1     188.683 198.720 192.441  1.00  0.00    -0.393 OA
ATOM     30  H   UNL     1     188.654 199.191 191.566  1.00  0.00     0.210 HD
ENDBRANCH  28  29
ENDBRANCH   1  10
TORSDOF 5
ENDMDL
MODEL 8
REMARK VINA RESULT:    -6.590      2.886      4.743
REMARK INTER + INTRA:          -9.835
REMARK INTER:                  -8.337
REMARK INTRA:                  -1.498
REMARK UNBOUND:                -1.511
REMARK SMILES CC(C)[C@H](C)C=C[C@H](C)[C@H]1CC[C@H]2C3=CC=C4C[C@@H](O)CC[C@]4(C)[C@H]3CC[C@@]12C
REMARK SMILES IDX 8 1 9 2 7 3 6 4 4 5 5 6 2 7 1 8 3 9 10 10 11 11 28 12 12 13
REMARK SMILES IDX 13 14 27 15 29 16 14 17 26 18 25 19 15 20 23 21 16 22 17 23
REMARK SMILES IDX 22 24 24 25 18 26 21 27 19 28 20 29
REMARK H PARENT 20 30
REMARK Flexibility Score: inf
ROOT
ATOM      1  C   UNL     1     186.112 191.774 188.247  1.00  0.00     0.012 C 
ATOM      2  C   UNL     1     186.402 191.468 186.765  1.00  0.00     0.012 C 
ENDROOT
BRANCH   1   3
ATOM      3  C   UNL     1     185.732 193.230 188.472  1.00  0.00    -0.028 C 
ATOM      4  C   UNL     1     186.274 194.126 189.329  1.00  0.00    -0.028 C 
BRANCH   4   5
ATOM      5  C   UNL     1     187.379 193.892 190.345  1.00  0.00     0.011 C 
ATOM      6  C   UNL     1     188.746 193.947 189.646  1.00  0.00     0.012 C 
BRANCH   5   7
ATOM      7  C   UNL     1     187.314 194.901 191.534  1.00  0.00    -0.011 C 
ATOM      8  C   UNL     1     186.429 196.131 191.262  1.00  0.00     0.008 C 
ATOM      9  C   UNL     1     186.871 194.219 192.835  1.00  0.00     0.008 C 
ENDBRANCH   5   7
ENDBRANCH   4   5
ENDBRANCH   1   3
BRANCH   1  10
ATOM     10  C   UNL     1     185.116 190.771 188.918  1.00  0.00     0.002 C 
ATOM     11  C   UNL     1     184.881 189.524 188.055  1.00  0.00     0.005 C 
ATOM     12  C   UNL     1     185.505 190.205 190.326  1.00  0.00    -0.023 C 
ATOM     13  C   UNL     1     184.497 188.395 189.002  1.00  0.00     0.009 C 
ATOM     14  C   UNL     1     184.631 188.939 190.431  1.00  0.00     0.021 C 
ATOM     15  C   UNL     1     187.002 189.805 190.408  1.00  0.00     0.008 C 
ATOM     16  C   UNL     1     185.138 191.196 191.459  1.00  0.00     0.012 C 
ATOM     17  C   UNL     1     185.131 187.868 191.387  1.00  0.00    -0.063 C 
ATOM     18  C   UNL     1     187.371 189.143 191.736  1.00  0.00     0.009 C 
ATOM     19  C   UNL     1     186.433 187.981 192.178  1.00  0.00     0.025 C 
ATOM     20  C   UNL     1     184.357 186.791 191.591  1.00  0.00    -0.000 C 
ATOM     21  C   UNL     1     187.145 186.579 192.308  1.00  0.00    -0.005 C 
ATOM     22  C   UNL     1     184.826 185.648 192.387  1.00  0.00    -0.000 C 
ATOM     23  C   UNL     1     186.111 185.538 192.766  1.00  0.00    -0.061 C 
ATOM     24  C   UNL     1     188.295 186.674 193.365  1.00  0.00     0.014 C 
ATOM     25  C   UNL     1     187.712 186.128 190.940  1.00  0.00     0.017 C 
ATOM     26  C   UNL     1     186.563 184.245 193.408  1.00  0.00     0.063 C 
ATOM     27  C   UNL     1     188.804 185.313 193.855  1.00  0.00     0.033 C 
ATOM     28  C   UNL     1     187.655 184.494 194.455  1.00  0.00     0.118 C 
BRANCH  28  29
ATOM     29  O   UNL     1     188.129 183.279 194.977  1.00  0.00    -0.393 OA
ATOM     30  H   UNL     1     187.396 182.873 195.511  1.00  0.00     0.210 HD
ENDBRANCH  28  29
ENDBRANCH   1  10
TORSDOF 5
ENDMDL
MODEL 9
REMARK VINA RESULT:    -6.528      3.471      8.337
REMARK INTER + INTRA:          -9.756
REMARK INTER:                  -8.449
REMARK INTRA:                  -1.307
REMARK UNBOUND:                -1.511
REMARK SMILES CC(C)[C@H](C)C=C[C@H](C)[C@H]1CC[C@H]2C3=CC=C4C[C@@H](O)CC[C@]4(C)[C@H]3CC[C@@]12C
REMARK SMILES IDX 8 1 9 2 7 3 6 4 4 5 5 6 2 7 1 8 3 9 10 10 11 11 28 12 12 13
REMARK SMILES IDX 13 14 27 15 29 16 14 17 26 18 25 19 15 20 23 21 16 22 17 23
REMARK SMILES IDX 22 24 24 25 18 26 21 27 19 28 20 29
REMARK H PARENT 20 30
REMARK Flexibility Score: inf
ROOT
ATOM      1  C   UNL     1     185.966 190.019 190.491  1.00  0.00     0.012 C 
ATOM      2  C   UNL     1     184.915 190.248 191.595  1.00  0.00     0.012 C 
ENDROOT
BRANCH   1   3
ATOM      3  C   UNL     1     185.689 188.761 189.682  1.00  0.00    -0.028 C 
ATOM      4  C   UNL     1     186.216 188.382 188.495  1.00  0.00    -0.028 C 
BRANCH   4   5
ATOM      5  C   UNL     1     187.192 189.153 187.621  1.00  0.00     0.011 C 
ATOM      6  C   UNL     1     188.414 188.275 187.311  1.00  0.00     0.012 C 
BRANCH   5   7
ATOM      7  C   UNL     1     186.527 189.675 186.309  1.00  0.00    -0.011 C 
ATOM      8  C   UNL     1     184.989 189.610 186.320  1.00  0.00     0.008 C 
ATOM      9  C   UNL     1     186.986 191.099 185.968  1.00  0.00     0.008 C 
ENDBRANCH   5   7
ENDBRANCH   4   5
ENDBRANCH   1   3
BRANCH   1  10
ATOM     10  C   UNL     1     186.228 191.277 189.596  1.00  0.00     0.002 C 
ATOM     11  C   UNL     1     184.979 192.157 189.455  1.00  0.00     0.005 C 
ATOM     12  C   UNL     1     187.354 192.264 190.056  1.00  0.00    -0.023 C 
ATOM     13  C   UNL     1     185.465 193.575 189.186  1.00  0.00     0.009 C 
ATOM     14  C   UNL     1     186.996 193.557 189.296  1.00  0.00     0.021 C 
ATOM     15  C   UNL     1     187.312 192.536 191.583  1.00  0.00     0.008 C 
ATOM     16  C   UNL     1     188.757 191.768 189.625  1.00  0.00     0.012 C 
ATOM     17  C   UNL     1     187.524 194.847 189.903  1.00  0.00    -0.063 C 
ATOM     18  C   UNL     1     188.330 193.586 192.031  1.00  0.00     0.009 C 
ATOM     19  C   UNL     1     188.323 194.906 191.204  1.00  0.00     0.025 C 
ATOM     20  C   UNL     1     187.327 195.990 189.229  1.00  0.00    -0.000 C 
ATOM     21  C   UNL     1     187.964 196.197 192.036  1.00  0.00    -0.005 C 
ATOM     22  C   UNL     1     187.678 197.294 189.808  1.00  0.00    -0.000 C 
ATOM     23  C   UNL     1     188.013 197.419 191.103  1.00  0.00    -0.061 C 
ATOM     24  C   UNL     1     189.004 196.379 193.191  1.00  0.00     0.014 C 
ATOM     25  C   UNL     1     186.533 196.089 192.617  1.00  0.00     0.017 C 
ATOM     26  C   UNL     1     188.168 198.809 191.677  1.00  0.00     0.063 C 
ATOM     27  C   UNL     1     188.994 197.776 193.824  1.00  0.00     0.033 C 
ATOM     28  C   UNL     1     189.251 198.849 192.760  1.00  0.00     0.118 C 
BRANCH  28  29
ATOM     29  O   UNL     1     189.322 200.125 193.346  1.00  0.00    -0.393 OA
ATOM     30  H   UNL     1     189.459 200.786 192.616  1.00  0.00     0.210 HD
ENDBRANCH  28  29
ENDBRANCH   1  10
TORSDOF 5
ENDMDL
