MODEL 1
REMARK VINA RESULT:    -3.716      0.000      0.000
REMARK INTER + INTRA:          -4.161
REMARK INTER:                  -4.585
REMARK INTRA:                   0.424
REMARK UNBOUND:                 0.424
REMARK SMILES C=C1CC[C@H]2[C@H]1[C@@H]1[C@@H](CC[C@@H]2C)C1(C)C
REMARK SMILES IDX 6 1 5 2 4 3 3 4 2 5 1 6 11 7 12 8 10 9 7 11 8 12 13 13 14 14
REMARK SMILES IDX 15 15 9 16
REMARK H PARENT
REMARK Flexibility Score: 80.00
ROOT
ATOM      1  C   UNL     1      30.290  25.742  11.273  1.00  0.00     0.022 C 
ATOM      2  C   UNL     1      30.224  27.170  10.701  1.00  0.00    -0.000 C 
ATOM      3  C   UNL     1      31.663  27.425  10.237  1.00  0.00     0.009 C 
ATOM      4  C   UNL     1      32.125  26.081   9.664  1.00  0.00     0.031 C 
ATOM      5  C   UNL     1      31.252  25.078  10.347  1.00  0.00    -0.074 C 
ATOM      6  C   UNL     1      31.401  23.756  10.215  1.00  0.00     0.008 C 
ENDROOT
BRANCH   2   7
ATOM      7  C   UNL     1      29.573  28.208  11.678  1.00  0.00    -0.011 C 
ATOM      8  C   UNL     1      30.014  29.644  11.339  1.00  0.00     0.008 C 
BRANCH   7   9
ATOM      9  C   UNL     1      28.001  28.150  11.631  1.00  0.00     0.004 CG0
ATOM     10  G   UNL     1      27.274  26.874  12.164  1.00  0.00     0.000 G0
ENDBRANCH   7   9
ENDBRANCH   2   7
BRANCH   1  11
ATOM     11  C   UNL     1      28.868  25.173  11.280  1.00  0.00     0.006 C 
ATOM     12  C   UNL     1      28.241  25.765  12.571  1.00  0.00    -0.001 C 
ATOM     13  C   UNL     1      28.173  24.270  12.301  1.00  0.00    -0.029 C 
ATOM     14  C   UNL     1      29.068  23.386  13.176  1.00  0.00     0.012 C 
ATOM     15  C   UNL     1      26.798  23.710  11.918  1.00  0.00     0.012 C 
BRANCH  12  16
ATOM     16  C   UNL     1      27.271  26.870  12.163  1.00  0.00     0.005 CG0
ATOM     17  G   UNL     1      28.001  28.145  11.631  1.00  0.00     0.000 G0
ENDBRANCH  12  16
ENDBRANCH   1  11
TORSDOF 0
ENDMDL
MODEL 2
REMARK VINA RESULT:    -3.641      2.503      5.498
REMARK INTER + INTRA:          -4.068
REMARK INTER:                  -4.515
REMARK INTRA:                   0.447
REMARK UNBOUND:                 0.424
REMARK SMILES C=C1CC[C@H]2[C@H]1[C@@H]1[C@@H](CC[C@@H]2C)C1(C)C
REMARK SMILES IDX 6 1 5 2 4 3 3 4 2 5 1 6 11 7 12 8 10 9 7 11 8 12 13 13 14 14
REMARK SMILES IDX 15 15 9 16
REMARK H PARENT
REMARK Flexibility Score: 80.00
ROOT
ATOM      1  C   UNL     1      29.433  24.870  12.399  1.00  0.00     0.022 C 
ATOM      2  C   UNL     1      29.167  23.360  12.534  1.00  0.00    -0.000 C 
ATOM      3  C   UNL     1      27.897  23.307  13.395  1.00  0.00     0.009 C 
ATOM      4  C   UNL     1      27.052  24.486  12.903  1.00  0.00     0.031 C 
ATOM      5  C   UNL     1      28.052  25.425  12.308  1.00  0.00    -0.074 C 
ATOM      6  C   UNL     1      27.743  26.646  11.857  1.00  0.00     0.008 C 
ENDROOT
BRANCH   2   7
ATOM      7  C   UNL     1      30.415  22.543  13.016  1.00  0.00    -0.011 C 
ATOM      8  C   UNL     1      29.990  21.225  13.688  1.00  0.00     0.008 C 
BRANCH   7   9
ATOM      9  C   UNL     1      31.385  22.200  11.825  1.00  0.00     0.004 CG0
ATOM     10  G   UNL     1      32.135  23.364  11.101  1.00  0.00     0.000 G0
ENDBRANCH   7   9
ENDBRANCH   2   7
BRANCH   1  11
ATOM     11  C   UNL     1      30.320  25.082  11.169  1.00  0.00     0.006 C 
ATOM     12  C   UNL     1      31.743  24.730  11.676  1.00  0.00    -0.001 C 
ATOM     13  C   UNL     1      31.492  26.042  10.951  1.00  0.00    -0.029 C 
ATOM     14  C   UNL     1      31.528  27.307  11.815  1.00  0.00     0.012 C 
ATOM     15  C   UNL     1      32.052  26.152   9.529  1.00  0.00     0.012 C 
BRANCH  12  16
ATOM     16  C   UNL     1      32.125  23.365  11.109  1.00  0.00     0.005 CG0
ATOM     17  G   UNL     1      31.375  22.189  11.814  1.00  0.00     0.000 G0
ENDBRANCH  12  16
ENDBRANCH   1  11
TORSDOF 0
ENDMDL
MODEL 3
REMARK VINA RESULT:    -3.595      2.074      5.143
REMARK INTER + INTRA:          -4.011
REMARK INTER:                  -4.458
REMARK INTRA:                   0.447
REMARK UNBOUND:                 0.424
REMARK SMILES C=C1CC[C@H]2[C@H]1[C@@H]1[C@@H](CC[C@@H]2C)C1(C)C
REMARK SMILES IDX 6 1 5 2 4 3 3 4 2 5 1 6 11 7 12 8 10 9 7 11 8 12 13 13 14 14
REMARK SMILES IDX 15 15 9 16
REMARK H PARENT
REMARK Flexibility Score: 80.00
ROOT
ATOM      1  C   UNL     1      29.509  26.422  11.615  1.00  0.00     0.022 C 
ATOM      2  C   UNL     1      29.510  24.913  11.309  1.00  0.00    -0.000 C 
ATOM      3  C   UNL     1      28.438  24.366  12.260  1.00  0.00     0.009 C 
ATOM      4  C   UNL     1      27.344  25.438  12.263  1.00  0.00     0.031 C 
ATOM      5  C   UNL     1      28.064  26.689  11.870  1.00  0.00    -0.074 C 
ATOM      6  C   UNL     1      27.493  27.898  11.859  1.00  0.00     0.008 C 
ENDROOT
BRANCH   2   7
ATOM      7  C   UNL     1      30.936  24.264  11.359  1.00  0.00    -0.011 C 
ATOM      8  C   UNL     1      30.849  22.755  11.652  1.00  0.00     0.008 C 
BRANCH   7   9
ATOM      9  C   UNL     1      31.715  24.461  10.006  1.00  0.00     0.004 CG0
ATOM     10  G   UNL     1      32.145  25.902   9.583  1.00  0.00     0.000 G0
ENDBRANCH   7   9
ENDBRANCH   2   7
BRANCH   1  11
ATOM     11  C   UNL     1      30.119  27.145  10.411  1.00  0.00     0.006 C 
ATOM     12  C   UNL     1      31.647  26.954  10.603  1.00  0.00    -0.001 C 
ATOM     13  C   UNL     1      31.073  28.340  10.358  1.00  0.00    -0.029 C 
ATOM     14  C   UNL     1      31.069  29.290  11.560  1.00  0.00     0.012 C 
ATOM     15  C   UNL     1      31.347  28.957   8.982  1.00  0.00     0.012 C 
BRANCH  12  16
ATOM     16  C   UNL     1      32.125  25.910   9.598  1.00  0.00     0.005 CG0
ATOM     17  G   UNL     1      31.713  24.457   9.998  1.00  0.00     0.000 G0
ENDBRANCH  12  16
ENDBRANCH   1  11
TORSDOF 0
ENDMDL
MODEL 4
REMARK VINA RESULT:    -2.957      1.424      4.167
REMARK INTER + INTRA:          -3.224
REMARK INTER:                  -3.646
REMARK INTRA:                   0.422
REMARK UNBOUND:                 0.424
REMARK SMILES C=C1CC[C@H]2[C@H]1[C@@H]1[C@@H](CC[C@@H]2C)C1(C)C
REMARK SMILES IDX 6 1 5 2 4 3 3 4 2 5 1 6 11 7 12 8 10 9 7 11 8 12 13 13 14 14
REMARK SMILES IDX 15 15 9 16
REMARK H PARENT
REMARK Flexibility Score: 80.00
ROOT
ATOM      1  C   UNL     1      30.061  24.527  12.583  1.00  0.00     0.022 C 
ATOM      2  C   UNL     1      28.625  24.092  12.926  1.00  0.00    -0.000 C 
ATOM      3  C   UNL     1      28.797  22.628  13.349  1.00  0.00     0.009 C 
ATOM      4  C   UNL     1      30.117  22.606  14.125  1.00  0.00     0.031 C 
ATOM      5  C   UNL     1      30.863  23.793  13.604  1.00  0.00    -0.074 C 
ATOM      6  C   UNL     1      32.125  24.080  13.940  1.00  0.00     0.008 C 
ENDROOT
BRANCH   2   7
ATOM      7  C   UNL     1      27.586  24.413  11.797  1.00  0.00    -0.011 C 
ATOM      8  C   UNL     1      26.349  23.503  11.905  1.00  0.00     0.008 C 
BRANCH   7   9
ATOM      9  C   UNL     1      27.103  25.910  11.854  1.00  0.00     0.004 CG0
ATOM     10  G   UNL     1      28.125  27.047  11.528  1.00  0.00     0.000 G0
ENDBRANCH   7   9
ENDBRANCH   2   7
BRANCH   1  11
ATOM     11  C   UNL     1      30.121  26.055  12.660  1.00  0.00     0.006 C 
ATOM     12  C   UNL     1      29.546  26.516  11.295  1.00  0.00    -0.001 C 
ATOM     13  C   UNL     1      30.877  27.058  11.787  1.00  0.00    -0.029 C 
ATOM     14  C   UNL     1      32.125  26.548  11.058  1.00  0.00     0.012 C 
ATOM     15  C   UNL     1      30.888  28.520  12.249  1.00  0.00     0.012 C 
BRANCH  12  16
ATOM     16  C   UNL     1      28.134  27.047  11.529  1.00  0.00     0.005 CG0
ATOM     17  G   UNL     1      27.113  25.914  11.870  1.00  0.00     0.000 G0
ENDBRANCH  12  16
ENDBRANCH   1  11
TORSDOF 0
ENDMDL
MODEL 5
REMARK VINA RESULT:    -2.813      2.174      3.695
REMARK INTER + INTRA:          -3.047
REMARK INTER:                  -3.500
REMARK INTRA:                   0.452
REMARK UNBOUND:                 0.424
REMARK SMILES C=C1CC[C@H]2[C@H]1[C@@H]1[C@@H](CC[C@@H]2C)C1(C)C
REMARK SMILES IDX 6 1 5 2 4 3 3 4 2 5 1 6 11 7 12 8 10 9 7 11 8 12 13 13 14 14
REMARK SMILES IDX 15 15 9 16
REMARK H PARENT
REMARK Flexibility Score: 80.00
ROOT
ATOM      1  C   UNL     1      29.112  25.543  11.941  1.00  0.00     0.022 C 
ATOM      2  C   UNL     1      29.190  27.051  12.242  1.00  0.00    -0.000 C 
ATOM      3  C   UNL     1      27.925  27.604  11.573  1.00  0.00     0.009 C 
ATOM      4  C   UNL     1      26.859  26.533  11.826  1.00  0.00     0.031 C 
ATOM      5  C   UNL     1      27.647  25.280  12.034  1.00  0.00    -0.074 C 
ATOM      6  C   UNL     1      27.092  24.072  12.176  1.00  0.00     0.008 C 
ENDROOT
BRANCH   2   7
ATOM      7  C   UNL     1      30.566  27.697  11.858  1.00  0.00    -0.011 C 
ATOM      8  C   UNL     1      30.416  29.205  11.592  1.00  0.00     0.008 C 
BRANCH   7   9
ATOM      9  C   UNL     1      31.641  27.500  12.991  1.00  0.00     0.004 CG0
ATOM     10  G   UNL     1      32.135  26.055  13.322  1.00  0.00     0.000 G0
ENDBRANCH   7   9
ENDBRANCH   2   7
BRANCH   1  11
ATOM     11  C   UNL     1      29.988  24.814  12.964  1.00  0.00     0.006 C 
ATOM     12  C   UNL     1      31.429  25.012  12.423  1.00  0.00    -0.001 C 
ATOM     13  C   UNL     1      30.931  23.622  12.784  1.00  0.00    -0.029 C 
ATOM     14  C   UNL     1      30.649  22.680  11.609  1.00  0.00     0.012 C 
ATOM     15  C   UNL     1      31.519  22.997  14.054  1.00  0.00     0.012 C 
BRANCH  12  16
ATOM     16  C   UNL     1      32.125  26.051  13.297  1.00  0.00     0.005 CG0
ATOM     17  G   UNL     1      31.652  27.509  12.991  1.00  0.00     0.000 G0
ENDBRANCH  12  16
ENDBRANCH   1  11
TORSDOF 0
ENDMDL
MODEL 6
REMARK VINA RESULT:    -2.672      1.859      2.855
REMARK INTER + INTRA:          -2.873
REMARK INTER:                  -3.300
REMARK INTRA:                   0.426
REMARK UNBOUND:                 0.424
REMARK SMILES C=C1CC[C@H]2[C@H]1[C@@H]1[C@@H](CC[C@@H]2C)C1(C)C
REMARK SMILES IDX 6 1 5 2 4 3 3 4 2 5 1 6 11 7 12 8 10 9 7 11 8 12 13 13 14 14
REMARK SMILES IDX 15 15 9 16
REMARK H PARENT
REMARK Flexibility Score: 80.00
ROOT
ATOM      1  C   UNL     1      29.793  24.041  13.298  1.00  0.00     0.022 C 
ATOM      2  C   UNL     1      30.903  24.947  12.733  1.00  0.00    -0.000 C 
ATOM      3  C   UNL     1      32.122  24.576  13.587  1.00  0.00     0.009 C 
ATOM      4  C   UNL     1      32.001  23.063  13.792  1.00  0.00     0.031 C 
ATOM      5  C   UNL     1      30.541  22.790  13.614  1.00  0.00    -0.074 C 
ATOM      6  C   UNL     1      29.982  21.594  13.823  1.00  0.00     0.008 C 
ENDROOT
BRANCH   2   7
ATOM      7  C   UNL     1      30.497  26.458  12.649  1.00  0.00    -0.011 C 
ATOM      8  C   UNL     1      31.739  27.368  12.637  1.00  0.00     0.008 C 
BRANCH   7   9
ATOM      9  C   UNL     1      29.648  26.766  11.360  1.00  0.00     0.004 CG0
ATOM     10  G   UNL     1      28.221  26.143  11.228  1.00  0.00     0.000 G0
ENDBRANCH   7   9
ENDBRANCH   2   7
BRANCH   1  11
ATOM     11  C   UNL     1      28.702  23.915  12.231  1.00  0.00     0.006 C 
ATOM     12  C   UNL     1      27.876  25.218  12.393  1.00  0.00    -0.001 C 
ATOM     13  C   UNL     1      27.180  23.867  12.379  1.00  0.00    -0.029 C 
ATOM     14  C   UNL     1      26.623  23.381  13.721  1.00  0.00     0.012 C 
ATOM     15  C   UNL     1      26.365  23.535  11.124  1.00  0.00     0.012 C 
BRANCH  12  16
ATOM     16  C   UNL     1      28.220  26.146  11.231  1.00  0.00     0.005 CG0
ATOM     17  G   UNL     1      29.650  26.764  11.358  1.00  0.00     0.000 G0
ENDBRANCH  12  16
ENDBRANCH   1  11
TORSDOF 0
ENDMDL
MODEL 7
REMARK VINA RESULT:    -2.469      2.113      4.954
REMARK INTER + INTRA:          -2.622
REMARK INTER:                  -3.056
REMARK INTRA:                   0.433
REMARK UNBOUND:                 0.424
REMARK SMILES C=C1CC[C@H]2[C@H]1[C@@H]1[C@@H](CC[C@@H]2C)C1(C)C
REMARK SMILES IDX 6 1 5 2 4 3 3 4 2 5 1 6 11 7 12 8 10 9 7 11 8 12 13 13 14 14
REMARK SMILES IDX 15 15 9 16
REMARK H PARENT
REMARK Flexibility Score: 80.00
ROOT
ATOM      1  C   UNL     1      29.026  25.749  12.248  1.00  0.00     0.022 C 
ATOM      2  C   UNL     1      29.584  24.337  11.991  1.00  0.00    -0.000 C 
ATOM      3  C   UNL     1      28.522  23.425  12.620  1.00  0.00     0.009 C 
ATOM      4  C   UNL     1      27.189  24.106  12.292  1.00  0.00     0.031 C 
ATOM      5  C   UNL     1      27.558  25.540  12.084  1.00  0.00    -0.074 C 
ATOM      6  C   UNL     1      26.662  26.513  11.886  1.00  0.00     0.008 C 
ENDROOT
BRANCH   2   7
ATOM      7  C   UNL     1      31.071  24.157  12.451  1.00  0.00    -0.011 C 
ATOM      8  C   UNL     1      31.395  22.675  12.717  1.00  0.00     0.008 C 
BRANCH   7   9
ATOM      9  C   UNL     1      32.085  24.699  11.377  1.00  0.00     0.004 CG0
ATOM     10  G   UNL     1      32.136  26.235  11.092  1.00  0.00     0.000 G0
ENDBRANCH   7   9
ENDBRANCH   2   7
BRANCH   1  11
ATOM     11  C   UNL     1      29.681  26.702  11.244  1.00  0.00     0.006 C 
ATOM     12  C   UNL     1      31.064  27.008  11.876  1.00  0.00    -0.001 C 
ATOM     13  C   UNL     1      30.161  28.143  11.422  1.00  0.00    -0.029 C 
ATOM     14  C   UNL     1      29.503  28.967  12.533  1.00  0.00     0.012 C 
ATOM     15  C   UNL     1      30.598  28.896  10.160  1.00  0.00     0.012 C 
BRANCH  12  16
ATOM     16  C   UNL     1      32.125  26.238  11.093  1.00  0.00     0.005 CG0
ATOM     17  G   UNL     1      32.086  24.702  11.379  1.00  0.00     0.000 G0
ENDBRANCH  12  16
ENDBRANCH   1  11
TORSDOF 0
ENDMDL
MODEL 8
REMARK VINA RESULT:    -2.321      1.897      3.645
REMARK INTER + INTRA:          -2.439
REMARK INTER:                  -2.886
REMARK INTRA:                   0.447
REMARK UNBOUND:                 0.424
REMARK SMILES C=C1CC[C@H]2[C@H]1[C@@H]1[C@@H](CC[C@@H]2C)C1(C)C
REMARK SMILES IDX 6 1 5 2 4 3 3 4 2 5 1 6 11 7 12 8 10 9 7 11 8 12 13 13 14 14
REMARK SMILES IDX 15 15 9 16
REMARK H PARENT
REMARK Flexibility Score: 80.00
ROOT
ATOM      1  C   UNL     1      28.734  26.547  11.221  1.00  0.00     0.022 C 
ATOM      2  C   UNL     1      30.125  27.134  10.920  1.00  0.00    -0.000 C 
ATOM      3  C   UNL     1      29.799  28.494  10.289  1.00  0.00     0.009 C 
ATOM      4  C   UNL     1      28.590  29.003  11.080  1.00  0.00     0.031 C 
ATOM      5  C   UNL     1      27.963  27.759  11.623  1.00  0.00    -0.074 C 
ATOM      6  C   UNL     1      26.803  27.744  12.288  1.00  0.00     0.008 C 
ENDROOT
BRANCH   2   7
ATOM      7  C   UNL     1      31.058  26.160  10.122  1.00  0.00    -0.011 C 
ATOM      8  C   UNL     1      32.124  26.937   9.328  1.00  0.00     0.008 C 
BRANCH   7   9
ATOM      9  C   UNL     1      31.794  25.144  11.073  1.00  0.00     0.004 CG0
ATOM     10  G   UNL     1      30.948  24.073  11.835  1.00  0.00     0.000 G0
ENDBRANCH   7   9
ENDBRANCH   2   7
BRANCH   1  11
ATOM     11  C   UNL     1      28.902  25.474  12.300  1.00  0.00     0.006 C 
ATOM     12  C   UNL     1      29.430  24.243  11.516  1.00  0.00    -0.001 C 
ATOM     13  C   UNL     1      28.232  24.105  12.442  1.00  0.00    -0.029 C 
ATOM     14  C   UNL     1      26.872  23.919  11.762  1.00  0.00     0.012 C 
ATOM     15  C   UNL     1      28.468  23.343  13.751  1.00  0.00     0.012 C 
BRANCH  12  16
ATOM     16  C   UNL     1      30.917  24.088  11.823  1.00  0.00     0.005 CG0
ATOM     17  G   UNL     1      31.798  25.146  11.084  1.00  0.00     0.000 G0
ENDBRANCH  12  16
ENDBRANCH   1  11
TORSDOF 0
ENDMDL
MODEL 9
REMARK VINA RESULT:    -1.940      2.834      5.238
REMARK INTER + INTRA:          -1.969
REMARK INTER:                  -2.384
REMARK INTRA:                   0.415
REMARK UNBOUND:                 0.424
REMARK SMILES C=C1CC[C@H]2[C@H]1[C@@H]1[C@@H](CC[C@@H]2C)C1(C)C
REMARK SMILES IDX 6 1 5 2 4 3 3 4 2 5 1 6 11 7 12 8 10 9 7 11 8 12 13 13 14 14
REMARK SMILES IDX 15 15 9 16
REMARK H PARENT
REMARK Flexibility Score: 80.00
ROOT
ATOM      1  C   UNL     1      31.062  23.059  11.478  1.00  0.00     0.022 C 
ATOM      2  C   UNL     1      31.404  21.916  12.451  1.00  0.00    -0.000 C 
ATOM      3  C   UNL     1      31.472  20.688  11.534  1.00  0.00     0.009 C 
ATOM      4  C   UNL     1      32.122  21.206  10.248  1.00  0.00     0.031 C 
ATOM      5  C   UNL     1      31.828  22.672  10.259  1.00  0.00    -0.074 C 
ATOM      6  C   UNL     1      32.125  23.493   9.246  1.00  0.00     0.008 C 
ENDROOT
BRANCH   2   7
ATOM      7  C   UNL     1      30.458  21.849  13.699  1.00  0.00    -0.011 C 
ATOM      8  C   UNL     1      30.465  20.444  14.328  1.00  0.00     0.008 C 
BRANCH   7   9
ATOM      9  C   UNL     1      30.875  22.888  14.806  1.00  0.00     0.004 CG0
ATOM     10  G   UNL     1      30.726  24.414  14.506  1.00  0.00     0.000 G0
ENDBRANCH   7   9
ENDBRANCH   2   7
BRANCH   1  11
ATOM     11  C   UNL     1      31.477  24.377  12.137  1.00  0.00     0.006 C 
ATOM     12  C   UNL     1      30.287  24.711  13.075  1.00  0.00    -0.001 C 
ATOM     13  C   UNL     1      30.808  25.753  12.098  1.00  0.00    -0.029 C 
ATOM     14  C   UNL     1      29.910  26.059  10.896  1.00  0.00     0.012 C 
ATOM     15  C   UNL     1      31.585  26.926  12.706  1.00  0.00     0.012 C 
BRANCH  12  16
ATOM     16  C   UNL     1      30.718  24.424  14.510  1.00  0.00     0.005 CG0
ATOM     17  G   UNL     1      30.877  22.896  14.797  1.00  0.00     0.000 G0
ENDBRANCH  12  16
ENDBRANCH   1  11
TORSDOF 0
ENDMDL
