MODEL 1
REMARK VINA RESULT:    28.361      0.000      0.000
REMARK INTER + INTRA:          44.396
REMARK INTER:                  43.283
REMARK INTRA:                   1.113
REMARK UNBOUND:                 1.113
REMARK SMILES CC1=CCC[C@H](C)C(=O)C[C@@H](C(C)C)C(=O)C1
REMARK SMILES IDX 8 1 9 2 6 3 7 4 5 5 4 6 3 7 2 8 1 9 10 11 11 12 15 13 16 14
REMARK SMILES IDX 17 15 12 17 13 18 14 19
REMARK H PARENT
REMARK Flexibility Score: 70.00
ROOT
ATOM      1  C   UNL     1      -0.241 -18.041 -16.194  1.00  0.00     0.136 C 
ATOM      2  O   UNL     1      -0.984 -18.451 -17.073  1.00  0.00    -0.299 OA
ENDROOT
BRANCH   1   3
ATOM      3  C   UNL     1       0.987 -17.246 -16.623  1.00  0.00     0.053 C 
ATOM      4  C   UNL     1       1.726 -17.950 -17.770  1.00  0.00     0.016 C 
BRANCH   3   5
ATOM      5  C   UNL     1       0.845 -15.702 -16.803  1.00  0.00     0.015 C 
BRANCH   5   6
ATOM      6  C   UNL     1       1.482 -14.721 -15.790  1.00  0.00     0.028 C 
BRANCH   6   7
ATOM      7  C   UNL     1       0.500 -13.800 -15.114  1.00  0.00    -0.028 C 
ATOM      8  C   UNL     1      -0.432 -14.187 -14.211  1.00  0.00    -0.070 CG0
ATOM      9  C   UNL     1      -1.361 -13.136 -13.660  1.00  0.00     0.039 C 
ATOM     10  G   UNL     1      -0.556 -15.618 -13.707  1.00  0.00     0.000 G0
ENDBRANCH   6   7
ENDBRANCH   5   6
ENDBRANCH   3   5
ENDBRANCH   1   3
BRANCH   1  11
ATOM     11  C   UNL     1      -0.622 -18.329 -14.761  1.00  0.00     0.087 C 
BRANCH  11  12
ATOM     12  C   UNL     1      -2.023 -17.754 -14.391  1.00  0.00     0.066 C 
BRANCH  12  13
ATOM     13  C   UNL     1      -1.893 -16.317 -13.906  1.00  0.00     0.140 C 
ATOM     14  O   UNL     1      -2.905 -15.689 -13.636  1.00  0.00    -0.299 OA
BRANCH  13  15
ATOM     15  C   UNL     1      -0.561 -15.624 -13.702  1.00  0.00     0.106 CG0
ATOM     16  G   UNL     1      -0.489 -14.187 -14.199  1.00  0.00     0.000 G0
ENDBRANCH  13  15
ENDBRANCH  12  13
BRANCH  12  17
ATOM     17  C   UNL     1      -2.854 -18.626 -13.394  1.00  0.00    -0.006 C 
ATOM     18  C   UNL     1      -4.293 -18.135 -13.144  1.00  0.00     0.008 C 
ATOM     19  C   UNL     1      -2.122 -18.815 -12.058  1.00  0.00     0.008 C 
ENDBRANCH  12  17
ENDBRANCH  11  12
ENDBRANCH   1  11
TORSDOF 1
ENDMDL
MODEL 2
REMARK VINA RESULT:    28.508      1.753      4.758
REMARK INTER + INTRA:          44.621
REMARK INTER:                  43.821
REMARK INTRA:                   0.800
REMARK UNBOUND:                 1.113
REMARK SMILES CC1=CCC[C@H](C)C(=O)C[C@@H](C(C)C)C(=O)C1
REMARK SMILES IDX 8 1 9 2 6 3 7 4 5 5 4 6 3 7 2 8 1 9 10 11 11 12 15 13 16 14
REMARK SMILES IDX 17 15 12 17 13 18 14 19
REMARK H PARENT
REMARK Flexibility Score: 70.00
ROOT
ATOM      1  C   UNL     1      -2.172 -16.345 -13.594  1.00  0.00     0.136 C 
ATOM      2  O   UNL     1      -3.215 -15.710 -13.656  1.00  0.00    -0.299 OA
ENDROOT
BRANCH   1   3
ATOM      3  C   UNL     1      -2.246 -17.849 -13.830  1.00  0.00     0.053 C 
ATOM      4  C   UNL     1      -3.526 -18.439 -13.219  1.00  0.00     0.016 C 
BRANCH   3   5
ATOM      5  C   UNL     1      -1.902 -18.396 -15.251  1.00  0.00     0.015 C 
BRANCH   5   6
ATOM      6  C   UNL     1      -0.455 -18.803 -15.617  1.00  0.00     0.028 C 
BRANCH   6   7
ATOM      7  C   UNL     1       0.124 -18.055 -16.789  1.00  0.00    -0.028 C 
ATOM      8  C   UNL     1       0.791 -16.879 -16.707  1.00  0.00    -0.070 CG0
ATOM      9  C   UNL     1       1.273 -16.248 -17.988  1.00  0.00     0.039 C 
ATOM     10  G   UNL     1       1.104 -16.193 -15.385  1.00  0.00     0.000 G0
ENDBRANCH   6   7
ENDBRANCH   5   6
ENDBRANCH   3   5
ENDBRANCH   1   3
BRANCH   1  11
ATOM     11  C   UNL     1      -0.899 -15.578 -13.322  1.00  0.00     0.087 C 
BRANCH  11  12
ATOM     12  C   UNL     1      -0.627 -14.478 -14.393  1.00  0.00     0.066 C 
BRANCH  12  13
ATOM     13  C   UNL     1       0.634 -14.806 -15.178  1.00  0.00     0.140 C 
ATOM     14  O   UNL     1       1.291 -13.892 -15.655  1.00  0.00    -0.299 OA
BRANCH  13  15
ATOM     15  C   UNL     1       1.151 -16.218 -15.376  1.00  0.00     0.106 CG0
ATOM     16  G   UNL     1       0.805 -16.859 -16.713  1.00  0.00     0.000 G0
ENDBRANCH  13  15
ENDBRANCH  12  13
BRANCH  12  17
ATOM     17  C   UNL     1      -0.601 -13.014 -13.845  1.00  0.00    -0.006 C 
ATOM     18  C   UNL     1      -1.858 -12.590 -13.061  1.00  0.00     0.008 C 
ATOM     19  C   UNL     1      -0.305 -11.997 -14.957  1.00  0.00     0.008 C 
ENDBRANCH  12  17
ENDBRANCH  11  12
ENDBRANCH   1  11
TORSDOF 1
ENDMDL
MODEL 3
REMARK VINA RESULT:    29.295      8.267     10.977
REMARK INTER + INTRA:          45.822
REMARK INTER:                  26.293
REMARK INTRA:                  19.529
REMARK UNBOUND:                 1.113
REMARK SMILES CC1=CCC[C@H](C)C(=O)C[C@@H](C(C)C)C(=O)C1
REMARK SMILES IDX 8 1 9 2 6 3 7 4 5 5 4 6 3 7 2 8 1 9 10 11 11 12 15 13 16 14
REMARK SMILES IDX 17 15 12 17 13 18 14 19
REMARK H PARENT
REMARK Flexibility Score: 70.00
ROOT
ATOM      1  C   UNL     1      -4.710 -11.492  -5.565  1.00  0.00     0.136 C 
ATOM      2  O   UNL     1      -4.679 -12.520  -4.905  1.00  0.00    -0.299 OA
ENDROOT
BRANCH   1   3
ATOM      3  C   UNL     1      -5.653 -11.450  -6.762  1.00  0.00     0.053 C 
ATOM      4  C   UNL     1      -5.240 -10.348  -7.750  1.00  0.00     0.016 C 
BRANCH   3   5
ATOM      5  C   UNL     1      -6.055 -12.798  -7.438  1.00  0.00     0.015 C 
BRANCH   5   6
ATOM      6  C   UNL     1      -5.130 -13.473  -8.477  1.00  0.00     0.028 C 
BRANCH   6   7
ATOM      7  C   UNL     1      -4.676 -12.564  -9.590  1.00  0.00    -0.028 C 
ATOM      8  C   UNL     1      -3.968 -11.423  -9.419  1.00  0.00    -0.070 CG0
ATOM      9  C   UNL     1      -3.628 -10.612 -10.643  1.00  0.00     0.039 C 
ATOM     10  G   UNL     1      -3.474 -10.948  -8.060  1.00  0.00     0.000 G0
ENDBRANCH   6   7
ENDBRANCH   5   6
ENDBRANCH   3   5
ENDBRANCH   1   3
BRANCH   1  11
ATOM     11  C   UNL     1      -3.836 -10.344  -5.117  1.00  0.00     0.087 C 
BRANCH  11  12
ATOM     12  C   UNL     1      -3.907  -9.128  -6.090  1.00  0.00     0.066 C 
BRANCH  12  13
ATOM     13  C   UNL     1      -4.023  -9.609  -7.529  1.00  0.00     0.140 C 
ATOM     14  O   UNL     1      -4.535  -8.875  -8.361  1.00  0.00    -0.299 OA
BRANCH  13  15
ATOM     15  C   UNL     1      -3.500 -10.950  -8.005  1.00  0.00     0.106 CG0
ATOM     16  G   UNL     1      -3.937 -11.364  -9.403  1.00  0.00     0.000 G0
ENDBRANCH  13  15
ENDBRANCH  12  13
BRANCH  12  17
ATOM     17  C   UNL     1      -2.758  -8.080  -5.923  1.00  0.00    -0.006 C 
ATOM     18  C   UNL     1      -1.495  -8.607  -5.215  1.00  0.00     0.008 C 
ATOM     19  C   UNL     1      -3.253  -6.800  -5.235  1.00  0.00     0.008 C 
ENDBRANCH  12  17
ENDBRANCH  11  12
ENDBRANCH   1  11
TORSDOF 1
ENDMDL
MODEL 4
REMARK VINA RESULT:    29.449      1.874      5.309
REMARK INTER + INTRA:          46.057
REMARK INTER:                  45.773
REMARK INTRA:                   0.284
REMARK UNBOUND:                 1.113
REMARK SMILES CC1=CCC[C@H](C)C(=O)C[C@@H](C(C)C)C(=O)C1
REMARK SMILES IDX 8 1 9 2 6 3 7 4 5 5 4 6 3 7 2 8 1 9 10 11 11 12 15 13 16 14
REMARK SMILES IDX 17 15 12 17 13 18 14 19
REMARK H PARENT
REMARK Flexibility Score: 70.00
ROOT
ATOM      1  C   UNL     1      -1.942 -15.332 -13.603  1.00  0.00     0.136 C 
ATOM      2  O   UNL     1      -2.753 -14.461 -13.883  1.00  0.00    -0.299 OA
ENDROOT
BRANCH   1   3
ATOM      3  C   UNL     1      -2.469 -16.747 -13.397  1.00  0.00     0.053 C 
ATOM      4  C   UNL     1      -3.990 -16.803 -13.602  1.00  0.00     0.016 C 
BRANCH   3   5
ATOM      5  C   UNL     1      -1.689 -17.932 -14.048  1.00  0.00     0.015 C 
BRANCH   5   6
ATOM      6  C   UNL     1      -1.582 -18.062 -15.585  1.00  0.00     0.028 C 
BRANCH   6   7
ATOM      7  C   UNL     1      -0.241 -18.542 -16.077  1.00  0.00    -0.028 C 
ATOM      8  C   UNL     1       0.710 -17.753 -16.631  1.00  0.00    -0.070 CG0
ATOM      9  C   UNL     1       1.983 -18.406 -17.104  1.00  0.00     0.039 C 
ATOM     10  G   UNL     1       0.564 -16.243 -16.761  1.00  0.00     0.000 G0
ENDBRANCH   6   7
ENDBRANCH   5   6
ENDBRANCH   3   5
ENDBRANCH   1   3
BRANCH   1  11
ATOM     11  C   UNL     1      -0.486 -14.934 -13.520  1.00  0.00     0.087 C 
BRANCH  11  12
ATOM     12  C   UNL     1       0.064 -14.408 -14.881  1.00  0.00     0.066 C 
BRANCH  12  13
ATOM     13  C   UNL     1       0.981 -15.444 -15.515  1.00  0.00     0.140 C 
ATOM     14  O   UNL     1       2.059 -15.683 -14.990  1.00  0.00    -0.299 OA
BRANCH  13  15
ATOM     15  C   UNL     1       0.615 -16.234 -16.756  1.00  0.00     0.106 CG0
ATOM     16  G   UNL     1       0.743 -17.745 -16.630  1.00  0.00     0.000 G0
ENDBRANCH  13  15
ENDBRANCH  12  13
BRANCH  12  17
ATOM     17  C   UNL     1       0.741 -12.999 -14.820  1.00  0.00    -0.006 C 
ATOM     18  C   UNL     1      -0.232 -11.807 -14.894  1.00  0.00     0.008 C 
ATOM     19  C   UNL     1       1.838 -12.850 -15.883  1.00  0.00     0.008 C 
ENDBRANCH  12  17
ENDBRANCH  11  12
ENDBRANCH   1  11
TORSDOF 1
ENDMDL
MODEL 5
REMARK VINA RESULT:    29.766      1.534      4.347
REMARK INTER + INTRA:          46.540
REMARK INTER:                  44.906
REMARK INTRA:                   1.634
REMARK UNBOUND:                 1.113
REMARK SMILES CC1=CCC[C@H](C)C(=O)C[C@@H](C(C)C)C(=O)C1
REMARK SMILES IDX 8 1 9 2 6 3 7 4 5 5 4 6 3 7 2 8 1 9 10 11 11 12 15 13 16 14
REMARK SMILES IDX 17 15 12 17 13 18 14 19
REMARK H PARENT
REMARK Flexibility Score: 70.00
ROOT
ATOM      1  C   UNL     1       0.635 -17.007 -16.481  1.00  0.00     0.136 C 
ATOM      2  O   UNL     1       1.635 -17.682 -16.681  1.00  0.00    -0.299 OA
ENDROOT
BRANCH   1   3
ATOM      3  C   UNL     1      -0.622 -17.732 -16.015  1.00  0.00     0.053 C 
ATOM      4  C   UNL     1      -0.939 -18.926 -16.928  1.00  0.00     0.016 C 
BRANCH   3   5
ATOM      5  C   UNL     1      -0.787 -18.027 -14.492  1.00  0.00     0.015 C 
BRANCH   5   6
ATOM      6  C   UNL     1      -2.185 -18.020 -13.828  1.00  0.00     0.028 C 
BRANCH   6   7
ATOM      7  C   UNL     1      -2.827 -16.660 -13.744  1.00  0.00    -0.028 C 
ATOM      8  C   UNL     1      -2.156 -15.493 -13.590  1.00  0.00    -0.070 CG0
ATOM      9  C   UNL     1      -2.962 -14.223 -13.486  1.00  0.00     0.039 C 
ATOM     10  G   UNL     1      -0.637 -15.407 -13.555  1.00  0.00     0.000 G0
ENDBRANCH   6   7
ENDBRANCH   5   6
ENDBRANCH   3   5
ENDBRANCH   1   3
BRANCH   1  11
ATOM     11  C   UNL     1       0.744 -15.514 -16.682  1.00  0.00     0.087 C 
BRANCH  11  12
ATOM     12  C   UNL     1       1.225 -14.775 -15.395  1.00  0.00     0.066 C 
BRANCH  12  13
ATOM     13  C   UNL     1       0.035 -14.422 -14.514  1.00  0.00     0.140 C 
ATOM     14  O   UNL     1      -0.449 -13.302 -14.592  1.00  0.00    -0.299 OA
BRANCH  13  15
ATOM     15  C   UNL     1      -0.616 -15.402 -13.558  1.00  0.00     0.106 CG0
ATOM     16  G   UNL     1      -2.134 -15.473 -13.629  1.00  0.00     0.000 G0
ENDBRANCH  13  15
ENDBRANCH  12  13
BRANCH  12  17
ATOM     17  C   UNL     1       2.143 -13.535 -15.649  1.00  0.00    -0.006 C 
ATOM     18  C   UNL     1       2.192 -13.051 -17.110  1.00  0.00     0.008 C 
ATOM     19  C   UNL     1       3.567 -13.766 -15.122  1.00  0.00     0.008 C 
ENDBRANCH  12  17
ENDBRANCH  11  12
ENDBRANCH   1  11
TORSDOF 1
ENDMDL
MODEL 6
REMARK VINA RESULT:    30.313      1.231      1.820
REMARK INTER + INTRA:          47.375
REMARK INTER:                  46.876
REMARK INTRA:                   0.498
REMARK UNBOUND:                 1.113
REMARK SMILES CC1=CCC[C@H](C)C(=O)C[C@@H](C(C)C)C(=O)C1
REMARK SMILES IDX 8 1 9 2 6 3 7 4 5 5 4 6 3 7 2 8 1 9 10 11 11 12 15 13 16 14
REMARK SMILES IDX 17 15 12 17 13 18 14 19
REMARK H PARENT
REMARK Flexibility Score: 70.00
ROOT
ATOM      1  C   UNL     1      -0.097 -18.182 -16.049  1.00  0.00     0.136 C 
ATOM      2  O   UNL     1      -0.857 -18.756 -16.817  1.00  0.00    -0.299 OA
ENDROOT
BRANCH   1   3
ATOM      3  C   UNL     1       1.248 -17.724 -16.600  1.00  0.00     0.053 C 
ATOM      4  C   UNL     1       2.184 -18.920 -16.833  1.00  0.00     0.016 C 
BRANCH   3   5
ATOM      5  C   UNL     1       1.259 -16.667 -17.748  1.00  0.00     0.015 C 
BRANCH   5   6
ATOM      6  C   UNL     1       0.315 -15.442 -17.710  1.00  0.00     0.028 C 
BRANCH   6   7
ATOM      7  C   UNL     1       0.878 -14.246 -16.988  1.00  0.00    -0.028 C 
ATOM      8  C   UNL     1       0.989 -14.132 -15.642  1.00  0.00    -0.070 CG0
ATOM      9  C   UNL     1       1.542 -12.846 -15.085  1.00  0.00     0.039 C 
ATOM     10  G   UNL     1       0.617 -15.253 -14.682  1.00  0.00     0.000 G0
ENDBRANCH   6   7
ENDBRANCH   5   6
ENDBRANCH   3   5
ENDBRANCH   1   3
BRANCH   1  11
ATOM     11  C   UNL     1      -0.573 -17.950 -14.634  1.00  0.00     0.087 C 
BRANCH  11  12
ATOM     12  C   UNL     1      -1.572 -16.757 -14.532  1.00  0.00     0.066 C 
BRANCH  12  13
ATOM     13  C   UNL     1      -0.816 -15.455 -14.306  1.00  0.00     0.140 C 
ATOM     14  O   UNL     1      -1.401 -14.512 -13.793  1.00  0.00    -0.299 OA
BRANCH  13  15
ATOM     15  C   UNL     1       0.648 -15.269 -14.650  1.00  0.00     0.106 CG0
ATOM     16  G   UNL     1       0.951 -14.143 -15.630  1.00  0.00     0.000 G0
ENDBRANCH  13  15
ENDBRANCH  12  13
BRANCH  12  17
ATOM     17  C   UNL     1      -2.722 -16.945 -13.489  1.00  0.00    -0.006 C 
ATOM     18  C   UNL     1      -2.727 -18.305 -12.765  1.00  0.00     0.008 C 
ATOM     19  C   UNL     1      -4.100 -16.672 -14.109  1.00  0.00     0.008 C 
ENDBRANCH  12  17
ENDBRANCH  11  12
ENDBRANCH   1  11
TORSDOF 1
ENDMDL
MODEL 7
REMARK VINA RESULT:    31.063      1.627      4.219
REMARK INTER + INTRA:          48.519
REMARK INTER:                  46.284
REMARK INTRA:                   2.235
REMARK UNBOUND:                 1.113
REMARK SMILES CC1=CCC[C@H](C)C(=O)C[C@@H](C(C)C)C(=O)C1
REMARK SMILES IDX 8 1 9 2 6 3 7 4 5 5 4 6 3 7 2 8 1 9 10 11 11 12 15 13 16 14
REMARK SMILES IDX 17 15 12 17 13 18 14 19
REMARK H PARENT
REMARK Flexibility Score: 70.00
ROOT
ATOM      1  C   UNL     1       0.980 -16.295 -16.531  1.00  0.00     0.136 C 
ATOM      2  O   UNL     1       0.564 -15.456 -17.318  1.00  0.00    -0.299 OA
ENDROOT
BRANCH   1   3
ATOM      3  C   UNL     1       0.754 -17.761 -16.879  1.00  0.00     0.053 C 
ATOM      4  C   UNL     1       1.882 -18.640 -16.317  1.00  0.00     0.016 C 
BRANCH   3   5
ATOM      5  C   UNL     1      -0.677 -18.356 -16.692  1.00  0.00     0.015 C 
BRANCH   5   6
ATOM      6  C   UNL     1      -1.184 -18.780 -15.293  1.00  0.00     0.028 C 
BRANCH   6   7
ATOM      7  C   UNL     1      -2.271 -17.900 -14.732  1.00  0.00    -0.028 C 
ATOM      8  C   UNL     1      -2.063 -16.809 -13.958  1.00  0.00    -0.070 CG0
ATOM      9  C   UNL     1      -3.270 -16.063 -13.450  1.00  0.00     0.039 C 
ATOM     10  G   UNL     1      -0.676 -16.287 -13.613  1.00  0.00     0.000 G0
ENDBRANCH   6   7
ENDBRANCH   5   6
ENDBRANCH   3   5
ENDBRANCH   1   3
BRANCH   1  11
ATOM     11  C   UNL     1       1.711 -15.803 -15.303  1.00  0.00     0.087 C 
BRANCH  11  12
ATOM     12  C   UNL     1       1.044 -14.538 -14.682  1.00  0.00     0.066 C 
BRANCH  12  13
ATOM     13  C   UNL     1      -0.308 -14.895 -14.080  1.00  0.00     0.140 C 
ATOM     14  O   UNL     1      -1.170 -14.033 -14.005  1.00  0.00    -0.299 OA
BRANCH  13  15
ATOM     15  C   UNL     1      -0.664 -16.287 -13.596  1.00  0.00     0.106 CG0
ATOM     16  G   UNL     1      -2.052 -16.777 -13.980  1.00  0.00     0.000 G0
ENDBRANCH  13  15
ENDBRANCH  12  13
BRANCH  12  17
ATOM     17  C   UNL     1       0.941 -13.307 -15.640  1.00  0.00    -0.006 C 
ATOM     18  C   UNL     1       2.291 -12.760 -16.143  1.00  0.00     0.008 C 
ATOM     19  C   UNL     1       0.111 -12.173 -15.021  1.00  0.00     0.008 C 
ENDBRANCH  12  17
ENDBRANCH  11  12
ENDBRANCH   1  11
TORSDOF 1
ENDMDL
MODEL 8
REMARK VINA RESULT:    31.087      1.661      4.030
REMARK INTER + INTRA:          48.556
REMARK INTER:                  48.672
REMARK INTRA:                  -0.116
REMARK UNBOUND:                 1.113
REMARK SMILES CC1=CCC[C@H](C)C(=O)C[C@@H](C(C)C)C(=O)C1
REMARK SMILES IDX 8 1 9 2 6 3 7 4 5 5 4 6 3 7 2 8 1 9 10 11 11 12 15 13 16 14
REMARK SMILES IDX 17 15 12 17 13 18 14 19
REMARK H PARENT
REMARK Flexibility Score: 70.00
ROOT
ATOM      1  C   UNL     1      -1.954 -17.865 -14.389  1.00  0.00     0.136 C 
ATOM      2  O   UNL     1      -1.651 -18.615 -13.473  1.00  0.00    -0.299 OA
ENDROOT
BRANCH   1   3
ATOM      3  C   UNL     1      -2.935 -16.739 -14.084  1.00  0.00     0.053 C 
ATOM      4  C   UNL     1      -3.968 -17.177 -13.036  1.00  0.00     0.016 C 
BRANCH   3   5
ATOM      5  C   UNL     1      -2.369 -15.301 -13.865  1.00  0.00     0.015 C 
BRANCH   5   6
ATOM      6  C   UNL     1      -0.864 -15.073 -13.590  1.00  0.00     0.028 C 
BRANCH   6   7
ATOM      7  C   UNL     1      -0.204 -14.084 -14.515  1.00  0.00    -0.028 C 
ATOM      8  C   UNL     1       0.866 -14.350 -15.302  1.00  0.00    -0.070 CG0
ATOM      9  C   UNL     1       1.422 -13.230 -16.141  1.00  0.00     0.039 C 
ATOM     10  G   UNL     1       1.500 -15.730 -15.400  1.00  0.00     0.000 G0
ENDBRANCH   6   7
ENDBRANCH   5   6
ENDBRANCH   3   5
ENDBRANCH   1   3
BRANCH   1  11
ATOM     11  C   UNL     1      -1.304 -18.101 -15.733  1.00  0.00     0.087 C 
BRANCH  11  12
ATOM     12  C   UNL     1       0.252 -18.074 -15.653  1.00  0.00     0.066 C 
BRANCH  12  13
ATOM     13  C   UNL     1       0.789 -16.773 -16.233  1.00  0.00     0.140 C 
ATOM     14  O   UNL     1       0.595 -16.527 -17.414  1.00  0.00    -0.299 OA
BRANCH  13  15
ATOM     15  C   UNL     1       1.527 -15.735 -15.411  1.00  0.00     0.106 CG0
ATOM     16  G   UNL     1       0.856 -14.371 -15.326  1.00  0.00     0.000 G0
ENDBRANCH  13  15
ENDBRANCH  12  13
BRANCH  12  17
ATOM     17  C   UNL     1       0.968 -19.319 -16.271  1.00  0.00    -0.006 C 
ATOM     18  C   UNL     1       0.526 -20.677 -15.693  1.00  0.00     0.008 C 
ATOM     19  C   UNL     1       2.496 -19.189 -16.201  1.00  0.00     0.008 C 
ENDBRANCH  12  17
ENDBRANCH  11  12
ENDBRANCH   1  11
TORSDOF 1
ENDMDL
MODEL 9
REMARK VINA RESULT:    31.233      1.756      3.767
REMARK INTER + INTRA:          48.779
REMARK INTER:                  48.649
REMARK INTRA:                   0.130
REMARK UNBOUND:                 1.113
REMARK SMILES CC1=CCC[C@H](C)C(=O)C[C@@H](C(C)C)C(=O)C1
REMARK SMILES IDX 8 1 9 2 6 3 7 4 5 5 4 6 3 7 2 8 1 9 10 11 11 12 15 13 16 14
REMARK SMILES IDX 17 15 12 17 13 18 14 19
REMARK H PARENT
REMARK Flexibility Score: 70.00
ROOT
ATOM      1  C   UNL     1       0.872 -14.945 -15.577  1.00  0.00     0.136 C 
ATOM      2  O   UNL     1       1.095 -15.032 -16.776  1.00  0.00    -0.299 OA
ENDROOT
BRANCH   1   3
ATOM      3  C   UNL     1       0.731 -13.548 -14.985  1.00  0.00     0.053 C 
ATOM      4  C   UNL     1       1.615 -12.541 -15.736  1.00  0.00     0.016 C 
BRANCH   3   5
ATOM      5  C   UNL     1      -0.701 -13.022 -14.655  1.00  0.00     0.015 C 
BRANCH   5   6
ATOM      6  C   UNL     1      -1.443 -13.486 -13.379  1.00  0.00     0.028 C 
BRANCH   6   7
ATOM      7  C   UNL     1      -2.738 -14.210 -13.640  1.00  0.00    -0.028 C 
ATOM      8  C   UNL     1      -2.909 -15.551 -13.551  1.00  0.00    -0.070 CG0
ATOM      9  C   UNL     1      -4.267 -16.113 -13.883  1.00  0.00     0.039 C 
ATOM     10  G   UNL     1      -1.809 -16.500 -13.097  1.00  0.00     0.000 G0
ENDBRANCH   6   7
ENDBRANCH   5   6
ENDBRANCH   3   5
ENDBRANCH   1   3
BRANCH   1  11
ATOM     11  C   UNL     1       0.722 -16.230 -14.796  1.00  0.00     0.087 C 
BRANCH  11  12
ATOM     12  C   UNL     1      -0.459 -17.106 -15.315  1.00  0.00     0.066 C 
BRANCH  12  13
ATOM     13  C   UNL     1      -1.376 -17.491 -14.162  1.00  0.00     0.140 C 
ATOM     14  O   UNL     1      -1.741 -18.653 -14.058  1.00  0.00    -0.299 OA
BRANCH  13  15
ATOM     15  C   UNL     1      -1.839 -16.512 -13.101  1.00  0.00     0.106 CG0
ATOM     16  G   UNL     1      -2.921 -15.536 -13.541  1.00  0.00     0.000 G0
ENDBRANCH  13  15
ENDBRANCH  12  13
BRANCH  12  17
ATOM     17  C   UNL     1      -0.037 -18.353 -16.157  1.00  0.00    -0.006 C 
ATOM     18  C   UNL     1       1.323 -18.227 -16.870  1.00  0.00     0.008 C 
ATOM     19  C   UNL     1      -1.124 -18.752 -17.165  1.00  0.00     0.008 C 
ENDBRANCH  12  17
ENDBRANCH  11  12
ENDBRANCH   1  11
TORSDOF 1
ENDMDL
