MODEL 1
REMARK VINA RESULT:    -6.376      0.000      0.000
REMARK INTER + INTRA:          -7.618
REMARK INTER:                  -7.494
REMARK INTRA:                  -0.124
REMARK UNBOUND:                -0.124
REMARK SMILES O=C([O-])C=Cc1ccc(O)c(O)c1
REMARK SMILES IDX 6 1 13 2 7 3 11 4 8 5 9 6 5 7 4 8 2 9 1 10 3 11 12 12 10 14
REMARK H PARENT 12 13 10 15
REMARK Flexibility Score: inf
ROOT
ATOM      1  C   UNL     1      27.793  24.100  48.531  1.00  0.00    -0.022 A 
ATOM      2  C   UNL     1      27.004  22.990  48.891  1.00  0.00     0.058 A 
ATOM      3  C   UNL     1      28.431  24.831  49.543  1.00  0.00     0.012 A 
ATOM      4  C   UNL     1      26.873  22.602  50.231  1.00  0.00     0.157 A 
ATOM      5  C   UNL     1      28.310  24.449  50.881  1.00  0.00     0.051 A 
ATOM      6  C   UNL     1      27.541  23.338  51.239  1.00  0.00     0.157 A 
ENDROOT
BRANCH   1   7
ATOM      7  C   UNL     1      27.945  24.549  47.126  1.00  0.00     0.010 C 
ATOM      8  C   UNL     1      26.922  24.673  46.268  1.00  0.00     0.025 C 
BRANCH   8   9
ATOM      9  C   UNL     1      27.114  25.111  44.875  1.00  0.00     0.064 C 
ATOM     10  O   UNL     1      28.258  25.129  44.348  1.00  0.00    -0.545 OA
ATOM     11  O   UNL     1      26.014  25.512  44.129  1.00  0.00    -0.545 OA
ENDBRANCH   8   9
ENDBRANCH   1   7
BRANCH   4  12
ATOM     12  O   UNL     1      26.075  21.492  50.514  1.00  0.00    -0.504 OA
ATOM     13  H   UNL     1      25.487  21.030  49.835  1.00  0.00     0.293 HD
ENDBRANCH   4  12
BRANCH   6  14
ATOM     14  O   UNL     1      27.464  23.005  52.593  1.00  0.00    -0.504 OA
ATOM     15  H   UNL     1      27.996  23.464  53.318  1.00  0.00     0.293 HD
ENDBRANCH   6  14
TORSDOF 4
ENDMDL
MODEL 2
REMARK VINA RESULT:    -6.373      0.881      1.891
REMARK INTER + INTRA:          -7.615
REMARK INTER:                  -7.463
REMARK INTRA:                  -0.152
REMARK UNBOUND:                -0.124
REMARK SMILES O=C([O-])C=Cc1ccc(O)c(O)c1
REMARK SMILES IDX 6 1 13 2 7 3 11 4 8 5 9 6 5 7 4 8 2 9 1 10 3 11 12 12 10 14
REMARK H PARENT 12 13 10 15
REMARK Flexibility Score: inf
ROOT
ATOM      1  C   UNL     1      27.520  23.947  48.899  1.00  0.00    -0.022 A 
ATOM      2  C   UNL     1      28.173  24.435  50.048  1.00  0.00     0.058 A 
ATOM      3  C   UNL     1      26.762  22.772  49.001  1.00  0.00     0.012 A 
ATOM      4  C   UNL     1      28.053  23.777  51.279  1.00  0.00     0.157 A 
ATOM      5  C   UNL     1      26.634  22.112  50.224  1.00  0.00     0.051 A 
ATOM      6  C   UNL     1      27.268  22.603  51.370  1.00  0.00     0.157 A 
ENDROOT
BRANCH   1   7
ATOM      7  C   UNL     1      27.632  24.608  47.576  1.00  0.00     0.010 C 
ATOM      8  C   UNL     1      27.018  24.167  46.468  1.00  0.00     0.025 C 
BRANCH   8   9
ATOM      9  C   UNL     1      27.162  24.843  45.168  1.00  0.00     0.064 C 
ATOM     10  O   UNL     1      28.298  25.064  44.669  1.00  0.00    -0.545 OA
ATOM     11  O   UNL     1      26.026  25.246  44.480  1.00  0.00    -0.545 OA
ENDBRANCH   8   9
ENDBRANCH   1   7
BRANCH   4  12
ATOM     12  O   UNL     1      28.728  24.317  52.376  1.00  0.00    -0.504 OA
ATOM     13  H   UNL     1      28.536  24.069  53.336  1.00  0.00     0.293 HD
ENDBRANCH   4  12
BRANCH   6  14
ATOM     14  O   UNL     1      27.095  21.900  52.564  1.00  0.00    -0.504 OA
ATOM     15  H   UNL     1      26.217  21.501  52.863  1.00  0.00     0.293 HD
ENDBRANCH   6  14
TORSDOF 4
ENDMDL
MODEL 3
REMARK VINA RESULT:    -5.969      1.380      6.062
REMARK INTER + INTRA:          -7.140
REMARK INTER:                  -7.011
REMARK INTRA:                  -0.129
REMARK UNBOUND:                -0.124
REMARK SMILES O=C([O-])C=Cc1ccc(O)c(O)c1
REMARK SMILES IDX 6 1 13 2 7 3 11 4 8 5 9 6 5 7 4 8 2 9 1 10 3 11 12 12 10 14
REMARK H PARENT 12 13 10 15
REMARK Flexibility Score: inf
ROOT
ATOM      1  C   UNL     1      28.295  24.611  48.433  1.00  0.00    -0.022 A 
ATOM      2  C   UNL     1      29.430  24.910  47.655  1.00  0.00     0.058 A 
ATOM      3  C   UNL     1      27.063  24.427  47.788  1.00  0.00     0.012 A 
ATOM      4  C   UNL     1      29.345  25.000  46.260  1.00  0.00     0.157 A 
ATOM      5  C   UNL     1      26.970  24.511  46.397  1.00  0.00     0.051 A 
ATOM      6  C   UNL     1      28.099  24.792  45.622  1.00  0.00     0.157 A 
ENDROOT
BRANCH   1   7
ATOM      7  C   UNL     1      28.342  24.519  49.912  1.00  0.00     0.010 C 
ATOM      8  C   UNL     1      28.359  23.360  50.588  1.00  0.00     0.025 C 
BRANCH   8   9
ATOM      9  C   UNL     1      28.395  23.308  52.058  1.00  0.00     0.064 C 
ATOM     10  O   UNL     1      29.111  24.104  52.723  1.00  0.00    -0.545 OA
ATOM     11  O   UNL     1      27.625  22.366  52.726  1.00  0.00    -0.545 OA
ENDBRANCH   8   9
ENDBRANCH   1   7
BRANCH   4  12
ATOM     12  O   UNL     1      30.511  25.301  45.553  1.00  0.00    -0.504 OA
ATOM     13  H   UNL     1      30.754  24.891  44.663  1.00  0.00     0.293 HD
ENDBRANCH   4  12
BRANCH   6  14
ATOM     14  O   UNL     1      27.939  24.857  44.236  1.00  0.00    -0.504 OA
ATOM     15  H   UNL     1      27.306  25.490  43.769  1.00  0.00     0.293 HD
ENDBRANCH   6  14
TORSDOF 4
ENDMDL
MODEL 4
REMARK VINA RESULT:    -5.810      1.420      5.844
REMARK INTER + INTRA:          -6.953
REMARK INTER:                  -6.800
REMARK INTRA:                  -0.153
REMARK UNBOUND:                -0.124
REMARK SMILES O=C([O-])C=Cc1ccc(O)c(O)c1
REMARK SMILES IDX 6 1 13 2 7 3 11 4 8 5 9 6 5 7 4 8 2 9 1 10 3 11 12 12 10 14
REMARK H PARENT 12 13 10 15
REMARK Flexibility Score: inf
ROOT
ATOM      1  C   UNL     1      27.957  24.175  48.473  1.00  0.00    -0.022 A 
ATOM      2  C   UNL     1      26.910  23.959  47.556  1.00  0.00     0.058 A 
ATOM      3  C   UNL     1      29.178  24.674  47.998  1.00  0.00     0.012 A 
ATOM      4  C   UNL     1      27.069  24.257  46.197  1.00  0.00     0.157 A 
ATOM      5  C   UNL     1      29.344  24.978  46.645  1.00  0.00     0.051 A 
ATOM      6  C   UNL     1      28.301  24.780  45.736  1.00  0.00     0.157 A 
ENDROOT
BRANCH   1   7
ATOM      7  C   UNL     1      27.832  23.860  49.917  1.00  0.00     0.010 C 
ATOM      8  C   UNL     1      28.867  23.848  50.770  1.00  0.00     0.025 C 
BRANCH   8   9
ATOM      9  C   UNL     1      28.706  23.520  52.196  1.00  0.00     0.064 C 
ATOM     10  O   UNL     1      27.805  22.730  52.587  1.00  0.00    -0.545 OA
ATOM     11  O   UNL     1      29.563  24.090  53.128  1.00  0.00    -0.545 OA
ENDBRANCH   8   9
ENDBRANCH   1   7
BRANCH   4  12
ATOM     12  O   UNL     1      25.988  24.017  45.345  1.00  0.00    -0.504 OA
ATOM     13  H   UNL     1      25.418  24.744  44.937  1.00  0.00     0.293 HD
ENDBRANCH   4  12
BRANCH   6  14
ATOM     14  O   UNL     1      28.529  25.109  44.398  1.00  0.00    -0.504 OA
ATOM     15  H   UNL     1      28.018  24.712  43.624  1.00  0.00     0.293 HD
ENDBRANCH   6  14
TORSDOF 4
ENDMDL
MODEL 5
REMARK VINA RESULT:    -5.502      1.861      2.111
REMARK INTER + INTRA:          -6.591
REMARK INTER:                  -6.459
REMARK INTRA:                  -0.132
REMARK UNBOUND:                -0.124
REMARK SMILES O=C([O-])C=Cc1ccc(O)c(O)c1
REMARK SMILES IDX 6 1 13 2 7 3 11 4 8 5 9 6 5 7 4 8 2 9 1 10 3 11 12 12 10 14
REMARK H PARENT 12 13 10 15
REMARK Flexibility Score: inf
ROOT
ATOM      1  C   UNL     1      29.030  24.106  48.697  1.00  0.00    -0.022 A 
ATOM      2  C   UNL     1      29.910  23.038  48.958  1.00  0.00     0.058 A 
ATOM      3  C   UNL     1      28.394  24.736  49.777  1.00  0.00     0.012 A 
ATOM      4  C   UNL     1      30.169  22.621  50.270  1.00  0.00     0.157 A 
ATOM      5  C   UNL     1      28.650  24.330  51.088  1.00  0.00     0.051 A 
ATOM      6  C   UNL     1      29.536  23.281  51.350  1.00  0.00     0.157 A 
ENDROOT
BRANCH   1   7
ATOM      7  C   UNL     1      28.720  24.568  47.322  1.00  0.00     0.010 C 
ATOM      8  C   UNL     1      27.580  24.280  46.678  1.00  0.00     0.025 C 
BRANCH   8   9
ATOM      9  C   UNL     1      27.312  24.747  45.308  1.00  0.00     0.064 C 
ATOM     10  O   UNL     1      28.251  25.045  44.524  1.00  0.00    -0.545 OA
ATOM     11  O   UNL     1      25.998  24.861  44.871  1.00  0.00    -0.545 OA
ENDBRANCH   8   9
ENDBRANCH   1   7
BRANCH   4  12
ATOM     12  O   UNL     1      31.052  21.555  50.453  1.00  0.00    -0.504 OA
ATOM     13  H   UNL     1      31.337  20.924  49.718  1.00  0.00     0.293 HD
ENDBRANCH   4  12
BRANCH   6  14
ATOM     14  O   UNL     1      29.753  22.927  52.683  1.00  0.00    -0.504 OA
ATOM     15  H   UNL     1      30.605  23.123  53.188  1.00  0.00     0.293 HD
ENDBRANCH   6  14
TORSDOF 4
ENDMDL
MODEL 6
REMARK VINA RESULT:    -5.237      1.787      2.501
REMARK INTER + INTRA:          -6.280
REMARK INTER:                  -6.128
REMARK INTRA:                  -0.152
REMARK UNBOUND:                -0.124
REMARK SMILES O=C([O-])C=Cc1ccc(O)c(O)c1
REMARK SMILES IDX 6 1 13 2 7 3 11 4 8 5 9 6 5 7 4 8 2 9 1 10 3 11 12 12 10 14
REMARK H PARENT 12 13 10 15
REMARK Flexibility Score: inf
ROOT
ATOM      1  C   UNL     1      28.151  23.450  50.635  1.00  0.00    -0.022 A 
ATOM      2  C   UNL     1      27.370  22.568  51.406  1.00  0.00     0.058 A 
ATOM      3  C   UNL     1      29.285  24.033  51.218  1.00  0.00     0.012 A 
ATOM      4  C   UNL     1      27.725  22.255  52.725  1.00  0.00     0.157 A 
ATOM      5  C   UNL     1      29.649  23.724  52.530  1.00  0.00     0.051 A 
ATOM      6  C   UNL     1      28.884  22.836  53.292  1.00  0.00     0.157 A 
ENDROOT
BRANCH   1   7
ATOM      7  C   UNL     1      27.801  23.816  49.241  1.00  0.00     0.010 C 
ATOM      8  C   UNL     1      28.653  24.404  48.388  1.00  0.00     0.025 C 
BRANCH   8   9
ATOM      9  C   UNL     1      28.267  24.762  47.013  1.00  0.00     0.064 C 
ATOM     10  O   UNL     1      29.134  24.974  46.125  1.00  0.00    -0.545 OA
ATOM     11  O   UNL     1      26.920  24.870  46.690  1.00  0.00    -0.545 OA
ENDBRANCH   8   9
ENDBRANCH   1   7
BRANCH   4  12
ATOM     12  O   UNL     1      26.903  21.373  53.430  1.00  0.00    -0.504 OA
ATOM     13  H   UNL     1      27.237  20.730  54.133  1.00  0.00     0.293 HD
ENDBRANCH   4  12
BRANCH   6  14
ATOM     14  O   UNL     1      29.305  22.565  54.595  1.00  0.00    -0.504 OA
ATOM     15  H   UNL     1      28.677  22.390  55.367  1.00  0.00     0.293 HD
ENDBRANCH   6  14
TORSDOF 4
ENDMDL
MODEL 7
REMARK VINA RESULT:    -5.194      1.436      5.689
REMARK INTER + INTRA:          -6.230
REMARK INTER:                  -6.100
REMARK INTRA:                  -0.129
REMARK UNBOUND:                -0.124
REMARK SMILES O=C([O-])C=Cc1ccc(O)c(O)c1
REMARK SMILES IDX 6 1 13 2 7 3 11 4 8 5 9 6 5 7 4 8 2 9 1 10 3 11 12 12 10 14
REMARK H PARENT 12 13 10 15
REMARK Flexibility Score: inf
ROOT
ATOM      1  C   UNL     1      28.137  24.295  47.727  1.00  0.00    -0.022 A 
ATOM      2  C   UNL     1      27.585  24.431  46.438  1.00  0.00     0.058 A 
ATOM      3  C   UNL     1      29.494  24.596  47.915  1.00  0.00     0.012 A 
ATOM      4  C   UNL     1      28.364  24.880  45.364  1.00  0.00     0.157 A 
ATOM      5  C   UNL     1      30.276  25.049  46.851  1.00  0.00     0.051 A 
ATOM      6  C   UNL     1      29.726  25.200  45.575  1.00  0.00     0.157 A 
ENDROOT
BRANCH   1   7
ATOM      7  C   UNL     1      27.350  23.811  48.887  1.00  0.00     0.010 C 
ATOM      8  C   UNL     1      27.455  22.575  49.396  1.00  0.00     0.025 C 
BRANCH   8   9
ATOM      9  C   UNL     1      26.647  22.126  50.542  1.00  0.00     0.064 C 
ATOM     10  O   UNL     1      27.019  22.339  51.726  1.00  0.00    -0.545 OA
ATOM     11  O   UNL     1      25.454  21.454  50.313  1.00  0.00    -0.545 OA
ENDBRANCH   8   9
ENDBRANCH   1   7
BRANCH   4  12
ATOM     12  O   UNL     1      27.750  24.990  44.115  1.00  0.00    -0.504 OA
ATOM     13  H   UNL     1      28.139  25.502  43.336  1.00  0.00     0.293 HD
ENDBRANCH   4  12
BRANCH   6  14
ATOM     14  O   UNL     1      30.560  25.662  44.555  1.00  0.00    -0.504 OA
ATOM     15  H   UNL     1      30.896  25.087  43.796  1.00  0.00     0.293 HD
ENDBRANCH   6  14
TORSDOF 4
ENDMDL
MODEL 8
REMARK VINA RESULT:    -5.133      2.462      6.092
REMARK INTER + INTRA:          -6.158
REMARK INTER:                  -6.015
REMARK INTRA:                  -0.142
REMARK UNBOUND:                -0.124
REMARK SMILES O=C([O-])C=Cc1ccc(O)c(O)c1
REMARK SMILES IDX 6 1 13 2 7 3 11 4 8 5 9 6 5 7 4 8 2 9 1 10 3 11 12 12 10 14
REMARK H PARENT 12 13 10 15
REMARK Flexibility Score: inf
ROOT
ATOM      1  C   UNL     1      28.235  23.809  50.992  1.00  0.00    -0.022 A 
ATOM      2  C   UNL     1      27.130  22.998  50.669  1.00  0.00     0.058 A 
ATOM      3  C   UNL     1      28.759  24.660  50.008  1.00  0.00     0.012 A 
ATOM      4  C   UNL     1      26.544  23.051  49.397  1.00  0.00     0.157 A 
ATOM      5  C   UNL     1      28.179  24.722  48.740  1.00  0.00     0.051 A 
ATOM      6  C   UNL     1      27.072  23.930  48.422  1.00  0.00     0.157 A 
ENDROOT
BRANCH   1   7
ATOM      7  C   UNL     1      28.890  23.773  52.322  1.00  0.00     0.010 C 
ATOM      8  C   UNL     1      30.220  23.774  52.499  1.00  0.00     0.025 C 
BRANCH   8   9
ATOM      9  C   UNL     1      30.835  23.726  53.835  1.00  0.00     0.064 C 
ATOM     10  O   UNL     1      31.662  24.601  54.206  1.00  0.00    -0.545 OA
ATOM     11  O   UNL     1      30.498  22.697  54.704  1.00  0.00    -0.545 OA
ENDBRANCH   8   9
ENDBRANCH   1   7
BRANCH   4  12
ATOM     12  O   UNL     1      25.452  22.218  49.147  1.00  0.00    -0.504 OA
ATOM     13  H   UNL     1      24.601  22.223  49.691  1.00  0.00     0.293 HD
ENDBRANCH   4  12
BRANCH   6  14
ATOM     14  O   UNL     1      26.535  24.043  47.138  1.00  0.00    -0.504 OA
ATOM     15  H   UNL     1      26.055  23.296  46.658  1.00  0.00     0.293 HD
ENDBRANCH   6  14
TORSDOF 4
ENDMDL
MODEL 9
REMARK VINA RESULT:    -5.054     11.449     13.335
REMARK INTER + INTRA:          -6.065
REMARK INTER:                  -5.942
REMARK INTRA:                  -0.123
REMARK UNBOUND:                -0.124
REMARK SMILES O=C([O-])C=Cc1ccc(O)c(O)c1
REMARK SMILES IDX 6 1 13 2 7 3 11 4 8 5 9 6 5 7 4 8 2 9 1 10 3 11 12 12 10 14
REMARK H PARENT 12 13 10 15
REMARK Flexibility Score: inf
ROOT
ATOM      1  C   UNL     1      17.155  21.543  43.117  1.00  0.00    -0.022 A 
ATOM      2  C   UNL     1      15.981  22.200  42.699  1.00  0.00     0.058 A 
ATOM      3  C   UNL     1      18.397  22.064  42.725  1.00  0.00     0.012 A 
ATOM      4  C   UNL     1      16.045  23.366  41.925  1.00  0.00     0.157 A 
ATOM      5  C   UNL     1      18.469  23.228  41.957  1.00  0.00     0.051 A 
ATOM      6  C   UNL     1      17.306  23.890  41.555  1.00  0.00     0.157 A 
ENDROOT
BRANCH   1   7
ATOM      7  C   UNL     1      17.130  20.301  43.927  1.00  0.00     0.010 C 
ATOM      8  C   UNL     1      16.010  19.618  44.209  1.00  0.00     0.025 C 
BRANCH   8   9
ATOM      9  C   UNL     1      16.022  18.393  45.026  1.00  0.00     0.064 C 
ATOM     10  O   UNL     1      16.516  17.320  44.587  1.00  0.00    -0.545 OA
ATOM     11  O   UNL     1      15.480  18.420  46.304  1.00  0.00    -0.545 OA
ENDBRANCH   8   9
ENDBRANCH   1   7
BRANCH   4  12
ATOM     12  O   UNL     1      14.841  23.964  41.546  1.00  0.00    -0.504 OA
ATOM     13  H   UNL     1      14.019  23.450  41.265  1.00  0.00     0.293 HD
ENDBRANCH   4  12
BRANCH   6  14
ATOM     14  O   UNL     1      17.447  25.052  40.793  1.00  0.00    -0.504 OA
ATOM     15  H   UNL     1      17.717  25.061  39.820  1.00  0.00     0.293 HD
ENDBRANCH   6  14
TORSDOF 4
ENDMDL
