MODEL 1
REMARK VINA RESULT:    -4.528      0.000      0.000
REMARK INTER + INTRA:          -5.142
REMARK INTER:                  -5.190
REMARK INTRA:                   0.048
REMARK UNBOUND:                 0.048
REMARK SMILES CC(C)[C@@H]([NH3+])C(=O)[O-]
REMARK SMILES IDX 4 1 5 2 6 6 7 7 8 8 2 9 1 10 3 11
REMARK H PARENT 5 3 5 4 5 5
REMARK Flexibility Score: inf
ROOT
ATOM      1  C   UNL     1     -20.428  -6.062   1.468  1.00  0.00     0.230 C 
ENDROOT
BRANCH   1   2
ATOM      2  N   UNL     1     -19.465  -7.159   1.656  1.00  0.00    -0.350 N 
ATOM      3  H   UNL     1     -19.871  -7.895   2.276  1.00  0.00     0.345 HD
ATOM      4  H   UNL     1     -18.601  -6.801   2.128  1.00  0.00     0.345 HD
ATOM      5  H   UNL     1     -19.200  -7.581   0.736  1.00  0.00     0.345 HD
ENDBRANCH   1   2
BRANCH   1   6
ATOM      6  C   UNL     1     -19.703  -4.743   1.560  1.00  0.00     0.099 C 
ATOM      7  O   UNL     1     -20.351  -3.671   1.689  1.00  0.00    -0.544 OA
ATOM      8  O   UNL     1     -18.315  -4.702   1.498  1.00  0.00    -0.544 OA
ENDBRANCH   1   6
BRANCH   1   9
ATOM      9  C   UNL     1     -21.185  -6.183   0.111  1.00  0.00     0.047 C 
ATOM     10  C   UNL     1     -20.406  -5.529  -1.042  1.00  0.00     0.014 C 
ATOM     11  C   UNL     1     -21.464  -7.656  -0.242  1.00  0.00     0.014 C 
ENDBRANCH   1   9
TORSDOF 3
ENDMDL
MODEL 2
REMARK VINA RESULT:    -4.414      2.518      3.198
REMARK INTER + INTRA:          -5.011
REMARK INTER:                  -4.959
REMARK INTRA:                  -0.052
REMARK UNBOUND:                 0.048
REMARK SMILES CC(C)[C@@H]([NH3+])C(=O)[O-]
REMARK SMILES IDX 4 1 5 2 6 6 7 7 8 8 2 9 1 10 3 11
REMARK H PARENT 5 3 5 4 5 5
REMARK Flexibility Score: inf
ROOT
ATOM      1  C   UNL     1     -20.049  -6.531   0.385  1.00  0.00     0.230 C 
ENDROOT
BRANCH   1   2
ATOM      2  N   UNL     1     -19.387  -6.901   1.647  1.00  0.00    -0.350 N 
ATOM      3  H   UNL     1     -19.211  -6.050   2.226  1.00  0.00     0.345 HD
ATOM      4  H   UNL     1     -18.455  -7.336   1.449  1.00  0.00     0.345 HD
ATOM      5  H   UNL     1     -19.972  -7.580   2.187  1.00  0.00     0.345 HD
ENDBRANCH   1   2
BRANCH   1   6
ATOM      6  C   UNL     1     -21.201  -7.472   0.136  1.00  0.00     0.099 C 
ATOM      7  O   UNL     1     -22.254  -7.381   0.820  1.00  0.00    -0.544 OA
ATOM      8  O   UNL     1     -21.107  -8.449  -0.848  1.00  0.00    -0.544 OA
ENDBRANCH   1   6
BRANCH   1   9
ATOM      9  C   UNL     1     -20.538  -5.051   0.400  1.00  0.00     0.047 C 
ATOM     10  C   UNL     1     -19.859  -4.233   1.512  1.00  0.00     0.014 C 
ATOM     11  C   UNL     1     -20.282  -4.367  -0.955  1.00  0.00     0.014 C 
ENDBRANCH   1   9
TORSDOF 3
ENDMDL
MODEL 3
REMARK VINA RESULT:    -4.185      2.816      3.530
REMARK INTER + INTRA:          -4.748
REMARK INTER:                  -4.700
REMARK INTRA:                  -0.048
REMARK UNBOUND:                 0.048
REMARK SMILES CC(C)[C@@H]([NH3+])C(=O)[O-]
REMARK SMILES IDX 4 1 5 2 6 6 7 7 8 8 2 9 1 10 3 11
REMARK H PARENT 5 3 5 4 5 5
REMARK Flexibility Score: inf
ROOT
ATOM      1  C   UNL     1     -21.032  -6.678   0.834  1.00  0.00     0.230 C 
ENDROOT
BRANCH   1   2
ATOM      2  N   UNL     1     -22.396  -6.255   0.479  1.00  0.00    -0.350 N 
ATOM      3  H   UNL     1     -22.452  -6.030  -0.540  1.00  0.00     0.345 HD
ATOM      4  H   UNL     1     -22.648  -5.383   1.001  1.00  0.00     0.345 HD
ATOM      5  H   UNL     1     -23.088  -7.004   0.713  1.00  0.00     0.345 HD
ENDBRANCH   1   2
BRANCH   1   6
ATOM      6  C   UNL     1     -20.744  -8.013   0.194  1.00  0.00     0.099 C 
ATOM      7  O   UNL     1     -19.995  -8.845   0.771  1.00  0.00    -0.544 OA
ATOM      8  O   UNL     1     -21.301  -8.332  -1.039  1.00  0.00    -0.544 OA
ENDBRANCH   1   6
BRANCH   1   9
ATOM      9  C   UNL     1     -19.969  -5.621   0.407  1.00  0.00     0.047 C 
ATOM     10  C   UNL     1     -20.357  -4.909  -0.899  1.00  0.00     0.014 C 
ATOM     11  C   UNL     1     -19.757  -4.568   1.510  1.00  0.00     0.014 C 
ENDBRANCH   1   9
TORSDOF 3
ENDMDL
MODEL 4
REMARK VINA RESULT:    -4.181      1.579      1.912
REMARK INTER + INTRA:          -4.744
REMARK INTER:                  -4.701
REMARK INTRA:                  -0.043
REMARK UNBOUND:                 0.048
REMARK SMILES CC(C)[C@@H]([NH3+])C(=O)[O-]
REMARK SMILES IDX 4 1 5 2 6 6 7 7 8 8 2 9 1 10 3 11
REMARK H PARENT 5 3 5 4 5 5
REMARK Flexibility Score: inf
ROOT
ATOM      1  C   UNL     1     -20.009  -5.267  -0.092  1.00  0.00     0.230 C 
ENDROOT
BRANCH   1   2
ATOM      2  N   UNL     1     -20.635  -4.388  -1.092  1.00  0.00    -0.350 N 
ATOM      3  H   UNL     1     -19.996  -3.595  -1.327  1.00  0.00     0.345 HD
ATOM      4  H   UNL     1     -21.513  -3.970  -0.704  1.00  0.00     0.345 HD
ATOM      5  H   UNL     1     -20.867  -4.922  -1.961  1.00  0.00     0.345 HD
ENDBRANCH   1   2
BRANCH   1   6
ATOM      6  C   UNL     1     -19.567  -4.440   1.089  1.00  0.00     0.099 C 
ATOM      7  O   UNL     1     -20.386  -3.687   1.678  1.00  0.00    -0.544 OA
ATOM      8  O   UNL     1     -18.251  -4.500   1.532  1.00  0.00    -0.544 OA
ENDBRANCH   1   6
BRANCH   1   9
ATOM      9  C   UNL     1     -20.971  -6.407   0.361  1.00  0.00     0.047 C 
ATOM     10  C   UNL     1     -21.285  -7.383  -0.785  1.00  0.00     0.014 C 
ATOM     11  C   UNL     1     -20.384  -7.194   1.546  1.00  0.00     0.014 C 
ENDBRANCH   1   9
TORSDOF 3
ENDMDL
MODEL 5
REMARK VINA RESULT:    -2.982     15.928     16.672
REMARK INTER + INTRA:          -3.369
REMARK INTER:                  -3.470
REMARK INTRA:                   0.101
REMARK UNBOUND:                 0.048
REMARK SMILES CC(C)[C@@H]([NH3+])C(=O)[O-]
REMARK SMILES IDX 4 1 5 2 6 6 7 7 8 8 2 9 1 10 3 11
REMARK H PARENT 5 3 5 4 5 5
REMARK Flexibility Score: inf
ROOT
ATOM      1  C   UNL     1     -18.570  -4.910  16.608  1.00  0.00     0.230 C 
ENDROOT
BRANCH   1   2
ATOM      2  N   UNL     1     -18.885  -5.079  15.180  1.00  0.00    -0.350 N 
ATOM      3  H   UNL     1     -18.101  -4.718  14.591  1.00  0.00     0.345 HD
ATOM      4  H   UNL     1     -19.737  -4.523  14.932  1.00  0.00     0.345 HD
ATOM      5  H   UNL     1     -19.058  -6.086  14.956  1.00  0.00     0.345 HD
ENDBRANCH   1   2
BRANCH   1   6
ATOM      6  C   UNL     1     -19.751  -5.354  17.433  1.00  0.00     0.099 C 
ATOM      7  O   UNL     1     -20.612  -6.130  16.941  1.00  0.00    -0.544 OA
ATOM      8  O   UNL     1     -19.900  -4.906  18.740  1.00  0.00    -0.544 OA
ENDBRANCH   1   6
BRANCH   1   9
ATOM      9  C   UNL     1     -17.286  -5.694  17.013  1.00  0.00     0.047 C 
ATOM     10  C   UNL     1     -16.580  -5.056  18.221  1.00  0.00     0.014 C 
ATOM     11  C   UNL     1     -17.610  -7.164  17.340  1.00  0.00     0.014 C 
ENDBRANCH   1   9
TORSDOF 3
ENDMDL
MODEL 6
REMARK VINA RESULT:    -2.979     16.798     18.193
REMARK INTER + INTRA:          -3.366
REMARK INTER:                  -3.317
REMARK INTRA:                  -0.050
REMARK UNBOUND:                 0.048
REMARK SMILES CC(C)[C@@H]([NH3+])C(=O)[O-]
REMARK SMILES IDX 4 1 5 2 6 6 7 7 8 8 2 9 1 10 3 11
REMARK H PARENT 5 3 5 4 5 5
REMARK Flexibility Score: inf
ROOT
ATOM      1  C   UNL     1     -17.965   9.614  10.189  1.00  0.00     0.230 C 
ENDROOT
BRANCH   1   2
ATOM      2  N   UNL     1     -17.153  10.125   9.073  1.00  0.00    -0.350 N 
ATOM      3  H   UNL     1     -17.223  11.166   9.022  1.00  0.00     0.345 HD
ATOM      4  H   UNL     1     -17.513   9.748   8.165  1.00  0.00     0.345 HD
ATOM      5  H   UNL     1     -16.151   9.844   9.185  1.00  0.00     0.345 HD
ENDBRANCH   1   2
BRANCH   1   6
ATOM      6  C   UNL     1     -18.649   8.339   9.762  1.00  0.00     0.099 C 
ATOM      7  O   UNL     1     -17.974   7.379   9.307  1.00  0.00    -0.544 OA
ATOM      8  O   UNL     1     -20.030   8.218   9.863  1.00  0.00    -0.544 OA
ENDBRANCH   1   6
BRANCH   1   9
ATOM      9  C   UNL     1     -17.107   9.378  11.469  1.00  0.00     0.047 C 
ATOM     10  C   UNL     1     -15.764  10.125  11.406  1.00  0.00     0.014 C 
ATOM     11  C   UNL     1     -17.865   9.813  12.736  1.00  0.00     0.014 C 
ENDBRANCH   1   9
TORSDOF 3
ENDMDL
MODEL 7
REMARK VINA RESULT:    -2.905     15.934     16.547
REMARK INTER + INTRA:          -3.281
REMARK INTER:                  -3.408
REMARK INTRA:                   0.127
REMARK UNBOUND:                 0.048
REMARK SMILES CC(C)[C@@H]([NH3+])C(=O)[O-]
REMARK SMILES IDX 4 1 5 2 6 6 7 7 8 8 2 9 1 10 3 11
REMARK H PARENT 5 3 5 4 5 5
REMARK Flexibility Score: inf
ROOT
ATOM      1  C   UNL     1     -18.420  -5.278  16.294  1.00  0.00     0.230 C 
ENDROOT
BRANCH   1   2
ATOM      2  N   UNL     1     -18.659  -3.839  16.100  1.00  0.00    -0.350 N 
ATOM      3  H   UNL     1     -19.405  -3.689  15.384  1.00  0.00     0.345 HD
ATOM      4  H   UNL     1     -17.791  -3.376  15.742  1.00  0.00     0.345 HD
ATOM      5  H   UNL     1     -18.940  -3.386  17.001  1.00  0.00     0.345 HD
ENDBRANCH   1   2
BRANCH   1   6
ATOM      6  C   UNL     1     -17.286  -5.466  17.271  1.00  0.00     0.099 C 
ATOM      7  O   UNL     1     -17.276  -4.834  18.360  1.00  0.00    -0.544 OA
ATOM      8  O   UNL     1     -16.242  -6.333  16.972  1.00  0.00    -0.544 OA
ENDBRANCH   1   6
BRANCH   1   9
ATOM      9  C   UNL     1     -19.701  -6.017  16.787  1.00  0.00     0.047 C 
ATOM     10  C   UNL     1     -19.393  -7.447  17.261  1.00  0.00     0.014 C 
ATOM     11  C   UNL     1     -20.385  -5.244  17.929  1.00  0.00     0.014 C 
ENDBRANCH   1   9
TORSDOF 3
ENDMDL
