MODEL 1
REMARK VINA RESULT:    -4.626      0.000      0.000
REMARK INTER + INTRA:          -5.748
REMARK INTER:                  -5.573
REMARK INTRA:                  -0.175
REMARK UNBOUND:                -0.175
REMARK SMILES [NH3+][C@@H](Cc1cnc[nH]1)C(=O)[O-]
REMARK SMILES IDX 3 1 2 2 1 3 9 7 10 8 11 9 4 10 5 11 8 12 6 13 7 14
REMARK H PARENT 1 4 1 5 1 6 8 15
REMARK Flexibility Score: inf
ROOT
ATOM      1  C   UNL     1     -20.697  -7.977  43.954  1.00  0.00     0.127 C 
ENDROOT
BRANCH   1   2
ATOM      2  C   UNL     1     -21.749  -7.495  42.934  1.00  0.00     0.233 C 
BRANCH   2   3
ATOM      3  N   UNL     1     -22.322  -6.211  43.354  1.00  0.00    -0.350 N 
ATOM      4  H   UNL     1     -22.414  -5.576  42.528  1.00  0.00     0.345 HD
ATOM      5  H   UNL     1     -21.690  -5.752  44.050  1.00  0.00     0.345 HD
ATOM      6  H   UNL     1     -23.265  -6.351  43.788  1.00  0.00     0.345 HD
ENDBRANCH   2   3
BRANCH   2   7
ATOM      7  C   UNL     1     -22.840  -8.520  42.756  1.00  0.00     0.099 C 
ATOM      8  O   UNL     1     -22.721  -9.439  41.903  1.00  0.00    -0.544 OA
ATOM      9  O   UNL     1     -23.995  -8.443  43.522  1.00  0.00    -0.544 OA
ENDBRANCH   2   7
ENDBRANCH   1   2
BRANCH   1  10
ATOM     10  C   UNL     1     -19.386  -8.282  43.291  1.00  0.00     0.041 A 
ATOM     11  C   UNL     1     -19.007  -9.484  42.738  1.00  0.00     0.134 A 
ATOM     12  N   UNL     1     -18.414  -7.384  43.074  1.00  0.00    -0.348 N 
ATOM     13  N   UNL     1     -17.786  -9.348  42.181  1.00  0.00    -0.245 NA
ATOM     14  C   UNL     1     -17.458  -8.057  42.406  1.00  0.00     0.196 A 
ATOM     15  H   UNL     1     -18.402  -6.377  43.350  1.00  0.00     0.167 HD
ENDBRANCH   1  10
TORSDOF 4
ENDMDL
MODEL 2
REMARK VINA RESULT:    -4.590      4.421      6.001
REMARK INTER + INTRA:          -5.705
REMARK INTER:                  -5.533
REMARK INTRA:                  -0.172
REMARK UNBOUND:                -0.175
REMARK SMILES [NH3+][C@@H](Cc1cnc[nH]1)C(=O)[O-]
REMARK SMILES IDX 3 1 2 2 1 3 9 7 10 8 11 9 4 10 5 11 8 12 6 13 7 14
REMARK H PARENT 1 4 1 5 1 6 8 15
REMARK Flexibility Score: inf
ROOT
ATOM      1  C   UNL     1     -18.103 -13.237  42.506  1.00  0.00     0.127 C 
ENDROOT
BRANCH   1   2
ATOM      2  C   UNL     1     -18.282 -14.305  43.606  1.00  0.00     0.233 C 
BRANCH   2   3
ATOM      3  N   UNL     1     -17.718 -15.589  43.172  1.00  0.00    -0.350 N 
ATOM      4  H   UNL     1     -17.003 -15.428  42.426  1.00  0.00     0.345 HD
ATOM      5  H   UNL     1     -18.474 -16.192  42.775  1.00  0.00     0.345 HD
ATOM      6  H   UNL     1     -17.271 -16.087  43.978  1.00  0.00     0.345 HD
ENDBRANCH   2   3
BRANCH   2   7
ATOM      7  C   UNL     1     -19.736 -14.470  43.969  1.00  0.00     0.099 C 
ATOM      8  O   UNL     1     -20.118 -15.462  44.644  1.00  0.00    -0.544 OA
ATOM      9  O   UNL     1     -20.667 -13.533  43.542  1.00  0.00    -0.544 OA
ENDBRANCH   2   7
ENDBRANCH   1   2
BRANCH   1  10
ATOM     10  C   UNL     1     -17.526 -11.968  43.060  1.00  0.00     0.041 A 
ATOM     11  C   UNL     1     -18.189 -11.026  43.813  1.00  0.00     0.134 A 
ATOM     12  N   UNL     1     -16.238 -11.608  42.958  1.00  0.00    -0.348 N 
ATOM     13  N   UNL     1     -17.320 -10.062  44.178  1.00  0.00    -0.245 NA
ATOM     14  C   UNL     1     -16.144 -10.449  43.639  1.00  0.00     0.196 A 
ATOM     15  H   UNL     1     -15.470 -12.117  42.469  1.00  0.00     0.167 HD
ENDBRANCH   1  10
TORSDOF 4
ENDMDL
MODEL 3
REMARK VINA RESULT:    -4.589      5.952      7.549
REMARK INTER + INTRA:          -5.703
REMARK INTER:                  -5.522
REMARK INTRA:                  -0.181
REMARK UNBOUND:                -0.175
REMARK SMILES [NH3+][C@@H](Cc1cnc[nH]1)C(=O)[O-]
REMARK SMILES IDX 3 1 2 2 1 3 9 7 10 8 11 9 4 10 5 11 8 12 6 13 7 14
REMARK H PARENT 1 4 1 5 1 6 8 15
REMARK Flexibility Score: inf
ROOT
ATOM      1  C   UNL     1     -18.441 -14.496  44.212  1.00  0.00     0.127 C 
ENDROOT
BRANCH   1   2
ATOM      2  C   UNL     1     -18.294 -13.696  42.901  1.00  0.00     0.233 C 
BRANCH   2   3
ATOM      3  N   UNL     1     -17.101 -14.130  42.165  1.00  0.00    -0.350 N 
ATOM      4  H   UNL     1     -17.145 -15.161  41.993  1.00  0.00     0.345 HD
ATOM      5  H   UNL     1     -16.244 -13.930  42.731  1.00  0.00     0.345 HD
ATOM      6  H   UNL     1     -17.030 -13.629  41.248  1.00  0.00     0.345 HD
ENDBRANCH   2   3
BRANCH   2   7
ATOM      7  C   UNL     1     -18.228 -12.215  43.176  1.00  0.00     0.099 C 
ATOM      8  O   UNL     1     -19.154 -11.640  43.808  1.00  0.00    -0.544 OA
ATOM      9  O   UNL     1     -17.151 -11.471  42.713  1.00  0.00    -0.544 OA
ENDBRANCH   2   7
ENDBRANCH   1   2
BRANCH   1  10
ATOM     10  C   UNL     1     -19.747 -15.233  44.264  1.00  0.00     0.041 A 
ATOM     11  C   UNL     1     -20.682 -15.318  43.257  1.00  0.00     0.134 A 
ATOM     12  N   UNL     1     -20.155 -15.991  45.293  1.00  0.00    -0.348 N 
ATOM     13  N   UNL     1     -21.689 -16.120  43.656  1.00  0.00    -0.245 NA
ATOM     14  C   UNL     1     -21.334 -16.510  44.900  1.00  0.00     0.196 A 
ATOM     15  H   UNL     1     -19.663 -16.155  46.199  1.00  0.00     0.167 HD
ENDBRANCH   1  10
TORSDOF 4
ENDMDL
MODEL 4
REMARK VINA RESULT:    -4.541      3.565      5.316
REMARK INTER + INTRA:          -5.646
REMARK INTER:                  -5.474
REMARK INTRA:                  -0.172
REMARK UNBOUND:                -0.175
REMARK SMILES [NH3+][C@@H](Cc1cnc[nH]1)C(=O)[O-]
REMARK SMILES IDX 3 1 2 2 1 3 9 7 10 8 11 9 4 10 5 11 8 12 6 13 7 14
REMARK H PARENT 1 4 1 5 1 6 8 15
REMARK Flexibility Score: inf
ROOT
ATOM      1  C   UNL     1     -17.491  -9.306  43.795  1.00  0.00     0.127 C 
ENDROOT
BRANCH   1   2
ATOM      2  C   UNL     1     -16.877 -10.169  42.673  1.00  0.00     0.233 C 
BRANCH   2   3
ATOM      3  N   UNL     1     -16.206 -11.345  43.239  1.00  0.00    -0.350 N 
ATOM      4  H   UNL     1     -15.451 -11.669  42.591  1.00  0.00     0.345 HD
ATOM      5  H   UNL     1     -16.894 -12.125  43.353  1.00  0.00     0.345 HD
ATOM      6  H   UNL     1     -15.787 -11.119  44.172  1.00  0.00     0.345 HD
ENDBRANCH   2   3
BRANCH   2   7
ATOM      7  C   UNL     1     -15.911  -9.367  41.839  1.00  0.00     0.099 C 
ATOM      8  O   UNL     1     -14.686  -9.659  41.822  1.00  0.00    -0.544 OA
ATOM      9  O   UNL     1     -16.367  -8.284  41.099  1.00  0.00    -0.544 OA
ENDBRANCH   2   7
ENDBRANCH   1   2
BRANCH   1  10
ATOM     10  C   UNL     1     -18.887  -8.873  43.456  1.00  0.00     0.041 A 
ATOM     11  C   UNL     1     -19.770  -9.527  42.627  1.00  0.00     0.134 A 
ATOM     12  N   UNL     1     -19.505  -7.807  43.986  1.00  0.00    -0.348 N 
ATOM     13  N   UNL     1     -20.945  -8.865  42.624  1.00  0.00    -0.245 NA
ATOM     14  C   UNL     1     -20.745  -7.824  43.461  1.00  0.00     0.196 A 
ATOM     15  H   UNL     1     -19.116  -7.117  44.666  1.00  0.00     0.167 HD
ENDBRANCH   1  10
TORSDOF 4
ENDMDL
MODEL 5
REMARK VINA RESULT:    -4.518      3.394      4.951
REMARK INTER + INTRA:          -5.618
REMARK INTER:                  -5.486
REMARK INTRA:                  -0.132
REMARK UNBOUND:                -0.175
REMARK SMILES [NH3+][C@@H](Cc1cnc[nH]1)C(=O)[O-]
REMARK SMILES IDX 3 1 2 2 1 3 9 7 10 8 11 9 4 10 5 11 8 12 6 13 7 14
REMARK H PARENT 1 4 1 5 1 6 8 15
REMARK Flexibility Score: inf
ROOT
ATOM      1  C   UNL     1     -18.922  -8.601  43.735  1.00  0.00     0.127 C 
ENDROOT
BRANCH   1   2
ATOM      2  C   UNL     1     -17.763  -7.823  43.078  1.00  0.00     0.233 C 
BRANCH   2   3
ATOM      3  N   UNL     1     -17.454  -8.381  41.756  1.00  0.00    -0.350 N 
ATOM      4  H   UNL     1     -18.222  -8.148  41.084  1.00  0.00     0.345 HD
ATOM      5  H   UNL     1     -17.380  -9.422  41.819  1.00  0.00     0.345 HD
ATOM      6  H   UNL     1     -16.550  -7.995  41.394  1.00  0.00     0.345 HD
ENDBRANCH   2   3
BRANCH   2   7
ATOM      7  C   UNL     1     -16.534  -7.842  43.952  1.00  0.00     0.099 C 
ATOM      8  O   UNL     1     -16.194  -8.895  44.554  1.00  0.00    -0.544 OA
ATOM      9  O   UNL     1     -15.782  -6.687  44.114  1.00  0.00    -0.544 OA
ENDBRANCH   2   7
ENDBRANCH   1   2
BRANCH   1  10
ATOM     10  C   UNL     1     -20.257  -8.086  43.283  1.00  0.00     0.041 A 
ATOM     11  C   UNL     1     -21.212  -8.787  42.582  1.00  0.00     0.134 A 
ATOM     12  N   UNL     1     -20.744  -6.870  43.574  1.00  0.00    -0.348 N 
ATOM     13  N   UNL     1     -22.300  -8.007  42.419  1.00  0.00    -0.245 NA
ATOM     14  C   UNL     1     -21.978  -6.849  43.034  1.00  0.00     0.196 A 
ATOM     15  H   UNL     1     -20.276  -6.108  44.112  1.00  0.00     0.167 HD
ENDBRANCH   1  10
TORSDOF 4
ENDMDL
MODEL 6
REMARK VINA RESULT:    -4.509      4.920      6.342
REMARK INTER + INTRA:          -5.606
REMARK INTER:                  -5.474
REMARK INTRA:                  -0.133
REMARK UNBOUND:                -0.175
REMARK SMILES [NH3+][C@@H](Cc1cnc[nH]1)C(=O)[O-]
REMARK SMILES IDX 3 1 2 2 1 3 9 7 10 8 11 9 4 10 5 11 8 12 6 13 7 14
REMARK H PARENT 1 4 1 5 1 6 8 15
REMARK Flexibility Score: inf
ROOT
ATOM      1  C   UNL     1     -17.870 -11.232  42.982  1.00  0.00     0.127 C 
ENDROOT
BRANCH   1   2
ATOM      2  C   UNL     1     -16.436 -10.733  43.256  1.00  0.00     0.233 C 
BRANCH   2   3
ATOM      3  N   UNL     1     -16.347 -10.138  44.595  1.00  0.00    -0.350 N 
ATOM      4  H   UNL     1     -17.166  -9.509  44.760  1.00  0.00     0.345 HD
ATOM      5  H   UNL     1     -15.475  -9.564  44.669  1.00  0.00     0.345 HD
ATOM      6  H   UNL     1     -16.329 -10.883  45.330  1.00  0.00     0.345 HD
ENDBRANCH   2   3
BRANCH   2   7
ATOM      7  C   UNL     1     -16.001  -9.736  42.211  1.00  0.00     0.099 C 
ATOM      8  O   UNL     1     -16.841  -8.969  41.671  1.00  0.00    -0.544 OA
ATOM      9  O   UNL     1     -14.669  -9.673  41.826  1.00  0.00    -0.544 OA
ENDBRANCH   2   7
ENDBRANCH   1   2
BRANCH   1  10
ATOM     10  C   UNL     1     -18.022 -12.685  43.325  1.00  0.00     0.041 A 
ATOM     11  C   UNL     1     -19.085 -13.267  43.978  1.00  0.00     0.134 A 
ATOM     12  N   UNL     1     -17.161 -13.648  42.965  1.00  0.00    -0.348 N 
ATOM     13  N   UNL     1     -18.888 -14.599  44.042  1.00  0.00    -0.245 NA
ATOM     14  C   UNL     1     -17.707 -14.793  43.417  1.00  0.00     0.196 A 
ATOM     15  H   UNL     1     -16.266 -13.539  42.438  1.00  0.00     0.167 HD
ENDBRANCH   1  10
TORSDOF 4
ENDMDL
MODEL 7
REMARK VINA RESULT:    -4.479      4.862      5.678
REMARK INTER + INTRA:          -5.570
REMARK INTER:                  -5.416
REMARK INTRA:                  -0.155
REMARK UNBOUND:                -0.175
REMARK SMILES [NH3+][C@@H](Cc1cnc[nH]1)C(=O)[O-]
REMARK SMILES IDX 3 1 2 2 1 3 9 7 10 8 11 9 4 10 5 11 8 12 6 13 7 14
REMARK H PARENT 1 4 1 5 1 6 8 15
REMARK Flexibility Score: inf
ROOT
ATOM      1  C   UNL     1     -17.339 -11.541  42.580  1.00  0.00     0.127 C 
ENDROOT
BRANCH   1   2
ATOM      2  C   UNL     1     -17.482 -12.964  43.159  1.00  0.00     0.233 C 
BRANCH   2   3
ATOM      3  N   UNL     1     -17.145 -13.968  42.143  1.00  0.00    -0.350 N 
ATOM      4  H   UNL     1     -17.474 -14.912  42.454  1.00  0.00     0.345 HD
ATOM      5  H   UNL     1     -16.108 -14.009  42.016  1.00  0.00     0.345 HD
ATOM      6  H   UNL     1     -17.593 -13.732  41.226  1.00  0.00     0.345 HD
ENDBRANCH   2   3
BRANCH   2   7
ATOM      7  C   UNL     1     -18.877 -13.198  43.682  1.00  0.00     0.099 C 
ATOM      8  O   UNL     1     -19.804 -12.389  43.414  1.00  0.00    -0.544 OA
ATOM      9  O   UNL     1     -19.140 -14.301  44.483  1.00  0.00    -0.544 OA
ENDBRANCH   2   7
ENDBRANCH   1   2
BRANCH   1  10
ATOM     10  C   UNL     1     -16.333 -10.733  43.347  1.00  0.00     0.041 A 
ATOM     11  C   UNL     1     -16.592  -9.891  44.404  1.00  0.00     0.134 A 
ATOM     12  N   UNL     1     -15.007 -10.783  43.152  1.00  0.00    -0.348 N 
ATOM     13  N   UNL     1     -15.427  -9.397  44.870  1.00  0.00    -0.245 NA
ATOM     14  C   UNL     1     -14.485  -9.961  44.083  1.00  0.00     0.196 A 
ATOM     15  H   UNL     1     -14.487 -11.344  42.442  1.00  0.00     0.167 HD
ENDBRANCH   1  10
TORSDOF 4
ENDMDL
MODEL 8
REMARK VINA RESULT:    -4.474      3.519      4.928
REMARK INTER + INTRA:          -5.564
REMARK INTER:                  -5.452
REMARK INTRA:                  -0.112
REMARK UNBOUND:                -0.175
REMARK SMILES [NH3+][C@@H](Cc1cnc[nH]1)C(=O)[O-]
REMARK SMILES IDX 3 1 2 2 1 3 9 7 10 8 11 9 4 10 5 11 8 12 6 13 7 14
REMARK H PARENT 1 4 1 5 1 6 8 15
REMARK Flexibility Score: inf
ROOT
ATOM      1  C   UNL     1     -16.693 -10.286  42.712  1.00  0.00     0.127 C 
ENDROOT
BRANCH   1   2
ATOM      2  C   UNL     1     -17.714  -9.197  42.323  1.00  0.00     0.233 C 
BRANCH   2   3
ATOM      3  N   UNL     1     -17.233  -8.431  41.167  1.00  0.00    -0.350 N 
ATOM      4  H   UNL     1     -16.603  -9.027  40.583  1.00  0.00     0.345 HD
ATOM      5  H   UNL     1     -16.686  -7.602  41.494  1.00  0.00     0.345 HD
ATOM      6  H   UNL     1     -18.037  -8.101  40.582  1.00  0.00     0.345 HD
ENDBRANCH   2   3
BRANCH   2   7
ATOM      7  C   UNL     1     -17.989  -8.273  43.483  1.00  0.00     0.099 C 
ATOM      8  O   UNL     1     -17.046  -7.660  44.049  1.00  0.00    -0.544 OA
ATOM      9  O   UNL     1     -19.287  -8.112  43.947  1.00  0.00    -0.544 OA
ENDBRANCH   2   7
ENDBRANCH   1   2
BRANCH   1  10
ATOM     10  C   UNL     1     -17.366 -11.595  42.998  1.00  0.00     0.041 A 
ATOM     11  C   UNL     1     -18.594 -11.774  43.595  1.00  0.00     0.134 A 
ATOM     12  N   UNL     1     -16.888 -12.795  42.633  1.00  0.00    -0.348 N 
ATOM     13  N   UNL     1     -18.885 -13.090  43.618  1.00  0.00    -0.245 NA
ATOM     14  C   UNL     1     -17.824 -13.679  43.025  1.00  0.00     0.196 A 
ATOM     15  H   UNL     1     -15.991 -13.001  42.141  1.00  0.00     0.167 HD
ENDBRANCH   1  10
TORSDOF 4
ENDMDL
MODEL 9
REMARK VINA RESULT:    -4.438      1.696      2.232
REMARK INTER + INTRA:          -5.521
REMARK INTER:                  -5.359
REMARK INTRA:                  -0.162
REMARK UNBOUND:                -0.175
REMARK SMILES [NH3+][C@@H](Cc1cnc[nH]1)C(=O)[O-]
REMARK SMILES IDX 3 1 2 2 1 3 9 7 10 8 11 9 4 10 5 11 8 12 6 13 7 14
REMARK H PARENT 1 4 1 5 1 6 8 15
REMARK Flexibility Score: inf
ROOT
ATOM      1  C   UNL     1     -18.700  -9.044  43.722  1.00  0.00     0.127 C 
ENDROOT
BRANCH   1   2
ATOM      2  C   UNL     1     -19.929  -8.258  43.221  1.00  0.00     0.233 C 
BRANCH   2   3
ATOM      3  N   UNL     1     -20.462  -7.402  44.287  1.00  0.00    -0.350 N 
ATOM      4  H   UNL     1     -19.693  -7.135  44.945  1.00  0.00     0.345 HD
ATOM      5  H   UNL     1     -21.189  -7.923  44.829  1.00  0.00     0.345 HD
ATOM      6  H   UNL     1     -20.890  -6.535  43.886  1.00  0.00     0.345 HD
ENDBRANCH   2   3
BRANCH   2   7
ATOM      7  C   UNL     1     -21.000  -9.192  42.717  1.00  0.00     0.099 C 
ATOM      8  O   UNL     1     -21.892  -8.777  41.931  1.00  0.00    -0.544 OA
ATOM      9  O   UNL     1     -21.019 -10.516  43.136  1.00  0.00    -0.544 OA
ENDBRANCH   2   7
ENDBRANCH   1   2
BRANCH   1  10
ATOM     10  C   UNL     1     -17.544  -8.923  42.774  1.00  0.00     0.041 A 
ATOM     11  C   UNL     1     -16.425  -9.724  42.738  1.00  0.00     0.134 A 
ATOM     12  N   UNL     1     -17.477  -8.046  41.761  1.00  0.00    -0.348 N 
ATOM     13  N   UNL     1     -15.643  -9.344  41.707  1.00  0.00    -0.245 NA
ATOM     14  C   UNL     1     -16.315  -8.320  41.137  1.00  0.00     0.196 A 
ATOM     15  H   UNL     1     -18.176  -7.316  41.502  1.00  0.00     0.167 HD
ENDBRANCH   1  10
TORSDOF 4
ENDMDL
