MODEL 1
REMARK VINA RESULT:    -2.658      0.000      0.000
REMARK INTER + INTRA:          -3.236
REMARK INTER:                  -3.125
REMARK INTRA:                  -0.111
REMARK UNBOUND:                -0.111
REMARK SMILES CCCCC(=O)[O-]
REMARK SMILES IDX 4 1 5 2 6 3 7 4 3 5 2 6 1 7
REMARK H PARENT
REMARK Flexibility Score: inf
ROOT
ATOM      1  C   UNL     1     -46.668 -48.627  70.781  1.00  0.00     0.053 C 
ENDROOT
BRANCH   1   2
ATOM      2  C   UNL     1     -47.834 -47.689  70.748  1.00  0.00     0.041 C 
ATOM      3  O   UNL     1     -47.718 -46.553  70.216  1.00  0.00    -0.550 OA
ATOM      4  O   UNL     1     -49.033 -48.050  71.348  1.00  0.00    -0.550 OA
ENDBRANCH   1   2
BRANCH   1   5
ATOM      5  C   UNL     1     -45.520 -48.085  69.925  1.00  0.00     0.006 C 
BRANCH   5   6
ATOM      6  C   UNL     1     -44.280 -47.807  70.783  1.00  0.00    -0.003 C 
ATOM      7  C   UNL     1     -44.334 -46.409  71.392  1.00  0.00     0.004 C 
ENDBRANCH   5   6
ENDBRANCH   1   5
TORSDOF 3
ENDMDL
MODEL 2
REMARK VINA RESULT:    -2.646      1.852      2.236
REMARK INTER + INTRA:          -3.221
REMARK INTER:                  -3.110
REMARK INTRA:                  -0.111
REMARK UNBOUND:                -0.111
REMARK SMILES CCCCC(=O)[O-]
REMARK SMILES IDX 4 1 5 2 6 3 7 4 3 5 2 6 1 7
REMARK H PARENT
REMARK Flexibility Score: inf
ROOT
ATOM      1  C   UNL     1     -48.343 -47.731  71.122  1.00  0.00     0.053 C 
ENDROOT
BRANCH   1   2
ATOM      2  C   UNL     1     -48.644 -49.103  70.608  1.00  0.00     0.041 C 
ATOM      3  O   UNL     1     -47.902 -50.072  70.917  1.00  0.00    -0.550 OA
ATOM      4  O   UNL     1     -49.716 -49.304  69.749  1.00  0.00    -0.550 OA
ENDBRANCH   1   2
BRANCH   1   5
ATOM      5  C   UNL     1     -47.188 -47.105  70.336  1.00  0.00     0.006 C 
BRANCH   5   6
ATOM      6  C   UNL     1     -45.902 -47.089  71.170  1.00  0.00    -0.003 C 
ATOM      7  C   UNL     1     -44.919 -48.152  70.686  1.00  0.00     0.004 C 
ENDBRANCH   5   6
ENDBRANCH   1   5
TORSDOF 3
ENDMDL
MODEL 3
REMARK VINA RESULT:    -2.643      0.774      1.284
REMARK INTER + INTRA:          -3.218
REMARK INTER:                  -3.170
REMARK INTRA:                  -0.047
REMARK UNBOUND:                -0.111
REMARK SMILES CCCCC(=O)[O-]
REMARK SMILES IDX 4 1 5 2 6 3 7 4 3 5 2 6 1 7
REMARK H PARENT
REMARK Flexibility Score: inf
ROOT
ATOM      1  C   UNL     1     -46.455 -48.177  70.897  1.00  0.00     0.053 C 
ENDROOT
BRANCH   1   2
ATOM      2  C   UNL     1     -47.778 -47.507  70.698  1.00  0.00     0.041 C 
ATOM      3  O   UNL     1     -47.862 -46.469  69.991  1.00  0.00    -0.550 OA
ATOM      4  O   UNL     1     -48.909 -48.001  71.334  1.00  0.00    -0.550 OA
ENDBRANCH   1   2
BRANCH   1   5
ATOM      5  C   UNL     1     -45.357 -47.137  71.133  1.00  0.00     0.006 C 
BRANCH   5   6
ATOM      6  C   UNL     1     -43.990 -47.671  70.691  1.00  0.00    -0.003 C 
ATOM      7  C   UNL     1     -44.042 -49.175  70.436  1.00  0.00     0.004 C 
ENDBRANCH   5   6
ENDBRANCH   1   5
TORSDOF 3
ENDMDL
MODEL 4
REMARK VINA RESULT:    -2.532      1.292      1.669
REMARK INTER + INTRA:          -3.087
REMARK INTER:                  -3.047
REMARK INTRA:                  -0.040
REMARK UNBOUND:                -0.111
REMARK SMILES CCCCC(=O)[O-]
REMARK SMILES IDX 4 1 5 2 6 3 7 4 3 5 2 6 1 7
REMARK H PARENT
REMARK Flexibility Score: inf
ROOT
ATOM      1  C   UNL     1     -46.218 -48.573  70.710  1.00  0.00     0.053 C 
ENDROOT
BRANCH   1   2
ATOM      2  C   UNL     1     -47.647 -49.000  70.830  1.00  0.00     0.041 C 
ATOM      3  O   UNL     1     -48.560 -48.138  70.928  1.00  0.00    -0.550 OA
ATOM      4  O   UNL     1     -47.967 -50.350  70.883  1.00  0.00    -0.550 OA
ENDBRANCH   1   2
BRANCH   1   5
ATOM      5  C   UNL     1     -46.055 -47.117  71.153  1.00  0.00     0.006 C 
BRANCH   5   6
ATOM      6  C   UNL     1     -44.583 -46.690  71.105  1.00  0.00    -0.003 C 
ATOM      7  C   UNL     1     -43.680 -47.866  70.744  1.00  0.00     0.004 C 
ENDBRANCH   5   6
ENDBRANCH   1   5
TORSDOF 3
ENDMDL
MODEL 5
REMARK VINA RESULT:    -2.477      2.845      3.782
REMARK INTER + INTRA:          -3.023
REMARK INTER:                  -2.987
REMARK INTRA:                  -0.036
REMARK UNBOUND:                -0.111
REMARK SMILES CCCCC(=O)[O-]
REMARK SMILES IDX 4 1 5 2 6 3 7 4 3 5 2 6 1 7
REMARK H PARENT
REMARK Flexibility Score: inf
ROOT
ATOM      1  C   UNL     1     -45.412 -46.904  71.205  1.00  0.00     0.053 C 
ENDROOT
BRANCH   1   2
ATOM      2  C   UNL     1     -43.994 -46.457  71.035  1.00  0.00     0.041 C 
ATOM      3  O   UNL     1     -43.740 -45.326  70.543  1.00  0.00    -0.550 OA
ATOM      4  O   UNL     1     -42.951 -47.309  71.375  1.00  0.00    -0.550 OA
ENDBRANCH   1   2
BRANCH   1   5
ATOM      5  C   UNL     1     -45.585 -48.340  70.705  1.00  0.00     0.006 C 
BRANCH   5   6
ATOM      6  C   UNL     1     -47.057 -48.764  70.749  1.00  0.00    -0.003 C 
ATOM      7  C   UNL     1     -47.971 -47.558  70.948  1.00  0.00     0.004 C 
ENDBRANCH   5   6
ENDBRANCH   1   5
TORSDOF 3
ENDMDL
MODEL 6
REMARK VINA RESULT:    -2.357      2.777      3.680
REMARK INTER + INTRA:          -2.882
REMARK INTER:                  -2.807
REMARK INTRA:                  -0.075
REMARK UNBOUND:                -0.111
REMARK SMILES CCCCC(=O)[O-]
REMARK SMILES IDX 4 1 5 2 6 3 7 4 3 5 2 6 1 7
REMARK H PARENT
REMARK Flexibility Score: inf
ROOT
ATOM      1  C   UNL     1     -45.335 -48.338  70.662  1.00  0.00     0.053 C 
ENDROOT
BRANCH   1   2
ATOM      2  C   UNL     1     -44.508 -47.879  69.502  1.00  0.00     0.041 C 
ATOM      3  O   UNL     1     -43.686 -46.936  69.644  1.00  0.00    -0.550 OA
ATOM      4  O   UNL     1     -44.681 -48.459  68.253  1.00  0.00    -0.550 OA
ENDBRANCH   1   2
BRANCH   1   5
ATOM      5  C   UNL     1     -46.206 -47.194  71.187  1.00  0.00     0.006 C 
BRANCH   5   6
ATOM      6  C   UNL     1     -47.534 -47.121  70.426  1.00  0.00    -0.003 C 
ATOM      7  C   UNL     1     -48.515 -48.177  70.929  1.00  0.00     0.004 C 
ENDBRANCH   5   6
ENDBRANCH   1   5
TORSDOF 3
ENDMDL
MODEL 7
REMARK VINA RESULT:    -2.356      1.591      2.210
REMARK INTER + INTRA:          -2.881
REMARK INTER:                  -2.833
REMARK INTRA:                  -0.048
REMARK UNBOUND:                -0.111
REMARK SMILES CCCCC(=O)[O-]
REMARK SMILES IDX 4 1 5 2 6 3 7 4 3 5 2 6 1 7
REMARK H PARENT
REMARK Flexibility Score: inf
ROOT
ATOM      1  C   UNL     1     -48.136 -48.601  70.761  1.00  0.00     0.053 C 
ENDROOT
BRANCH   1   2
ATOM      2  C   UNL     1     -48.878 -48.540  69.463  1.00  0.00     0.041 C 
ATOM      3  O   UNL     1     -49.775 -49.385  69.205  1.00  0.00    -0.550 OA
ATOM      4  O   UNL     1     -48.544 -47.580  68.517  1.00  0.00    -0.550 OA
ENDBRANCH   1   2
BRANCH   1   5
ATOM      5  C   UNL     1     -47.218 -47.385  70.913  1.00  0.00     0.006 C 
BRANCH   5   6
ATOM      6  C   UNL     1     -45.744 -47.796  70.830  1.00  0.00    -0.003 C 
ATOM      7  C   UNL     1     -44.829 -46.652  71.258  1.00  0.00     0.004 C 
ENDBRANCH   5   6
ENDBRANCH   1   5
TORSDOF 3
ENDMDL
MODEL 8
REMARK VINA RESULT:    -2.269      9.344     10.136
REMARK INTER + INTRA:          -2.778
REMARK INTER:                  -2.761
REMARK INTRA:                  -0.018
REMARK UNBOUND:                -0.111
REMARK SMILES CCCCC(=O)[O-]
REMARK SMILES IDX 4 1 5 2 6 3 7 4 3 5 2 6 1 7
REMARK H PARENT
REMARK Flexibility Score: inf
ROOT
ATOM      1  C   UNL     1     -48.659 -36.934  71.531  1.00  0.00     0.053 C 
ENDROOT
BRANCH   1   2
ATOM      2  C   UNL     1     -50.004 -37.458  71.136  1.00  0.00     0.041 C 
ATOM      3  O   UNL     1     -50.345 -37.476  69.924  1.00  0.00    -0.550 OA
ATOM      4  O   UNL     1     -50.899 -37.881  72.109  1.00  0.00    -0.550 OA
ENDBRANCH   1   2
BRANCH   1   5
ATOM      5  C   UNL     1     -47.991 -37.876  72.537  1.00  0.00     0.006 C 
BRANCH   5   6
ATOM      6  C   UNL     1     -46.497 -38.032  72.234  1.00  0.00    -0.003 C 
ATOM      7  C   UNL     1     -46.057 -39.488  72.371  1.00  0.00     0.004 C 
ENDBRANCH   5   6
ENDBRANCH   1   5
TORSDOF 3
ENDMDL
MODEL 9
REMARK VINA RESULT:    -2.260      1.844      3.269
REMARK INTER + INTRA:          -2.767
REMARK INTER:                  -2.724
REMARK INTRA:                  -0.043
REMARK UNBOUND:                -0.111
REMARK SMILES CCCCC(=O)[O-]
REMARK SMILES IDX 4 1 5 2 6 3 7 4 3 5 2 6 1 7
REMARK H PARENT
REMARK Flexibility Score: inf
ROOT
ATOM      1  C   UNL     1     -46.262 -48.683  70.758  1.00  0.00     0.053 C 
ENDROOT
BRANCH   1   2
ATOM      2  C   UNL     1     -46.366 -47.192  70.684  1.00  0.00     0.041 C 
ATOM      3  O   UNL     1     -47.478 -46.645  70.462  1.00  0.00    -0.550 OA
ATOM      4  O   UNL     1     -45.226 -46.409  70.813  1.00  0.00    -0.550 OA
ENDBRANCH   1   2
BRANCH   1   5
ATOM      5  C   UNL     1     -47.649 -49.324  70.658  1.00  0.00     0.006 C 
BRANCH   5   6
ATOM      6  C   UNL     1     -47.541 -50.841  70.471  1.00  0.00    -0.003 C 
ATOM      7  C   UNL     1     -46.099 -51.262  70.199  1.00  0.00     0.004 C 
ENDBRANCH   5   6
ENDBRANCH   1   5
TORSDOF 3
ENDMDL
