MODEL 1
REMARK VINA RESULT:    -3.103      0.000      0.000
REMARK INTER + INTRA:          -3.653
REMARK INTER:                  -3.557
REMARK INTRA:                  -0.096
REMARK UNBOUND:                -0.096
REMARK SMILES COc1cc(C(=O)[O-])ccc1O
REMARK SMILES IDX 5 1 9 2 4 3 10 4 3 5 11 6 6 7 7 8 8 9 2 10 1 11 12 12
REMARK H PARENT 12 13
REMARK Flexibility Score: inf
ROOT
ATOM      1  C   UNL     1     152.082  81.356  19.662  1.00  0.00     0.001 A 
ATOM      2  C   UNL     1     151.461  82.518  19.174  1.00  0.00     0.014 A 
ATOM      3  C   UNL     1     153.478  81.224  19.540  1.00  0.00     0.060 A 
ATOM      4  C   UNL     1     152.219  83.527  18.576  1.00  0.00     0.051 A 
ATOM      5  C   UNL     1     154.248  82.241  18.936  1.00  0.00     0.161 A 
ATOM      6  C   UNL     1     153.605  83.395  18.455  1.00  0.00     0.157 A 
ENDROOT
BRANCH   1   7
ATOM      7  C   UNL     1     151.283  80.285  20.297  1.00  0.00     0.072 C 
ATOM      8  O   UNL     1     150.875  80.407  21.482  1.00  0.00    -0.545 OA
ATOM      9  O   UNL     1     150.967  79.128  19.592  1.00  0.00    -0.545 OA
ENDBRANCH   1   7
BRANCH   5  10
ATOM     10  O   UNL     1     155.641  82.136  18.801  1.00  0.00    -0.493 OA
ATOM     11  C   UNL     1     156.302  81.415  17.766  1.00  0.00     0.278 C 
ENDBRANCH   5  10
BRANCH   6  12
ATOM     12  O   UNL     1     154.329  84.425  17.853  1.00  0.00    -0.504 OA
ATOM     13  H   UNL     1     154.380  84.532  16.847  1.00  0.00     0.293 HD
ENDBRANCH   6  12
TORSDOF 3
ENDMDL
MODEL 2
REMARK VINA RESULT:    -2.939     14.462     16.807
REMARK INTER + INTRA:          -3.464
REMARK INTER:                  -3.387
REMARK INTRA:                  -0.078
REMARK UNBOUND:                -0.096
REMARK SMILES COc1cc(C(=O)[O-])ccc1O
REMARK SMILES IDX 5 1 9 2 4 3 10 4 3 5 11 6 6 7 7 8 8 9 2 10 1 11 12 12
REMARK H PARENT 12 13
REMARK Flexibility Score: inf
ROOT
ATOM      1  C   UNL     1     169.637  83.225  19.881  1.00  0.00     0.001 A 
ATOM      2  C   UNL     1     170.798  83.761  20.463  1.00  0.00     0.014 A 
ATOM      3  C   UNL     1     168.428  83.273  20.599  1.00  0.00     0.060 A 
ATOM      4  C   UNL     1     170.751  84.332  21.737  1.00  0.00     0.051 A 
ATOM      5  C   UNL     1     168.376  83.849  21.885  1.00  0.00     0.161 A 
ATOM      6  C   UNL     1     169.550  84.379  22.449  1.00  0.00     0.157 A 
ENDROOT
BRANCH   1   7
ATOM      7  C   UNL     1     169.682  82.620  18.532  1.00  0.00     0.072 C 
ATOM      8  O   UNL     1     169.632  83.345  17.503  1.00  0.00    -0.545 OA
ATOM      9  O   UNL     1     169.784  81.241  18.380  1.00  0.00    -0.545 OA
ENDBRANCH   1   7
BRANCH   5  10
ATOM     10  O   UNL     1     167.183  83.910  22.624  1.00  0.00    -0.493 OA
ATOM     11  C   UNL     1     166.267  85.000  22.594  1.00  0.00     0.278 C 
ENDBRANCH   5  10
BRANCH   6  12
ATOM     12  O   UNL     1     169.543  84.958  23.718  1.00  0.00    -0.504 OA
ATOM     13  H   UNL     1     169.995  84.523  24.513  1.00  0.00     0.293 HD
ENDBRANCH   6  12
TORSDOF 3
ENDMDL
MODEL 3
REMARK VINA RESULT:    -2.917     13.918     15.876
REMARK INTER + INTRA:          -3.440
REMARK INTER:                  -3.352
REMARK INTRA:                  -0.088
REMARK UNBOUND:                -0.096
REMARK SMILES COc1cc(C(=O)[O-])ccc1O
REMARK SMILES IDX 5 1 9 2 4 3 10 4 3 5 11 6 6 7 7 8 8 9 2 10 1 11 12 12
REMARK H PARENT 12 13
REMARK Flexibility Score: inf
ROOT
ATOM      1  C   UNL     1     168.828  82.004  16.424  1.00  0.00     0.001 A 
ATOM      2  C   UNL     1     167.909  82.840  17.080  1.00  0.00     0.014 A 
ATOM      3  C   UNL     1     168.525  81.538  15.131  1.00  0.00     0.060 A 
ATOM      4  C   UNL     1     166.714  83.203  16.457  1.00  0.00     0.051 A 
ATOM      5  C   UNL     1     167.319  81.902  14.498  1.00  0.00     0.161 A 
ATOM      6  C   UNL     1     166.414  82.740  15.173  1.00  0.00     0.157 A 
ENDROOT
BRANCH   1   7
ATOM      7  C   UNL     1     170.096  81.618  17.080  1.00  0.00     0.072 C 
ATOM      8  O   UNL     1     170.261  81.805  18.315  1.00  0.00    -0.545 OA
ATOM      9  O   UNL     1     171.124  81.041  16.343  1.00  0.00    -0.545 OA
ENDBRANCH   1   7
BRANCH   5  10
ATOM     10  O   UNL     1     166.991  81.452  13.209  1.00  0.00    -0.493 OA
ATOM     11  C   UNL     1     167.875  81.481  12.092  1.00  0.00     0.278 C 
ENDBRANCH   5  10
BRANCH   6  12
ATOM     12  O   UNL     1     165.209  83.125  14.583  1.00  0.00    -0.504 OA
ATOM     13  H   UNL     1     165.015  84.086  14.328  1.00  0.00     0.293 HD
ENDBRANCH   6  12
TORSDOF 3
ENDMDL
MODEL 4
REMARK VINA RESULT:    -2.880     10.616     11.051
REMARK INTER + INTRA:          -3.397
REMARK INTER:                  -3.302
REMARK INTRA:                  -0.095
REMARK UNBOUND:                -0.096
REMARK SMILES COc1cc(C(=O)[O-])ccc1O
REMARK SMILES IDX 5 1 9 2 4 3 10 4 3 5 11 6 6 7 7 8 8 9 2 10 1 11 12 12
REMARK H PARENT 12 13
REMARK Flexibility Score: inf
ROOT
ATOM      1  C   UNL     1     152.328  71.677  15.894  1.00  0.00     0.001 A 
ATOM      2  C   UNL     1     151.230  72.075  15.113  1.00  0.00     0.014 A 
ATOM      3  C   UNL     1     153.612  71.683  15.321  1.00  0.00     0.060 A 
ATOM      4  C   UNL     1     151.413  72.471  13.786  1.00  0.00     0.051 A 
ATOM      5  C   UNL     1     153.802  72.081  13.981  1.00  0.00     0.161 A 
ATOM      6  C   UNL     1     152.689  72.476  13.218  1.00  0.00     0.157 A 
ENDROOT
BRANCH   1   7
ATOM      7  C   UNL     1     152.138  71.257  17.300  1.00  0.00     0.072 C 
ATOM      8  O   UNL     1     151.646  70.130  17.571  1.00  0.00    -0.545 OA
ATOM      9  O   UNL     1     152.502  72.102  18.343  1.00  0.00    -0.545 OA
ENDBRANCH   1   7
BRANCH   5  10
ATOM     10  O   UNL     1     155.073  72.096  13.384  1.00  0.00    -0.493 OA
ATOM     11  C   UNL     1     155.703  70.965  12.791  1.00  0.00     0.278 C 
ENDBRANCH   5  10
BRANCH   6  12
ATOM     12  O   UNL     1     152.833  72.878  11.889  1.00  0.00    -0.504 OA
ATOM     13  H   UNL     1     152.285  72.473  11.140  1.00  0.00     0.293 HD
ENDBRANCH   6  12
TORSDOF 3
ENDMDL
MODEL 5
REMARK VINA RESULT:    -2.877      1.839      5.028
REMARK INTER + INTRA:          -3.393
REMARK INTER:                  -3.296
REMARK INTRA:                  -0.097
REMARK UNBOUND:                -0.096
REMARK SMILES COc1cc(C(=O)[O-])ccc1O
REMARK SMILES IDX 5 1 9 2 4 3 10 4 3 5 11 6 6 7 7 8 8 9 2 10 1 11 12 12
REMARK H PARENT 12 13
REMARK Flexibility Score: inf
ROOT
ATOM      1  C   UNL     1     154.601  83.215  18.243  1.00  0.00     0.001 A 
ATOM      2  C   UNL     1     154.746  81.896  18.702  1.00  0.00     0.014 A 
ATOM      3  C   UNL     1     153.393  83.895  18.484  1.00  0.00     0.060 A 
ATOM      4  C   UNL     1     153.705  81.269  19.389  1.00  0.00     0.051 A 
ATOM      5  C   UNL     1     152.338  83.265  19.177  1.00  0.00     0.161 A 
ATOM      6  C   UNL     1     152.505  81.944  19.628  1.00  0.00     0.157 A 
ENDROOT
BRANCH   1   7
ATOM      7  C   UNL     1     155.703  83.884  17.515  1.00  0.00     0.072 C 
ATOM      8  O   UNL     1     155.912  85.118  17.663  1.00  0.00    -0.545 OA
ATOM      9  O   UNL     1     156.525  83.160  16.659  1.00  0.00    -0.545 OA
ENDBRANCH   1   7
BRANCH   5  10
ATOM     10  O   UNL     1     151.122  83.919  19.432  1.00  0.00    -0.493 OA
ATOM     11  C   UNL     1     150.877  84.764  20.552  1.00  0.00     0.278 C 
ENDBRANCH   5  10
BRANCH   6  12
ATOM     12  O   UNL     1     151.488  81.284  20.319  1.00  0.00    -0.504 OA
ATOM     13  H   UNL     1     150.691  81.775  20.707  1.00  0.00     0.293 HD
ENDBRANCH   6  12
TORSDOF 3
ENDMDL
MODEL 6
REMARK VINA RESULT:    -2.866     11.442     13.674
REMARK INTER + INTRA:          -3.381
REMARK INTER:                  -3.281
REMARK INTRA:                  -0.100
REMARK UNBOUND:                -0.096
REMARK SMILES COc1cc(C(=O)[O-])ccc1O
REMARK SMILES IDX 5 1 9 2 4 3 10 4 3 5 11 6 6 7 7 8 8 9 2 10 1 11 12 12
REMARK H PARENT 12 13
REMARK Flexibility Score: inf
ROOT
ATOM      1  C   UNL     1     151.995  69.648  18.541  1.00  0.00     0.001 A 
ATOM      2  C   UNL     1     150.944  68.759  18.266  1.00  0.00     0.014 A 
ATOM      3  C   UNL     1     152.980  69.276  19.474  1.00  0.00     0.060 A 
ATOM      4  C   UNL     1     150.877  67.522  18.910  1.00  0.00     0.051 A 
ATOM      5  C   UNL     1     152.916  68.028  20.128  1.00  0.00     0.161 A 
ATOM      6  C   UNL     1     151.855  67.152  19.838  1.00  0.00     0.157 A 
ENDROOT
BRANCH   1   7
ATOM      7  C   UNL     1     152.070  70.960  17.859  1.00  0.00     0.072 C 
ATOM      8  O   UNL     1     151.839  71.053  16.624  1.00  0.00    -0.545 OA
ATOM      9  O   UNL     1     152.394  72.108  18.572  1.00  0.00    -0.545 OA
ENDBRANCH   1   7
BRANCH   5  10
ATOM     10  O   UNL     1     153.885  67.629  21.064  1.00  0.00    -0.493 OA
ATOM     11  C   UNL     1     153.892  68.014  22.435  1.00  0.00     0.278 C 
ENDBRANCH   5  10
BRANCH   6  12
ATOM     12  O   UNL     1     151.755  65.908  20.461  1.00  0.00    -0.504 OA
ATOM     13  H   UNL     1     152.567  65.338  20.663  1.00  0.00     0.293 HD
ENDBRANCH   6  12
TORSDOF 3
ENDMDL
MODEL 7
REMARK VINA RESULT:    -2.854     13.095     15.408
REMARK INTER + INTRA:          -3.367
REMARK INTER:                  -3.285
REMARK INTRA:                  -0.082
REMARK UNBOUND:                -0.096
REMARK SMILES COc1cc(C(=O)[O-])ccc1O
REMARK SMILES IDX 5 1 9 2 4 3 10 4 3 5 11 6 6 7 7 8 8 9 2 10 1 11 12 12
REMARK H PARENT 12 13
REMARK Flexibility Score: inf
ROOT
ATOM      1  C   UNL     1     167.224  82.477  20.047  1.00  0.00     0.001 A 
ATOM      2  C   UNL     1     166.979  82.085  18.720  1.00  0.00     0.014 A 
ATOM      3  C   UNL     1     168.505  82.941  20.397  1.00  0.00     0.060 A 
ATOM      4  C   UNL     1     167.994  82.155  17.764  1.00  0.00     0.051 A 
ATOM      5  C   UNL     1     169.533  83.013  19.435  1.00  0.00     0.161 A 
ATOM      6  C   UNL     1     169.266  82.616  18.112  1.00  0.00     0.157 A 
ENDROOT
BRANCH   1   7
ATOM      7  C   UNL     1     166.151  82.405  21.063  1.00  0.00     0.072 C 
ATOM      8  O   UNL     1     164.959  82.183  20.721  1.00  0.00    -0.545 OA
ATOM      9  O   UNL     1     166.443  82.578  22.411  1.00  0.00    -0.545 OA
ENDBRANCH   1   7
BRANCH   5  10
ATOM     10  O   UNL     1     170.821  83.472  19.756  1.00  0.00    -0.493 OA
ATOM     11  C   UNL     1     171.119  84.363  20.826  1.00  0.00     0.278 C 
ENDBRANCH   5  10
BRANCH   6  12
ATOM     12  O   UNL     1     170.254  82.672  17.129  1.00  0.00    -0.504 OA
ATOM     13  H   UNL     1     171.242  82.664  17.355  1.00  0.00     0.293 HD
ENDBRANCH   6  12
TORSDOF 3
ENDMDL
MODEL 8
REMARK VINA RESULT:    -2.827     14.390     15.563
REMARK INTER + INTRA:          -3.337
REMARK INTER:                  -3.242
REMARK INTRA:                  -0.094
REMARK UNBOUND:                -0.096
REMARK SMILES COc1cc(C(=O)[O-])ccc1O
REMARK SMILES IDX 5 1 9 2 4 3 10 4 3 5 11 6 6 7 7 8 8 9 2 10 1 11 12 12
REMARK H PARENT 12 13
REMARK Flexibility Score: inf
ROOT
ATOM      1  C   UNL     1     168.115  83.177  20.663  1.00  0.00     0.001 A 
ATOM      2  C   UNL     1     169.448  83.606  20.551  1.00  0.00     0.014 A 
ATOM      3  C   UNL     1     167.507  82.541  19.566  1.00  0.00     0.060 A 
ATOM      4  C   UNL     1     170.158  83.403  19.366  1.00  0.00     0.051 A 
ATOM      5  C   UNL     1     168.220  82.334  18.367  1.00  0.00     0.161 A 
ATOM      6  C   UNL     1     169.553  82.772  18.276  1.00  0.00     0.157 A 
ENDROOT
BRANCH   1   7
ATOM      7  C   UNL     1     167.359  83.390  21.918  1.00  0.00     0.072 C 
ATOM      8  O   UNL     1     166.831  84.506  22.166  1.00  0.00    -0.545 OA
ATOM      9  O   UNL     1     167.220  82.359  22.840  1.00  0.00    -0.545 OA
ENDBRANCH   1   7
BRANCH   5  10
ATOM     10  O   UNL     1     167.638  81.702  17.256  1.00  0.00    -0.493 OA
ATOM     11  C   UNL     1     166.846  82.361  16.272  1.00  0.00     0.278 C 
ENDBRANCH   5  10
BRANCH   6  12
ATOM     12  O   UNL     1     170.295  82.586  17.109  1.00  0.00    -0.504 OA
ATOM     13  H   UNL     1     170.621  81.673  16.815  1.00  0.00     0.293 HD
ENDBRANCH   6  12
TORSDOF 3
ENDMDL
MODEL 9
REMARK VINA RESULT:    -2.817      3.594      5.406
REMARK INTER + INTRA:          -3.325
REMARK INTER:                  -3.230
REMARK INTRA:                  -0.096
REMARK UNBOUND:                -0.096
REMARK SMILES COc1cc(C(=O)[O-])ccc1O
REMARK SMILES IDX 5 1 9 2 4 3 10 4 3 5 11 6 6 7 7 8 8 9 2 10 1 11 12 12
REMARK H PARENT 12 13
REMARK Flexibility Score: inf
ROOT
ATOM      1  C   UNL     1     156.331  83.080  17.073  1.00  0.00     0.001 A 
ATOM      2  C   UNL     1     156.388  84.437  16.715  1.00  0.00     0.014 A 
ATOM      3  C   UNL     1     156.777  82.111  16.156  1.00  0.00     0.060 A 
ATOM      4  C   UNL     1     156.880  84.818  15.465  1.00  0.00     0.051 A 
ATOM      5  C   UNL     1     157.274  82.491  14.892  1.00  0.00     0.161 A 
ATOM      6  C   UNL     1     157.322  83.855  14.554  1.00  0.00     0.157 A 
ENDROOT
BRANCH   1   7
ATOM      7  C   UNL     1     155.810  82.673  18.398  1.00  0.00     0.072 C 
ATOM      8  O   UNL     1     156.470  82.908  19.445  1.00  0.00    -0.545 OA
ATOM      9  O   UNL     1     154.584  82.027  18.505  1.00  0.00    -0.545 OA
ENDBRANCH   1   7
BRANCH   5  10
ATOM     10  O   UNL     1     157.726  81.545  13.957  1.00  0.00    -0.493 OA
ATOM     11  C   UNL     1     156.886  80.836  13.053  1.00  0.00     0.278 C 
ENDBRANCH   5  10
BRANCH   6  12
ATOM     12  O   UNL     1     157.808  84.274  13.315  1.00  0.00    -0.504 OA
ATOM     13  H   UNL     1     157.273  84.874  12.699  1.00  0.00     0.293 HD
ENDBRANCH   6  12
TORSDOF 3
ENDMDL
