MODEL 1
REMARK VINA RESULT:    -2.155      0.000      0.000
REMARK INTER + INTRA:          -2.654
REMARK INTER:                  -2.533
REMARK INTRA:                  -0.121
REMARK UNBOUND:                -0.121
REMARK SMILES O=C([O-])CCC(=O)[O-]
REMARK SMILES IDX 4 1 2 2 1 3 3 4 5 5 6 6 7 7 8 8
REMARK H PARENT
REMARK Flexibility Score: inf
ROOT
ATOM      1  C   UNL     1      -8.276  40.882  16.455  1.00  0.00     0.059 C 
ENDROOT
BRANCH   1   2
ATOM      2  C   UNL     1      -7.803  40.145  17.668  1.00  0.00     0.042 C 
ATOM      3  O   UNL     1      -6.655  40.365  18.135  1.00  0.00    -0.550 OA
ATOM      4  O   UNL     1      -8.612  39.180  18.253  1.00  0.00    -0.550 OA
ENDBRANCH   1   2
BRANCH   1   5
ATOM      5  C   UNL     1      -8.995  39.930  15.497  1.00  0.00     0.059 C 
BRANCH   5   6
ATOM      6  C   UNL     1     -10.443  40.292  15.389  1.00  0.00     0.042 C 
ATOM      7  O   UNL     1     -11.263  39.890  16.255  1.00  0.00    -0.550 OA
ATOM      8  O   UNL     1     -10.894  41.031  14.302  1.00  0.00    -0.550 OA
ENDBRANCH   5   6
ENDBRANCH   1   5
TORSDOF 3
ENDMDL
MODEL 2
REMARK VINA RESULT:    -2.147      0.141      3.977
REMARK INTER + INTRA:          -2.645
REMARK INTER:                  -2.529
REMARK INTRA:                  -0.115
REMARK UNBOUND:                -0.121
REMARK SMILES O=C([O-])CCC(=O)[O-]
REMARK SMILES IDX 4 1 2 2 1 3 3 4 5 5 6 6 7 7 8 8
REMARK H PARENT
REMARK Flexibility Score: inf
ROOT
ATOM      1  C   UNL     1      -9.014  39.887  15.509  1.00  0.00     0.059 C 
ENDROOT
BRANCH   1   2
ATOM      2  C   UNL     1     -10.451  40.280  15.369  1.00  0.00     0.042 C 
ATOM      3  O   UNL     1     -11.300  39.887  16.211  1.00  0.00    -0.550 OA
ATOM      4  O   UNL     1     -10.860  41.041  14.281  1.00  0.00    -0.550 OA
ENDBRANCH   1   2
BRANCH   1   5
ATOM      5  C   UNL     1      -8.301  40.811  16.498  1.00  0.00     0.059 C 
BRANCH   5   6
ATOM      6  C   UNL     1      -7.926  40.061  17.738  1.00  0.00     0.042 C 
ATOM      7  O   UNL     1      -6.846  40.318  18.332  1.00  0.00    -0.550 OA
ATOM      8  O   UNL     1      -8.747  39.044  18.209  1.00  0.00    -0.550 OA
ENDBRANCH   5   6
ENDBRANCH   1   5
TORSDOF 3
ENDMDL
MODEL 3
REMARK VINA RESULT:    -2.036     18.485     19.158
REMARK INTER + INTRA:          -2.513
REMARK INTER:                  -2.407
REMARK INTRA:                  -0.107
REMARK UNBOUND:                -0.121
REMARK SMILES O=C([O-])CCC(=O)[O-]
REMARK SMILES IDX 4 1 2 2 1 3 3 4 5 5 6 6 7 7 8 8
REMARK H PARENT
REMARK Flexibility Score: inf
ROOT
ATOM      1  C   UNL     1       5.976  39.790   4.057  1.00  0.00     0.059 C 
ENDROOT
BRANCH   1   2
ATOM      2  C   UNL     1       5.917  39.743   2.563  1.00  0.00     0.042 C 
ATOM      3  O   UNL     1       6.551  40.587   1.877  1.00  0.00    -0.550 OA
ATOM      4  O   UNL     1       5.122  38.797   1.929  1.00  0.00    -0.550 OA
ENDBRANCH   1   2
BRANCH   1   5
ATOM      5  C   UNL     1       5.433  41.124   4.573  1.00  0.00     0.059 C 
BRANCH   5   6
ATOM      6  C   UNL     1       4.031  40.963   5.068  1.00  0.00     0.042 C 
ATOM      7  O   UNL     1       3.808  40.805   6.297  1.00  0.00    -0.550 OA
ATOM      8  O   UNL     1       2.974  40.936   4.167  1.00  0.00    -0.550 OA
ENDBRANCH   5   6
ENDBRANCH   1   5
TORSDOF 3
ENDMDL
MODEL 4
REMARK VINA RESULT:    -2.020     22.717     23.163
REMARK INTER + INTRA:          -2.495
REMARK INTER:                  -2.374
REMARK INTRA:                  -0.121
REMARK UNBOUND:                -0.121
REMARK SMILES O=C([O-])CCC(=O)[O-]
REMARK SMILES IDX 4 1 2 2 1 3 3 4 5 5 6 6 7 7 8 8
REMARK H PARENT
REMARK Flexibility Score: inf
ROOT
ATOM      1  C   UNL     1       2.706  22.235   6.533  1.00  0.00     0.059 C 
ENDROOT
BRANCH   1   2
ATOM      2  C   UNL     1       3.846  23.201   6.455  1.00  0.00     0.042 C 
ATOM      3  O   UNL     1       4.018  23.896   5.419  1.00  0.00    -0.550 OA
ATOM      4  O   UNL     1       4.746  23.299   7.508  1.00  0.00    -0.550 OA
ENDBRANCH   1   2
BRANCH   1   5
ATOM      5  C   UNL     1       1.390  22.979   6.773  1.00  0.00     0.059 C 
BRANCH   5   6
ATOM      6  C   UNL     1       0.447  22.756   5.633  1.00  0.00     0.042 C 
ATOM      7  O   UNL     1       0.842  22.900   4.447  1.00  0.00    -0.550 OA
ATOM      8  O   UNL     1      -0.882  22.437   5.884  1.00  0.00    -0.550 OA
ENDBRANCH   5   6
ENDBRANCH   1   5
TORSDOF 3
ENDMDL
MODEL 5
REMARK VINA RESULT:    -2.019     20.030     20.710
REMARK INTER + INTRA:          -2.493
REMARK INTER:                  -2.397
REMARK INTRA:                  -0.097
REMARK UNBOUND:                -0.121
REMARK SMILES O=C([O-])CCC(=O)[O-]
REMARK SMILES IDX 4 1 2 2 1 3 3 4 5 5 6 6 7 7 8 8
REMARK H PARENT
REMARK Flexibility Score: inf
ROOT
ATOM      1  C   UNL     1       6.968  37.840   2.274  1.00  0.00     0.059 C 
ENDROOT
BRANCH   1   2
ATOM      2  C   UNL     1       6.804  36.497   2.915  1.00  0.00     0.042 C 
ATOM      3  O   UNL     1       7.116  36.330   4.123  1.00  0.00    -0.550 OA
ATOM      4  O   UNL     1       6.351  35.420   2.164  1.00  0.00    -0.550 OA
ENDBRANCH   1   2
BRANCH   1   5
ATOM      5  C   UNL     1       5.606  38.412   1.875  1.00  0.00     0.059 C 
BRANCH   5   6
ATOM      6  C   UNL     1       5.283  39.617   2.701  1.00  0.00     0.042 C 
ATOM      7  O   UNL     1       4.402  40.431   2.317  1.00  0.00    -0.550 OA
ATOM      8  O   UNL     1       5.990  39.867   3.871  1.00  0.00    -0.550 OA
ENDBRANCH   5   6
ENDBRANCH   1   5
TORSDOF 3
ENDMDL
MODEL 6
REMARK VINA RESULT:    -2.002      1.533      3.958
REMARK INTER + INTRA:          -2.474
REMARK INTER:                  -2.361
REMARK INTRA:                  -0.113
REMARK UNBOUND:                -0.121
REMARK SMILES O=C([O-])CCC(=O)[O-]
REMARK SMILES IDX 4 1 2 2 1 3 3 4 5 5 6 6 7 7 8 8
REMARK H PARENT
REMARK Flexibility Score: inf
ROOT
ATOM      1  C   UNL     1      -9.710  40.127  17.549  1.00  0.00     0.059 C 
ENDROOT
BRANCH   1   2
ATOM      2  C   UNL     1      -9.855  39.941  16.071  1.00  0.00     0.042 C 
ATOM      3  O   UNL     1      -8.835  39.776  15.351  1.00  0.00    -0.550 OA
ATOM      4  O   UNL     1     -11.112  40.000  15.484  1.00  0.00    -0.550 OA
ENDBRANCH   1   2
BRANCH   1   5
ATOM      5  C   UNL     1      -8.613  39.212  18.098  1.00  0.00     0.059 C 
BRANCH   5   6
ATOM      6  C   UNL     1      -7.502  40.022  18.687  1.00  0.00     0.042 C 
ATOM      7  O   UNL     1      -7.532  40.350  19.902  1.00  0.00    -0.550 OA
ATOM      8  O   UNL     1      -6.457  40.458  17.881  1.00  0.00    -0.550 OA
ENDBRANCH   5   6
ENDBRANCH   1   5
TORSDOF 3
ENDMDL
MODEL 7
REMARK VINA RESULT:    -2.000     18.500     19.041
REMARK INTER + INTRA:          -2.472
REMARK INTER:                  -2.353
REMARK INTRA:                  -0.118
REMARK UNBOUND:                -0.121
REMARK SMILES O=C([O-])CCC(=O)[O-]
REMARK SMILES IDX 4 1 2 2 1 3 3 4 5 5 6 6 7 7 8 8
REMARK H PARENT
REMARK Flexibility Score: inf
ROOT
ATOM      1  C   UNL     1     -10.324  21.252  19.916  1.00  0.00     0.059 C 
ENDROOT
BRANCH   1   2
ATOM      2  C   UNL     1      -9.747  21.604  21.251  1.00  0.00     0.042 C 
ATOM      3  O   UNL     1      -8.802  20.926  21.732  1.00  0.00    -0.550 OA
ATOM      4  O   UNL     1     -10.287  22.652  21.986  1.00  0.00    -0.550 OA
ENDBRANCH   1   2
BRANCH   1   5
ATOM      5  C   UNL     1     -11.800  20.876  20.054  1.00  0.00     0.059 C 
BRANCH   5   6
ATOM      6  C   UNL     1     -12.658  21.831  19.285  1.00  0.00     0.042 C 
ATOM      7  O   UNL     1     -13.123  21.503  18.162  1.00  0.00    -0.550 OA
ATOM      8  O   UNL     1     -12.901  23.104  19.787  1.00  0.00    -0.550 OA
ENDBRANCH   5   6
ENDBRANCH   1   5
TORSDOF 3
ENDMDL
MODEL 8
REMARK VINA RESULT:    -1.979     22.705     23.400
REMARK INTER + INTRA:          -2.446
REMARK INTER:                  -2.331
REMARK INTRA:                  -0.115
REMARK UNBOUND:                -0.121
REMARK SMILES O=C([O-])CCC(=O)[O-]
REMARK SMILES IDX 4 1 2 2 1 3 3 4 5 5 6 6 7 7 8 8
REMARK H PARENT
REMARK Flexibility Score: inf
ROOT
ATOM      1  C   UNL     1       1.479  23.128   6.769  1.00  0.00     0.059 C 
ENDROOT
BRANCH   1   2
ATOM      2  C   UNL     1       0.531  22.753   5.674  1.00  0.00     0.042 C 
ATOM      3  O   UNL     1       0.897  22.815   4.471  1.00  0.00    -0.550 OA
ATOM      4  O   UNL     1      -0.772  22.382   5.979  1.00  0.00    -0.550 OA
ENDBRANCH   1   2
BRANCH   1   5
ATOM      5  C   UNL     1       2.785  22.343   6.637  1.00  0.00     0.059 C 
BRANCH   5   6
ATOM      6  C   UNL     1       3.948  23.278   6.525  1.00  0.00     0.042 C 
ATOM      7  O   UNL     1       4.120  23.952   5.476  1.00  0.00    -0.550 OA
ATOM      8  O   UNL     1       4.870  23.367   7.561  1.00  0.00    -0.550 OA
ENDBRANCH   5   6
ENDBRANCH   1   5
TORSDOF 3
ENDMDL
MODEL 9
REMARK VINA RESULT:    -1.963     22.272     22.903
REMARK INTER + INTRA:          -2.428
REMARK INTER:                  -2.395
REMARK INTRA:                  -0.033
REMARK UNBOUND:                -0.121
REMARK SMILES O=C([O-])CCC(=O)[O-]
REMARK SMILES IDX 4 1 2 2 1 3 3 4 5 5 6 6 7 7 8 8
REMARK H PARENT
REMARK Flexibility Score: inf
ROOT
ATOM      1  C   UNL     1       0.217  22.734   5.694  1.00  0.00     0.059 C 
ENDROOT
BRANCH   1   2
ATOM      2  C   UNL     1      -0.404  23.029   4.364  1.00  0.00     0.042 C 
ATOM      3  O   UNL     1      -0.762  24.202   4.078  1.00  0.00    -0.550 OA
ATOM      4  O   UNL     1      -0.632  21.999   3.461  1.00  0.00    -0.550 OA
ENDBRANCH   1   2
BRANCH   1   5
ATOM      5  C   UNL     1      -0.770  21.984   6.590  1.00  0.00     0.059 C 
BRANCH   5   6
ATOM      6  C   UNL     1      -0.079  21.470   7.813  1.00  0.00     0.042 C 
ATOM      7  O   UNL     1       1.038  20.897   7.717  1.00  0.00    -0.550 OA
ATOM      8  O   UNL     1      -0.693  21.578   9.055  1.00  0.00    -0.550 OA
ENDBRANCH   5   6
ENDBRANCH   1   5
TORSDOF 3
ENDMDL
