MODEL 1
REMARK VINA RESULT:    -3.319      0.000      0.000
REMARK INTER + INTRA:          -3.983
REMARK INTER:                  -3.901
REMARK INTRA:                  -0.082
REMARK UNBOUND:                -0.082
REMARK SMILES CCCCC(=O)[O-]
REMARK SMILES IDX 4 1 5 2 6 3 7 4 3 5 2 6 1 7
REMARK H PARENT
REMARK Flexibility Score: inf
ROOT
ATOM      1  C   UNL     1      11.370   0.348   0.685  1.00  0.00     0.053 C 
ENDROOT
BRANCH   1   2
ATOM      2  C   UNL     1      12.153  -0.737   0.015  1.00  0.00     0.041 C 
ATOM      3  O   UNL     1      13.130  -0.450  -0.726  1.00  0.00    -0.550 OA
ATOM      4  O   UNL     1      11.773  -2.064   0.169  1.00  0.00    -0.550 OA
ENDBRANCH   1   2
BRANCH   1   5
ATOM      5  C   UNL     1      11.910   0.608   2.094  1.00  0.00     0.006 C 
BRANCH   5   6
ATOM      6  C   UNL     1      10.851   0.289   3.154  1.00  0.00    -0.003 C 
ATOM      7  C   UNL     1       9.529  -0.121   2.508  1.00  0.00     0.004 C 
ENDBRANCH   5   6
ENDBRANCH   1   5
TORSDOF 3
ENDMDL
MODEL 2
REMARK VINA RESULT:    -3.315      0.080      1.226
REMARK INTER + INTRA:          -3.979
REMARK INTER:                  -3.887
REMARK INTRA:                  -0.091
REMARK UNBOUND:                -0.082
REMARK SMILES CCCCC(=O)[O-]
REMARK SMILES IDX 4 1 5 2 6 3 7 4 3 5 2 6 1 7
REMARK H PARENT
REMARK Flexibility Score: inf
ROOT
ATOM      1  C   UNL     1      11.326   0.299   0.639  1.00  0.00     0.053 C 
ENDROOT
BRANCH   1   2
ATOM      2  C   UNL     1      12.129  -0.784  -0.010  1.00  0.00     0.041 C 
ATOM      3  O   UNL     1      11.837  -1.993   0.185  1.00  0.00    -0.550 OA
ATOM      4  O   UNL     1      13.230  -0.458  -0.791  1.00  0.00    -0.550 OA
ENDBRANCH   1   2
BRANCH   1   5
ATOM      5  C   UNL     1      11.879   0.617   2.031  1.00  0.00     0.006 C 
BRANCH   5   6
ATOM      6  C   UNL     1      10.841   0.313   3.117  1.00  0.00    -0.003 C 
ATOM      7  C   UNL     1       9.495  -0.064   2.503  1.00  0.00     0.004 C 
ENDBRANCH   5   6
ENDBRANCH   1   5
TORSDOF 3
ENDMDL
MODEL 3
REMARK VINA RESULT:    -3.263     11.398     12.299
REMARK INTER + INTRA:          -3.917
REMARK INTER:                  -3.874
REMARK INTRA:                  -0.043
REMARK UNBOUND:                -0.082
REMARK SMILES CCCCC(=O)[O-]
REMARK SMILES IDX 4 1 5 2 6 3 7 4 3 5 2 6 1 7
REMARK H PARENT
REMARK Flexibility Score: inf
ROOT
ATOM      1  C   UNL     1       7.260   5.499  -8.131  1.00  0.00     0.053 C 
ENDROOT
BRANCH   1   2
ATOM      2  C   UNL     1       7.289   5.795  -6.664  1.00  0.00     0.041 C 
ATOM      3  O   UNL     1       7.683   6.917  -6.252  1.00  0.00    -0.550 OA
ATOM      4  O   UNL     1       6.929   4.813  -5.750  1.00  0.00    -0.550 OA
ENDBRANCH   1   2
BRANCH   1   5
ATOM      5  C   UNL     1       8.415   6.206  -8.845  1.00  0.00     0.006 C 
BRANCH   5   6
ATOM      6  C   UNL     1       8.215   6.188 -10.364  1.00  0.00    -0.003 C 
ATOM      7  C   UNL     1       6.762   5.887 -10.725  1.00  0.00     0.004 C 
ENDBRANCH   5   6
ENDBRANCH   1   5
TORSDOF 3
ENDMDL
MODEL 4
REMARK VINA RESULT:    -3.230      2.177      3.087
REMARK INTER + INTRA:          -3.879
REMARK INTER:                  -3.770
REMARK INTRA:                  -0.109
REMARK UNBOUND:                -0.082
REMARK SMILES CCCCC(=O)[O-]
REMARK SMILES IDX 4 1 5 2 6 3 7 4 3 5 2 6 1 7
REMARK H PARENT
REMARK Flexibility Score: inf
ROOT
ATOM      1  C   UNL     1       9.999   0.258   2.759  1.00  0.00     0.053 C 
ENDROOT
BRANCH   1   2
ATOM      2  C   UNL     1       9.609  -1.081   2.218  1.00  0.00     0.041 C 
ATOM      3  O   UNL     1      10.467  -1.814   1.660  1.00  0.00    -0.550 OA
ATOM      4  O   UNL     1       8.286  -1.499   2.286  1.00  0.00    -0.550 OA
ENDBRANCH   1   2
BRANCH   1   5
ATOM      5  C   UNL     1      11.516   0.450   2.676  1.00  0.00     0.006 C 
BRANCH   5   6
ATOM      6  C   UNL     1      12.163   0.317   4.059  1.00  0.00    -0.003 C 
ATOM      7  C   UNL     1      12.768  -1.072   4.253  1.00  0.00     0.004 C 
ENDBRANCH   5   6
ENDBRANCH   1   5
TORSDOF 3
ENDMDL
MODEL 5
REMARK VINA RESULT:    -3.229      0.802      1.776
REMARK INTER + INTRA:          -3.877
REMARK INTER:                  -3.784
REMARK INTRA:                  -0.093
REMARK UNBOUND:                -0.082
REMARK SMILES CCCCC(=O)[O-]
REMARK SMILES IDX 4 1 5 2 6 3 7 4 3 5 2 6 1 7
REMARK H PARENT
REMARK Flexibility Score: inf
ROOT
ATOM      1  C   UNL     1      11.236   0.586   0.879  1.00  0.00     0.053 C 
ENDROOT
BRANCH   1   2
ATOM      2  C   UNL     1      11.817  -0.596   0.169  1.00  0.00     0.041 C 
ATOM      3  O   UNL     1      11.303  -1.737   0.311  1.00  0.00    -0.550 OA
ATOM      4  O   UNL     1      12.956  -0.447  -0.612  1.00  0.00    -0.550 OA
ENDBRANCH   1   2
BRANCH   1   5
ATOM      5  C   UNL     1      10.417   0.134   2.091  1.00  0.00     0.006 C 
BRANCH   5   6
ATOM      6  C   UNL     1      11.084   0.573   3.399  1.00  0.00    -0.003 C 
ATOM      7  C   UNL     1      12.058  -0.489   3.905  1.00  0.00     0.004 C 
ENDBRANCH   5   6
ENDBRANCH   1   5
TORSDOF 3
ENDMDL
MODEL 6
REMARK VINA RESULT:    -3.225      2.018      3.397
REMARK INTER + INTRA:          -3.873
REMARK INTER:                  -3.770
REMARK INTRA:                  -0.103
REMARK UNBOUND:                -0.082
REMARK SMILES CCCCC(=O)[O-]
REMARK SMILES IDX 4 1 5 2 6 3 7 4 3 5 2 6 1 7
REMARK H PARENT
REMARK Flexibility Score: inf
ROOT
ATOM      1  C   UNL     1      10.626   0.047   2.409  1.00  0.00     0.053 C 
ENDROOT
BRANCH   1   2
ATOM      2  C   UNL     1       9.637  -1.051   2.169  1.00  0.00     0.041 C 
ATOM      3  O   UNL     1      10.001  -2.121   1.616  1.00  0.00    -0.550 OA
ATOM      4  O   UNL     1       8.303  -0.871   2.512  1.00  0.00    -0.550 OA
ENDBRANCH   1   2
BRANCH   1   5
ATOM      5  C   UNL     1      11.223   0.531   1.085  1.00  0.00     0.006 C 
BRANCH   5   6
ATOM      6  C   UNL     1      12.686   0.095   0.950  1.00  0.00    -0.003 C 
ATOM      7  C   UNL     1      12.878  -0.832  -0.248  1.00  0.00     0.004 C 
ENDBRANCH   5   6
ENDBRANCH   1   5
TORSDOF 3
ENDMDL
MODEL 7
REMARK VINA RESULT:    -3.125     10.993     11.745
REMARK INTER + INTRA:          -3.755
REMARK INTER:                  -3.737
REMARK INTRA:                  -0.018
REMARK UNBOUND:                -0.082
REMARK SMILES CCCCC(=O)[O-]
REMARK SMILES IDX 4 1 5 2 6 3 7 4 3 5 2 6 1 7
REMARK H PARENT
REMARK Flexibility Score: inf
ROOT
ATOM      1  C   UNL     1       7.590   5.920  -8.789  1.00  0.00     0.053 C 
ENDROOT
BRANCH   1   2
ATOM      2  C   UNL     1       8.844   6.557  -9.301  1.00  0.00     0.041 C 
ATOM      3  O   UNL     1       9.019   7.798  -9.179  1.00  0.00    -0.550 OA
ATOM      4  O   UNL     1       9.796   5.789  -9.957  1.00  0.00    -0.550 OA
ENDBRANCH   1   2
BRANCH   1   5
ATOM      5  C   UNL     1       7.520   6.023  -7.263  1.00  0.00     0.006 C 
BRANCH   5   6
ATOM      6  C   UNL     1       7.107   4.685  -6.641  1.00  0.00    -0.003 C 
ATOM      7  C   UNL     1       6.905   4.817  -5.133  1.00  0.00     0.004 C 
ENDBRANCH   5   6
ENDBRANCH   1   5
TORSDOF 3
ENDMDL
MODEL 8
REMARK VINA RESULT:    -3.097      2.401      2.999
REMARK INTER + INTRA:          -3.722
REMARK INTER:                  -3.593
REMARK INTRA:                  -0.129
REMARK UNBOUND:                -0.082
REMARK SMILES CCCCC(=O)[O-]
REMARK SMILES IDX 4 1 5 2 6 3 7 4 3 5 2 6 1 7
REMARK H PARENT
REMARK Flexibility Score: inf
ROOT
ATOM      1  C   UNL     1      12.028   0.482   2.196  1.00  0.00     0.053 C 
ENDROOT
BRANCH   1   2
ATOM      2  C   UNL     1      12.242  -0.409   3.379  1.00  0.00     0.041 C 
ATOM      3  O   UNL     1      12.318  -1.656   3.228  1.00  0.00    -0.550 OA
ATOM      4  O   UNL     1      12.308   0.135   4.656  1.00  0.00    -0.550 OA
ENDBRANCH   1   2
BRANCH   1   5
ATOM      5  C   UNL     1      10.716   0.130   1.490  1.00  0.00     0.006 C 
BRANCH   5   6
ATOM      6  C   UNL     1       9.521   0.298   2.434  1.00  0.00    -0.003 C 
ATOM      7  C   UNL     1       8.666  -0.967   2.472  1.00  0.00     0.004 C 
ENDBRANCH   5   6
ENDBRANCH   1   5
TORSDOF 3
ENDMDL
MODEL 9
REMARK VINA RESULT:    -3.075      2.121      2.722
REMARK INTER + INTRA:          -3.696
REMARK INTER:                  -3.675
REMARK INTRA:                  -0.021
REMARK UNBOUND:                -0.082
REMARK SMILES CCCCC(=O)[O-]
REMARK SMILES IDX 4 1 5 2 6 3 7 4 3 5 2 6 1 7
REMARK H PARENT
REMARK Flexibility Score: inf
ROOT
ATOM      1  C   UNL     1      13.316  -0.614  -0.644  1.00  0.00     0.053 C 
ENDROOT
BRANCH   1   2
ATOM      2  C   UNL     1      14.743  -0.362  -1.017  1.00  0.00     0.041 C 
ATOM      3  O   UNL     1      15.123  -0.515  -2.208  1.00  0.00    -0.550 OA
ATOM      4  O   UNL     1      15.665  -0.006  -0.041  1.00  0.00    -0.550 OA
ENDBRANCH   1   2
BRANCH   1   5
ATOM      5  C   UNL     1      13.005  -0.007   0.727  1.00  0.00     0.006 C 
BRANCH   5   6
ATOM      6  C   UNL     1      11.533   0.407   0.824  1.00  0.00    -0.003 C 
ATOM      7  C   UNL     1      11.031   0.329   2.264  1.00  0.00     0.004 C 
ENDBRANCH   5   6
ENDBRANCH   1   5
TORSDOF 3
ENDMDL
