MODEL 1
REMARK VINA RESULT:    -4.688      0.000      0.000
REMARK INTER + INTRA:          -5.956
REMARK INTER:                  -5.785
REMARK INTRA:                  -0.171
REMARK UNBOUND:                -0.171
REMARK SMILES CCCCCC(=O)[O-]
REMARK SMILES IDX 4 1 5 2 6 3 7 4 8 5 3 6 2 7 1 8
REMARK H PARENT
REMARK Flexibility Score: inf
ROOT
ATOM      1  C   UNL     1      17.742  22.554  43.040  1.00  0.00     0.006 C 
ENDROOT
BRANCH   1   2
ATOM      2  C   UNL     1      17.910  21.189  43.719  1.00  0.00     0.053 C 
BRANCH   2   3
ATOM      3  C   UNL     1      17.812  20.089  42.711  1.00  0.00     0.041 C 
ATOM      4  O   UNL     1      17.535  18.917  43.077  1.00  0.00    -0.550 OA
ATOM      5  O   UNL     1      18.076  20.348  41.372  1.00  0.00    -0.550 OA
ENDBRANCH   2   3
ENDBRANCH   1   2
BRANCH   1   6
ATOM      6  C   UNL     1      18.854  23.551  43.416  1.00  0.00     0.000 C 
BRANCH   6   7
ATOM      7  C   UNL     1      19.501  24.278  42.224  1.00  0.00    -0.003 C 
ATOM      8  C   UNL     1      20.005  23.322  41.142  1.00  0.00     0.004 C 
ENDBRANCH   6   7
ENDBRANCH   1   6
TORSDOF 4
ENDMDL
MODEL 2
REMARK VINA RESULT:    -4.407      1.767      2.392
REMARK INTER + INTRA:          -5.609
REMARK INTER:                  -5.559
REMARK INTRA:                  -0.050
REMARK UNBOUND:                -0.171
REMARK SMILES CCCCCC(=O)[O-]
REMARK SMILES IDX 4 1 5 2 6 3 7 4 8 5 3 6 2 7 1 8
REMARK H PARENT
REMARK Flexibility Score: inf
ROOT
ATOM      1  C   UNL     1      18.810  22.004  41.383  1.00  0.00     0.006 C 
ENDROOT
BRANCH   1   2
ATOM      2  C   UNL     1      18.086  20.653  41.393  1.00  0.00     0.053 C 
BRANCH   2   3
ATOM      3  C   UNL     1      17.803  20.223  42.797  1.00  0.00     0.041 C 
ATOM      4  O   UNL     1      17.799  21.069  43.730  1.00  0.00    -0.550 OA
ATOM      5  O   UNL     1      17.591  18.881  43.084  1.00  0.00    -0.550 OA
ENDBRANCH   2   3
ENDBRANCH   1   2
BRANCH   1   6
ATOM      6  C   UNL     1      19.992  22.043  40.396  1.00  0.00     0.000 C 
BRANCH   6   7
ATOM      7  C   UNL     1      20.722  23.396  40.316  1.00  0.00    -0.003 C 
ATOM      8  C   UNL     1      21.957  23.357  39.417  1.00  0.00     0.004 C 
ENDBRANCH   6   7
ENDBRANCH   1   6
TORSDOF 4
ENDMDL
MODEL 3
REMARK VINA RESULT:    -4.375      2.941      4.213
REMARK INTER + INTRA:          -5.570
REMARK INTER:                  -5.456
REMARK INTRA:                  -0.114
REMARK UNBOUND:                -0.171
REMARK SMILES CCCCCC(=O)[O-]
REMARK SMILES IDX 4 1 5 2 6 3 7 4 8 5 3 6 2 7 1 8
REMARK H PARENT
REMARK Flexibility Score: inf
ROOT
ATOM      1  C   UNL     1      19.500  23.735  42.066  1.00  0.00     0.006 C 
ENDROOT
BRANCH   1   2
ATOM      2  C   UNL     1      19.826  22.772  40.918  1.00  0.00     0.053 C 
BRANCH   2   3
ATOM      3  C   UNL     1      21.152  23.108  40.315  1.00  0.00     0.041 C 
ATOM      4  O   UNL     1      22.214  22.679  40.839  1.00  0.00    -0.550 OA
ATOM      5  O   UNL     1      21.221  23.937  39.203  1.00  0.00    -0.550 OA
ENDBRANCH   2   3
ENDBRANCH   1   2
BRANCH   1   6
ATOM      6  C   UNL     1      18.580  23.110  43.130  1.00  0.00     0.000 C 
BRANCH   6   7
ATOM      7  C   UNL     1      18.340  21.598  42.968  1.00  0.00    -0.003 C 
ATOM      8  C   UNL     1      16.890  21.191  43.228  1.00  0.00     0.004 C 
ENDBRANCH   6   7
ENDBRANCH   1   6
TORSDOF 4
ENDMDL
MODEL 4
REMARK VINA RESULT:    -4.371      1.877      3.636
REMARK INTER + INTRA:          -5.564
REMARK INTER:                  -5.369
REMARK INTRA:                  -0.195
REMARK UNBOUND:                -0.171
REMARK SMILES CCCCCC(=O)[O-]
REMARK SMILES IDX 4 1 5 2 6 3 7 4 8 5 3 6 2 7 1 8
REMARK H PARENT
REMARK Flexibility Score: inf
ROOT
ATOM      1  C   UNL     1      18.369  23.143  42.745  1.00  0.00     0.006 C 
ENDROOT
BRANCH   1   2
ATOM      2  C   UNL     1      19.844  23.191  42.327  1.00  0.00     0.053 C 
BRANCH   2   3
ATOM      3  C   UNL     1      19.997  22.762  40.903  1.00  0.00     0.041 C 
ATOM      4  O   UNL     1      19.471  21.689  40.504  1.00  0.00    -0.550 OA
ATOM      5  O   UNL     1      20.761  23.521  40.026  1.00  0.00    -0.550 OA
ENDBRANCH   2   3
ENDBRANCH   1   2
BRANCH   1   6
ATOM      6  C   UNL     1      18.045  21.947  43.661  1.00  0.00     0.000 C 
BRANCH   6   7
ATOM      7  C   UNL     1      17.094  20.904  43.047  1.00  0.00    -0.003 C 
ATOM      8  C   UNL     1      17.772  19.561  42.779  1.00  0.00     0.004 C 
ENDBRANCH   6   7
ENDBRANCH   1   6
TORSDOF 4
ENDMDL
MODEL 5
REMARK VINA RESULT:    -4.091      3.734      5.047
REMARK INTER + INTRA:          -5.219
REMARK INTER:                  -5.144
REMARK INTRA:                  -0.076
REMARK UNBOUND:                -0.171
REMARK SMILES CCCCCC(=O)[O-]
REMARK SMILES IDX 4 1 5 2 6 3 7 4 8 5 3 6 2 7 1 8
REMARK H PARENT
REMARK Flexibility Score: inf
ROOT
ATOM      1  C   UNL     1      20.155  23.199  40.957  1.00  0.00     0.006 C 
ENDROOT
BRANCH   1   2
ATOM      2  C   UNL     1      21.030  22.612  39.842  1.00  0.00     0.053 C 
BRANCH   2   3
ATOM      3  C   UNL     1      22.190  23.512  39.561  1.00  0.00     0.041 C 
ATOM      4  O   UNL     1      22.159  24.298  38.578  1.00  0.00    -0.550 OA
ATOM      5  O   UNL     1      23.328  23.449  40.356  1.00  0.00    -0.550 OA
ENDBRANCH   2   3
ENDBRANCH   1   2
BRANCH   1   6
ATOM      6  C   UNL     1      19.030  22.245  41.401  1.00  0.00     0.000 C 
BRANCH   6   7
ATOM      7  C   UNL     1      18.497  22.494  42.823  1.00  0.00    -0.003 C 
ATOM      8  C   UNL     1      18.989  23.810  43.426  1.00  0.00     0.004 C 
ENDBRANCH   6   7
ENDBRANCH   1   6
TORSDOF 4
ENDMDL
MODEL 6
REMARK VINA RESULT:    -3.873      2.087      3.056
REMARK INTER + INTRA:          -4.950
REMARK INTER:                  -4.903
REMARK INTRA:                  -0.047
REMARK UNBOUND:                -0.171
REMARK SMILES CCCCCC(=O)[O-]
REMARK SMILES IDX 4 1 5 2 6 3 7 4 8 5 3 6 2 7 1 8
REMARK H PARENT
REMARK Flexibility Score: inf
ROOT
ATOM      1  C   UNL     1      19.884  22.170  40.595  1.00  0.00     0.006 C 
ENDROOT
BRANCH   1   2
ATOM      2  C   UNL     1      19.080  22.586  41.834  1.00  0.00     0.053 C 
BRANCH   2   3
ATOM      3  C   UNL     1      18.298  21.426  42.362  1.00  0.00     0.041 C 
ATOM      4  O   UNL     1      17.972  20.481  41.597  1.00  0.00    -0.550 OA
ATOM      5  O   UNL     1      17.887  21.411  43.689  1.00  0.00    -0.550 OA
ENDBRANCH   2   3
ENDBRANCH   1   2
BRANCH   1   6
ATOM      6  C   UNL     1      20.868  23.258  40.127  1.00  0.00     0.000 C 
BRANCH   6   7
ATOM      7  C   UNL     1      22.350  22.842  40.153  1.00  0.00    -0.003 C 
ATOM      8  C   UNL     1      23.223  23.678  39.217  1.00  0.00     0.004 C 
ENDBRANCH   6   7
ENDBRANCH   1   6
TORSDOF 4
ENDMDL
MODEL 7
REMARK VINA RESULT:    -3.678     12.121     12.986
REMARK INTER + INTRA:          -4.710
REMARK INTER:                  -4.575
REMARK INTRA:                  -0.134
REMARK UNBOUND:                -0.171
REMARK SMILES CCCCCC(=O)[O-]
REMARK SMILES IDX 4 1 5 2 6 3 7 4 8 5 3 6 2 7 1 8
REMARK H PARENT
REMARK Flexibility Score: inf
ROOT
ATOM      1  C   UNL     1      12.021  13.240  36.030  1.00  0.00     0.006 C 
ENDROOT
BRANCH   1   2
ATOM      2  C   UNL     1      12.989  14.177  35.297  1.00  0.00     0.053 C 
BRANCH   2   3
ATOM      3  C   UNL     1      13.789  13.414  34.289  1.00  0.00     0.041 C 
ATOM      4  O   UNL     1      13.210  12.710  33.421  1.00  0.00    -0.550 OA
ATOM      5  O   UNL     1      15.177  13.442  34.339  1.00  0.00    -0.550 OA
ENDBRANCH   2   3
ENDBRANCH   1   2
BRANCH   1   6
ATOM      6  C   UNL     1      12.705  12.420  37.139  1.00  0.00     0.000 C 
BRANCH   6   7
ATOM      7  C   UNL     1      11.752  11.862  38.212  1.00  0.00    -0.003 C 
ATOM      8  C   UNL     1      10.389  12.553  38.218  1.00  0.00     0.004 C 
ENDBRANCH   6   7
ENDBRANCH   1   6
TORSDOF 4
ENDMDL
MODEL 8
REMARK VINA RESULT:    -3.611     12.811     13.857
REMARK INTER + INTRA:          -4.627
REMARK INTER:                  -4.427
REMARK INTRA:                  -0.200
REMARK UNBOUND:                -0.171
REMARK SMILES CCCCCC(=O)[O-]
REMARK SMILES IDX 4 1 5 2 6 3 7 4 8 5 3 6 2 7 1 8
REMARK H PARENT
REMARK Flexibility Score: inf
ROOT
ATOM      1  C   UNL     1      15.621  12.160  34.604  1.00  0.00     0.006 C 
ENDROOT
BRANCH   1   2
ATOM      2  C   UNL     1      15.651  11.424  33.258  1.00  0.00     0.053 C 
BRANCH   2   3
ATOM      3  C   UNL     1      14.325  10.789  32.982  1.00  0.00     0.041 C 
ATOM      4  O   UNL     1      14.092   9.614  33.371  1.00  0.00    -0.550 OA
ATOM      5  O   UNL     1      13.363  11.476  32.253  1.00  0.00    -0.550 OA
ENDBRANCH   2   3
ENDBRANCH   1   2
BRANCH   1   6
ATOM      6  C   UNL     1      14.944  13.541  34.516  1.00  0.00     0.000 C 
BRANCH   6   7
ATOM      7  C   UNL     1      13.754  13.737  35.473  1.00  0.00    -0.003 C 
ATOM      8  C   UNL     1      12.414  13.849  34.746  1.00  0.00     0.004 C 
ENDBRANCH   6   7
ENDBRANCH   1   6
TORSDOF 4
ENDMDL
MODEL 9
REMARK VINA RESULT:    -3.597     11.967     13.284
REMARK INTER + INTRA:          -4.610
REMARK INTER:                  -4.427
REMARK INTRA:                  -0.183
REMARK UNBOUND:                -0.171
REMARK SMILES CCCCCC(=O)[O-]
REMARK SMILES IDX 4 1 5 2 6 3 7 4 8 5 3 6 2 7 1 8
REMARK H PARENT
REMARK Flexibility Score: inf
ROOT
ATOM      1  C   UNL     1      14.037  13.276  34.115  1.00  0.00     0.006 C 
ENDROOT
BRANCH   1   2
ATOM      2  C   UNL     1      13.186  13.748  35.300  1.00  0.00     0.053 C 
BRANCH   2   3
ATOM      3  C   UNL     1      13.486  12.930  36.516  1.00  0.00     0.041 C 
ATOM      4  O   UNL     1      14.646  12.479  36.706  1.00  0.00    -0.550 OA
ATOM      5  O   UNL     1      12.473  12.624  37.416  1.00  0.00    -0.550 OA
ENDBRANCH   2   3
ENDBRANCH   1   2
BRANCH   1   6
ATOM      6  C   UNL     1      13.368  12.147  33.309  1.00  0.00     0.000 C 
BRANCH   6   7
ATOM      7  C   UNL     1      14.307  10.994  32.911  1.00  0.00    -0.003 C 
ATOM      8  C   UNL     1      15.779  11.299  33.185  1.00  0.00     0.004 C 
ENDBRANCH   6   7
ENDBRANCH   1   6
TORSDOF 4
ENDMDL
