MODEL 1
REMARK VINA RESULT:    -0.835      0.000      0.000
REMARK INTER + INTRA:          -1.754
REMARK INTER:                  -1.519
REMARK INTRA:                  -0.235
REMARK UNBOUND:                -0.235
REMARK SMILES CCCCCCCCCCCCCC[C@@H](C)C(=O)[O-]
REMARK SMILES IDX 9 1 10 2 11 3 12 4 13 5 14 6 15 7 16 8 17 9 18 10 19 11 8 12
REMARK SMILES IDX 7 13 6 14 5 15 4 16 3 17 2 18 1 19
REMARK H PARENT
REMARK Flexibility Score: inf
ROOT
ATOM      1  C   UNL     1       5.873  -5.594   5.998  1.00  0.00     0.000 C 
ENDROOT
BRANCH   1   2
ATOM      2  C   UNL     1       5.157  -6.433   4.929  1.00  0.00     0.000 C 
BRANCH   2   3
ATOM      3  C   UNL     1       4.429  -7.650   5.520  1.00  0.00     0.000 C 
BRANCH   3   4
ATOM      4  C   UNL     1       5.398  -8.761   5.963  1.00  0.00     0.000 C 
BRANCH   4   5
ATOM      5  C   UNL     1       4.700 -10.118   6.146  1.00  0.00     0.001 C 
BRANCH   5   6
ATOM      6  C   UNL     1       3.462 -10.024   7.061  1.00  0.00     0.009 C 
BRANCH   6   7
ATOM      7  C   UNL     1       3.777 -10.125   8.570  1.00  0.00     0.032 C 
ATOM      8  C   UNL     1       5.183  -9.617   8.919  1.00  0.00     0.014 C 
BRANCH   7   9
ATOM      9  C   UNL     1       2.721  -9.448   9.406  1.00  0.00     0.044 C 
ATOM     10  O   UNL     1       1.547  -9.903   9.421  1.00  0.00    -0.550 OA
ATOM     11  O   UNL     1       3.012  -8.291  10.121  1.00  0.00    -0.550 OA
ENDBRANCH   7   9
ENDBRANCH   6   7
ENDBRANCH   5   6
ENDBRANCH   4   5
ENDBRANCH   3   4
ENDBRANCH   2   3
ENDBRANCH   1   2
BRANCH   1  12
ATOM     12  C   UNL     1       5.964  -6.360   7.326  1.00  0.00     0.000 C 
BRANCH  12  13
ATOM     13  C   UNL     1       7.412  -6.558   7.804  1.00  0.00    -0.000 C 
BRANCH  13  14
ATOM     14  C   UNL     1       7.556  -7.064   9.253  1.00  0.00    -0.000 C 
BRANCH  14  15
ATOM     15  C   UNL     1       8.871  -7.809   9.557  1.00  0.00    -0.000 C 
BRANCH  15  16
ATOM     16  C   UNL     1       8.745  -9.343   9.646  1.00  0.00    -0.000 C 
BRANCH  16  17
ATOM     17  C   UNL     1       8.646 -10.067   8.291  1.00  0.00    -0.000 C 
BRANCH  17  18
ATOM     18  C   UNL     1       9.193  -9.229   7.125  1.00  0.00    -0.003 C 
ATOM     19  C   UNL     1       9.630 -10.121   5.967  1.00  0.00     0.004 C 
ENDBRANCH  17  18
ENDBRANCH  16  17
ENDBRANCH  15  16
ENDBRANCH  14  15
ENDBRANCH  13  14
ENDBRANCH  12  13
ENDBRANCH   1  12
TORSDOF 14
ENDMDL
MODEL 2
REMARK VINA RESULT:     0.408      3.185      5.446
REMARK INTER + INTRA:           0.506
REMARK INTER:                   2.212
REMARK INTRA:                  -1.707
REMARK UNBOUND:                -0.235
REMARK SMILES CCCCCCCCCCCCCC[C@@H](C)C(=O)[O-]
REMARK SMILES IDX 9 1 10 2 11 3 12 4 13 5 14 6 15 7 16 8 17 9 18 10 19 11 8 12
REMARK SMILES IDX 7 13 6 14 5 15 4 16 3 17 2 18 1 19
REMARK H PARENT
REMARK Flexibility Score: inf
ROOT
ATOM      1  C   UNL     1       6.643 -10.068   5.451  1.00  0.00     0.000 C 
ENDROOT
BRANCH   1   2
ATOM      2  C   UNL     1       5.370  -9.613   6.179  1.00  0.00     0.000 C 
BRANCH   2   3
ATOM      3  C   UNL     1       4.920  -8.205   5.761  1.00  0.00     0.000 C 
BRANCH   3   4
ATOM      4  C   UNL     1       5.315  -7.129   6.788  1.00  0.00     0.000 C 
BRANCH   4   5
ATOM      5  C   UNL     1       5.929  -5.881   6.132  1.00  0.00     0.001 C 
BRANCH   5   6
ATOM      6  C   UNL     1       5.226  -5.503   4.812  1.00  0.00     0.009 C 
BRANCH   6   7
ATOM      7  C   UNL     1       5.106  -3.982   4.569  1.00  0.00     0.032 C 
ATOM      8  C   UNL     1       6.451  -3.326   4.228  1.00  0.00     0.014 C 
BRANCH   7   9
ATOM      9  C   UNL     1       4.057  -3.665   3.533  1.00  0.00     0.044 C 
ATOM     10  O   UNL     1       4.404  -3.251   2.397  1.00  0.00    -0.550 OA
ATOM     11  O   UNL     1       2.704  -3.772   3.836  1.00  0.00    -0.550 OA
ENDBRANCH   7   9
ENDBRANCH   6   7
ENDBRANCH   5   6
ENDBRANCH   4   5
ENDBRANCH   3   4
ENDBRANCH   2   3
ENDBRANCH   1   2
BRANCH   1  12
ATOM     12  C   UNL     1       7.814  -9.121   5.749  1.00  0.00     0.000 C 
BRANCH  12  13
ATOM     13  C   UNL     1       8.873  -9.750   6.671  1.00  0.00    -0.000 C 
BRANCH  13  14
ATOM     14  C   UNL     1       9.031  -9.065   8.043  1.00  0.00    -0.000 C 
BRANCH  14  15
ATOM     15  C   UNL     1       7.712  -8.645   8.719  1.00  0.00    -0.000 C 
BRANCH  15  16
ATOM     16  C   UNL     1       7.272  -9.536   9.898  1.00  0.00    -0.000 C 
BRANCH  16  17
ATOM     17  C   UNL     1       5.811 -10.017   9.841  1.00  0.00    -0.000 C 
BRANCH  17  18
ATOM     18  C   UNL     1       4.801  -8.881  10.062  1.00  0.00    -0.003 C 
ATOM     19  C   UNL     1       3.471  -9.190   9.381  1.00  0.00     0.004 C 
ENDBRANCH  17  18
ENDBRANCH  16  17
ENDBRANCH  15  16
ENDBRANCH  14  15
ENDBRANCH  13  14
ENDBRANCH  12  13
ENDBRANCH   1  12
TORSDOF 14
ENDMDL
MODEL 3
REMARK VINA RESULT:     0.414      2.711      5.921
REMARK INTER + INTRA:           0.517
REMARK INTER:                   1.269
REMARK INTRA:                  -0.752
REMARK UNBOUND:                -0.235
REMARK SMILES CCCCCCCCCCCCCC[C@@H](C)C(=O)[O-]
REMARK SMILES IDX 9 1 10 2 11 3 12 4 13 5 14 6 15 7 16 8 17 9 18 10 19 11 8 12
REMARK SMILES IDX 7 13 6 14 5 15 4 16 3 17 2 18 1 19
REMARK H PARENT
REMARK Flexibility Score: inf
ROOT
ATOM      1  C   UNL     1       6.874  -7.886   6.294  1.00  0.00     0.000 C 
ENDROOT
BRANCH   1   2
ATOM      2  C   UNL     1       7.126  -7.253   7.670  1.00  0.00     0.000 C 
BRANCH   2   3
ATOM      3  C   UNL     1       8.128  -8.054   8.516  1.00  0.00     0.000 C 
BRANCH   3   4
ATOM      4  C   UNL     1       7.675  -8.211   9.978  1.00  0.00     0.000 C 
BRANCH   4   5
ATOM      5  C   UNL     1       6.151  -8.351  10.114  1.00  0.00     0.001 C 
BRANCH   5   6
ATOM      6  C   UNL     1       5.685  -9.819  10.030  1.00  0.00     0.009 C 
BRANCH   6   7
ATOM      7  C   UNL     1       4.250 -10.001   9.485  1.00  0.00     0.032 C 
ATOM      8  C   UNL     1       3.250  -9.014  10.103  1.00  0.00     0.014 C 
BRANCH   7   9
ATOM      9  C   UNL     1       4.216  -9.954   7.979  1.00  0.00     0.044 C 
ATOM     10  O   UNL     1       5.276 -10.125   7.322  1.00  0.00    -0.550 OA
ATOM     11  O   UNL     1       3.035  -9.669   7.302  1.00  0.00    -0.550 OA
ENDBRANCH   7   9
ENDBRANCH   6   7
ENDBRANCH   5   6
ENDBRANCH   4   5
ENDBRANCH   3   4
ENDBRANCH   2   3
ENDBRANCH   1   2
BRANCH   1  12
ATOM     12  C   UNL     1       5.689  -7.210   5.588  1.00  0.00     0.000 C 
BRANCH  12  13
ATOM     13  C   UNL     1       5.297  -5.868   6.230  1.00  0.00    -0.000 C 
BRANCH  13  14
ATOM     14  C   UNL     1       5.795  -4.617   5.480  1.00  0.00    -0.000 C 
BRANCH  14  15
ATOM     15  C   UNL     1       5.248  -4.453   4.049  1.00  0.00    -0.000 C 
BRANCH  15  16
ATOM     16  C   UNL     1       4.617  -3.080   3.747  1.00  0.00    -0.000 C 
BRANCH  16  17
ATOM     17  C   UNL     1       3.085  -3.088   3.593  1.00  0.00    -0.000 C 
BRANCH  17  18
ATOM     18  C   UNL     1       2.633  -3.209   2.130  1.00  0.00    -0.003 C 
ATOM     19  C   UNL     1       1.237  -2.625   1.937  1.00  0.00     0.004 C 
ENDBRANCH  17  18
ENDBRANCH  16  17
ENDBRANCH  15  16
ENDBRANCH  14  15
ENDBRANCH  13  14
ENDBRANCH  12  13
ENDBRANCH   1  12
TORSDOF 14
ENDMDL
MODEL 4
REMARK VINA RESULT:     0.658      3.105      6.245
REMARK INTER + INTRA:           0.961
REMARK INTER:                   2.167
REMARK INTRA:                  -1.207
REMARK UNBOUND:                -0.235
REMARK SMILES CCCCCCCCCCCCCC[C@@H](C)C(=O)[O-]
REMARK SMILES IDX 9 1 10 2 11 3 12 4 13 5 14 6 15 7 16 8 17 9 18 10 19 11 8 12
REMARK SMILES IDX 7 13 6 14 5 15 4 16 3 17 2 18 1 19
REMARK H PARENT
REMARK Flexibility Score: inf
ROOT
ATOM      1  C   UNL     1       5.182  -7.616   5.729  1.00  0.00     0.000 C 
ENDROOT
BRANCH   1   2
ATOM      2  C   UNL     1       5.660  -9.067   5.574  1.00  0.00     0.000 C 
BRANCH   2   3
ATOM      3  C   UNL     1       4.633 -10.088   6.091  1.00  0.00     0.000 C 
BRANCH   3   4
ATOM      4  C   UNL     1       3.796  -9.542   7.261  1.00  0.00     0.000 C 
BRANCH   4   5
ATOM      5  C   UNL     1       4.397  -9.888   8.632  1.00  0.00     0.001 C 
BRANCH   5   6
ATOM      6  C   UNL     1       5.292  -8.760   9.185  1.00  0.00     0.009 C 
BRANCH   6   7
ATOM      7  C   UNL     1       6.732  -9.201   9.531  1.00  0.00     0.032 C 
ATOM      8  C   UNL     1       7.343 -10.125   8.468  1.00  0.00     0.014 C 
BRANCH   7   9
ATOM      9  C   UNL     1       7.623  -8.020   9.816  1.00  0.00     0.044 C 
ATOM     10  O   UNL     1       7.162  -6.852   9.730  1.00  0.00    -0.550 OA
ATOM     11  O   UNL     1       8.968  -8.200  10.123  1.00  0.00    -0.550 OA
ENDBRANCH   7   9
ENDBRANCH   6   7
ENDBRANCH   5   6
ENDBRANCH   4   5
ENDBRANCH   3   4
ENDBRANCH   2   3
ENDBRANCH   1   2
BRANCH   1  12
ATOM     12  C   UNL     1       6.360  -6.679   6.028  1.00  0.00     0.000 C 
BRANCH  12  13
ATOM     13  C   UNL     1       6.017  -5.196   5.805  1.00  0.00    -0.000 C 
BRANCH  13  14
ATOM     14  C   UNL     1       5.325  -4.882   4.465  1.00  0.00    -0.000 C 
BRANCH  14  15
ATOM     15  C   UNL     1       4.964  -3.399   4.248  1.00  0.00    -0.000 C 
BRANCH  15  16
ATOM     16  C   UNL     1       4.009  -3.127   3.069  1.00  0.00    -0.000 C 
BRANCH  16  17
ATOM     17  C   UNL     1       2.589  -3.696   3.237  1.00  0.00    -0.000 C 
BRANCH  17  18
ATOM     18  C   UNL     1       1.652  -3.315   2.082  1.00  0.00    -0.003 C 
ATOM     19  C   UNL     1       1.124  -1.893   2.250  1.00  0.00     0.004 C 
ENDBRANCH  17  18
ENDBRANCH  16  17
ENDBRANCH  15  16
ENDBRANCH  14  15
ENDBRANCH  13  14
ENDBRANCH  12  13
ENDBRANCH   1  12
TORSDOF 14
ENDMDL
MODEL 5
REMARK VINA RESULT:     0.937      4.217      6.095
REMARK INTER + INTRA:           1.468
REMARK INTER:                   2.943
REMARK INTRA:                  -1.475
REMARK UNBOUND:                -0.235
REMARK SMILES CCCCCCCCCCCCCC[C@@H](C)C(=O)[O-]
REMARK SMILES IDX 9 1 10 2 11 3 12 4 13 5 14 6 15 7 16 8 17 9 18 10 19 11 8 12
REMARK SMILES IDX 7 13 6 14 5 15 4 16 3 17 2 18 1 19
REMARK H PARENT
REMARK Flexibility Score: inf
ROOT
ATOM      1  C   UNL     1       5.848  -8.185   5.945  1.00  0.00     0.000 C 
ENDROOT
BRANCH   1   2
ATOM      2  C   UNL     1       5.969  -6.661   6.089  1.00  0.00     0.000 C 
BRANCH   2   3
ATOM      3  C   UNL     1       5.176  -5.900   5.015  1.00  0.00     0.000 C 
BRANCH   3   4
ATOM      4  C   UNL     1       5.423  -4.382   5.062  1.00  0.00     0.000 C 
BRANCH   4   5
ATOM      5  C   UNL     1       5.168  -3.698   3.709  1.00  0.00     0.001 C 
BRANCH   5   6
ATOM      6  C   UNL     1       3.792  -3.003   3.651  1.00  0.00     0.009 C 
BRANCH   6   7
ATOM      7  C   UNL     1       2.744  -3.736   2.784  1.00  0.00     0.032 C 
ATOM      8  C   UNL     1       1.654  -4.420   3.621  1.00  0.00     0.014 C 
BRANCH   7   9
ATOM      9  C   UNL     1       2.152  -2.827   1.739  1.00  0.00     0.044 C 
ATOM     10  O   UNL     1       0.917  -2.584   1.747  1.00  0.00    -0.550 OA
ATOM     11  O   UNL     1       2.944  -2.292   0.729  1.00  0.00    -0.550 OA
ENDBRANCH   7   9
ENDBRANCH   6   7
ENDBRANCH   5   6
ENDBRANCH   4   5
ENDBRANCH   3   4
ENDBRANCH   2   3
ENDBRANCH   1   2
BRANCH   1  12
ATOM     12  C   UNL     1       4.424  -8.655   6.273  1.00  0.00     0.000 C 
BRANCH  12  13
ATOM     13  C   UNL     1       4.375  -9.638   7.455  1.00  0.00    -0.000 C 
BRANCH  13  14
ATOM     14  C   UNL     1       4.349  -8.979   8.849  1.00  0.00    -0.000 C 
BRANCH  14  15
ATOM     15  C   UNL     1       5.255  -9.646   9.902  1.00  0.00    -0.000 C 
BRANCH  15  16
ATOM     16  C   UNL     1       6.761  -9.358   9.743  1.00  0.00    -0.000 C 
BRANCH  16  17
ATOM     17  C   UNL     1       7.109  -7.909   9.357  1.00  0.00    -0.000 C 
BRANCH  17  18
ATOM     18  C   UNL     1       8.552  -7.754   8.856  1.00  0.00    -0.003 C 
ATOM     19  C   UNL     1       8.962  -8.941   7.988  1.00  0.00     0.004 C 
ENDBRANCH  17  18
ENDBRANCH  16  17
ENDBRANCH  15  16
ENDBRANCH  14  15
ENDBRANCH  13  14
ENDBRANCH  12  13
ENDBRANCH   1  12
TORSDOF 14
ENDMDL
MODEL 6
REMARK VINA RESULT:     1.057      4.225      6.169
REMARK INTER + INTRA:           1.686
REMARK INTER:                   3.157
REMARK INTRA:                  -1.470
REMARK UNBOUND:                -0.235
REMARK SMILES CCCCCCCCCCCCCC[C@@H](C)C(=O)[O-]
REMARK SMILES IDX 9 1 10 2 11 3 12 4 13 5 14 6 15 7 16 8 17 9 18 10 19 11 8 12
REMARK SMILES IDX 7 13 6 14 5 15 4 16 3 17 2 18 1 19
REMARK H PARENT
REMARK Flexibility Score: inf
ROOT
ATOM      1  C   UNL     1       5.275  -7.988   6.496  1.00  0.00     0.000 C 
ENDROOT
BRANCH   1   2
ATOM      2  C   UNL     1       5.797  -6.557   6.301  1.00  0.00     0.000 C 
BRANCH   2   3
ATOM      3  C   UNL     1       5.281  -5.911   5.005  1.00  0.00     0.000 C 
BRANCH   3   4
ATOM      4  C   UNL     1       5.483  -4.386   4.984  1.00  0.00     0.000 C 
BRANCH   4   5
ATOM      5  C   UNL     1       5.083  -3.754   3.641  1.00  0.00     0.001 C 
BRANCH   5   6
ATOM      6  C   UNL     1       3.687  -3.100   3.690  1.00  0.00     0.009 C 
BRANCH   6   7
ATOM      7  C   UNL     1       2.650  -3.740   2.741  1.00  0.00     0.032 C 
ATOM      8  C   UNL     1       1.615  -4.597   3.482  1.00  0.00     0.014 C 
BRANCH   7   9
ATOM      9  C   UNL     1       1.989  -2.710   1.862  1.00  0.00     0.044 C 
ATOM     10  O   UNL     1       0.893  -2.198   2.212  1.00  0.00    -0.550 OA
ATOM     11  O   UNL     1       2.547  -2.354   0.639  1.00  0.00    -0.550 OA
ENDBRANCH   7   9
ENDBRANCH   6   7
ENDBRANCH   5   6
ENDBRANCH   4   5
ENDBRANCH   3   4
ENDBRANCH   2   3
ENDBRANCH   1   2
BRANCH   1  12
ATOM     12  C   UNL     1       6.041  -8.977   5.606  1.00  0.00     0.000 C 
BRANCH  12  13
ATOM     13  C   UNL     1       6.938  -9.935   6.408  1.00  0.00    -0.000 C 
BRANCH  13  14
ATOM     14  C   UNL     1       8.432  -9.897   6.030  1.00  0.00    -0.000 C 
BRANCH  14  15
ATOM     15  C   UNL     1       9.361  -9.286   7.098  1.00  0.00    -0.000 C 
BRANCH  15  16
ATOM     16  C   UNL     1       8.734  -9.138   8.499  1.00  0.00    -0.000 C 
BRANCH  16  17
ATOM     17  C   UNL     1       8.284  -7.712   8.862  1.00  0.00    -0.000 C 
BRANCH  17  18
ATOM     18  C   UNL     1       7.209  -7.687   9.959  1.00  0.00    -0.003 C 
ATOM     19  C   UNL     1       6.302  -8.910   9.866  1.00  0.00     0.004 C 
ENDBRANCH  17  18
ENDBRANCH  16  17
ENDBRANCH  15  16
ENDBRANCH  14  15
ENDBRANCH  13  14
ENDBRANCH  12  13
ENDBRANCH   1  12
TORSDOF 14
ENDMDL
MODEL 7
REMARK VINA RESULT:     1.095      2.848      6.240
REMARK INTER + INTRA:           1.755
REMARK INTER:                   1.756
REMARK INTRA:                  -0.001
REMARK UNBOUND:                -0.235
REMARK SMILES CCCCCCCCCCCCCC[C@@H](C)C(=O)[O-]
REMARK SMILES IDX 9 1 10 2 11 3 12 4 13 5 14 6 15 7 16 8 17 9 18 10 19 11 8 12
REMARK SMILES IDX 7 13 6 14 5 15 4 16 3 17 2 18 1 19
REMARK H PARENT
REMARK Flexibility Score: inf
ROOT
ATOM      1  C   UNL     1       4.830  -8.114   6.354  1.00  0.00     0.000 C 
ENDROOT
BRANCH   1   2
ATOM      2  C   UNL     1       5.323  -9.547   6.100  1.00  0.00     0.000 C 
BRANCH   2   3
ATOM      3  C   UNL     1       6.425  -9.612   5.031  1.00  0.00     0.000 C 
BRANCH   3   4
ATOM      4  C   UNL     1       7.832  -9.405   5.619  1.00  0.00     0.000 C 
BRANCH   4   5
ATOM      5  C   UNL     1       8.023 -10.125   6.963  1.00  0.00     0.001 C 
BRANCH   5   6
ATOM      6  C   UNL     1       9.308  -9.680   7.692  1.00  0.00     0.009 C 
BRANCH   6   7
ATOM      7  C   UNL     1       9.083  -9.204   9.145  1.00  0.00     0.032 C 
ATOM      8  C   UNL     1       9.979  -8.018   9.528  1.00  0.00     0.014 C 
BRANCH   7   9
ATOM      9  C   UNL     1       7.630  -8.911   9.417  1.00  0.00     0.044 C 
ATOM     10  O   UNL     1       6.796  -9.853   9.449  1.00  0.00    -0.550 OA
ATOM     11  O   UNL     1       7.187  -7.603   9.581  1.00  0.00    -0.550 OA
ENDBRANCH   7   9
ENDBRANCH   6   7
ENDBRANCH   5   6
ENDBRANCH   4   5
ENDBRANCH   3   4
ENDBRANCH   2   3
ENDBRANCH   1   2
BRANCH   1  12
ATOM     12  C   UNL     1       6.011  -7.165   6.602  1.00  0.00     0.000 C 
BRANCH  12  13
ATOM     13  C   UNL     1       5.645  -5.686   6.385  1.00  0.00    -0.000 C 
BRANCH  13  14
ATOM     14  C   UNL     1       5.477  -5.266   4.912  1.00  0.00    -0.000 C 
BRANCH  14  15
ATOM     15  C   UNL     1       5.307  -3.751   4.681  1.00  0.00    -0.000 C 
BRANCH  15  16
ATOM     16  C   UNL     1       4.708  -3.364   3.314  1.00  0.00    -0.000 C 
BRANCH  16  17
ATOM     17  C   UNL     1       3.172  -3.272   3.280  1.00  0.00    -0.000 C 
BRANCH  17  18
ATOM     18  C   UNL     1       2.624  -2.956   1.880  1.00  0.00    -0.003 C 
ATOM     19  C   UNL     1       1.147  -2.578   1.942  1.00  0.00     0.004 C 
ENDBRANCH  17  18
ENDBRANCH  16  17
ENDBRANCH  15  16
ENDBRANCH  14  15
ENDBRANCH  13  14
ENDBRANCH  12  13
ENDBRANCH   1  12
TORSDOF 14
ENDMDL
