MODEL 1
REMARK VINA RESULT:    -4.676      0.000      0.000
REMARK INTER + INTRA:          -5.428
REMARK INTER:                  -5.222
REMARK INTRA:                  -0.206
REMARK UNBOUND:                -0.206
REMARK SMILES CC(C)c1ccc(C(=O)[O-])cc1
REMARK SMILES IDX 7 1 6 2 11 3 5 4 12 5 4 6 8 7 9 8 10 9 2 10 1 11 3 12
REMARK H PARENT
REMARK Flexibility Score: inf
ROOT
ATOM      1  C   UNL     1       7.225   7.298 -19.360  1.00  0.00    -0.003 A 
ATOM      2  C   UNL     1       7.227   7.208 -20.762  1.00  0.00     0.010 A 
ATOM      3  C   UNL     1       8.422   7.068 -18.662  1.00  0.00     0.010 A 
ATOM      4  C   UNL     1       8.401   6.893 -21.452  1.00  0.00     0.004 A 
ATOM      5  C   UNL     1       9.596   6.752 -19.351  1.00  0.00     0.004 A 
ATOM      6  C   UNL     1       9.600   6.661 -20.753  1.00  0.00    -0.045 A 
ENDROOT
BRANCH   1   7
ATOM      7  C   UNL     1       5.985   7.632 -18.626  1.00  0.00     0.071 C 
ATOM      8  O   UNL     1       5.477   6.810 -17.818  1.00  0.00    -0.545 OA
ATOM      9  O   UNL     1       5.360   8.860 -18.819  1.00  0.00    -0.545 OA
ENDBRANCH   1   7
BRANCH   6  10
ATOM     10  C   UNL     1      10.882   6.318 -21.489  1.00  0.00     0.013 C 
ATOM     11  C   UNL     1      11.540   7.577 -22.067  1.00  0.00     0.012 C 
ATOM     12  C   UNL     1      11.853   5.554 -20.582  1.00  0.00     0.012 C 
ENDBRANCH   6  10
TORSDOF 2
ENDMDL
MODEL 2
REMARK VINA RESULT:    -4.676      1.009      1.744
REMARK INTER + INTRA:          -5.428
REMARK INTER:                  -5.222
REMARK INTRA:                  -0.206
REMARK UNBOUND:                -0.206
REMARK SMILES CC(C)c1ccc(C(=O)[O-])cc1
REMARK SMILES IDX 7 1 6 2 11 3 5 4 12 5 4 6 8 7 9 8 10 9 2 10 1 11 3 12
REMARK H PARENT
REMARK Flexibility Score: inf
ROOT
ATOM      1  C   UNL     1       7.228   7.610 -18.983  1.00  0.00    -0.003 A 
ATOM      2  C   UNL     1       8.544   7.192 -18.726  1.00  0.00     0.010 A 
ATOM      3  C   UNL     1       6.834   7.843 -20.311  1.00  0.00     0.010 A 
ATOM      4  C   UNL     1       9.449   7.011 -19.776  1.00  0.00     0.004 A 
ATOM      5  C   UNL     1       7.739   7.663 -21.361  1.00  0.00     0.004 A 
ATOM      6  C   UNL     1       9.055   7.245 -21.107  1.00  0.00    -0.045 A 
ENDROOT
BRANCH   1   7
ATOM      7  C   UNL     1       6.267   7.803 -17.874  1.00  0.00     0.071 C 
ATOM      8  O   UNL     1       5.432   6.904 -17.586  1.00  0.00    -0.545 OA
ATOM      9  O   UNL     1       6.272   8.980 -17.134  1.00  0.00    -0.545 OA
ENDBRANCH   1   7
BRANCH   6  10
ATOM     10  C   UNL     1      10.027   7.052 -22.257  1.00  0.00     0.013 C 
ATOM     11  C   UNL     1      10.345   8.388 -22.940  1.00  0.00     0.012 C 
ATOM     12  C   UNL     1      11.308   6.352 -21.788  1.00  0.00     0.012 C 
ENDBRANCH   6  10
TORSDOF 2
ENDMDL
MODEL 3
REMARK VINA RESULT:    -4.665      2.772      5.878
REMARK INTER + INTRA:          -5.416
REMARK INTER:                  -5.208
REMARK INTRA:                  -0.208
REMARK UNBOUND:                -0.206
REMARK SMILES CC(C)c1ccc(C(=O)[O-])cc1
REMARK SMILES IDX 7 1 6 2 11 3 5 4 12 5 4 6 8 7 9 8 10 9 2 10 1 11 3 12
REMARK H PARENT
REMARK Flexibility Score: inf
ROOT
ATOM      1  C   UNL     1       7.214   7.662 -19.463  1.00  0.00    -0.003 A 
ATOM      2  C   UNL     1       6.383   7.285 -18.396  1.00  0.00     0.010 A 
ATOM      3  C   UNL     1       6.808   8.712 -20.304  1.00  0.00     0.010 A 
ATOM      4  C   UNL     1       5.170   7.943 -18.173  1.00  0.00     0.004 A 
ATOM      5  C   UNL     1       5.595   9.370 -20.082  1.00  0.00     0.004 A 
ATOM      6  C   UNL     1       4.763   8.994 -19.015  1.00  0.00    -0.045 A 
ENDROOT
BRANCH   1   7
ATOM      7  C   UNL     1       8.499   6.968 -19.702  1.00  0.00     0.071 C 
ATOM      8  O   UNL     1       8.925   6.795 -20.875  1.00  0.00    -0.545 OA
ATOM      9  O   UNL     1       9.254   6.496 -18.634  1.00  0.00    -0.545 OA
ENDBRANCH   1   7
BRANCH   6  10
ATOM     10  C   UNL     1       3.448   9.718 -18.784  1.00  0.00     0.013 C 
ATOM     11  C   UNL     1       2.324   9.102 -19.627  1.00  0.00     0.012 C 
ATOM     12  C   UNL     1       3.078   9.734 -17.297  1.00  0.00     0.012 C 
ENDBRANCH   6  10
TORSDOF 2
ENDMDL
MODEL 4
REMARK VINA RESULT:    -4.663      0.050      1.398
REMARK INTER + INTRA:          -5.414
REMARK INTER:                  -5.211
REMARK INTRA:                  -0.204
REMARK UNBOUND:                -0.206
REMARK SMILES CC(C)c1ccc(C(=O)[O-])cc1
REMARK SMILES IDX 7 1 6 2 11 3 5 4 12 5 4 6 8 7 9 8 10 9 2 10 1 11 3 12
REMARK H PARENT
REMARK Flexibility Score: inf
ROOT
ATOM      1  C   UNL     1       7.212   7.284 -19.355  1.00  0.00    -0.003 A 
ATOM      2  C   UNL     1       8.419   7.096 -18.662  1.00  0.00     0.010 A 
ATOM      3  C   UNL     1       7.207   7.171 -20.756  1.00  0.00     0.010 A 
ATOM      4  C   UNL     1       9.597   6.802 -19.354  1.00  0.00     0.004 A 
ATOM      5  C   UNL     1       8.385   6.876 -21.448  1.00  0.00     0.004 A 
ATOM      6  C   UNL     1       9.593   6.688 -20.756  1.00  0.00    -0.045 A 
ENDROOT
BRANCH   1   7
ATOM      7  C   UNL     1       5.963   7.597 -18.627  1.00  0.00     0.071 C 
ATOM      8  O   UNL     1       5.471   6.769 -17.814  1.00  0.00    -0.545 OA
ATOM      9  O   UNL     1       5.313   8.809 -18.830  1.00  0.00    -0.545 OA
ENDBRANCH   1   7
BRANCH   6  10
ATOM     10  C   UNL     1      10.865   6.367 -21.520  1.00  0.00     0.013 C 
ATOM     11  C   UNL     1      11.502   7.641 -22.089  1.00  0.00     0.012 C 
ATOM     12  C   UNL     1      11.858   5.597 -20.643  1.00  0.00     0.012 C 
ENDBRANCH   6  10
TORSDOF 2
ENDMDL
MODEL 5
REMARK VINA RESULT:    -4.662      2.767      5.763
REMARK INTER + INTRA:          -5.413
REMARK INTER:                  -5.203
REMARK INTRA:                  -0.209
REMARK UNBOUND:                -0.206
REMARK SMILES CC(C)c1ccc(C(=O)[O-])cc1
REMARK SMILES IDX 7 1 6 2 11 3 5 4 12 5 4 6 8 7 9 8 10 9 2 10 1 11 3 12
REMARK H PARENT
REMARK Flexibility Score: inf
ROOT
ATOM      1  C   UNL     1       7.233   7.670 -19.460  1.00  0.00    -0.003 A 
ATOM      2  C   UNL     1       6.840   8.726 -20.298  1.00  0.00     0.010 A 
ATOM      3  C   UNL     1       6.388   7.288 -18.405  1.00  0.00     0.010 A 
ATOM      4  C   UNL     1       5.627   9.388 -20.085  1.00  0.00     0.004 A 
ATOM      5  C   UNL     1       5.175   7.949 -18.192  1.00  0.00     0.004 A 
ATOM      6  C   UNL     1       4.780   9.006 -19.029  1.00  0.00    -0.045 A 
ENDROOT
BRANCH   1   7
ATOM      7  C   UNL     1       8.516   6.967 -19.682  1.00  0.00     0.071 C 
ATOM      8  O   UNL     1       8.949   6.777 -20.850  1.00  0.00    -0.545 OA
ATOM      9  O   UNL     1       9.262   6.506 -18.603  1.00  0.00    -0.545 OA
ENDBRANCH   1   7
BRANCH   6  10
ATOM     10  C   UNL     1       3.460   9.715 -18.786  1.00  0.00     0.013 C 
ATOM     11  C   UNL     1       2.335   9.084 -19.615  1.00  0.00     0.012 C 
ATOM     12  C   UNL     1       3.106   9.729 -17.295  1.00  0.00     0.012 C 
ENDBRANCH   6  10
TORSDOF 2
ENDMDL
MODEL 6
REMARK VINA RESULT:    -4.551      1.256      1.883
REMARK INTER + INTRA:          -5.289
REMARK INTER:                  -5.074
REMARK INTRA:                  -0.215
REMARK UNBOUND:                -0.206
REMARK SMILES CC(C)c1ccc(C(=O)[O-])cc1
REMARK SMILES IDX 7 1 6 2 11 3 5 4 12 5 4 6 8 7 9 8 10 9 2 10 1 11 3 12
REMARK H PARENT
REMARK Flexibility Score: inf
ROOT
ATOM      1  C   UNL     1       8.447   6.944 -19.679  1.00  0.00    -0.003 A 
ATOM      2  C   UNL     1       8.936   6.929 -20.995  1.00  0.00     0.010 A 
ATOM      3  C   UNL     1       9.329   6.670 -18.620  1.00  0.00     0.010 A 
ATOM      4  C   UNL     1      10.281   6.645 -21.248  1.00  0.00     0.004 A 
ATOM      5  C   UNL     1      10.674   6.386 -18.874  1.00  0.00     0.004 A 
ATOM      6  C   UNL     1      11.166   6.370 -20.190  1.00  0.00    -0.045 A 
ENDROOT
BRANCH   1   7
ATOM      7  C   UNL     1       7.024   7.245 -19.406  1.00  0.00     0.071 C 
ATOM      8  O   UNL     1       6.490   8.289 -19.865  1.00  0.00    -0.545 OA
ATOM      9  O   UNL     1       6.256   6.377 -18.636  1.00  0.00    -0.545 OA
ENDBRANCH   1   7
BRANCH   6  10
ATOM     10  C   UNL     1      12.629   6.060 -20.450  1.00  0.00     0.013 C 
ATOM     11  C   UNL     1      13.191   6.951 -21.566  1.00  0.00     0.012 C 
ATOM     12  C   UNL     1      13.459   6.190 -19.169  1.00  0.00     0.012 C 
ENDBRANCH   6  10
TORSDOF 2
ENDMDL
MODEL 7
REMARK VINA RESULT:    -4.529      2.131      3.219
REMARK INTER + INTRA:          -5.264
REMARK INTER:                  -5.054
REMARK INTRA:                  -0.210
REMARK UNBOUND:                -0.206
REMARK SMILES CC(C)c1ccc(C(=O)[O-])cc1
REMARK SMILES IDX 7 1 6 2 11 3 5 4 12 5 4 6 8 7 9 8 10 9 2 10 1 11 3 12
REMARK H PARENT
REMARK Flexibility Score: inf
ROOT
ATOM      1  C   UNL     1       4.626   8.865 -18.720  1.00  0.00    -0.003 A 
ATOM      2  C   UNL     1       5.369   9.322 -19.821  1.00  0.00     0.010 A 
ATOM      3  C   UNL     1       5.066   7.724 -18.028  1.00  0.00     0.010 A 
ATOM      4  C   UNL     1       6.527   8.651 -20.224  1.00  0.00     0.004 A 
ATOM      5  C   UNL     1       6.223   7.052 -18.431  1.00  0.00     0.004 A 
ATOM      6  C   UNL     1       6.968   7.507 -19.532  1.00  0.00    -0.045 A 
ENDROOT
BRANCH   1   7
ATOM      7  C   UNL     1       3.400   9.573 -18.290  1.00  0.00     0.071 C 
ATOM      8  O   UNL     1       3.071   9.604 -17.075  1.00  0.00    -0.545 OA
ATOM      9  O   UNL     1       2.592  10.213 -19.224  1.00  0.00    -0.545 OA
ENDBRANCH   1   7
BRANCH   6  10
ATOM     10  C   UNL     1       8.224   6.769 -19.958  1.00  0.00     0.013 C 
ATOM     11  C   UNL     1       8.575   7.075 -21.419  1.00  0.00     0.012 C 
ATOM     12  C   UNL     1       9.398   7.092 -19.028  1.00  0.00     0.012 C 
ENDBRANCH   6  10
TORSDOF 2
ENDMDL
MODEL 8
REMARK VINA RESULT:    -4.511      3.792      5.304
REMARK INTER + INTRA:          -5.244
REMARK INTER:                  -5.024
REMARK INTRA:                  -0.221
REMARK UNBOUND:                -0.206
REMARK SMILES CC(C)c1ccc(C(=O)[O-])cc1
REMARK SMILES IDX 7 1 6 2 11 3 5 4 12 5 4 6 8 7 9 8 10 9 2 10 1 11 3 12
REMARK H PARENT
REMARK Flexibility Score: inf
ROOT
ATOM      1  C   UNL     1      11.986   6.386 -20.123  1.00  0.00    -0.003 A 
ATOM      2  C   UNL     1      11.433   6.440 -21.413  1.00  0.00     0.010 A 
ATOM      3  C   UNL     1      11.137   6.521 -19.012  1.00  0.00     0.010 A 
ATOM      4  C   UNL     1      10.060   6.626 -21.589  1.00  0.00     0.004 A 
ATOM      5  C   UNL     1       9.763   6.707 -19.188  1.00  0.00     0.004 A 
ATOM      6  C   UNL     1       9.208   6.762 -20.478  1.00  0.00    -0.045 A 
ENDROOT
BRANCH   1   7
ATOM      7  C   UNL     1      13.440   6.189 -19.932  1.00  0.00     0.071 C 
ATOM      8  O   UNL     1      13.973   6.400 -18.810  1.00  0.00    -0.545 OA
ATOM      9  O   UNL     1      14.239   5.768 -20.989  1.00  0.00    -0.545 OA
ENDBRANCH   1   7
BRANCH   6  10
ATOM     10  C   UNL     1       7.714   6.964 -20.654  1.00  0.00     0.013 C 
ATOM     11  C   UNL     1       7.208   6.260 -21.920  1.00  0.00     0.012 C 
ATOM     12  C   UNL     1       6.942   6.496 -19.416  1.00  0.00     0.012 C 
ENDBRANCH   6  10
TORSDOF 2
ENDMDL
MODEL 9
REMARK VINA RESULT:    -4.467      3.009      5.097
REMARK INTER + INTRA:          -5.195
REMARK INTER:                  -4.986
REMARK INTRA:                  -0.210
REMARK UNBOUND:                -0.206
REMARK SMILES CC(C)c1ccc(C(=O)[O-])cc1
REMARK SMILES IDX 7 1 6 2 11 3 5 4 12 5 4 6 8 7 9 8 10 9 2 10 1 11 3 12
REMARK H PARENT
REMARK Flexibility Score: inf
ROOT
ATOM      1  C   UNL     1       9.723   6.821 -20.612  1.00  0.00    -0.003 A 
ATOM      2  C   UNL     1       8.676   7.359 -21.378  1.00  0.00     0.010 A 
ATOM      3  C   UNL     1       9.571   6.731 -19.218  1.00  0.00     0.010 A 
ATOM      4  C   UNL     1       7.501   7.801 -20.763  1.00  0.00     0.004 A 
ATOM      5  C   UNL     1       8.397   7.173 -18.603  1.00  0.00     0.004 A 
ATOM      6  C   UNL     1       7.348   7.712 -19.367  1.00  0.00    -0.045 A 
ENDROOT
BRANCH   1   7
ATOM      7  C   UNL     1      10.969   6.352 -21.259  1.00  0.00     0.071 C 
ATOM      8  O   UNL     1      11.281   6.752 -22.413  1.00  0.00    -0.545 OA
ATOM      9  O   UNL     1      11.812   5.463 -20.603  1.00  0.00    -0.545 OA
ENDBRANCH   1   7
BRANCH   6  10
ATOM     10  C   UNL     1       6.078   8.187 -18.686  1.00  0.00     0.013 C 
ATOM     11  C   UNL     1       5.433   7.058 -17.872  1.00  0.00     0.012 C 
ATOM     12  C   UNL     1       6.346   9.416 -17.810  1.00  0.00     0.012 C 
ENDBRANCH   6  10
TORSDOF 2
ENDMDL
