MODEL 1
REMARK VINA RESULT:    -4.020      0.000      0.000
REMARK INTER + INTRA:          -5.206
REMARK INTER:                  -4.960
REMARK INTRA:                  -0.246
REMARK UNBOUND:                -0.246
REMARK SMILES CCCCC=CC(C)=O
REMARK SMILES IDX 4 1 3 2 2 3 1 4 5 5 6 6 7 7 9 8 8 9
REMARK H PARENT
REMARK Flexibility Score: inf
ROOT
ATOM      1  C   UNL     1      17.898  28.141 -14.723  1.00  0.00     0.027 C 
ENDROOT
BRANCH   1   2
ATOM      2  C   UNL     1      17.567  26.646 -14.886  1.00  0.00     0.004 C 
BRANCH   2   3
ATOM      3  C   UNL     1      16.980  25.996 -13.621  1.00  0.00    -0.003 C 
ATOM      4  C   UNL     1      16.993  26.922 -12.405  1.00  0.00     0.004 C 
ENDBRANCH   2   3
ENDBRANCH   1   2
BRANCH   1   5
ATOM      5  C   UNL     1      19.239  28.510 -15.292  1.00  0.00    -0.023 C 
ATOM      6  C   UNL     1      20.123  27.579 -15.668  1.00  0.00     0.042 C 
BRANCH   6   7
ATOM      7  C   UNL     1      21.441  27.925 -16.231  1.00  0.00     0.152 C 
ATOM      8  O   UNL     1      22.483  27.326 -15.848  1.00  0.00    -0.295 OA
ATOM      9  C   UNL     1      21.543  28.990 -17.274  1.00  0.00     0.093 C 
ENDBRANCH   6   7
ENDBRANCH   1   5
TORSDOF 4
ENDMDL
MODEL 2
REMARK VINA RESULT:    -4.019      6.162      6.752
REMARK INTER + INTRA:          -5.204
REMARK INTER:                  -4.994
REMARK INTRA:                  -0.211
REMARK UNBOUND:                -0.246
REMARK SMILES CCCCC=CC(C)=O
REMARK SMILES IDX 4 1 3 2 2 3 1 4 5 5 6 6 7 7 9 8 8 9
REMARK H PARENT
REMARK Flexibility Score: inf
ROOT
ATOM      1  C   UNL     1      21.543  30.455 -20.787  1.00  0.00     0.027 C 
ENDROOT
BRANCH   1   2
ATOM      2  C   UNL     1      21.411  29.467 -21.961  1.00  0.00     0.004 C 
BRANCH   2   3
ATOM      3  C   UNL     1      21.884  28.040 -21.632  1.00  0.00    -0.003 C 
ATOM      4  C   UNL     1      20.736  27.043 -21.487  1.00  0.00     0.004 C 
ENDBRANCH   2   3
ENDBRANCH   1   2
BRANCH   1   5
ATOM      5  C   UNL     1      22.363  29.910 -19.652  1.00  0.00    -0.023 C 
ATOM      6  C   UNL     1      22.933  30.714 -18.748  1.00  0.00     0.042 C 
BRANCH   6   7
ATOM      7  C   UNL     1      23.738  30.196 -17.628  1.00  0.00     0.152 C 
ATOM      8  O   UNL     1      23.308  30.254 -16.443  1.00  0.00    -0.295 OA
ATOM      9  C   UNL     1      25.075  29.586 -17.897  1.00  0.00     0.093 C 
ENDBRANCH   6   7
ENDBRANCH   1   5
TORSDOF 4
ENDMDL
MODEL 3
REMARK VINA RESULT:    -4.018     14.233     16.393
REMARK INTER + INTRA:          -5.204
REMARK INTER:                  -4.907
REMARK INTRA:                  -0.297
REMARK UNBOUND:                -0.246
REMARK SMILES CCCCC=CC(C)=O
REMARK SMILES IDX 4 1 3 2 2 3 1 4 5 5 6 6 7 7 9 8 8 9
REMARK H PARENT
REMARK Flexibility Score: inf
ROOT
ATOM      1  C   UNL     1      36.324  31.605 -14.540  1.00  0.00     0.027 C 
ENDROOT
BRANCH   1   2
ATOM      2  C   UNL     1      36.464  32.932 -13.772  1.00  0.00     0.004 C 
BRANCH   2   3
ATOM      3  C   UNL     1      36.723  32.755 -12.265  1.00  0.00    -0.003 C 
ATOM      4  C   UNL     1      35.597  32.017 -11.542  1.00  0.00     0.004 C 
ENDBRANCH   2   3
ENDBRANCH   1   2
BRANCH   1   5
ATOM      5  C   UNL     1      35.041  31.509 -15.316  1.00  0.00    -0.023 C 
ATOM      6  C   UNL     1      33.961  32.223 -14.979  1.00  0.00     0.042 C 
BRANCH   6   7
ATOM      7  C   UNL     1      32.696  32.143 -15.731  1.00  0.00     0.152 C 
ATOM      8  O   UNL     1      31.611  32.518 -15.211  1.00  0.00    -0.295 OA
ATOM      9  C   UNL     1      32.700  31.619 -17.131  1.00  0.00     0.093 C 
ENDBRANCH   6   7
ENDBRANCH   1   5
TORSDOF 4
ENDMDL
MODEL 4
REMARK VINA RESULT:    -3.987     14.370     15.705
REMARK INTER + INTRA:          -5.166
REMARK INTER:                  -4.988
REMARK INTRA:                  -0.178
REMARK UNBOUND:                -0.246
REMARK SMILES CCCCC=CC(C)=O
REMARK SMILES IDX 4 1 3 2 2 3 1 4 5 5 6 6 7 7 9 8 8 9
REMARK H PARENT
REMARK Flexibility Score: inf
ROOT
ATOM      1  C   UNL     1      33.986  31.822 -14.492  1.00  0.00     0.027 C 
ENDROOT
BRANCH   1   2
ATOM      2  C   UNL     1      35.449  31.523 -14.869  1.00  0.00     0.004 C 
BRANCH   2   3
ATOM      3  C   UNL     1      36.477  32.106 -13.884  1.00  0.00    -0.003 C 
ATOM      4  C   UNL     1      35.935  32.256 -12.463  1.00  0.00     0.004 C 
ENDBRANCH   2   3
ENDBRANCH   1   2
BRANCH   1   5
ATOM      5  C   UNL     1      33.064  31.827 -15.679  1.00  0.00    -0.023 C 
ATOM      6  C   UNL     1      33.531  31.896 -16.931  1.00  0.00     0.042 C 
BRANCH   6   7
ATOM      7  C   UNL     1      32.641  31.899 -18.105  1.00  0.00     0.152 C 
ATOM      8  O   UNL     1      31.586  31.208 -18.117  1.00  0.00    -0.295 OA
ATOM      9  C   UNL     1      32.986  32.738 -19.293  1.00  0.00     0.093 C 
ENDBRANCH   6   7
ENDBRANCH   1   5
TORSDOF 4
ENDMDL
MODEL 5
REMARK VINA RESULT:    -3.971      5.210      6.862
REMARK INTER + INTRA:          -5.146
REMARK INTER:                  -4.854
REMARK INTRA:                  -0.292
REMARK UNBOUND:                -0.246
REMARK SMILES CCCCC=CC(C)=O
REMARK SMILES IDX 4 1 3 2 2 3 1 4 5 5 6 6 7 7 9 8 8 9
REMARK H PARENT
REMARK Flexibility Score: inf
ROOT
ATOM      1  C   UNL     1      21.910  29.204 -17.601  1.00  0.00     0.027 C 
ENDROOT
BRANCH   1   2
ATOM      2  C   UNL     1      23.030  30.226 -17.331  1.00  0.00     0.004 C 
BRANCH   2   3
ATOM      3  C   UNL     1      24.436  29.606 -17.263  1.00  0.00    -0.003 C 
ATOM      4  C   UNL     1      25.228  29.762 -18.560  1.00  0.00     0.004 C 
ENDBRANCH   2   3
ENDBRANCH   1   2
BRANCH   1   5
ATOM      5  C   UNL     1      21.517  29.133 -19.049  1.00  0.00    -0.023 C 
ATOM      6  C   UNL     1      21.793  30.126 -19.901  1.00  0.00     0.042 C 
BRANCH   6   7
ATOM      7  C   UNL     1      21.417  30.071 -21.326  1.00  0.00     0.152 C 
ATOM      8  O   UNL     1      20.775  31.016 -21.861  1.00  0.00    -0.295 OA
ATOM      9  C   UNL     1      21.808  28.886 -22.148  1.00  0.00     0.093 C 
ENDBRANCH   6   7
ENDBRANCH   1   5
TORSDOF 4
ENDMDL
MODEL 6
REMARK VINA RESULT:    -3.942      2.354      3.483
REMARK INTER + INTRA:          -5.110
REMARK INTER:                  -4.903
REMARK INTRA:                  -0.208
REMARK UNBOUND:                -0.246
REMARK SMILES CCCCC=CC(C)=O
REMARK SMILES IDX 4 1 3 2 2 3 1 4 5 5 6 6 7 7 9 8 8 9
REMARK H PARENT
REMARK Flexibility Score: inf
ROOT
ATOM      1  C   UNL     1      20.269  28.388 -16.449  1.00  0.00     0.027 C 
ENDROOT
BRANCH   1   2
ATOM      2  C   UNL     1      20.810  28.216 -15.017  1.00  0.00     0.004 C 
BRANCH   2   3
ATOM      3  C   UNL     1      19.762  28.476 -13.920  1.00  0.00    -0.003 C 
ATOM      4  C   UNL     1      18.336  28.573 -14.459  1.00  0.00     0.004 C 
ENDBRANCH   2   3
ENDBRANCH   1   2
BRANCH   1   5
ATOM      5  C   UNL     1      21.281  28.979 -17.390  1.00  0.00    -0.023 C 
ATOM      6  C   UNL     1      22.380  29.597 -16.943  1.00  0.00     0.042 C 
BRANCH   6   7
ATOM      7  C   UNL     1      23.383  30.178 -17.853  1.00  0.00     0.152 C 
ATOM      8  O   UNL     1      23.073  31.112 -18.643  1.00  0.00    -0.295 OA
ATOM      9  C   UNL     1      24.785  29.663 -17.835  1.00  0.00     0.093 C 
ENDBRANCH   6   7
ENDBRANCH   1   5
TORSDOF 4
ENDMDL
MODEL 7
REMARK VINA RESULT:    -3.929     12.912     14.840
REMARK INTER + INTRA:          -5.094
REMARK INTER:                  -4.869
REMARK INTRA:                  -0.225
REMARK UNBOUND:                -0.246
REMARK SMILES CCCCC=CC(C)=O
REMARK SMILES IDX 4 1 3 2 2 3 1 4 5 5 6 6 7 7 9 8 8 9
REMARK H PARENT
REMARK Flexibility Score: inf
ROOT
ATOM      1  C   UNL     1      34.934  31.760 -14.927  1.00  0.00     0.027 C 
ENDROOT
BRANCH   1   2
ATOM      2  C   UNL     1      34.794  31.395 -13.437  1.00  0.00     0.004 C 
BRANCH   2   3
ATOM      3  C   UNL     1      33.506  30.621 -13.104  1.00  0.00    -0.003 C 
ATOM      4  C   UNL     1      33.766  29.297 -12.388  1.00  0.00     0.004 C 
ENDBRANCH   2   3
ENDBRANCH   1   2
BRANCH   1   5
ATOM      5  C   UNL     1      33.619  31.774 -15.653  1.00  0.00    -0.023 C 
ATOM      6  C   UNL     1      33.554  31.824 -16.988  1.00  0.00     0.042 C 
BRANCH   6   7
ATOM      7  C   UNL     1      32.272  31.835 -17.716  1.00  0.00     0.152 C 
ATOM      8  O   UNL     1      32.246  31.872 -18.976  1.00  0.00    -0.295 OA
ATOM      9  C   UNL     1      30.988  31.794 -16.953  1.00  0.00     0.093 C 
ENDBRANCH   6   7
ENDBRANCH   1   5
TORSDOF 4
ENDMDL
MODEL 8
REMARK VINA RESULT:    -3.898     15.663     16.716
REMARK INTER + INTRA:          -5.056
REMARK INTER:                  -4.770
REMARK INTRA:                  -0.285
REMARK UNBOUND:                -0.246
REMARK SMILES CCCCC=CC(C)=O
REMARK SMILES IDX 4 1 3 2 2 3 1 4 5 5 6 6 7 7 9 8 8 9
REMARK H PARENT
REMARK Flexibility Score: inf
ROOT
ATOM      1  C   UNL     1      31.889  38.286 -22.081  1.00  0.00     0.027 C 
ENDROOT
BRANCH   1   2
ATOM      2  C   UNL     1      30.978  37.930 -23.271  1.00  0.00     0.004 C 
BRANCH   2   3
ATOM      3  C   UNL     1      29.591  38.595 -23.214  1.00  0.00    -0.003 C 
ATOM      4  C   UNL     1      28.886  38.405 -21.872  1.00  0.00     0.004 C 
ENDBRANCH   2   3
ENDBRANCH   1   2
BRANCH   1   5
ATOM      5  C   UNL     1      32.299  37.085 -21.276  1.00  0.00    -0.023 C 
ATOM      6  C   UNL     1      31.647  35.921 -21.370  1.00  0.00     0.042 C 
BRANCH   6   7
ATOM      7  C   UNL     1      32.038  34.733 -20.590  1.00  0.00     0.152 C 
ATOM      8  O   UNL     1      31.169  33.918 -20.177  1.00  0.00    -0.295 OA
ATOM      9  C   UNL     1      33.481  34.486 -20.292  1.00  0.00     0.093 C 
ENDBRANCH   6   7
ENDBRANCH   1   5
TORSDOF 4
ENDMDL
MODEL 9
REMARK VINA RESULT:    -3.826      2.940      3.883
REMARK INTER + INTRA:          -4.967
REMARK INTER:                  -4.667
REMARK INTRA:                  -0.300
REMARK UNBOUND:                -0.246
REMARK SMILES CCCCC=CC(C)=O
REMARK SMILES IDX 4 1 3 2 2 3 1 4 5 5 6 6 7 7 9 8 8 9
REMARK H PARENT
REMARK Flexibility Score: inf
ROOT
ATOM      1  C   UNL     1      19.453  28.496 -14.852  1.00  0.00     0.027 C 
ENDROOT
BRANCH   1   2
ATOM      2  C   UNL     1      17.943  28.278 -14.646  1.00  0.00     0.004 C 
BRANCH   2   3
ATOM      3  C   UNL     1      17.559  26.817 -14.351  1.00  0.00    -0.003 C 
ATOM      4  C   UNL     1      16.982  26.616 -12.951  1.00  0.00     0.004 C 
ENDBRANCH   2   3
ENDBRANCH   1   2
BRANCH   1   5
ATOM      5  C   UNL     1      20.226  28.504 -13.563  1.00  0.00    -0.023 C 
ATOM      6  C   UNL     1      19.798  29.180 -12.492  1.00  0.00     0.042 C 
BRANCH   6   7
ATOM      7  C   UNL     1      20.542  29.195 -11.219  1.00  0.00     0.152 C 
ATOM      8  O   UNL     1      21.703  29.684 -11.156  1.00  0.00    -0.295 OA
ATOM      9  C   UNL     1      19.912  28.633  -9.987  1.00  0.00     0.093 C 
ENDBRANCH   6   7
ENDBRANCH   1   5
TORSDOF 4
ENDMDL
