MODEL 1
REMARK VINA RESULT:    -5.693      0.000      0.000
REMARK INTER + INTRA:         -10.900
REMARK INTER:                 -10.019
REMARK INTRA:                  -0.880
REMARK UNBOUND:                -0.880
REMARK SMILES CCCCCCCCCCCCCCC(=O)[O-]
REMARK SMILES IDX 9 1 10 2 11 3 12 4 13 5 14 6 15 7 16 8 17 9 8 10 7 11 6 12
REMARK SMILES IDX 5 13 4 14 3 15 2 16 1 17
REMARK H PARENT
REMARK Flexibility Score: inf
ROOT
ATOM      1  C   UNL     1      88.734 326.770 198.008  1.00  0.00     0.000 C 
ENDROOT
BRANCH   1   2
ATOM      2  C   UNL     1      89.171 325.786 199.110  1.00  0.00     0.000 C 
BRANCH   2   3
ATOM      3  C   UNL     1      89.619 326.489 200.401  1.00  0.00     0.000 C 
BRANCH   3   4
ATOM      4  C   UNL     1      88.614 326.242 201.536  1.00  0.00     0.000 C 
BRANCH   4   5
ATOM      5  C   UNL     1      89.301 325.919 202.874  1.00  0.00     0.006 C 
BRANCH   5   6
ATOM      6  C   UNL     1      89.398 327.140 203.798  1.00  0.00     0.053 C 
BRANCH   6   7
ATOM      7  C   UNL     1      90.831 327.480 204.064  1.00  0.00     0.041 C 
ATOM      8  O   UNL     1      91.197 327.819 205.220  1.00  0.00    -0.550 OA
ATOM      9  O   UNL     1      91.771 327.378 203.047  1.00  0.00    -0.550 OA
ENDBRANCH   6   7
ENDBRANCH   5   6
ENDBRANCH   4   5
ENDBRANCH   3   4
ENDBRANCH   2   3
ENDBRANCH   1   2
BRANCH   1  10
ATOM     10  C   UNL     1      88.130 326.118 196.751  1.00  0.00     0.000 C 
BRANCH  10  11
ATOM     11  C   UNL     1      89.004 326.305 195.499  1.00  0.00    -0.000 C 
BRANCH  11  12
ATOM     12  C   UNL     1      88.181 326.661 194.250  1.00  0.00    -0.000 C 
BRANCH  12  13
ATOM     13  C   UNL     1      86.754 326.093 194.298  1.00  0.00    -0.000 C 
BRANCH  13  14
ATOM     14  C   UNL     1      86.544 325.051 193.189  1.00  0.00    -0.000 C 
BRANCH  14  15
ATOM     15  C   UNL     1      87.858 324.645 192.501  1.00  0.00    -0.000 C 
BRANCH  15  16
ATOM     16  C   UNL     1      88.180 323.153 192.675  1.00  0.00    -0.003 C 
ATOM     17  C   UNL     1      88.740 322.871 194.067  1.00  0.00     0.004 C 
ENDBRANCH  15  16
ENDBRANCH  14  15
ENDBRANCH  13  14
ENDBRANCH  12  13
ENDBRANCH  11  12
ENDBRANCH  10  11
ENDBRANCH   1  10
TORSDOF 13
ENDMDL
MODEL 2
REMARK VINA RESULT:    -5.666     19.833     20.678
REMARK INTER + INTRA:         -10.852
REMARK INTER:                 -10.221
REMARK INTRA:                  -0.631
REMARK UNBOUND:                -0.880
REMARK SMILES CCCCCCCCCCCCCCC(=O)[O-]
REMARK SMILES IDX 9 1 10 2 11 3 12 4 13 5 14 6 15 7 16 8 17 9 8 10 7 11 6 12
REMARK SMILES IDX 5 13 4 14 3 15 2 16 1 17
REMARK H PARENT
REMARK Flexibility Score: inf
ROOT
ATOM      1  C   UNL     1     104.239 311.451 197.144  1.00  0.00     0.000 C 
ENDROOT
BRANCH   1   2
ATOM      2  C   UNL     1     103.562 312.395 198.156  1.00  0.00     0.000 C 
BRANCH   2   3
ATOM      3  C   UNL     1     103.333 311.742 199.527  1.00  0.00     0.000 C 
BRANCH   3   4
ATOM      4  C   UNL     1     104.507 312.030 200.475  1.00  0.00     0.000 C 
BRANCH   4   5
ATOM      5  C   UNL     1     104.062 312.178 201.939  1.00  0.00     0.006 C 
BRANCH   5   6
ATOM      6  C   UNL     1     103.923 310.828 202.654  1.00  0.00     0.053 C 
BRANCH   6   7
ATOM      7  C   UNL     1     102.524 310.643 203.152  1.00  0.00     0.041 C 
ATOM      8  O   UNL     1     101.555 310.690 202.349  1.00  0.00    -0.550 OA
ATOM      9  O   UNL     1     102.293 310.374 204.495  1.00  0.00    -0.550 OA
ENDBRANCH   6   7
ENDBRANCH   5   6
ENDBRANCH   4   5
ENDBRANCH   3   4
ENDBRANCH   2   3
ENDBRANCH   1   2
BRANCH   1  10
ATOM     10  C   UNL     1     104.592 312.089 195.787  1.00  0.00     0.000 C 
BRANCH  10  11
ATOM     11  C   UNL     1     103.440 312.009 194.771  1.00  0.00    -0.000 C 
BRANCH  11  12
ATOM     12  C   UNL     1     103.885 311.429 193.418  1.00  0.00    -0.000 C 
BRANCH  12  13
ATOM     13  C   UNL     1     105.313 311.848 193.033  1.00  0.00    -0.000 C 
BRANCH  13  14
ATOM     14  C   UNL     1     105.302 313.170 192.252  1.00  0.00    -0.000 C 
BRANCH  14  15
ATOM     15  C   UNL     1     104.032 313.348 191.405  1.00  0.00    -0.000 C 
BRANCH  15  16
ATOM     16  C   UNL     1     103.859 314.785 190.892  1.00  0.00    -0.003 C 
ATOM     17  C   UNL     1     103.743 314.814 189.370  1.00  0.00     0.004 C 
ENDBRANCH  15  16
ENDBRANCH  14  15
ENDBRANCH  13  14
ENDBRANCH  12  13
ENDBRANCH  11  12
ENDBRANCH  10  11
ENDBRANCH   1  10
TORSDOF 13
ENDMDL
MODEL 3
REMARK VINA RESULT:    -5.636     19.095     20.615
REMARK INTER + INTRA:         -10.799
REMARK INTER:                  -9.668
REMARK INTRA:                  -1.131
REMARK UNBOUND:                -0.880
REMARK SMILES CCCCCCCCCCCCCCC(=O)[O-]
REMARK SMILES IDX 9 1 10 2 11 3 12 4 13 5 14 6 15 7 16 8 17 9 8 10 7 11 6 12
REMARK SMILES IDX 5 13 4 14 3 15 2 16 1 17
REMARK H PARENT
REMARK Flexibility Score: inf
ROOT
ATOM      1  C   UNL     1     104.546 311.886 195.782  1.00  0.00     0.000 C 
ENDROOT
BRANCH   1   2
ATOM      2  C   UNL     1     104.168 311.333 197.169  1.00  0.00     0.000 C 
BRANCH   2   3
ATOM      3  C   UNL     1     103.699 312.424 198.144  1.00  0.00     0.000 C 
BRANCH   3   4
ATOM      4  C   UNL     1     103.169 311.804 199.446  1.00  0.00     0.000 C 
BRANCH   4   5
ATOM      5  C   UNL     1     104.237 311.749 200.552  1.00  0.00     0.006 C 
BRANCH   5   6
ATOM      6  C   UNL     1     103.711 312.243 201.905  1.00  0.00     0.053 C 
BRANCH   6   7
ATOM      7  C   UNL     1     103.309 311.084 202.763  1.00  0.00     0.041 C 
ATOM      8  O   UNL     1     102.170 310.564 202.632  1.00  0.00    -0.550 OA
ATOM      9  O   UNL     1     104.209 310.548 203.676  1.00  0.00    -0.550 OA
ENDBRANCH   6   7
ENDBRANCH   5   6
ENDBRANCH   4   5
ENDBRANCH   3   4
ENDBRANCH   2   3
ENDBRANCH   1   2
BRANCH   1  10
ATOM     10  C   UNL     1     103.431 311.818 194.723  1.00  0.00     0.000 C 
BRANCH  10  11
ATOM     11  C   UNL     1     103.941 311.364 193.344  1.00  0.00    -0.000 C 
BRANCH  11  12
ATOM     12  C   UNL     1     105.419 311.723 193.113  1.00  0.00    -0.000 C 
BRANCH  12  13
ATOM     13  C   UNL     1     105.597 313.050 192.358  1.00  0.00    -0.000 C 
BRANCH  13  14
ATOM     14  C   UNL     1     104.325 313.406 191.573  1.00  0.00    -0.000 C 
BRANCH  14  15
ATOM     15  C   UNL     1     103.721 314.752 192.002  1.00  0.00    -0.000 C 
BRANCH  15  16
ATOM     16  C   UNL     1     104.313 315.274 193.320  1.00  0.00    -0.003 C 
ATOM     17  C   UNL     1     103.225 315.466 194.373  1.00  0.00     0.004 C 
ENDBRANCH  15  16
ENDBRANCH  14  15
ENDBRANCH  13  14
ENDBRANCH  12  13
ENDBRANCH  11  12
ENDBRANCH  10  11
ENDBRANCH   1  10
TORSDOF 13
ENDMDL
MODEL 4
REMARK VINA RESULT:    -5.618      1.302      2.423
REMARK INTER + INTRA:         -10.769
REMARK INTER:                 -10.135
REMARK INTRA:                  -0.634
REMARK UNBOUND:                -0.880
REMARK SMILES CCCCCCCCCCCCCCC(=O)[O-]
REMARK SMILES IDX 9 1 10 2 11 3 12 4 13 5 14 6 15 7 16 8 17 9 8 10 7 11 6 12
REMARK SMILES IDX 5 13 4 14 3 15 2 16 1 17
REMARK H PARENT
REMARK Flexibility Score: inf
ROOT
ATOM      1  C   UNL     1      88.870 326.098 195.471  1.00  0.00     0.000 C 
ENDROOT
BRANCH   1   2
ATOM      2  C   UNL     1      88.101 325.986 196.801  1.00  0.00     0.000 C 
BRANCH   2   3
ATOM      3  C   UNL     1      88.756 326.777 197.943  1.00  0.00     0.000 C 
BRANCH   3   4
ATOM      4  C   UNL     1      88.865 325.919 199.212  1.00  0.00     0.000 C 
BRANCH   4   5
ATOM      5  C   UNL     1      89.787 326.545 200.272  1.00  0.00     0.006 C 
BRANCH   5   6
ATOM      6  C   UNL     1      89.175 326.517 201.679  1.00  0.00     0.053 C 
BRANCH   6   7
ATOM      7  C   UNL     1      90.229 326.765 202.711  1.00  0.00     0.041 C 
ATOM      8  O   UNL     1      90.015 326.474 203.918  1.00  0.00    -0.550 OA
ATOM      9  O   UNL     1      91.466 327.275 202.335  1.00  0.00    -0.550 OA
ENDBRANCH   6   7
ENDBRANCH   5   6
ENDBRANCH   4   5
ENDBRANCH   3   4
ENDBRANCH   2   3
ENDBRANCH   1   2
BRANCH   1  10
ATOM     10  C   UNL     1      88.043 326.613 194.278  1.00  0.00     0.000 C 
BRANCH  10  11
ATOM     11  C   UNL     1      86.526 326.509 194.510  1.00  0.00    -0.000 C 
BRANCH  11  12
ATOM     12  C   UNL     1      85.881 325.373 193.698  1.00  0.00    -0.000 C 
BRANCH  12  13
ATOM     13  C   UNL     1      86.852 324.214 193.422  1.00  0.00    -0.000 C 
BRANCH  13  14
ATOM     14  C   UNL     1      86.876 323.867 191.926  1.00  0.00    -0.000 C 
BRANCH  14  15
ATOM     15  C   UNL     1      88.234 324.164 191.270  1.00  0.00    -0.000 C 
BRANCH  15  16
ATOM     16  C   UNL     1      88.431 323.406 189.948  1.00  0.00    -0.003 C 
ATOM     17  C   UNL     1      88.839 321.957 190.201  1.00  0.00     0.004 C 
ENDBRANCH  15  16
ENDBRANCH  14  15
ENDBRANCH  13  14
ENDBRANCH  12  13
ENDBRANCH  11  12
ENDBRANCH  10  11
ENDBRANCH   1  10
TORSDOF 13
ENDMDL
MODEL 5
REMARK VINA RESULT:    -5.588     19.558     20.438
REMARK INTER + INTRA:         -10.715
REMARK INTER:                  -9.883
REMARK INTRA:                  -0.832
REMARK UNBOUND:                -0.880
REMARK SMILES CCCCCCCCCCCCCCC(=O)[O-]
REMARK SMILES IDX 9 1 10 2 11 3 12 4 13 5 14 6 15 7 16 8 17 9 8 10 7 11 6 12
REMARK SMILES IDX 5 13 4 14 3 15 2 16 1 17
REMARK H PARENT
REMARK Flexibility Score: inf
ROOT
ATOM      1  C   UNL     1     103.490 312.889 195.294  1.00  0.00     0.000 C 
ENDROOT
BRANCH   1   2
ATOM      2  C   UNL     1     104.125 312.862 196.698  1.00  0.00     0.000 C 
BRANCH   2   3
ATOM      3  C   UNL     1     103.951 311.512 197.411  1.00  0.00     0.000 C 
BRANCH   3   4
ATOM      4  C   UNL     1     103.286 311.699 198.782  1.00  0.00     0.000 C 
BRANCH   4   5
ATOM      5  C   UNL     1     104.231 312.331 199.818  1.00  0.00     0.006 C 
BRANCH   5   6
ATOM      6  C   UNL     1     104.216 311.590 201.161  1.00  0.00     0.053 C 
BRANCH   6   7
ATOM      7  C   UNL     1     102.921 311.829 201.872  1.00  0.00     0.041 C 
ATOM      8  O   UNL     1     102.632 312.980 202.294  1.00  0.00    -0.550 OA
ATOM      9  O   UNL     1     102.011 310.791 202.029  1.00  0.00    -0.550 OA
ENDBRANCH   6   7
ENDBRANCH   5   6
ENDBRANCH   4   5
ENDBRANCH   3   4
ENDBRANCH   2   3
ENDBRANCH   1   2
BRANCH   1  10
ATOM     10  C   UNL     1     103.313 311.512 194.629  1.00  0.00     0.000 C 
BRANCH  10  11
ATOM     11  C   UNL     1     103.920 311.446 193.217  1.00  0.00    -0.000 C 
BRANCH  11  12
ATOM     12  C   UNL     1     105.369 311.959 193.172  1.00  0.00    -0.000 C 
BRANCH  12  13
ATOM     13  C   UNL     1     105.581 313.047 192.108  1.00  0.00    -0.000 C 
BRANCH  13  14
ATOM     14  C   UNL     1     104.235 313.547 191.563  1.00  0.00    -0.000 C 
BRANCH  14  15
ATOM     15  C   UNL     1     104.397 314.625 190.479  1.00  0.00    -0.000 C 
BRANCH  15  16
ATOM     16  C   UNL     1     103.329 314.525 189.380  1.00  0.00    -0.003 C 
ATOM     17  C   UNL     1     103.659 315.446 188.209  1.00  0.00     0.004 C 
ENDBRANCH  15  16
ENDBRANCH  14  15
ENDBRANCH  13  14
ENDBRANCH  12  13
ENDBRANCH  11  12
ENDBRANCH  10  11
ENDBRANCH   1  10
TORSDOF 13
ENDMDL
MODEL 6
REMARK VINA RESULT:    -5.551     18.929     21.702
REMARK INTER + INTRA:         -10.649
REMARK INTER:                  -8.898
REMARK INTRA:                  -1.752
REMARK UNBOUND:                -0.880
REMARK SMILES CCCCCCCCCCCCCCC(=O)[O-]
REMARK SMILES IDX 9 1 10 2 11 3 12 4 13 5 14 6 15 7 16 8 17 9 8 10 7 11 6 12
REMARK SMILES IDX 5 13 4 14 3 15 2 16 1 17
REMARK H PARENT
REMARK Flexibility Score: inf
ROOT
ATOM      1  C   UNL     1     104.152 311.676 192.944  1.00  0.00     0.000 C 
ENDROOT
BRANCH   1   2
ATOM      2  C   UNL     1     103.966 312.895 192.020  1.00  0.00     0.000 C 
BRANCH   2   3
ATOM      3  C   UNL     1     105.289 313.589 191.666  1.00  0.00     0.000 C 
BRANCH   3   4
ATOM      4  C   UNL     1     105.093 314.592 190.519  1.00  0.00     0.000 C 
BRANCH   4   5
ATOM      5  C   UNL     1     103.616 314.758 190.126  1.00  0.00     0.006 C 
BRANCH   5   6
ATOM      6  C   UNL     1     103.424 314.931 188.613  1.00  0.00     0.053 C 
BRANCH   6   7
ATOM      7  C   UNL     1     104.156 316.144 188.130  1.00  0.00     0.041 C 
ATOM      8  O   UNL     1     105.032 316.039 187.232  1.00  0.00    -0.550 OA
ATOM      9  O   UNL     1     103.837 317.397 188.638  1.00  0.00    -0.550 OA
ENDBRANCH   6   7
ENDBRANCH   5   6
ENDBRANCH   4   5
ENDBRANCH   3   4
ENDBRANCH   2   3
ENDBRANCH   1   2
BRANCH   1  10
ATOM     10  C   UNL     1     105.532 311.569 193.618  1.00  0.00     0.000 C 
BRANCH  10  11
ATOM     11  C   UNL     1     105.478 311.814 195.135  1.00  0.00    -0.000 C 
BRANCH  11  12
ATOM     12  C   UNL     1     104.043 311.787 195.688  1.00  0.00    -0.000 C 
BRANCH  12  13
ATOM     13  C   UNL     1     103.921 312.478 197.056  1.00  0.00    -0.000 C 
BRANCH  13  14
ATOM     14  C   UNL     1     104.048 314.002 196.911  1.00  0.00    -0.000 C 
BRANCH  14  15
ATOM     15  C   UNL     1     103.202 314.560 195.755  1.00  0.00    -0.000 C 
BRANCH  15  16
ATOM     16  C   UNL     1     104.033 315.380 194.756  1.00  0.00    -0.003 C 
ATOM     17  C   UNL     1     103.139 316.042 193.712  1.00  0.00     0.004 C 
ENDBRANCH  15  16
ENDBRANCH  14  15
ENDBRANCH  13  14
ENDBRANCH  12  13
ENDBRANCH  11  12
ENDBRANCH  10  11
ENDBRANCH   1  10
TORSDOF 13
ENDMDL
MODEL 7
REMARK VINA RESULT:    -5.517      1.228      1.980
REMARK INTER + INTRA:         -10.591
REMARK INTER:                  -9.221
REMARK INTRA:                  -1.370
REMARK UNBOUND:                -0.880
REMARK SMILES CCCCCCCCCCCCCCC(=O)[O-]
REMARK SMILES IDX 9 1 10 2 11 3 12 4 13 5 14 6 15 7 16 8 17 9 8 10 7 11 6 12
REMARK SMILES IDX 5 13 4 14 3 15 2 16 1 17
REMARK H PARENT
REMARK Flexibility Score: inf
ROOT
ATOM      1  C   UNL     1      87.873 326.171 196.575  1.00  0.00     0.000 C 
ENDROOT
BRANCH   1   2
ATOM      2  C   UNL     1      88.489 326.128 197.987  1.00  0.00     0.000 C 
BRANCH   2   3
ATOM      3  C   UNL     1      88.875 324.709 198.431  1.00  0.00     0.000 C 
BRANCH   3   4
ATOM      4  C   UNL     1      88.965 324.619 199.962  1.00  0.00     0.000 C 
BRANCH   4   5
ATOM      5  C   UNL     1      89.281 325.975 200.616  1.00  0.00     0.006 C 
BRANCH   5   6
ATOM      6  C   UNL     1      90.780 326.167 200.881  1.00  0.00     0.053 C 
BRANCH   6   7
ATOM      7  C   UNL     1      90.991 326.918 202.158  1.00  0.00     0.041 C 
ATOM      8  O   UNL     1      90.016 327.167 202.915  1.00  0.00    -0.550 OA
ATOM      9  O   UNL     1      92.271 327.302 202.536  1.00  0.00    -0.550 OA
ENDBRANCH   6   7
ENDBRANCH   5   6
ENDBRANCH   4   5
ENDBRANCH   3   4
ENDBRANCH   2   3
ENDBRANCH   1   2
BRANCH   1  10
ATOM     10  C   UNL     1      88.870 326.445 195.434  1.00  0.00     0.000 C 
BRANCH  10  11
ATOM     11  C   UNL     1      88.185 326.613 194.067  1.00  0.00    -0.000 C 
BRANCH  11  12
ATOM     12  C   UNL     1      86.713 326.167 194.085  1.00  0.00    -0.000 C 
BRANCH  12  13
ATOM     13  C   UNL     1      86.441 324.980 193.147  1.00  0.00    -0.000 C 
BRANCH  13  14
ATOM     14  C   UNL     1      87.741 324.495 192.489  1.00  0.00    -0.000 C 
BRANCH  14  15
ATOM     15  C   UNL     1      88.110 323.059 192.893  1.00  0.00    -0.000 C 
BRANCH  15  16
ATOM     16  C   UNL     1      88.822 322.991 194.253  1.00  0.00    -0.003 C 
ATOM     17  C   UNL     1      87.873 322.508 195.346  1.00  0.00     0.004 C 
ENDBRANCH  15  16
ENDBRANCH  14  15
ENDBRANCH  13  14
ENDBRANCH  12  13
ENDBRANCH  11  12
ENDBRANCH  10  11
ENDBRANCH   1  10
TORSDOF 13
ENDMDL
MODEL 8
REMARK VINA RESULT:    -5.507     18.858     20.560
REMARK INTER + INTRA:         -10.573
REMARK INTER:                  -9.103
REMARK INTRA:                  -1.470
REMARK UNBOUND:                -0.880
REMARK SMILES CCCCCCCCCCCCCCC(=O)[O-]
REMARK SMILES IDX 9 1 10 2 11 3 12 4 13 5 14 6 15 7 16 8 17 9 8 10 7 11 6 12
REMARK SMILES IDX 5 13 4 14 3 15 2 16 1 17
REMARK H PARENT
REMARK Flexibility Score: inf
ROOT
ATOM      1  C   UNL     1     103.457 311.822 194.755  1.00  0.00     0.000 C 
ENDROOT
BRANCH   1   2
ATOM      2  C   UNL     1     104.543 311.989 195.835  1.00  0.00     0.000 C 
BRANCH   2   3
ATOM      3  C   UNL     1     104.001 312.578 197.147  1.00  0.00     0.000 C 
BRANCH   3   4
ATOM      4  C   UNL     1     103.628 311.463 198.135  1.00  0.00     0.000 C 
BRANCH   4   5
ATOM      5  C   UNL     1     103.625 311.944 199.596  1.00  0.00     0.006 C 
BRANCH   5   6
ATOM      6  C   UNL     1     102.327 311.588 200.332  1.00  0.00     0.053 C 
BRANCH   6   7
ATOM      7  C   UNL     1     102.621 311.195 201.746  1.00  0.00     0.041 C 
ATOM      8  O   UNL     1     103.784 311.325 202.211  1.00  0.00    -0.550 OA
ATOM      9  O   UNL     1     101.601 310.728 202.564  1.00  0.00    -0.550 OA
ENDBRANCH   6   7
ENDBRANCH   5   6
ENDBRANCH   4   5
ENDBRANCH   3   4
ENDBRANCH   2   3
ENDBRANCH   1   2
BRANCH   1  10
ATOM     10  C   UNL     1     103.973 311.400 193.367  1.00  0.00     0.000 C 
BRANCH  10  11
ATOM     11  C   UNL     1     105.487 311.614 193.200  1.00  0.00    -0.000 C 
BRANCH  11  12
ATOM     12  C   UNL     1     105.818 312.835 192.325  1.00  0.00    -0.000 C 
BRANCH  12  13
ATOM     13  C   UNL     1     104.574 313.441 191.656  1.00  0.00    -0.000 C 
BRANCH  13  14
ATOM     14  C   UNL     1     104.396 314.911 192.065  1.00  0.00    -0.000 C 
BRANCH  14  15
ATOM     15  C   UNL     1     105.347 315.330 193.198  1.00  0.00    -0.000 C 
BRANCH  15  16
ATOM     16  C   UNL     1     104.657 315.356 194.570  1.00  0.00    -0.003 C 
ATOM     17  C   UNL     1     103.143 315.482 194.421  1.00  0.00     0.004 C 
ENDBRANCH  15  16
ENDBRANCH  14  15
ENDBRANCH  13  14
ENDBRANCH  12  13
ENDBRANCH  11  12
ENDBRANCH  10  11
ENDBRANCH   1  10
TORSDOF 13
ENDMDL
MODEL 9
REMARK VINA RESULT:    -5.498      6.859     10.173
REMARK INTER + INTRA:         -10.557
REMARK INTER:                  -8.895
REMARK INTRA:                  -1.662
REMARK UNBOUND:                -0.880
REMARK SMILES CCCCCCCCCCCCCCC(=O)[O-]
REMARK SMILES IDX 9 1 10 2 11 3 12 4 13 5 14 6 15 7 16 8 17 9 8 10 7 11 6 12
REMARK SMILES IDX 5 13 4 14 3 15 2 16 1 17
REMARK H PARENT
REMARK Flexibility Score: inf
ROOT
ATOM      1  C   UNL     1      88.112 325.224 192.944  1.00  0.00     0.000 C 
ENDROOT
BRANCH   1   2
ATOM      2  C   UNL     1      86.751 324.535 192.727  1.00  0.00     0.000 C 
BRANCH   2   3
ATOM      3  C   UNL     1      86.772 323.510 191.584  1.00  0.00     0.000 C 
BRANCH   3   4
ATOM      4  C   UNL     1      88.190 323.349 191.016  1.00  0.00     0.000 C 
BRANCH   4   5
ATOM      5  C   UNL     1      88.198 323.153 189.491  1.00  0.00     0.006 C 
BRANCH   5   6
ATOM      6  C   UNL     1      88.424 321.691 189.085  1.00  0.00     0.053 C 
BRANCH   6   7
ATOM      7  C   UNL     1      87.227 321.161 188.359  1.00  0.00     0.041 C 
ATOM      8  O   UNL     1      87.367 320.570 187.256  1.00  0.00    -0.550 OA
ATOM      9  O   UNL     1      85.963 321.278 188.923  1.00  0.00    -0.550 OA
ENDBRANCH   6   7
ENDBRANCH   5   6
ENDBRANCH   4   5
ENDBRANCH   3   4
ENDBRANCH   2   3
ENDBRANCH   1   2
BRANCH   1  10
ATOM     10  C   UNL     1      88.069 326.508 193.792  1.00  0.00     0.000 C 
BRANCH  10  11
ATOM     11  C   UNL     1      86.722 326.710 194.506  1.00  0.00    -0.000 C 
BRANCH  11  12
ATOM     12  C   UNL     1      86.726 326.163 195.943  1.00  0.00    -0.000 C 
BRANCH  12  13
ATOM     13  C   UNL     1      88.121 326.202 196.588  1.00  0.00    -0.000 C 
BRANCH  13  14
ATOM     14  C   UNL     1      88.475 324.839 197.203  1.00  0.00    -0.000 C 
BRANCH  14  15
ATOM     15  C   UNL     1      89.235 323.928 196.226  1.00  0.00    -0.000 C 
BRANCH  15  16
ATOM     16  C   UNL     1      88.360 322.794 195.672  1.00  0.00    -0.003 C 
ATOM     17  C   UNL     1      89.050 322.086 194.509  1.00  0.00     0.004 C 
ENDBRANCH  15  16
ENDBRANCH  14  15
ENDBRANCH  13  14
ENDBRANCH  12  13
ENDBRANCH  11  12
ENDBRANCH  10  11
ENDBRANCH   1  10
TORSDOF 13
ENDMDL
