MODEL 1
REMARK VINA RESULT:    -7.549      0.000      0.000
REMARK INTER + INTRA:          -9.416
REMARK INTER:                  -9.094
REMARK INTRA:                  -0.322
REMARK UNBOUND:                -0.322
REMARK SMILES Oc1cc(O)c2cc(O)c(-c3ccc(O)c(O)c3)[o+]c2c1
REMARK SMILES IDX 10 1 19 2 20 3 21 4 2 5 3 6 4 7 6 8 7 9 8 10 11 11 12 12
REMARK SMILES IDX 13 13 14 14 18 15 16 16 15 17 17 19 9 21 1 23 5 25
REMARK H PARENT 15 18 17 20 9 22 1 24 5 26
REMARK Flexibility Score: inf
ROOT
ATOM      1  C   UNL     1     -17.865  12.087 -35.200  1.00  0.00     0.402 A 
ATOM      2  O   UNL     1     -18.907  11.266 -35.091  1.00  0.00    -0.202 OA
ATOM      3  C   UNL     1     -19.621  10.850 -36.132  1.00  0.00     0.368 A 
ATOM      4  C   UNL     1     -20.696   9.984 -35.916  1.00  0.00     0.162 A 
ATOM      5  C   UNL     1     -21.463   9.530 -36.993  1.00  0.00     0.128 A 
ATOM      6  C   UNL     1     -21.152   9.941 -38.291  1.00  0.00     0.093 A 
ATOM      7  C   UNL     1     -20.079  10.808 -38.534  1.00  0.00     0.136 A 
ATOM      8  C   UNL     1     -19.299  11.275 -37.443  1.00  0.00     0.125 A 
ATOM      9  C   UNL     1     -18.215  12.156 -37.590  1.00  0.00     0.078 A 
ATOM     10  C   UNL     1     -17.496  12.577 -36.467  1.00  0.00     0.223 A 
ENDROOT
BRANCH   1  11
ATOM     11  C   UNL     1     -17.142  12.470 -33.966  1.00  0.00     0.087 A 
ATOM     12  C   UNL     1     -15.922  11.846 -33.660  1.00  0.00     0.022 A 
ATOM     13  C   UNL     1     -15.212  12.205 -32.511  1.00  0.00     0.051 A 
ATOM     14  C   UNL     1     -15.704  13.204 -31.661  1.00  0.00     0.157 A 
ATOM     15  C   UNL     1     -17.622  13.487 -33.121  1.00  0.00     0.068 A 
ATOM     16  C   UNL     1     -16.909  13.849 -31.969  1.00  0.00     0.158 A 
BRANCH  14  17
ATOM     17  O   UNL     1     -15.000  13.563 -30.514  1.00  0.00    -0.504 OA
ATOM     18  H   UNL     1     -14.051  13.915 -30.562  1.00  0.00     0.293 HD
ENDBRANCH  14  17
BRANCH  16  19
ATOM     19  O   UNL     1     -17.389  14.851 -31.128  1.00  0.00    -0.504 OA
ATOM     20  H   UNL     1     -16.852  15.690 -30.944  1.00  0.00     0.293 HD
ENDBRANCH  16  19
ENDBRANCH   1  11
BRANCH  10  21
ATOM     21  O   UNL     1     -16.452  13.491 -36.607  1.00  0.00    -0.500 OA
ATOM     22  H   UNL     1     -15.735  13.376 -37.315  1.00  0.00     0.294 HD
ENDBRANCH  10  21
BRANCH   5  23
ATOM     23  O   UNL     1     -22.536   8.666 -36.785  1.00  0.00    -0.507 OA
ATOM     24  H   UNL     1     -23.068   8.681 -35.924  1.00  0.00     0.293 HD
ENDBRANCH   5  23
BRANCH   7  25
ATOM     25  O   UNL     1     -19.831  11.171 -39.861  1.00  0.00    -0.507 OA
ATOM     26  H   UNL     1     -20.385  10.867 -40.648  1.00  0.00     0.293 HD
ENDBRANCH   7  25
TORSDOF 6
ENDMDL
MODEL 2
REMARK VINA RESULT:    -7.249      1.005      1.632
REMARK INTER + INTRA:          -9.054
REMARK INTER:                  -8.805
REMARK INTRA:                  -0.248
REMARK UNBOUND:                -0.322
REMARK SMILES Oc1cc(O)c2cc(O)c(-c3ccc(O)c(O)c3)[o+]c2c1
REMARK SMILES IDX 10 1 19 2 20 3 21 4 2 5 3 6 4 7 6 8 7 9 8 10 11 11 12 12
REMARK SMILES IDX 13 13 14 14 18 15 16 16 15 17 17 19 9 21 1 23 5 25
REMARK H PARENT 15 18 17 20 9 22 1 24 5 26
REMARK Flexibility Score: inf
ROOT
ATOM      1  C   UNL     1     -18.447  12.434 -35.459  1.00  0.00     0.402 A 
ATOM      2  O   UNL     1     -19.266  11.386 -35.486  1.00  0.00    -0.202 OA
ATOM      3  C   UNL     1     -19.965  11.033 -36.561  1.00  0.00     0.368 A 
ATOM      4  C   UNL     1     -20.797   9.913 -36.494  1.00  0.00     0.162 A 
ATOM      5  C   UNL     1     -21.541   9.518 -37.610  1.00  0.00     0.128 A 
ATOM      6  C   UNL     1     -21.450  10.247 -38.798  1.00  0.00     0.093 A 
ATOM      7  C   UNL     1     -20.624  11.373 -38.892  1.00  0.00     0.136 A 
ATOM      8  C   UNL     1     -19.868  11.780 -37.760  1.00  0.00     0.125 A 
ATOM      9  C   UNL     1     -19.024  12.902 -37.757  1.00  0.00     0.078 A 
ATOM     10  C   UNL     1     -18.315  13.244 -36.602  1.00  0.00     0.223 A 
ENDROOT
BRANCH   1  11
ATOM     11  C   UNL     1     -17.715  12.718 -34.203  1.00  0.00     0.087 A 
ATOM     12  C   UNL     1     -18.099  13.814 -33.414  1.00  0.00     0.022 A 
ATOM     13  C   UNL     1     -17.436  14.091 -32.216  1.00  0.00     0.051 A 
ATOM     14  C   UNL     1     -16.390  13.266 -31.781  1.00  0.00     0.157 A 
ATOM     15  C   UNL     1     -16.679  11.881 -33.753  1.00  0.00     0.068 A 
ATOM     16  C   UNL     1     -16.014  12.156 -32.549  1.00  0.00     0.158 A 
BRANCH  14  17
ATOM     17  O   UNL     1     -15.725  13.538 -30.588  1.00  0.00    -0.504 OA
ATOM     18  H   UNL     1     -16.229  13.794 -29.747  1.00  0.00     0.293 HD
ENDBRANCH  14  17
BRANCH  16  19
ATOM     19  O   UNL     1     -14.982  11.330 -32.108  1.00  0.00    -0.504 OA
ATOM     20  H   UNL     1     -15.129  10.342 -31.942  1.00  0.00     0.293 HD
ENDBRANCH  16  19
ENDBRANCH   1  11
BRANCH  10  21
ATOM     21  O   UNL     1     -17.516  14.387 -36.583  1.00  0.00    -0.500 OA
ATOM     22  H   UNL     1     -16.880  14.604 -37.342  1.00  0.00     0.294 HD
ENDBRANCH  10  21
BRANCH   5  23
ATOM     23  O   UNL     1     -22.372   8.402 -37.550  1.00  0.00    -0.507 OA
ATOM     24  H   UNL     1     -23.159   8.362 -36.914  1.00  0.00     0.293 HD
ENDBRANCH   5  23
BRANCH   7  25
ATOM     25  O   UNL     1     -20.586  12.045 -40.117  1.00  0.00    -0.507 OA
ATOM     26  H   UNL     1     -20.904  12.993 -40.257  1.00  0.00     0.293 HD
ENDBRANCH   7  25
TORSDOF 6
ENDMDL
MODEL 3
REMARK VINA RESULT:    -7.028      9.169     10.912
REMARK INTER + INTRA:          -8.788
REMARK INTER:                  -8.591
REMARK INTRA:                  -0.197
REMARK UNBOUND:                -0.322
REMARK SMILES Oc1cc(O)c2cc(O)c(-c3ccc(O)c(O)c3)[o+]c2c1
REMARK SMILES IDX 10 1 19 2 20 3 21 4 2 5 3 6 4 7 6 8 7 9 8 10 11 11 12 12
REMARK SMILES IDX 13 13 14 14 18 15 16 16 15 17 17 19 9 21 1 23 5 25
REMARK H PARENT 15 18 17 20 9 22 1 24 5 26
REMARK Flexibility Score: inf
ROOT
ATOM      1  C   UNL     1     -24.955  18.145 -38.517  1.00  0.00     0.402 A 
ATOM      2  O   UNL     1     -25.590  17.008 -38.792  1.00  0.00    -0.202 OA
ATOM      3  C   UNL     1     -25.996  16.154 -37.858  1.00  0.00     0.368 A 
ATOM      4  C   UNL     1     -26.658  14.986 -38.245  1.00  0.00     0.162 A 
ATOM      5  C   UNL     1     -27.098  14.072 -37.284  1.00  0.00     0.128 A 
ATOM      6  C   UNL     1     -26.876  14.327 -35.929  1.00  0.00     0.093 A 
ATOM      7  C   UNL     1     -26.215  15.490 -35.514  1.00  0.00     0.136 A 
ATOM      8  C   UNL     1     -25.763  16.421 -36.487  1.00  0.00     0.125 A 
ATOM      9  C   UNL     1     -25.081  17.605 -36.165  1.00  0.00     0.078 A 
ATOM     10  C   UNL     1     -24.662  18.471 -37.179  1.00  0.00     0.223 A 
ENDROOT
BRANCH   1  11
ATOM     11  C   UNL     1     -24.563  19.020 -39.646  1.00  0.00     0.087 A 
ATOM     12  C   UNL     1     -25.118  20.305 -39.747  1.00  0.00     0.022 A 
ATOM     13  C   UNL     1     -24.748  21.155 -40.793  1.00  0.00     0.051 A 
ATOM     14  C   UNL     1     -23.807  20.738 -41.742  1.00  0.00     0.157 A 
ATOM     15  C   UNL     1     -23.602  18.612 -40.589  1.00  0.00     0.068 A 
ATOM     16  C   UNL     1     -23.229  19.466 -41.637  1.00  0.00     0.158 A 
BRANCH  14  17
ATOM     17  O   UNL     1     -23.436  21.582 -42.787  1.00  0.00    -0.504 OA
ATOM     18  H   UNL     1     -23.965  22.417 -43.007  1.00  0.00     0.293 HD
ENDBRANCH  14  17
BRANCH  16  19
ATOM     19  O   UNL     1     -22.283  19.059 -42.576  1.00  0.00    -0.504 OA
ATOM     20  H   UNL     1     -21.345  19.441 -42.583  1.00  0.00     0.293 HD
ENDBRANCH  16  19
ENDBRANCH   1  11
BRANCH  10  21
ATOM     21  O   UNL     1     -23.940  19.622 -36.864  1.00  0.00    -0.500 OA
ATOM     22  H   UNL     1     -24.389  20.529 -36.792  1.00  0.00     0.294 HD
ENDBRANCH  10  21
BRANCH   5  23
ATOM     23  O   UNL     1     -27.759  12.906 -37.664  1.00  0.00    -0.507 OA
ATOM     24  H   UNL     1     -27.454  12.360 -38.460  1.00  0.00     0.293 HD
ENDBRANCH   5  23
BRANCH   7  25
ATOM     25  O   UNL     1     -26.034  15.674 -34.140  1.00  0.00    -0.507 OA
ATOM     26  H   UNL     1     -25.377  15.155 -33.577  1.00  0.00     0.293 HD
ENDBRANCH   7  25
TORSDOF 6
ENDMDL
MODEL 4
REMARK VINA RESULT:    -6.997      1.773      3.154
REMARK INTER + INTRA:          -8.751
REMARK INTER:                  -8.598
REMARK INTRA:                  -0.152
REMARK UNBOUND:                -0.322
REMARK SMILES Oc1cc(O)c2cc(O)c(-c3ccc(O)c(O)c3)[o+]c2c1
REMARK SMILES IDX 10 1 19 2 20 3 21 4 2 5 3 6 4 7 6 8 7 9 8 10 11 11 12 12
REMARK SMILES IDX 13 13 14 14 18 15 16 16 15 17 17 19 9 21 1 23 5 25
REMARK H PARENT 15 18 17 20 9 22 1 24 5 26
REMARK Flexibility Score: inf
ROOT
ATOM      1  C   UNL     1     -19.276  12.484 -34.565  1.00  0.00     0.402 A 
ATOM      2  O   UNL     1     -18.921  12.383 -35.844  1.00  0.00    -0.202 OA
ATOM      3  C   UNL     1     -19.787  12.150 -36.825  1.00  0.00     0.368 A 
ATOM      4  C   UNL     1     -19.319  12.064 -38.139  1.00  0.00     0.162 A 
ATOM      5  C   UNL     1     -20.208  11.822 -39.191  1.00  0.00     0.128 A 
ATOM      6  C   UNL     1     -21.571  11.667 -38.927  1.00  0.00     0.093 A 
ATOM      7  C   UNL     1     -22.065  11.749 -37.620  1.00  0.00     0.136 A 
ATOM      8  C   UNL     1     -21.167  11.992 -36.548  1.00  0.00     0.125 A 
ATOM      9  C   UNL     1     -21.570  12.076 -35.205  1.00  0.00     0.078 A 
ATOM     10  C   UNL     1     -20.625  12.313 -34.203  1.00  0.00     0.223 A 
ENDROOT
BRANCH   1  11
ATOM     11  C   UNL     1     -18.219  12.756 -33.565  1.00  0.00     0.087 A 
ATOM     12  C   UNL     1     -18.308  13.906 -32.764  1.00  0.00     0.022 A 
ATOM     13  C   UNL     1     -17.332  14.174 -31.800  1.00  0.00     0.051 A 
ATOM     14  C   UNL     1     -16.264  13.289 -31.611  1.00  0.00     0.157 A 
ATOM     15  C   UNL     1     -17.156  11.859 -33.358  1.00  0.00     0.068 A 
ATOM     16  C   UNL     1     -16.178  12.126 -32.389  1.00  0.00     0.158 A 
BRANCH  14  17
ATOM     17  O   UNL     1     -15.289  13.552 -30.652  1.00  0.00    -0.504 OA
ATOM     18  H   UNL     1     -14.355  13.845 -30.913  1.00  0.00     0.293 HD
ENDBRANCH  14  17
BRANCH  16  19
ATOM     19  O   UNL     1     -15.121  11.240 -32.190  1.00  0.00    -0.504 OA
ATOM     20  H   UNL     1     -15.185  10.481 -31.522  1.00  0.00     0.293 HD
ENDBRANCH  16  19
ENDBRANCH   1  11
BRANCH  10  21
ATOM     21  O   UNL     1     -21.017  12.347 -32.865  1.00  0.00    -0.500 OA
ATOM     22  H   UNL     1     -20.342  12.437 -32.114  1.00  0.00     0.294 HD
ENDBRANCH  10  21
BRANCH   5  23
ATOM     23  O   UNL     1     -19.748  11.735 -40.503  1.00  0.00    -0.507 OA
ATOM     24  H   UNL     1     -20.177  12.267 -41.250  1.00  0.00     0.293 HD
ENDBRANCH   5  23
BRANCH   7  25
ATOM     25  O   UNL     1     -23.442  11.586 -37.440  1.00  0.00    -0.507 OA
ATOM     26  H   UNL     1     -23.921  11.705 -36.559  1.00  0.00     0.293 HD
ENDBRANCH   7  25
TORSDOF 6
ENDMDL
MODEL 5
REMARK VINA RESULT:    -6.854      1.487      7.145
REMARK INTER + INTRA:          -8.579
REMARK INTER:                  -8.232
REMARK INTRA:                  -0.346
REMARK UNBOUND:                -0.322
REMARK SMILES Oc1cc(O)c2cc(O)c(-c3ccc(O)c(O)c3)[o+]c2c1
REMARK SMILES IDX 10 1 19 2 20 3 21 4 2 5 3 6 4 7 6 8 7 9 8 10 11 11 12 12
REMARK SMILES IDX 13 13 14 14 18 15 16 16 15 17 17 19 9 21 1 23 5 25
REMARK H PARENT 15 18 17 20 9 22 1 24 5 26
REMARK Flexibility Score: inf
ROOT
ATOM      1  C   UNL     1     -19.290  12.046 -35.175  1.00  0.00     0.402 A 
ATOM      2  O   UNL     1     -17.995  11.743 -35.122  1.00  0.00    -0.202 OA
ATOM      3  C   UNL     1     -17.176  12.205 -34.183  1.00  0.00     0.368 A 
ATOM      4  C   UNL     1     -15.831  11.827 -34.208  1.00  0.00     0.162 A 
ATOM      5  C   UNL     1     -14.947  12.296 -33.231  1.00  0.00     0.128 A 
ATOM      6  C   UNL     1     -15.412  13.145 -32.225  1.00  0.00     0.093 A 
ATOM      7  C   UNL     1     -16.755  13.538 -32.176  1.00  0.00     0.136 A 
ATOM      8  C   UNL     1     -17.656  13.067 -33.167  1.00  0.00     0.125 A 
ATOM      9  C   UNL     1     -19.015  13.419 -33.206  1.00  0.00     0.078 A 
ATOM     10  C   UNL     1     -19.840  12.919 -34.218  1.00  0.00     0.223 A 
ENDROOT
BRANCH   1  11
ATOM     11  C   UNL     1     -20.102  11.459 -36.266  1.00  0.00     0.087 A 
ATOM     12  C   UNL     1     -20.053  12.031 -37.547  1.00  0.00     0.022 A 
ATOM     13  C   UNL     1     -20.796  11.483 -38.595  1.00  0.00     0.051 A 
ATOM     14  C   UNL     1     -21.586  10.346 -38.383  1.00  0.00     0.157 A 
ATOM     15  C   UNL     1     -20.880  10.305 -36.061  1.00  0.00     0.068 A 
ATOM     16  C   UNL     1     -21.624   9.753 -37.114  1.00  0.00     0.158 A 
BRANCH  14  17
ATOM     17  O   UNL     1     -22.329   9.797 -39.425  1.00  0.00    -0.504 OA
ATOM     18  H   UNL     1     -21.892   9.247 -40.155  1.00  0.00     0.293 HD
ENDBRANCH  14  17
BRANCH  16  19
ATOM     19  O   UNL     1     -22.400   8.614 -36.908  1.00  0.00    -0.504 OA
ATOM     20  H   UNL     1     -22.324   8.067 -36.059  1.00  0.00     0.293 HD
ENDBRANCH  16  19
ENDBRANCH   1  11
BRANCH  10  21
ATOM     21  O   UNL     1     -21.178  13.307 -34.286  1.00  0.00    -0.500 OA
ATOM     22  H   UNL     1     -21.908  12.655 -34.548  1.00  0.00     0.294 HD
ENDBRANCH  10  21
BRANCH   5  23
ATOM     23  O   UNL     1     -13.605  11.923 -33.251  1.00  0.00    -0.507 OA
ATOM     24  H   UNL     1     -13.288  11.114 -33.771  1.00  0.00     0.293 HD
ENDBRANCH   5  23
BRANCH   7  25
ATOM     25  O   UNL     1     -17.141  14.387 -31.135  1.00  0.00    -0.507 OA
ATOM     26  H   UNL     1     -16.964  15.381 -31.113  1.00  0.00     0.293 HD
ENDBRANCH   7  25
TORSDOF 6
ENDMDL
MODEL 6
REMARK VINA RESULT:    -6.783      2.153      3.314
REMARK INTER + INTRA:          -8.492
REMARK INTER:                  -8.268
REMARK INTRA:                  -0.224
REMARK UNBOUND:                -0.322
REMARK SMILES Oc1cc(O)c2cc(O)c(-c3ccc(O)c(O)c3)[o+]c2c1
REMARK SMILES IDX 10 1 19 2 20 3 21 4 2 5 3 6 4 7 6 8 7 9 8 10 11 11 12 12
REMARK SMILES IDX 13 13 14 14 18 15 16 16 15 17 17 19 9 21 1 23 5 25
REMARK H PARENT 15 18 17 20 9 22 1 24 5 26
REMARK Flexibility Score: inf
ROOT
ATOM      1  C   UNL     1     -19.488  11.234 -35.912  1.00  0.00     0.402 A 
ATOM      2  O   UNL     1     -20.183  12.199 -36.510  1.00  0.00    -0.202 OA
ATOM      3  C   UNL     1     -21.051  11.972 -37.490  1.00  0.00     0.368 A 
ATOM      4  C   UNL     1     -21.736  13.052 -38.054  1.00  0.00     0.162 A 
ATOM      5  C   UNL     1     -22.657  12.842 -39.085  1.00  0.00     0.128 A 
ATOM      6  C   UNL     1     -22.894  11.548 -39.553  1.00  0.00     0.093 A 
ATOM      7  C   UNL     1     -22.220  10.450 -39.005  1.00  0.00     0.136 A 
ATOM      8  C   UNL     1     -21.282  10.657 -37.959  1.00  0.00     0.125 A 
ATOM      9  C   UNL     1     -20.552   9.619 -37.360  1.00  0.00     0.078 A 
ATOM     10  C   UNL     1     -19.641   9.901 -36.338  1.00  0.00     0.223 A 
ENDROOT
BRANCH   1  11
ATOM     11  C   UNL     1     -18.558  11.611 -34.823  1.00  0.00     0.087 A 
ATOM     12  C   UNL     1     -19.077  12.037 -33.590  1.00  0.00     0.022 A 
ATOM     13  C   UNL     1     -18.219  12.381 -32.542  1.00  0.00     0.051 A 
ATOM     14  C   UNL     1     -16.831  12.287 -32.706  1.00  0.00     0.157 A 
ATOM     15  C   UNL     1     -17.165  11.499 -34.977  1.00  0.00     0.068 A 
ATOM     16  C   UNL     1     -16.303  11.841 -33.924  1.00  0.00     0.158 A 
BRANCH  14  17
ATOM     17  O   UNL     1     -15.973  12.629 -31.664  1.00  0.00    -0.504 OA
ATOM     18  H   UNL     1     -16.226  13.328 -30.975  1.00  0.00     0.293 HD
ENDBRANCH  14  17
BRANCH  16  19
ATOM     19  O   UNL     1     -14.922  11.736 -34.080  1.00  0.00    -0.504 OA
ATOM     20  H   UNL     1     -14.459  10.836 -34.103  1.00  0.00     0.293 HD
ENDBRANCH  16  19
ENDBRANCH   1  11
BRANCH  10  21
ATOM     21  O   UNL     1     -18.878   8.877 -35.777  1.00  0.00    -0.500 OA
ATOM     22  H   UNL     1     -18.623   8.880 -34.795  1.00  0.00     0.294 HD
ENDBRANCH  10  21
BRANCH   5  23
ATOM     23  O   UNL     1     -23.344  13.914 -39.651  1.00  0.00    -0.507 OA
ATOM     24  H   UNL     1     -23.346  14.072 -40.652  1.00  0.00     0.293 HD
ENDBRANCH   5  23
BRANCH   7  25
ATOM     25  O   UNL     1     -22.516   9.187 -39.527  1.00  0.00    -0.507 OA
ATOM     26  H   UNL     1     -22.342   8.316 -39.046  1.00  0.00     0.293 HD
ENDBRANCH   7  25
TORSDOF 6
ENDMDL
MODEL 7
REMARK VINA RESULT:    -6.726      8.923     10.429
REMARK INTER + INTRA:          -8.424
REMARK INTER:                  -8.085
REMARK INTRA:                  -0.339
REMARK UNBOUND:                -0.322
REMARK SMILES Oc1cc(O)c2cc(O)c(-c3ccc(O)c(O)c3)[o+]c2c1
REMARK SMILES IDX 10 1 19 2 20 3 21 4 2 5 3 6 4 7 6 8 7 9 8 10 11 11 12 12
REMARK SMILES IDX 13 13 14 14 18 15 16 16 15 17 17 19 9 21 1 23 5 25
REMARK H PARENT 15 18 17 20 9 22 1 24 5 26
REMARK Flexibility Score: inf
ROOT
ATOM      1  C   UNL     1     -24.585  17.914 -39.071  1.00  0.00     0.402 A 
ATOM      2  O   UNL     1     -24.553  16.607 -39.317  1.00  0.00    -0.202 OA
ATOM      3  C   UNL     1     -25.357  15.732 -38.723  1.00  0.00     0.368 A 
ATOM      4  C   UNL     1     -25.251  14.378 -39.051  1.00  0.00     0.162 A 
ATOM      5  C   UNL     1     -26.086  13.436 -38.442  1.00  0.00     0.128 A 
ATOM      6  C   UNL     1     -27.033  13.851 -37.503  1.00  0.00     0.093 A 
ATOM      7  C   UNL     1     -27.160  15.202 -37.158  1.00  0.00     0.136 A 
ATOM      8  C   UNL     1     -26.312  16.162 -37.770  1.00  0.00     0.125 A 
ATOM      9  C   UNL     1     -26.360  17.534 -37.476  1.00  0.00     0.078 A 
ATOM     10  C   UNL     1     -25.488  18.419 -38.117  1.00  0.00     0.223 A 
ENDROOT
BRANCH   1  11
ATOM     11  C   UNL     1     -23.643  18.789 -39.806  1.00  0.00     0.087 A 
ATOM     12  C   UNL     1     -22.297  18.839 -39.412  1.00  0.00     0.022 A 
ATOM     13  C   UNL     1     -21.386  19.642 -40.103  1.00  0.00     0.051 A 
ATOM     14  C   UNL     1     -21.805  20.395 -41.207  1.00  0.00     0.157 A 
ATOM     15  C   UNL     1     -24.056  19.531 -40.928  1.00  0.00     0.068 A 
ATOM     16  C   UNL     1     -23.141  20.336 -41.623  1.00  0.00     0.158 A 
BRANCH  14  17
ATOM     17  O   UNL     1     -20.901  21.199 -41.898  1.00  0.00    -0.504 OA
ATOM     18  H   UNL     1     -20.122  21.645 -41.428  1.00  0.00     0.293 HD
ENDBRANCH  14  17
BRANCH  16  19
ATOM     19  O   UNL     1     -23.553  21.075 -42.730  1.00  0.00    -0.504 OA
ATOM     20  H   UNL     1     -23.068  21.016 -43.617  1.00  0.00     0.293 HD
ENDBRANCH  16  19
ENDBRANCH   1  11
BRANCH  10  21
ATOM     21  O   UNL     1     -25.500  19.775 -37.788  1.00  0.00    -0.500 OA
ATOM     22  H   UNL     1     -26.148  20.151 -37.106  1.00  0.00     0.294 HD
ENDBRANCH  10  21
BRANCH   5  23
ATOM     23  O   UNL     1     -25.985  12.085 -38.765  1.00  0.00    -0.507 OA
ATOM     24  H   UNL     1     -25.867  11.777 -39.723  1.00  0.00     0.293 HD
ENDBRANCH   5  23
BRANCH   7  25
ATOM     25  O   UNL     1     -28.134  15.536 -36.212  1.00  0.00    -0.507 OA
ATOM     26  H   UNL     1     -28.664  14.864 -35.676  1.00  0.00     0.293 HD
ENDBRANCH   7  25
TORSDOF 6
ENDMDL
MODEL 8
REMARK VINA RESULT:    -6.663      1.643      6.970
REMARK INTER + INTRA:          -8.348
REMARK INTER:                  -8.074
REMARK INTRA:                  -0.274
REMARK UNBOUND:                -0.322
REMARK SMILES Oc1cc(O)c2cc(O)c(-c3ccc(O)c(O)c3)[o+]c2c1
REMARK SMILES IDX 10 1 19 2 20 3 21 4 2 5 3 6 4 7 6 8 7 9 8 10 11 11 12 12
REMARK SMILES IDX 13 13 14 14 18 15 16 16 15 17 17 19 9 21 1 23 5 25
REMARK H PARENT 15 18 17 20 9 22 1 24 5 26
REMARK Flexibility Score: inf
ROOT
ATOM      1  C   UNL     1     -19.225  11.955 -35.990  1.00  0.00     0.402 A 
ATOM      2  O   UNL     1     -19.875  12.554 -34.995  1.00  0.00    -0.202 OA
ATOM      3  C   UNL     1     -19.264  13.117 -33.958  1.00  0.00     0.368 A 
ATOM      4  C   UNL     1     -20.033  13.726 -32.963  1.00  0.00     0.162 A 
ATOM      5  C   UNL     1     -19.416  14.328 -31.863  1.00  0.00     0.128 A 
ATOM      6  C   UNL     1     -18.023  14.322 -31.758  1.00  0.00     0.093 A 
ATOM      7  C   UNL     1     -17.229  13.719 -32.742  1.00  0.00     0.136 A 
ATOM      8  C   UNL     1     -17.851  13.104 -33.860  1.00  0.00     0.125 A 
ATOM      9  C   UNL     1     -17.137  12.464 -34.886  1.00  0.00     0.078 A 
ATOM     10  C   UNL     1     -17.820  11.876 -35.954  1.00  0.00     0.223 A 
ENDROOT
BRANCH   1  11
ATOM     11  C   UNL     1     -20.019  11.374 -37.097  1.00  0.00     0.087 A 
ATOM     12  C   UNL     1     -20.001  11.991 -38.357  1.00  0.00     0.022 A 
ATOM     13  C   UNL     1     -20.727  11.450 -39.421  1.00  0.00     0.051 A 
ATOM     14  C   UNL     1     -21.469  10.275 -39.245  1.00  0.00     0.157 A 
ATOM     15  C   UNL     1     -20.748  10.183 -36.929  1.00  0.00     0.068 A 
ATOM     16  C   UNL     1     -21.476   9.638 -37.997  1.00  0.00     0.158 A 
BRANCH  14  17
ATOM     17  O   UNL     1     -22.195   9.733 -40.302  1.00  0.00    -0.504 OA
ATOM     18  H   UNL     1     -22.353   8.735 -40.380  1.00  0.00     0.293 HD
ENDBRANCH  14  17
BRANCH  16  19
ATOM     19  O   UNL     1     -22.203   8.461 -37.827  1.00  0.00    -0.504 OA
ATOM     20  H   UNL     1     -22.372   8.070 -36.909  1.00  0.00     0.293 HD
ENDBRANCH  16  19
ENDBRANCH   1  11
BRANCH  10  21
ATOM     21  O   UNL     1     -17.115  11.197 -36.947  1.00  0.00    -0.500 OA
ATOM     22  H   UNL     1     -16.181  11.478 -37.224  1.00  0.00     0.294 HD
ENDBRANCH  10  21
BRANCH   5  23
ATOM     23  O   UNL     1     -20.177  14.937 -30.868  1.00  0.00    -0.507 OA
ATOM     24  H   UNL     1     -21.138  15.214 -31.032  1.00  0.00     0.293 HD
ENDBRANCH   5  23
BRANCH   7  25
ATOM     25  O   UNL     1     -15.843  13.759 -32.565  1.00  0.00    -0.507 OA
ATOM     26  H   UNL     1     -15.255  14.530 -32.842  1.00  0.00     0.293 HD
ENDBRANCH   7  25
TORSDOF 6
ENDMDL
MODEL 9
REMARK VINA RESULT:    -6.534      1.656      6.713
REMARK INTER + INTRA:          -8.193
REMARK INTER:                  -7.847
REMARK INTRA:                  -0.346
REMARK UNBOUND:                -0.322
REMARK SMILES Oc1cc(O)c2cc(O)c(-c3ccc(O)c(O)c3)[o+]c2c1
REMARK SMILES IDX 10 1 19 2 20 3 21 4 2 5 3 6 4 7 6 8 7 9 8 10 11 11 12 12
REMARK SMILES IDX 13 13 14 14 18 15 16 16 15 17 17 19 9 21 1 23 5 25
REMARK H PARENT 15 18 17 20 9 22 1 24 5 26
REMARK Flexibility Score: inf
ROOT
ATOM      1  C   UNL     1     -18.583  12.453 -35.544  1.00  0.00     0.402 A 
ATOM      2  O   UNL     1     -18.078  12.284 -34.324  1.00  0.00    -0.202 OA
ATOM      3  C   UNL     1     -17.212  13.127 -33.770  1.00  0.00     0.368 A 
ATOM      4  C   UNL     1     -16.740  12.867 -32.481  1.00  0.00     0.162 A 
ATOM      5  C   UNL     1     -15.831  13.738 -31.873  1.00  0.00     0.128 A 
ATOM      6  C   UNL     1     -15.394  14.874 -32.557  1.00  0.00     0.093 A 
ATOM      7  C   UNL     1     -15.852  15.158 -33.849  1.00  0.00     0.136 A 
ATOM      8  C   UNL     1     -16.773  14.275 -34.472  1.00  0.00     0.125 A 
ATOM      9  C   UNL     1     -17.276  14.472 -35.769  1.00  0.00     0.078 A 
ATOM     10  C   UNL     1     -18.177  13.555 -36.318  1.00  0.00     0.223 A 
ENDROOT
BRANCH   1  11
ATOM     11  C   UNL     1     -19.548  11.449 -36.048  1.00  0.00     0.087 A 
ATOM     12  C   UNL     1     -19.073  10.229 -36.555  1.00  0.00     0.022 A 
ATOM     13  C   UNL     1     -19.966   9.259 -37.018  1.00  0.00     0.051 A 
ATOM     14  C   UNL     1     -21.347   9.488 -36.964  1.00  0.00     0.157 A 
ATOM     15  C   UNL     1     -20.936  11.666 -35.976  1.00  0.00     0.068 A 
ATOM     16  C   UNL     1     -21.833  10.692 -36.438  1.00  0.00     0.158 A 
BRANCH  14  17
ATOM     17  O   UNL     1     -22.240   8.524 -37.426  1.00  0.00    -0.504 OA
ATOM     18  H   UNL     1     -22.322   7.619 -36.978  1.00  0.00     0.293 HD
ENDBRANCH  14  17
BRANCH  16  19
ATOM     19  O   UNL     1     -23.207  10.911 -36.374  1.00  0.00    -0.504 OA
ATOM     20  H   UNL     1     -23.729  11.243 -37.175  1.00  0.00     0.293 HD
ENDBRANCH  16  19
ENDBRANCH   1  11
BRANCH  10  21
ATOM     21  O   UNL     1     -18.637  13.723 -37.624  1.00  0.00    -0.500 OA
ATOM     22  H   UNL     1     -19.625  13.815 -37.833  1.00  0.00     0.294 HD
ENDBRANCH  10  21
BRANCH   5  23
ATOM     23  O   UNL     1     -15.357  13.484 -30.588  1.00  0.00    -0.507 OA
ATOM     24  H   UNL     1     -14.724  12.716 -30.399  1.00  0.00     0.293 HD
ENDBRANCH   5  23
BRANCH   7  25
ATOM     25  O   UNL     1     -15.369  16.317 -34.464  1.00  0.00    -0.507 OA
ATOM     26  H   UNL     1     -14.496  16.766 -34.229  1.00  0.00     0.293 HD
ENDBRANCH   7  25
TORSDOF 6
ENDMDL
