MODEL 1
REMARK VINA RESULT:    -7.105      0.000      0.000
REMARK INTER + INTRA:         -11.927
REMARK INTER:                 -11.051
REMARK INTRA:                  -0.877
REMARK UNBOUND:                -0.877
REMARK SMILES COc1cc(CNC(=O)CCCCC=CC(C)C)ccc1O
REMARK SMILES IDX 11 1 12 2 13 3 14 4 15 5 16 6 17 7 18 8 10 9 8 10 9 11 7 12
REMARK SMILES IDX 6 14 5 15 4 16 19 17 3 18 20 19 21 20 2 21 1 22 22 23
REMARK H PARENT 7 13 22 24
REMARK Flexibility Score: inf
ROOT
ATOM      1  C   UNL     1       2.537  24.909  80.137  1.00  0.00     0.010 C 
ENDROOT
BRANCH   1   2
ATOM      2  C   UNL     1       2.714  25.708  81.437  1.00  0.00     0.005 C 
BRANCH   2   3
ATOM      3  C   UNL     1       4.105  25.511  82.056  1.00  0.00     0.027 C 
BRANCH   3   4
ATOM      4  C   UNL     1       5.126  25.184  81.000  1.00  0.00    -0.031 C 
ATOM      5  C   UNL     1       6.434  25.359  81.239  1.00  0.00    -0.028 C 
BRANCH   5   6
ATOM      6  C   UNL     1       7.504  25.053  80.215  1.00  0.00     0.005 C 
ATOM      7  C   UNL     1       6.907  24.891  78.811  1.00  0.00     0.012 C 
ATOM      8  C   UNL     1       8.322  23.819  80.616  1.00  0.00     0.012 C 
ENDBRANCH   5   6
ENDBRANCH   3   4
ENDBRANCH   2   3
ENDBRANCH   1   2
BRANCH   1   9
ATOM      9  C   UNL     1       1.904  25.749  79.020  1.00  0.00     0.100 C 
BRANCH   9  10
ATOM     10  C   UNL     1       2.753  26.948  78.722  1.00  0.00     0.220 C 
ATOM     11  O   UNL     1       3.928  26.783  78.294  1.00  0.00    -0.275 OA
ATOM     12  N   UNL     1       2.247  28.270  78.965  1.00  0.00    -0.352 N 
ATOM     13  H   UNL     1       1.282  28.383  79.352  1.00  0.00     0.163 HD
BRANCH  12  14
ATOM     14  C   UNL     1       3.029  29.471  78.687  1.00  0.00     0.151 C 
BRANCH  14  15
ATOM     15  C   UNL     1       2.232  30.433  77.847  1.00  0.00    -0.025 A 
ATOM     16  C   UNL     1       2.127  31.780  78.229  1.00  0.00     0.056 A 
ATOM     17  C   UNL     1       1.564  29.990  76.697  1.00  0.00     0.009 A 
ATOM     18  C   UNL     1       1.366  32.685  77.463  1.00  0.00     0.160 A 
ATOM     19  C   UNL     1       0.808  30.881  75.935  1.00  0.00     0.050 A 
ATOM     20  C   UNL     1       0.706  32.224  76.310  1.00  0.00     0.157 A 
BRANCH  18  21
ATOM     21  O   UNL     1       1.246  34.039  77.814  1.00  0.00    -0.493 OA
ATOM     22  C   UNL     1       2.327  34.861  78.240  1.00  0.00     0.278 C 
ENDBRANCH  18  21
BRANCH  20  23
ATOM     23  O   UNL     1      -0.058  33.086  75.523  1.00  0.00    -0.504 OA
ATOM     24  H   UNL     1      -0.129  34.077  75.720  1.00  0.00     0.293 HD
ENDBRANCH  20  23
ENDBRANCH  14  15
ENDBRANCH  12  14
ENDBRANCH   9  10
ENDBRANCH   1   9
TORSDOF 10
ENDMDL
MODEL 2
REMARK VINA RESULT:    -6.954      0.864      2.142
REMARK INTER + INTRA:         -11.693
REMARK INTER:                 -10.739
REMARK INTRA:                  -0.954
REMARK UNBOUND:                -0.877
REMARK SMILES COc1cc(CNC(=O)CCCCC=CC(C)C)ccc1O
REMARK SMILES IDX 11 1 12 2 13 3 14 4 15 5 16 6 17 7 18 8 10 9 8 10 9 11 7 12
REMARK SMILES IDX 6 14 5 15 4 16 19 17 3 18 20 19 21 20 2 21 1 22 22 23
REMARK H PARENT 7 13 22 24
REMARK Flexibility Score: inf
ROOT
ATOM      1  C   UNL     1       2.817  25.039  80.181  1.00  0.00     0.010 C 
ENDROOT
BRANCH   1   2
ATOM      2  C   UNL     1       3.008  25.827  81.486  1.00  0.00     0.005 C 
BRANCH   2   3
ATOM      3  C   UNL     1       4.331  25.481  82.185  1.00  0.00     0.027 C 
BRANCH   3   4
ATOM      4  C   UNL     1       5.363  25.019  81.194  1.00  0.00    -0.031 C 
ATOM      5  C   UNL     1       6.542  25.652  81.092  1.00  0.00    -0.028 C 
BRANCH   5   6
ATOM      6  C   UNL     1       7.615  25.236  80.111  1.00  0.00     0.005 C 
ATOM      7  C   UNL     1       7.042  25.043  78.701  1.00  0.00     0.012 C 
ATOM      8  C   UNL     1       8.350  23.978  80.589  1.00  0.00     0.012 C 
ENDBRANCH   5   6
ENDBRANCH   3   4
ENDBRANCH   2   3
ENDBRANCH   1   2
BRANCH   1   9
ATOM      9  C   UNL     1       2.139  25.876  79.090  1.00  0.00     0.100 C 
BRANCH   9  10
ATOM     10  C   UNL     1       2.892  27.154  78.868  1.00  0.00     0.220 C 
ATOM     11  O   UNL     1       4.117  27.106  78.569  1.00  0.00    -0.275 OA
ATOM     12  N   UNL     1       2.233  28.419  79.037  1.00  0.00    -0.352 N 
ATOM     13  H   UNL     1       1.226  28.436  79.318  1.00  0.00     0.163 HD
BRANCH  12  14
ATOM     14  C   UNL     1       2.918  29.692  78.828  1.00  0.00     0.151 C 
BRANCH  14  15
ATOM     15  C   UNL     1       2.108  30.580  77.922  1.00  0.00    -0.025 A 
ATOM     16  C   UNL     1       1.548  30.060  76.745  1.00  0.00     0.056 A 
ATOM     17  C   UNL     1       1.931  31.937  78.226  1.00  0.00     0.009 A 
ATOM     18  C   UNL     1       0.806  30.885  75.877  1.00  0.00     0.160 A 
ATOM     19  C   UNL     1       1.197  32.760  77.371  1.00  0.00     0.050 A 
ATOM     20  C   UNL     1       0.634  32.243  76.201  1.00  0.00     0.157 A 
BRANCH  18  21
ATOM     21  O   UNL     1       0.228  30.394  74.696  1.00  0.00    -0.493 OA
ATOM     22  C   UNL     1       0.721  29.280  73.959  1.00  0.00     0.278 C 
ENDBRANCH  18  21
BRANCH  20  23
ATOM     23  O   UNL     1      -0.092  33.096  75.370  1.00  0.00    -0.504 OA
ATOM     24  H   UNL     1       0.274  33.430  74.486  1.00  0.00     0.293 HD
ENDBRANCH  20  23
ENDBRANCH  14  15
ENDBRANCH  12  14
ENDBRANCH   9  10
ENDBRANCH   1   9
TORSDOF 10
ENDMDL
MODEL 3
REMARK VINA RESULT:    -6.922      2.037      4.108
REMARK INTER + INTRA:         -11.643
REMARK INTER:                 -10.138
REMARK INTRA:                  -1.505
REMARK UNBOUND:                -0.877
REMARK SMILES COc1cc(CNC(=O)CCCCC=CC(C)C)ccc1O
REMARK SMILES IDX 11 1 12 2 13 3 14 4 15 5 16 6 17 7 18 8 10 9 8 10 9 11 7 12
REMARK SMILES IDX 6 14 5 15 4 16 19 17 3 18 20 19 21 20 2 21 1 22 22 23
REMARK H PARENT 7 13 22 24
REMARK Flexibility Score: inf
ROOT
ATOM      1  C   UNL     1       6.353  25.735  81.270  1.00  0.00     0.010 C 
ENDROOT
BRANCH   1   2
ATOM      2  C   UNL     1       5.212  24.779  81.653  1.00  0.00     0.005 C 
BRANCH   2   3
ATOM      3  C   UNL     1       4.012  25.520  82.260  1.00  0.00     0.027 C 
BRANCH   3   4
ATOM      4  C   UNL     1       2.883  25.624  81.272  1.00  0.00    -0.031 C 
ATOM      5  C   UNL     1       2.577  24.590  80.474  1.00  0.00    -0.028 C 
BRANCH   5   6
ATOM      6  C   UNL     1       1.457  24.639  79.459  1.00  0.00     0.005 C 
ATOM      7  C   UNL     1       0.274  23.760  79.886  1.00  0.00     0.012 C 
ATOM      8  C   UNL     1       1.956  24.257  78.060  1.00  0.00     0.012 C 
ENDBRANCH   5   6
ENDBRANCH   3   4
ENDBRANCH   2   3
ENDBRANCH   1   2
BRANCH   1   9
ATOM      9  C   UNL     1       6.910  25.444  79.871  1.00  0.00     0.100 C 
BRANCH   9  10
ATOM     10  C   UNL     1       5.840  25.619  78.835  1.00  0.00     0.220 C 
ATOM     11  O   UNL     1       5.676  24.728  77.958  1.00  0.00    -0.275 OA
ATOM     12  N   UNL     1       5.040  26.811  78.819  1.00  0.00    -0.352 N 
ATOM     13  H   UNL     1       5.214  27.553  79.535  1.00  0.00     0.163 HD
BRANCH  12  14
ATOM     14  C   UNL     1       3.981  27.031  77.836  1.00  0.00     0.151 C 
BRANCH  14  15
ATOM     15  C   UNL     1       3.270  28.328  78.113  1.00  0.00    -0.025 A 
ATOM     16  C   UNL     1       2.468  28.461  79.257  1.00  0.00     0.056 A 
ATOM     17  C   UNL     1       3.377  29.404  77.219  1.00  0.00     0.009 A 
ATOM     18  C   UNL     1       1.780  29.663  79.516  1.00  0.00     0.160 A 
ATOM     19  C   UNL     1       2.698  30.597  77.470  1.00  0.00     0.050 A 
ATOM     20  C   UNL     1       1.902  30.732  78.611  1.00  0.00     0.157 A 
BRANCH  18  21
ATOM     21  O   UNL     1       0.974  29.828  80.653  1.00  0.00    -0.493 OA
ATOM     22  C   UNL     1       1.392  29.552  81.986  1.00  0.00     0.278 C 
ENDBRANCH  18  21
BRANCH  20  23
ATOM     23  O   UNL     1       1.238  31.940  78.828  1.00  0.00    -0.504 OA
ATOM     24  H   UNL     1       0.474  32.249  78.239  1.00  0.00     0.293 HD
ENDBRANCH  20  23
ENDBRANCH  14  15
ENDBRANCH  12  14
ENDBRANCH   9  10
ENDBRANCH   1   9
TORSDOF 10
ENDMDL
MODEL 4
REMARK VINA RESULT:    -6.904      3.868      7.511
REMARK INTER + INTRA:         -11.615
REMARK INTER:                  -9.740
REMARK INTRA:                  -1.874
REMARK UNBOUND:                -0.877
REMARK SMILES COc1cc(CNC(=O)CCCCC=CC(C)C)ccc1O
REMARK SMILES IDX 11 1 12 2 13 3 14 4 15 5 16 6 17 7 18 8 10 9 8 10 9 11 7 12
REMARK SMILES IDX 6 14 5 15 4 16 19 17 3 18 20 19 21 20 2 21 1 22 22 23
REMARK H PARENT 7 13 22 24
REMARK Flexibility Score: inf
ROOT
ATOM      1  C   UNL     1       2.208  26.886  75.830  1.00  0.00     0.010 C 
ENDROOT
BRANCH   1   2
ATOM      2  C   UNL     1       3.641  26.536  76.262  1.00  0.00     0.005 C 
BRANCH   2   3
ATOM      3  C   UNL     1       4.032  27.217  77.581  1.00  0.00     0.027 C 
BRANCH   3   4
ATOM      4  C   UNL     1       3.050  28.297  77.945  1.00  0.00    -0.031 C 
ATOM      5  C   UNL     1       2.703  28.499  79.225  1.00  0.00    -0.028 C 
BRANCH   5   6
ATOM      6  C   UNL     1       1.718  29.565  79.650  1.00  0.00     0.005 C 
ATOM      7  C   UNL     1       2.193  30.964  79.240  1.00  0.00     0.012 C 
ATOM      8  C   UNL     1       1.434  29.493  81.155  1.00  0.00     0.012 C 
ENDBRANCH   5   6
ENDBRANCH   3   4
ENDBRANCH   2   3
ENDBRANCH   1   2
BRANCH   1   9
ATOM      9  C   UNL     1       1.343  25.637  75.616  1.00  0.00     0.100 C 
BRANCH   9  10
ATOM     10  C   UNL     1       1.455  24.717  76.794  1.00  0.00     0.220 C 
ATOM     11  O   UNL     1       1.879  23.541  76.623  1.00  0.00    -0.275 OA
ATOM     12  N   UNL     1       1.044  25.158  78.098  1.00  0.00    -0.352 N 
ATOM     13  H   UNL     1       0.664  26.126  78.212  1.00  0.00     0.163 HD
BRANCH  12  14
ATOM     14  C   UNL     1       1.136  24.305  79.279  1.00  0.00     0.151 C 
BRANCH  14  15
ATOM     15  C   UNL     1       2.399  24.604  80.044  1.00  0.00    -0.025 A 
ATOM     16  C   UNL     1       3.593  23.946  79.714  1.00  0.00     0.056 A 
ATOM     17  C   UNL     1       2.387  25.517  81.108  1.00  0.00     0.009 A 
ATOM     18  C   UNL     1       4.777  24.201  80.436  1.00  0.00     0.160 A 
ATOM     19  C   UNL     1       3.555  25.774  81.827  1.00  0.00     0.050 A 
ATOM     20  C   UNL     1       4.747  25.123  81.497  1.00  0.00     0.157 A 
BRANCH  18  21
ATOM     21  O   UNL     1       5.988  23.564  80.126  1.00  0.00    -0.493 OA
ATOM     22  C   UNL     1       6.173  22.665  79.038  1.00  0.00     0.278 C 
ENDBRANCH  18  21
BRANCH  20  23
ATOM     23  O   UNL     1       5.895  25.405  82.239  1.00  0.00    -0.504 OA
ATOM     24  H   UNL     1       6.337  24.714  82.833  1.00  0.00     0.293 HD
ENDBRANCH  20  23
ENDBRANCH  14  15
ENDBRANCH  12  14
ENDBRANCH   9  10
ENDBRANCH   1   9
TORSDOF 10
ENDMDL
MODEL 5
REMARK VINA RESULT:    -6.826      2.608      4.247
REMARK INTER + INTRA:         -11.493
REMARK INTER:                 -10.505
REMARK INTRA:                  -0.989
REMARK UNBOUND:                -0.877
REMARK SMILES COc1cc(CNC(=O)CCCCC=CC(C)C)ccc1O
REMARK SMILES IDX 11 1 12 2 13 3 14 4 15 5 16 6 17 7 18 8 10 9 8 10 9 11 7 12
REMARK SMILES IDX 6 14 5 15 4 16 19 17 3 18 20 19 21 20 2 21 1 22 22 23
REMARK H PARENT 7 13 22 24
REMARK Flexibility Score: inf
ROOT
ATOM      1  C   UNL     1       7.211  25.549  81.492  1.00  0.00     0.010 C 
ENDROOT
BRANCH   1   2
ATOM      2  C   UNL     1       8.459  25.031  82.223  1.00  0.00     0.005 C 
BRANCH   2   3
ATOM      3  C   UNL     1       9.112  23.848  81.494  1.00  0.00     0.027 C 
BRANCH   3   4
ATOM      4  C   UNL     1       8.361  23.507  80.235  1.00  0.00    -0.031 C 
ATOM      5  C   UNL     1       8.942  23.652  79.035  1.00  0.00    -0.028 C 
BRANCH   5   6
ATOM      6  C   UNL     1       8.236  23.331  77.737  1.00  0.00     0.005 C 
ATOM      7  C   UNL     1       9.161  23.535  76.529  1.00  0.00     0.012 C 
ATOM      8  C   UNL     1       6.944  24.143  77.590  1.00  0.00     0.012 C 
ENDBRANCH   5   6
ENDBRANCH   3   4
ENDBRANCH   2   3
ENDBRANCH   1   2
BRANCH   1   9
ATOM      9  C   UNL     1       5.930  25.344  82.310  1.00  0.00     0.100 C 
BRANCH   9  10
ATOM     10  C   UNL     1       4.722  25.479  81.432  1.00  0.00     0.220 C 
ATOM     11  O   UNL     1       3.576  25.522  81.958  1.00  0.00    -0.275 OA
ATOM     12  N   UNL     1       4.868  25.514  80.004  1.00  0.00    -0.352 N 
ATOM     13  H   UNL     1       5.825  25.443  79.587  1.00  0.00     0.163 HD
BRANCH  12  14
ATOM     14  C   UNL     1       3.726  25.649  79.103  1.00  0.00     0.151 C 
BRANCH  14  15
ATOM     15  C   UNL     1       3.497  27.097  78.762  1.00  0.00    -0.025 A 
ATOM     16  C   UNL     1       2.516  27.833  79.445  1.00  0.00     0.056 A 
ATOM     17  C   UNL     1       4.235  27.715  77.742  1.00  0.00     0.009 A 
ATOM     18  C   UNL     1       2.277  29.184  79.121  1.00  0.00     0.160 A 
ATOM     19  C   UNL     1       4.002  29.051  77.416  1.00  0.00     0.050 A 
ATOM     20  C   UNL     1       3.029  29.788  78.098  1.00  0.00     0.157 A 
BRANCH  18  21
ATOM     21  O   UNL     1       1.308  29.948  79.789  1.00  0.00    -0.493 OA
ATOM     22  C   UNL     1       1.053  29.885  81.188  1.00  0.00     0.278 C 
ENDBRANCH  18  21
BRANCH  20  23
ATOM     23  O   UNL     1       2.825  31.122  77.744  1.00  0.00    -0.504 OA
ATOM     24  H   UNL     1       3.169  31.508  76.873  1.00  0.00     0.293 HD
ENDBRANCH  20  23
ENDBRANCH  14  15
ENDBRANCH  12  14
ENDBRANCH   9  10
ENDBRANCH   1   9
TORSDOF 10
ENDMDL
MODEL 6
REMARK VINA RESULT:    -6.825      2.865      8.170
REMARK INTER + INTRA:         -11.492
REMARK INTER:                 -10.629
REMARK INTRA:                  -0.863
REMARK UNBOUND:                -0.877
REMARK SMILES COc1cc(CNC(=O)CCCCC=CC(C)C)ccc1O
REMARK SMILES IDX 11 1 12 2 13 3 14 4 15 5 16 6 17 7 18 8 10 9 8 10 9 11 7 12
REMARK SMILES IDX 6 14 5 15 4 16 19 17 3 18 20 19 21 20 2 21 1 22 22 23
REMARK H PARENT 7 13 22 24
REMARK Flexibility Score: inf
ROOT
ATOM      1  C   UNL     1       2.046  28.801  76.846  1.00  0.00     0.010 C 
ENDROOT
BRANCH   1   2
ATOM      2  C   UNL     1       2.122  28.625  78.371  1.00  0.00     0.005 C 
BRANCH   2   3
ATOM      3  C   UNL     1       1.754  29.912  79.123  1.00  0.00     0.027 C 
BRANCH   3   4
ATOM      4  C   UNL     1       1.456  31.033  78.165  1.00  0.00    -0.031 C 
ATOM      5  C   UNL     1       1.922  32.270  78.396  1.00  0.00    -0.028 C 
BRANCH   5   6
ATOM      6  C   UNL     1       1.650  33.436  77.473  1.00  0.00     0.005 C 
ATOM      7  C   UNL     1       2.137  34.758  78.080  1.00  0.00     0.012 C 
ATOM      8  C   UNL     1       0.167  33.511  77.093  1.00  0.00     0.012 C 
ENDBRANCH   5   6
ENDBRANCH   3   4
ENDBRANCH   2   3
ENDBRANCH   1   2
BRANCH   1   9
ATOM      9  C   UNL     1       1.370  27.609  76.157  1.00  0.00     0.100 C 
BRANCH   9  10
ATOM     10  C   UNL     1       1.821  26.321  76.779  1.00  0.00     0.220 C 
ATOM     11  O   UNL     1       2.907  25.800  76.405  1.00  0.00    -0.275 OA
ATOM     12  N   UNL     1       1.001  25.668  77.761  1.00  0.00    -0.352 N 
ATOM     13  H   UNL     1       0.088  26.100  78.033  1.00  0.00     0.163 HD
BRANCH  12  14
ATOM     14  C   UNL     1       1.394  24.416  78.402  1.00  0.00     0.151 C 
BRANCH  14  15
ATOM     15  C   UNL     1       2.431  24.674  79.463  1.00  0.00    -0.025 A 
ATOM     16  C   UNL     1       3.670  24.018  79.410  1.00  0.00     0.056 A 
ATOM     17  C   UNL     1       2.158  25.546  80.528  1.00  0.00     0.009 A 
ATOM     18  C   UNL     1       4.640  24.234  80.409  1.00  0.00     0.160 A 
ATOM     19  C   UNL     1       3.115  25.764  81.520  1.00  0.00     0.050 A 
ATOM     20  C   UNL     1       4.352  25.115  81.467  1.00  0.00     0.157 A 
BRANCH  18  21
ATOM     21  O   UNL     1       5.891  23.598  80.381  1.00  0.00    -0.493 OA
ATOM     22  C   UNL     1       7.044  24.112  79.725  1.00  0.00     0.278 C 
ENDBRANCH  18  21
BRANCH  20  23
ATOM     23  O   UNL     1       5.283  25.358  82.477  1.00  0.00    -0.504 OA
ATOM     24  H   UNL     1       6.135  24.816  82.568  1.00  0.00     0.293 HD
ENDBRANCH  20  23
ENDBRANCH  14  15
ENDBRANCH  12  14
ENDBRANCH   9  10
ENDBRANCH   1   9
TORSDOF 10
ENDMDL
MODEL 7
REMARK VINA RESULT:    -6.746      1.651      2.303
REMARK INTER + INTRA:         -11.369
REMARK INTER:                 -10.323
REMARK INTRA:                  -1.046
REMARK UNBOUND:                -0.877
REMARK SMILES COc1cc(CNC(=O)CCCCC=CC(C)C)ccc1O
REMARK SMILES IDX 11 1 12 2 13 3 14 4 15 5 16 6 17 7 18 8 10 9 8 10 9 11 7 12
REMARK SMILES IDX 6 14 5 15 4 16 19 17 3 18 20 19 21 20 2 21 1 22 22 23
REMARK H PARENT 7 13 22 24
REMARK Flexibility Score: inf
ROOT
ATOM      1  C   UNL     1       2.087  24.389  78.255  1.00  0.00     0.010 C 
ENDROOT
BRANCH   1   2
ATOM      2  C   UNL     1       3.363  23.876  77.569  1.00  0.00     0.005 C 
BRANCH   2   3
ATOM      3  C   UNL     1       4.199  25.016  76.970  1.00  0.00     0.027 C 
BRANCH   3   4
ATOM      4  C   UNL     1       5.545  25.108  77.636  1.00  0.00    -0.031 C 
ATOM      5  C   UNL     1       5.644  25.457  78.927  1.00  0.00    -0.028 C 
BRANCH   5   6
ATOM      6  C   UNL     1       6.969  25.572  79.647  1.00  0.00     0.005 C 
ATOM      7  C   UNL     1       8.047  24.709  78.979  1.00  0.00     0.012 C 
ATOM      8  C   UNL     1       6.826  25.228  81.135  1.00  0.00     0.012 C 
ENDBRANCH   5   6
ENDBRANCH   3   4
ENDBRANCH   2   3
ENDBRANCH   1   2
BRANCH   1   9
ATOM      9  C   UNL     1       2.212  24.399  79.784  1.00  0.00     0.100 C 
BRANCH   9  10
ATOM     10  C   UNL     1       2.266  25.808  80.294  1.00  0.00     0.220 C 
ATOM     11  O   UNL     1       2.435  26.014  81.527  1.00  0.00    -0.275 OA
ATOM     12  N   UNL     1       2.083  26.911  79.391  1.00  0.00    -0.352 N 
ATOM     13  H   UNL     1       1.912  26.717  78.378  1.00  0.00     0.163 HD
BRANCH  12  14
ATOM     14  C   UNL     1       2.132  28.302  79.834  1.00  0.00     0.151 C 
BRANCH  14  15
ATOM     15  C   UNL     1       1.808  29.227  78.691  1.00  0.00    -0.025 A 
ATOM     16  C   UNL     1       1.498  30.572  78.942  1.00  0.00     0.056 A 
ATOM     17  C   UNL     1       1.782  28.749  77.373  1.00  0.00     0.009 A 
ATOM     18  C   UNL     1       1.171  31.443  77.883  1.00  0.00     0.160 A 
ATOM     19  C   UNL     1       1.460  29.606  76.320  1.00  0.00     0.050 A 
ATOM     20  C   UNL     1       1.155  30.947  76.567  1.00  0.00     0.157 A 
BRANCH  18  21
ATOM     21  O   UNL     1       0.862  32.794  78.101  1.00  0.00    -0.493 OA
ATOM     22  C   UNL     1       1.769  33.873  77.899  1.00  0.00     0.278 C 
ENDBRANCH  18  21
BRANCH  20  23
ATOM     23  O   UNL     1       0.837  31.774  75.489  1.00  0.00    -0.504 OA
ATOM     24  H   UNL     1       1.397  31.801  74.646  1.00  0.00     0.293 HD
ENDBRANCH  20  23
ENDBRANCH  14  15
ENDBRANCH  12  14
ENDBRANCH   9  10
ENDBRANCH   1   9
TORSDOF 10
ENDMDL
MODEL 8
REMARK VINA RESULT:    -6.745      1.791      2.719
REMARK INTER + INTRA:         -11.368
REMARK INTER:                 -10.136
REMARK INTRA:                  -1.232
REMARK UNBOUND:                -0.877
REMARK SMILES COc1cc(CNC(=O)CCCCC=CC(C)C)ccc1O
REMARK SMILES IDX 11 1 12 2 13 3 14 4 15 5 16 6 17 7 18 8 10 9 8 10 9 11 7 12
REMARK SMILES IDX 6 14 5 15 4 16 19 17 3 18 20 19 21 20 2 21 1 22 22 23
REMARK H PARENT 7 13 22 24
REMARK Flexibility Score: inf
ROOT
ATOM      1  C   UNL     1       0.782  24.284  79.142  1.00  0.00     0.010 C 
ENDROOT
BRANCH   1   2
ATOM      2  C   UNL     1       1.732  24.237  80.350  1.00  0.00     0.005 C 
BRANCH   2   3
ATOM      3  C   UNL     1       2.309  25.619  80.688  1.00  0.00     0.027 C 
BRANCH   3   4
ATOM      4  C   UNL     1       3.763  25.706  80.312  1.00  0.00    -0.031 C 
ATOM      5  C   UNL     1       4.712  25.274  81.155  1.00  0.00    -0.028 C 
BRANCH   5   6
ATOM      6  C   UNL     1       6.188  25.341  80.833  1.00  0.00     0.005 C 
ATOM      7  C   UNL     1       6.650  24.103  80.054  1.00  0.00     0.012 C 
ATOM      8  C   UNL     1       7.027  25.544  82.101  1.00  0.00     0.012 C 
ENDBRANCH   5   6
ENDBRANCH   3   4
ENDBRANCH   2   3
ENDBRANCH   1   2
BRANCH   1   9
ATOM      9  C   UNL     1       1.437  23.744  77.865  1.00  0.00     0.100 C 
BRANCH   9  10
ATOM     10  C   UNL     1       1.748  24.868  76.923  1.00  0.00     0.220 C 
ATOM     11  O   UNL     1       2.700  24.745  76.105  1.00  0.00    -0.275 OA
ATOM     12  N   UNL     1       0.994  26.089  76.982  1.00  0.00    -0.352 N 
ATOM     13  H   UNL     1       0.230  26.183  77.689  1.00  0.00     0.163 HD
BRANCH  12  14
ATOM     14  C   UNL     1       1.250  27.212  76.084  1.00  0.00     0.151 C 
BRANCH  14  15
ATOM     15  C   UNL     1       1.616  28.441  76.874  1.00  0.00    -0.025 A 
ATOM     16  C   UNL     1       1.188  29.706  76.443  1.00  0.00     0.056 A 
ATOM     17  C   UNL     1       2.409  28.338  78.025  1.00  0.00     0.009 A 
ATOM     18  C   UNL     1       1.541  30.866  77.161  1.00  0.00     0.160 A 
ATOM     19  C   UNL     1       2.762  29.483  78.741  1.00  0.00     0.050 A 
ATOM     20  C   UNL     1       2.334  30.744  78.316  1.00  0.00     0.157 A 
BRANCH  18  21
ATOM     21  O   UNL     1       1.125  32.145  76.759  1.00  0.00    -0.493 OA
ATOM     22  C   UNL     1      -0.035  32.808  77.251  1.00  0.00     0.278 C 
ENDBRANCH  18  21
BRANCH  20  23
ATOM     23  O   UNL     1       2.707  31.865  79.057  1.00  0.00    -0.504 OA
ATOM     24  H   UNL     1       2.450  32.805  78.779  1.00  0.00     0.293 HD
ENDBRANCH  20  23
ENDBRANCH  14  15
ENDBRANCH  12  14
ENDBRANCH   9  10
ENDBRANCH   1   9
TORSDOF 10
ENDMDL
MODEL 9
REMARK VINA RESULT:    -6.725      2.871      8.511
REMARK INTER + INTRA:         -11.337
REMARK INTER:                 -10.431
REMARK INTRA:                  -0.906
REMARK UNBOUND:                -0.877
REMARK SMILES COc1cc(CNC(=O)CCCCC=CC(C)C)ccc1O
REMARK SMILES IDX 11 1 12 2 13 3 14 4 15 5 16 6 17 7 18 8 10 9 8 10 9 11 7 12
REMARK SMILES IDX 6 14 5 15 4 16 19 17 3 18 20 19 21 20 2 21 1 22 22 23
REMARK H PARENT 7 13 22 24
REMARK Flexibility Score: inf
ROOT
ATOM      1  C   UNL     1       3.155  28.632  77.323  1.00  0.00     0.010 C 
ENDROOT
BRANCH   1   2
ATOM      2  C   UNL     1       3.062  29.939  78.127  1.00  0.00     0.005 C 
BRANCH   2   3
ATOM      3  C   UNL     1       1.807  29.990  79.010  1.00  0.00     0.027 C 
BRANCH   3   4
ATOM      4  C   UNL     1       1.049  31.273  78.800  1.00  0.00    -0.031 C 
ATOM      5  C   UNL     1       1.566  32.255  78.046  1.00  0.00    -0.028 C 
BRANCH   5   6
ATOM      6  C   UNL     1       0.853  33.566  77.804  1.00  0.00     0.005 C 
ATOM      7  C   UNL     1       0.050  33.536  76.498  1.00  0.00     0.012 C 
ATOM      8  C   UNL     1       1.833  34.745  77.827  1.00  0.00     0.012 C 
ENDBRANCH   5   6
ENDBRANCH   3   4
ENDBRANCH   2   3
ENDBRANCH   1   2
BRANCH   1   9
ATOM      9  C   UNL     1       1.912  27.751  77.500  1.00  0.00     0.100 C 
BRANCH   9  10
ATOM     10  C   UNL     1       2.281  26.457  78.162  1.00  0.00     0.220 C 
ATOM     11  O   UNL     1       2.398  25.415  77.461  1.00  0.00    -0.275 OA
ATOM     12  N   UNL     1       2.455  26.398  79.586  1.00  0.00    -0.352 N 
ATOM     13  H   UNL     1       2.320  27.266  80.153  1.00  0.00     0.163 HD
BRANCH  12  14
ATOM     14  C   UNL     1       2.819  25.165  80.280  1.00  0.00     0.151 C 
BRANCH  14  15
ATOM     15  C   UNL     1       4.240  25.241  80.772  1.00  0.00    -0.025 A 
ATOM     16  C   UNL     1       5.304  25.172  79.860  1.00  0.00     0.056 A 
ATOM     17  C   UNL     1       4.514  25.348  82.143  1.00  0.00     0.009 A 
ATOM     18  C   UNL     1       6.639  25.219  80.309  1.00  0.00     0.160 A 
ATOM     19  C   UNL     1       5.834  25.396  82.594  1.00  0.00     0.050 A 
ATOM     20  C   UNL     1       6.896  25.332  81.687  1.00  0.00     0.157 A 
BRANCH  18  21
ATOM     21  O   UNL     1       7.724  25.159  79.422  1.00  0.00    -0.493 OA
ATOM     22  C   UNL     1       8.286  23.954  78.913  1.00  0.00     0.278 C 
ENDBRANCH  18  21
BRANCH  20  23
ATOM     23  O   UNL     1       8.201  25.382  82.176  1.00  0.00    -0.504 OA
ATOM     24  H   UNL     1       8.912  25.970  81.757  1.00  0.00     0.293 HD
ENDBRANCH  20  23
ENDBRANCH  14  15
ENDBRANCH  12  14
ENDBRANCH   9  10
ENDBRANCH   1   9
TORSDOF 10
ENDMDL
