MODEL 1
REMARK VINA RESULT:    51.856      0.000      0.000
REMARK INTER + INTRA:          65.472
REMARK INTER:                  65.498
REMARK INTRA:                  -0.026
REMARK UNBOUND:                -0.026
REMARK SMILES CC(C)[C@@H](C)C=C[C@H](C)[C@@H]1CC[C@@H]2C3=CC=C4C[C@@H](O)CC[C@@]4(C)[C@H]3CC[C@]21C
REMARK SMILES IDX 8 1 9 2 7 3 6 4 4 5 5 6 2 7 1 8 3 9 10 10 11 11 28 12 12 13
REMARK SMILES IDX 13 14 27 15 29 16 14 17 26 18 25 19 15 20 23 21 16 22 17 23
REMARK SMILES IDX 22 24 24 25 18 26 21 27 19 28 20 29
REMARK H PARENT 20 30
REMARK Flexibility Score: inf
ROOT
ATOM      1  C   UNL     1     -28.432  32.513  -2.062  1.00  0.00     0.012 C 
ATOM      2  C   UNL     1     -28.901  33.908  -2.516  1.00  0.00     0.012 C 
ENDROOT
BRANCH   1   3
ATOM      3  C   UNL     1     -29.357  32.013  -0.964  1.00  0.00    -0.028 C 
ATOM      4  C   UNL     1     -30.559  31.432  -1.156  1.00  0.00    -0.028 C 
BRANCH   4   5
ATOM      5  C   UNL     1     -31.247  31.250  -2.499  1.00  0.00     0.011 C 
ATOM      6  C   UNL     1     -31.596  32.625  -3.097  1.00  0.00     0.012 C 
BRANCH   5   7
ATOM      7  C   UNL     1     -32.482  30.303  -2.368  1.00  0.00    -0.011 C 
ATOM      8  C   UNL     1     -32.072  28.823  -2.404  1.00  0.00     0.008 C 
ATOM      9  C   UNL     1     -33.582  30.568  -3.412  1.00  0.00     0.008 C 
ENDBRANCH   5   7
ENDBRANCH   4   5
ENDBRANCH   1   3
BRANCH   1  10
ATOM     10  C   UNL     1     -28.163  31.455  -3.208  1.00  0.00     0.002 C 
ATOM     11  C   UNL     1     -27.702  30.047  -2.735  1.00  0.00     0.005 C 
ATOM     12  C   UNL     1     -27.207  31.762  -4.405  1.00  0.00    -0.023 C 
ATOM     13  C   UNL     1     -27.004  29.380  -3.935  1.00  0.00     0.009 C 
ATOM     14  C   UNL     1     -27.194  30.374  -5.073  1.00  0.00     0.021 C 
ATOM     15  C   UNL     1     -27.749  32.766  -5.477  1.00  0.00     0.008 C 
ATOM     16  C   UNL     1     -25.786  32.178  -3.887  1.00  0.00     0.012 C 
ATOM     17  C   UNL     1     -26.308  30.289  -6.298  1.00  0.00    -0.063 C 
ATOM     18  C   UNL     1     -27.155  32.558  -6.915  1.00  0.00     0.009 C 
ATOM     19  C   UNL     1     -25.920  31.605  -6.971  1.00  0.00     0.025 C 
ATOM     20  C   UNL     1     -26.285  29.132  -6.972  1.00  0.00    -0.000 C 
ATOM     21  C   UNL     1     -25.177  31.427  -8.370  1.00  0.00    -0.005 C 
ATOM     22  C   UNL     1     -25.962  29.067  -8.396  1.00  0.00    -0.000 C 
ATOM     23  C   UNL     1     -25.585  30.144  -9.095  1.00  0.00    -0.061 C 
ATOM     24  C   UNL     1     -25.422  32.648  -9.309  1.00  0.00     0.014 C 
ATOM     25  C   UNL     1     -23.654  31.312  -8.078  1.00  0.00     0.017 C 
ATOM     26  C   UNL     1     -25.214  29.956 -10.554  1.00  0.00     0.063 C 
ATOM     27  C   UNL     1     -24.870  32.457 -10.729  1.00  0.00     0.033 C 
ATOM     28  C   UNL     1     -25.472  31.214 -11.395  1.00  0.00     0.118 C 
BRANCH  28  29
ATOM     29  O   UNL     1     -26.855  31.394 -11.578  1.00  0.00    -0.393 OA
ATOM     30  H   UNL     1     -27.284  30.515 -11.411  1.00  0.00     0.210 HD
ENDBRANCH  28  29
ENDBRANCH   1  10
TORSDOF 5
ENDMDL
MODEL 2
REMARK VINA RESULT:    54.767      0.926      1.861
REMARK INTER + INTRA:          69.148
REMARK INTER:                  69.493
REMARK INTRA:                  -0.345
REMARK UNBOUND:                -0.026
REMARK SMILES CC(C)[C@@H](C)C=C[C@H](C)[C@@H]1CC[C@@H]2C3=CC=C4C[C@@H](O)CC[C@@]4(C)[C@H]3CC[C@]21C
REMARK SMILES IDX 8 1 9 2 7 3 6 4 4 5 5 6 2 7 1 8 3 9 10 10 11 11 28 12 12 13
REMARK SMILES IDX 13 14 27 15 29 16 14 17 26 18 25 19 15 20 23 21 16 22 17 23
REMARK SMILES IDX 22 24 24 25 18 26 21 27 19 28 20 29
REMARK H PARENT 20 30
REMARK Flexibility Score: inf
ROOT
ATOM      1  C   UNL     1     -28.087  33.340  -2.578  1.00  0.00     0.012 C 
ATOM      2  C   UNL     1     -27.166  34.560  -2.771  1.00  0.00     0.012 C 
ENDROOT
BRANCH   1   3
ATOM      3  C   UNL     1     -29.527  33.817  -2.492  1.00  0.00    -0.028 C 
ATOM      4  C   UNL     1     -30.556  33.114  -1.975  1.00  0.00    -0.028 C 
BRANCH   4   5
ATOM      5  C   UNL     1     -30.479  31.685  -1.464  1.00  0.00     0.011 C 
ATOM      6  C   UNL     1     -31.632  30.855  -2.059  1.00  0.00     0.012 C 
BRANCH   5   7
ATOM      7  C   UNL     1     -30.440  31.654   0.096  1.00  0.00    -0.011 C 
ATOM      8  C   UNL     1     -29.684  32.862   0.671  1.00  0.00     0.008 C 
ATOM      9  C   UNL     1     -29.864  30.350   0.679  1.00  0.00     0.008 C 
ENDBRANCH   5   7
ENDBRANCH   4   5
ENDBRANCH   1   3
BRANCH   1  10
ATOM     10  C   UNL     1     -27.867  32.130  -3.574  1.00  0.00     0.002 C 
ATOM     11  C   UNL     1     -27.408  30.794  -2.924  1.00  0.00     0.005 C 
ATOM     12  C   UNL     1     -26.947  32.252  -4.830  1.00  0.00    -0.023 C 
ATOM     13  C   UNL     1     -26.758  29.955  -4.040  1.00  0.00     0.009 C 
ATOM     14  C   UNL     1     -26.971  30.785  -5.299  1.00  0.00     0.021 C 
ATOM     15  C   UNL     1     -27.510  33.106  -6.015  1.00  0.00     0.008 C 
ATOM     16  C   UNL     1     -25.505  32.712  -4.418  1.00  0.00     0.012 C 
ATOM     17  C   UNL     1     -26.126  30.517  -6.526  1.00  0.00    -0.063 C 
ATOM     18  C   UNL     1     -26.965  32.692  -7.427  1.00  0.00     0.009 C 
ATOM     19  C   UNL     1     -25.744  31.720  -7.387  1.00  0.00     0.025 C 
ATOM     20  C   UNL     1     -26.140  29.277  -7.033  1.00  0.00    -0.000 C 
ATOM     21  C   UNL     1     -25.048  31.337  -8.769  1.00  0.00    -0.005 C 
ATOM     22  C   UNL     1     -25.863  29.010  -8.444  1.00  0.00    -0.000 C 
ATOM     23  C   UNL     1     -25.495  29.974  -9.296  1.00  0.00    -0.061 C 
ATOM     24  C   UNL     1     -25.309  32.420  -9.861  1.00  0.00     0.014 C 
ATOM     25  C   UNL     1     -23.518  31.239  -8.510  1.00  0.00     0.017 C 
ATOM     26  C   UNL     1     -25.173  29.579 -10.726  1.00  0.00     0.063 C 
ATOM     27  C   UNL     1     -24.805  32.026 -11.257  1.00  0.00     0.033 C 
ATOM     28  C   UNL     1     -25.443  30.712 -11.725  1.00  0.00     0.118 C 
BRANCH  28  29
ATOM     29  O   UNL     1     -26.829  30.888 -11.890  1.00  0.00    -0.393 OA
ATOM     30  H   UNL     1     -27.150  31.402 -11.104  1.00  0.00     0.210 HD
ENDBRANCH  28  29
ENDBRANCH   1  10
TORSDOF 5
ENDMDL
