MODEL 1
REMARK VINA RESULT:    -5.568      0.000      0.000
REMARK INTER + INTRA:          -7.041
REMARK INTER:                  -6.707
REMARK INTRA:                  -0.335
REMARK UNBOUND:                -0.335
REMARK SMILES O=c1c(O)c(-c2ccc(O)c(O)c2)oc2cc(O)cc(O)c12
REMARK SMILES IDX 5 1 3 2 2 3 1 4 22 5 20 6 19 7 17 8 16 9 15 10 14 11 6 12
REMARK SMILES IDX 7 13 8 14 9 15 13 16 11 17 10 18 12 20 4 22 21 24 18 26
REMARK H PARENT 10 19 12 21 4 23 21 25 18 27
REMARK Flexibility Score: inf
ROOT
ATOM      1  C   UNL     1      36.240 183.097 171.741  1.00  0.00     0.180 A 
ATOM      2  C   UNL     1      36.119 184.360 172.347  1.00  0.00     0.208 A 
ATOM      3  C   UNL     1      37.282 185.046 172.732  1.00  0.00     0.238 A 
ATOM      4  O   UNL     1      37.169 186.198 173.224  1.00  0.00    -0.285 OA
ATOM      5  C   UNL     1      38.551 184.454 172.522  1.00  0.00     0.111 A 
ATOM      6  C   UNL     1      39.793 185.042 172.909  1.00  0.00     0.134 A 
ATOM      7  C   UNL     1      40.994 184.426 172.534  1.00  0.00     0.093 A 
ATOM      8  C   UNL     1      40.997 183.213 171.842  1.00  0.00     0.123 A 
ATOM      9  C   UNL     1      39.789 182.602 171.512  1.00  0.00     0.094 A 
ATOM     10  C   UNL     1      38.575 183.209 171.840  1.00  0.00     0.146 A 
ATOM     11  O   UNL     1      37.448 182.598 171.497  1.00  0.00    -0.452 OA
ENDROOT
BRANCH   1  12
ATOM     12  C   UNL     1      35.061 182.303 171.331  1.00  0.00     0.025 A 
ATOM     13  C   UNL     1      34.581 182.407 170.016  1.00  0.00     0.016 A 
ATOM     14  C   UNL     1      33.481 181.651 169.601  1.00  0.00     0.051 A 
ATOM     15  C   UNL     1      32.855 180.770 170.488  1.00  0.00     0.157 A 
ATOM     16  C   UNL     1      34.442 181.401 172.215  1.00  0.00     0.062 A 
ATOM     17  C   UNL     1      33.338 180.640 171.800  1.00  0.00     0.158 A 
BRANCH  15  18
ATOM     18  O   UNL     1      31.758 180.030 170.047  1.00  0.00    -0.504 OA
ATOM     19  H   UNL     1      30.855 180.083 170.503  1.00  0.00     0.293 HD
ENDBRANCH  15  18
BRANCH  17  20
ATOM     20  O   UNL     1      32.727 179.753 172.685  1.00  0.00    -0.504 OA
ATOM     21  H   UNL     1      32.811 178.750 172.573  1.00  0.00     0.293 HD
ENDBRANCH  17  20
ENDBRANCH   1  12
BRANCH   2  22
ATOM     22  O   UNL     1      34.858 184.935 172.525  1.00  0.00    -0.502 OA
ATOM     23  H   UNL     1      34.634 185.520 173.320  1.00  0.00     0.293 HD
ENDBRANCH   2  22
BRANCH   6  24
ATOM     24  O   UNL     1      39.900 186.202 173.681  1.00  0.00    -0.507 OA
ATOM     25  H   UNL     1      39.959 186.219 174.688  1.00  0.00     0.293 HD
ENDBRANCH   6  24
BRANCH   8  26
ATOM     26  O   UNL     1      42.196 182.601 171.487  1.00  0.00    -0.508 OA
ATOM     27  H   UNL     1      42.685 181.981 172.124  1.00  0.00     0.293 HD
ENDBRANCH   8  26
TORSDOF 6
ENDMDL
MODEL 2
REMARK VINA RESULT:    -5.494      1.583      6.999
REMARK INTER + INTRA:          -6.953
REMARK INTER:                  -6.628
REMARK INTRA:                  -0.325
REMARK UNBOUND:                -0.335
REMARK SMILES O=c1c(O)c(-c2ccc(O)c(O)c2)oc2cc(O)cc(O)c12
REMARK SMILES IDX 5 1 3 2 2 3 1 4 22 5 20 6 19 7 17 8 16 9 15 10 14 11 6 12
REMARK SMILES IDX 7 13 8 14 9 15 13 16 11 17 10 18 12 20 4 22 21 24 18 26
REMARK H PARENT 10 19 12 21 4 23 21 25 18 27
REMARK Flexibility Score: inf
ROOT
ATOM      1  C   UNL     1      36.500 182.632 171.530  1.00  0.00     0.180 A 
ATOM      2  C   UNL     1      35.714 182.912 170.398  1.00  0.00     0.208 A 
ATOM      3  C   UNL     1      34.558 182.150 170.166  1.00  0.00     0.238 A 
ATOM      4  O   UNL     1      33.830 182.441 169.182  1.00  0.00    -0.285 OA
ATOM      5  C   UNL     1      34.210 181.107 171.058  1.00  0.00     0.111 A 
ATOM      6  C   UNL     1      33.083 180.247 170.898  1.00  0.00     0.134 A 
ATOM      7  C   UNL     1      32.762 179.334 171.911  1.00  0.00     0.093 A 
ATOM      8  C   UNL     1      33.564 179.208 173.048  1.00  0.00     0.123 A 
ATOM      9  C   UNL     1      34.700 180.002 173.184  1.00  0.00     0.094 A 
ATOM     10  C   UNL     1      35.026 180.946 172.209  1.00  0.00     0.146 A 
ATOM     11  O   UNL     1      36.111 181.690 172.384  1.00  0.00    -0.452 OA
ENDROOT
BRANCH   1  12
ATOM     12  C   UNL     1      37.745 183.374 171.829  1.00  0.00     0.025 A 
ATOM     13  C   UNL     1      37.719 184.419 172.765  1.00  0.00     0.016 A 
ATOM     14  C   UNL     1      38.887 185.120 173.078  1.00  0.00     0.051 A 
ATOM     15  C   UNL     1      40.100 184.777 172.471  1.00  0.00     0.157 A 
ATOM     16  C   UNL     1      38.970 183.018 171.236  1.00  0.00     0.062 A 
ATOM     17  C   UNL     1      40.144 183.719 171.549  1.00  0.00     0.158 A 
BRANCH  15  18
ATOM     18  O   UNL     1      41.249 185.496 172.801  1.00  0.00    -0.504 OA
ATOM     19  H   UNL     1      41.413 186.435 172.457  1.00  0.00     0.293 HD
ENDBRANCH  15  18
BRANCH  17  20
ATOM     20  O   UNL     1      41.352 183.364 170.952  1.00  0.00    -0.504 OA
ATOM     21  H   UNL     1      41.791 182.468 171.133  1.00  0.00     0.293 HD
ENDBRANCH  17  20
ENDBRANCH   1  12
BRANCH   2  22
ATOM     22  O   UNL     1      36.064 183.960 169.543  1.00  0.00    -0.502 OA
ATOM     23  H   UNL     1      36.819 184.603 169.750  1.00  0.00     0.293 HD
ENDBRANCH   2  22
BRANCH   6  24
ATOM     24  O   UNL     1      32.271 180.227 169.760  1.00  0.00    -0.507 OA
ATOM     25  H   UNL     1      31.802 181.033 169.375  1.00  0.00     0.293 HD
ENDBRANCH   6  24
BRANCH   8  26
ATOM     26  O   UNL     1      33.246 178.286 174.043  1.00  0.00    -0.508 OA
ATOM     27  H   UNL     1      33.817 177.465 174.208  1.00  0.00     0.293 HD
ENDBRANCH   8  26
TORSDOF 6
ENDMDL
MODEL 3
REMARK VINA RESULT:    -5.396      0.608      1.414
REMARK INTER + INTRA:          -6.834
REMARK INTER:                  -6.517
REMARK INTRA:                  -0.317
REMARK UNBOUND:                -0.335
REMARK SMILES O=c1c(O)c(-c2ccc(O)c(O)c2)oc2cc(O)cc(O)c12
REMARK SMILES IDX 5 1 3 2 2 3 1 4 22 5 20 6 19 7 17 8 16 9 15 10 14 11 6 12
REMARK SMILES IDX 7 13 8 14 9 15 13 16 11 17 10 18 12 20 4 22 21 24 18 26
REMARK H PARENT 10 19 12 21 4 23 21 25 18 27
REMARK Flexibility Score: inf
ROOT
ATOM      1  C   UNL     1      36.231 183.142 171.895  1.00  0.00     0.180 A 
ATOM      2  C   UNL     1      36.140 184.480 172.315  1.00  0.00     0.208 A 
ATOM      3  C   UNL     1      37.320 185.203 172.551  1.00  0.00     0.238 A 
ATOM      4  O   UNL     1      37.232 186.415 172.874  1.00  0.00    -0.285 OA
ATOM      5  C   UNL     1      38.577 184.574 172.379  1.00  0.00     0.111 A 
ATOM      6  C   UNL     1      39.836 185.199 172.628  1.00  0.00     0.134 A 
ATOM      7  C   UNL     1      41.019 184.524 172.299  1.00  0.00     0.093 A 
ATOM      8  C   UNL     1      40.989 183.223 171.791  1.00  0.00     0.123 A 
ATOM      9  C   UNL     1      39.766 182.583 171.601  1.00  0.00     0.094 A 
ATOM     10  C   UNL     1      38.569 183.243 171.885  1.00  0.00     0.146 A 
ATOM     11  O   UNL     1      37.426 182.600 171.679  1.00  0.00    -0.452 OA
ENDROOT
BRANCH   1  12
ATOM     12  C   UNL     1      35.033 182.308 171.651  1.00  0.00     0.025 A 
ATOM     13  C   UNL     1      34.414 181.655 172.728  1.00  0.00     0.016 A 
ATOM     14  C   UNL     1      33.270 180.879 172.524  1.00  0.00     0.051 A 
ATOM     15  C   UNL     1      32.719 180.757 171.245  1.00  0.00     0.157 A 
ATOM     16  C   UNL     1      34.464 182.200 170.369  1.00  0.00     0.062 A 
ATOM     17  C   UNL     1      33.315 181.423 170.162  1.00  0.00     0.158 A 
BRANCH  15  18
ATOM     18  O   UNL     1      31.577 179.974 171.071  1.00  0.00    -0.504 OA
ATOM     19  H   UNL     1      31.567 179.169 170.457  1.00  0.00     0.293 HD
ENDBRANCH  15  18
BRANCH  17  20
ATOM     20  O   UNL     1      32.762 181.317 168.887  1.00  0.00    -0.504 OA
ATOM     21  H   UNL     1      32.281 180.477 168.585  1.00  0.00     0.293 HD
ENDBRANCH  17  20
ENDBRANCH   1  12
BRANCH   2  22
ATOM     22  O   UNL     1      34.890 185.087 172.457  1.00  0.00    -0.502 OA
ATOM     23  H   UNL     1      34.300 185.310 171.665  1.00  0.00     0.293 HD
ENDBRANCH   2  22
BRANCH   6  24
ATOM     24  O   UNL     1      39.980 186.458 173.218  1.00  0.00    -0.507 OA
ATOM     25  H   UNL     1      39.429 187.269 172.982  1.00  0.00     0.293 HD
ENDBRANCH   6  24
BRANCH   8  26
ATOM     26  O   UNL     1      42.170 182.554 171.482  1.00  0.00    -0.508 OA
ATOM     27  H   UNL     1      43.056 182.823 171.894  1.00  0.00     0.293 HD
ENDBRANCH   8  26
TORSDOF 6
ENDMDL
MODEL 4
REMARK VINA RESULT:    -5.300      2.269      6.940
REMARK INTER + INTRA:          -6.719
REMARK INTER:                  -6.491
REMARK INTRA:                  -0.228
REMARK UNBOUND:                -0.335
REMARK SMILES O=c1c(O)c(-c2ccc(O)c(O)c2)oc2cc(O)cc(O)c12
REMARK SMILES IDX 5 1 3 2 2 3 1 4 22 5 20 6 19 7 17 8 16 9 15 10 14 11 6 12
REMARK SMILES IDX 7 13 8 14 9 15 13 16 11 17 10 18 12 20 4 22 21 24 18 26
REMARK H PARENT 10 19 12 21 4 23 21 25 18 27
REMARK Flexibility Score: inf
ROOT
ATOM      1  C   UNL     1      38.348 182.373 172.272  1.00  0.00     0.180 A 
ATOM      2  C   UNL     1      38.003 183.100 171.119  1.00  0.00     0.208 A 
ATOM      3  C   UNL     1      36.655 183.167 170.734  1.00  0.00     0.238 A 
ATOM      4  O   UNL     1      36.346 183.863 169.732  1.00  0.00    -0.285 OA
ATOM      5  C   UNL     1      35.670 182.493 171.497  1.00  0.00     0.111 A 
ATOM      6  C   UNL     1      34.280 182.460 171.176  1.00  0.00     0.134 A 
ATOM      7  C   UNL     1      33.379 181.872 172.073  1.00  0.00     0.093 A 
ATOM      8  C   UNL     1      33.825 181.260 173.247  1.00  0.00     0.123 A 
ATOM      9  C   UNL     1      35.187 181.235 173.538  1.00  0.00     0.094 A 
ATOM     10  C   UNL     1      36.106 181.844 172.682  1.00  0.00     0.146 A 
ATOM     11  O   UNL     1      37.394 181.807 173.003  1.00  0.00    -0.452 OA
ENDROOT
BRANCH   1  12
ATOM     12  C   UNL     1      39.750 182.236 172.727  1.00  0.00     0.025 A 
ATOM     13  C   UNL     1      40.397 183.336 173.313  1.00  0.00     0.016 A 
ATOM     14  C   UNL     1      41.713 183.223 173.769  1.00  0.00     0.051 A 
ATOM     15  C   UNL     1      42.397 182.008 173.659  1.00  0.00     0.157 A 
ATOM     16  C   UNL     1      40.433 181.010 172.637  1.00  0.00     0.062 A 
ATOM     17  C   UNL     1      41.754 180.894 173.095  1.00  0.00     0.158 A 
BRANCH  15  18
ATOM     18  O   UNL     1      43.711 181.926 174.120  1.00  0.00    -0.504 OA
ATOM     19  H   UNL     1      44.329 182.728 174.128  1.00  0.00     0.293 HD
ENDBRANCH  15  18
BRANCH  17  20
ATOM     20  O   UNL     1      42.425 179.677 172.995  1.00  0.00    -0.504 OA
ATOM     21  H   UNL     1      43.024 179.463 172.206  1.00  0.00     0.293 HD
ENDBRANCH  17  20
ENDBRANCH   1  12
BRANCH   2  22
ATOM     22  O   UNL     1      38.988 183.775 170.394  1.00  0.00    -0.502 OA
ATOM     23  H   UNL     1      39.631 184.427 170.826  1.00  0.00     0.293 HD
ENDBRANCH   2  22
BRANCH   6  24
ATOM     24  O   UNL     1      33.740 182.959 169.987  1.00  0.00    -0.507 OA
ATOM     25  H   UNL     1      33.639 183.939 169.769  1.00  0.00     0.293 HD
ENDBRANCH   6  24
BRANCH   8  26
ATOM     26  O   UNL     1      32.923 180.664 174.125  1.00  0.00    -0.508 OA
ATOM     27  H   UNL     1      32.439 179.806 173.887  1.00  0.00     0.293 HD
ENDBRANCH   8  26
TORSDOF 6
ENDMDL
MODEL 5
REMARK VINA RESULT:    -4.934      2.301      6.572
REMARK INTER + INTRA:          -6.278
REMARK INTER:                  -6.104
REMARK INTRA:                  -0.174
REMARK UNBOUND:                -0.335
REMARK SMILES O=c1c(O)c(-c2ccc(O)c(O)c2)oc2cc(O)cc(O)c12
REMARK SMILES IDX 5 1 3 2 2 3 1 4 22 5 20 6 19 7 17 8 16 9 15 10 14 11 6 12
REMARK SMILES IDX 7 13 8 14 9 15 13 16 11 17 10 18 12 20 4 22 21 24 18 26
REMARK H PARENT 10 19 12 21 4 23 21 25 18 27
REMARK Flexibility Score: inf
ROOT
ATOM      1  C   UNL     1      39.007 183.299 173.311  1.00  0.00     0.180 A 
ATOM      2  C   UNL     1      39.169 184.661 173.619  1.00  0.00     0.208 A 
ATOM      3  C   UNL     1      38.041 185.498 173.622  1.00  0.00     0.238 A 
ATOM      4  O   UNL     1      38.185 186.704 173.951  1.00  0.00    -0.285 OA
ATOM      5  C   UNL     1      36.769 184.966 173.302  1.00  0.00     0.111 A 
ATOM      6  C   UNL     1      35.565 185.731 173.236  1.00  0.00     0.134 A 
ATOM      7  C   UNL     1      34.342 185.076 173.037  1.00  0.00     0.093 A 
ATOM      8  C   UNL     1      34.288 183.695 172.839  1.00  0.00     0.123 A 
ATOM      9  C   UNL     1      35.464 182.949 172.842  1.00  0.00     0.094 A 
ATOM     10  C   UNL     1      36.694 183.567 173.073  1.00  0.00     0.146 A 
ATOM     11  O   UNL     1      37.790 182.817 173.079  1.00  0.00    -0.452 OA
ENDROOT
BRANCH   1  12
ATOM     12  C   UNL     1      40.150 182.360 173.262  1.00  0.00     0.025 A 
ATOM     13  C   UNL     1      40.171 181.252 174.124  1.00  0.00     0.016 A 
ATOM     14  C   UNL     1      41.230 180.341 174.081  1.00  0.00     0.051 A 
ATOM     15  C   UNL     1      42.275 180.516 173.168  1.00  0.00     0.157 A 
ATOM     16  C   UNL     1      41.191 182.522 172.331  1.00  0.00     0.062 A 
ATOM     17  C   UNL     1      42.256 181.608 172.286  1.00  0.00     0.158 A 
BRANCH  15  18
ATOM     18  O   UNL     1      43.320 179.592 173.150  1.00  0.00    -0.504 OA
ATOM     19  H   UNL     1      43.337 178.787 173.764  1.00  0.00     0.293 HD
ENDBRANCH  15  18
BRANCH  17  20
ATOM     20  O   UNL     1      43.287 181.780 171.364  1.00  0.00    -0.504 OA
ATOM     21  H   UNL     1      43.377 181.181 170.551  1.00  0.00     0.293 HD
ENDBRANCH  17  20
ENDBRANCH   1  12
BRANCH   2  22
ATOM     22  O   UNL     1      40.430 185.160 173.953  1.00  0.00    -0.502 OA
ATOM     23  H   UNL     1      40.614 186.150 174.057  1.00  0.00     0.293 HD
ENDBRANCH   2  22
BRANCH   6  24
ATOM     24  O   UNL     1      35.519 187.125 173.328  1.00  0.00    -0.507 OA
ATOM     25  H   UNL     1      36.141 187.684 173.893  1.00  0.00     0.293 HD
ENDBRANCH   6  24
BRANCH   8  26
ATOM     26  O   UNL     1      33.069 183.056 172.627  1.00  0.00    -0.508 OA
ATOM     27  H   UNL     1      32.972 182.051 172.725  1.00  0.00     0.293 HD
ENDBRANCH   8  26
TORSDOF 6
ENDMDL
MODEL 6
REMARK VINA RESULT:    -4.838      1.993      6.817
REMARK INTER + INTRA:          -6.163
REMARK INTER:                  -5.909
REMARK INTRA:                  -0.254
REMARK UNBOUND:                -0.335
REMARK SMILES O=c1c(O)c(-c2ccc(O)c(O)c2)oc2cc(O)cc(O)c12
REMARK SMILES IDX 5 1 3 2 2 3 1 4 22 5 20 6 19 7 17 8 16 9 15 10 14 11 6 12
REMARK SMILES IDX 7 13 8 14 9 15 13 16 11 17 10 18 12 20 4 22 21 24 18 26
REMARK H PARENT 10 19 12 21 4 23 21 25 18 27
REMARK Flexibility Score: inf
ROOT
ATOM      1  C   UNL     1      35.903 182.266 172.110  1.00  0.00     0.180 A 
ATOM      2  C   UNL     1      35.125 182.935 173.072  1.00  0.00     0.208 A 
ATOM      3  C   UNL     1      33.777 182.577 173.226  1.00  0.00     0.238 A 
ATOM      4  O   UNL     1      33.101 183.142 174.125  1.00  0.00    -0.285 OA
ATOM      5  C   UNL     1      33.218 181.567 172.407  1.00  0.00     0.111 A 
ATOM      6  C   UNL     1      31.852 181.152 172.451  1.00  0.00     0.134 A 
ATOM      7  C   UNL     1      31.441 180.053 171.686  1.00  0.00     0.093 A 
ATOM      8  C   UNL     1      32.329 179.396 170.832  1.00  0.00     0.123 A 
ATOM      9  C   UNL     1      33.648 179.831 170.738  1.00  0.00     0.094 A 
ATOM     10  C   UNL     1      34.098 180.901 171.515  1.00  0.00     0.146 A 
ATOM     11  O   UNL     1      35.367 181.277 171.403  1.00  0.00    -0.452 OA
ENDROOT
BRANCH   1  12
ATOM     12  C   UNL     1      37.324 182.604 171.872  1.00  0.00     0.025 A 
ATOM     13  C   UNL     1      37.673 183.366 170.745  1.00  0.00     0.016 A 
ATOM     14  C   UNL     1      39.006 183.713 170.511  1.00  0.00     0.051 A 
ATOM     15  C   UNL     1      40.007 183.319 171.405  1.00  0.00     0.157 A 
ATOM     16  C   UNL     1      38.330 182.226 172.780  1.00  0.00     0.062 A 
ATOM     17  C   UNL     1      39.669 182.575 172.547  1.00  0.00     0.158 A 
BRANCH  15  18
ATOM     18  O   UNL     1      41.329 183.679 171.144  1.00  0.00    -0.504 OA
ATOM     19  H   UNL     1      41.752 183.547 170.233  1.00  0.00     0.293 HD
ENDBRANCH  15  18
BRANCH  17  20
ATOM     20  O   UNL     1      40.659 182.191 173.449  1.00  0.00    -0.504 OA
ATOM     21  H   UNL     1      41.506 182.734 173.570  1.00  0.00     0.293 HD
ENDBRANCH  17  20
ENDBRANCH   1  12
BRANCH   2  22
ATOM     22  O   UNL     1      35.703 183.914 173.884  1.00  0.00    -0.502 OA
ATOM     23  H   UNL     1      35.964 183.737 174.847  1.00  0.00     0.293 HD
ENDBRANCH   2  22
BRANCH   6  24
ATOM     24  O   UNL     1      30.863 181.797 173.199  1.00  0.00    -0.507 OA
ATOM     25  H   UNL     1      30.302 182.566 172.867  1.00  0.00     0.293 HD
ENDBRANCH   6  24
BRANCH   8  26
ATOM     26  O   UNL     1      31.906 178.314 170.063  1.00  0.00    -0.508 OA
ATOM     27  H   UNL     1      31.063 177.798 170.290  1.00  0.00     0.293 HD
ENDBRANCH   8  26
TORSDOF 6
ENDMDL
MODEL 7
REMARK VINA RESULT:    -4.754      4.615      9.034
REMARK INTER + INTRA:          -6.062
REMARK INTER:                  -5.774
REMARK INTRA:                  -0.287
REMARK UNBOUND:                -0.335
REMARK SMILES O=c1c(O)c(-c2ccc(O)c(O)c2)oc2cc(O)cc(O)c12
REMARK SMILES IDX 5 1 3 2 2 3 1 4 22 5 20 6 19 7 17 8 16 9 15 10 14 11 6 12
REMARK SMILES IDX 7 13 8 14 9 15 13 16 11 17 10 18 12 20 4 22 21 24 18 26
REMARK H PARENT 10 19 12 21 4 23 21 25 18 27
REMARK Flexibility Score: inf
ROOT
ATOM      1  C   UNL     1      32.671 178.134 171.157  1.00  0.00     0.180 A 
ATOM      2  C   UNL     1      31.522 177.666 170.496  1.00  0.00     0.208 A 
ATOM      3  C   UNL     1      31.312 176.282 170.391  1.00  0.00     0.238 A 
ATOM      4  O   UNL     1      30.255 175.870 169.847  1.00  0.00    -0.285 OA
ATOM      5  C   UNL     1      32.261 175.382 170.934  1.00  0.00     0.111 A 
ATOM      6  C   UNL     1      32.170 173.960 170.850  1.00  0.00     0.134 A 
ATOM      7  C   UNL     1      33.099 173.167 171.536  1.00  0.00     0.093 A 
ATOM      8  C   UNL     1      34.153 173.745 172.249  1.00  0.00     0.123 A 
ATOM      9  C   UNL     1      34.284 175.131 172.286  1.00  0.00     0.094 A 
ATOM     10  C   UNL     1      33.353 175.949 171.643  1.00  0.00     0.146 A 
ATOM     11  O   UNL     1      33.510 177.265 171.713  1.00  0.00    -0.452 OA
ENDROOT
BRANCH   1  12
ATOM     12  C   UNL     1      32.974 179.577 171.285  1.00  0.00     0.025 A 
ATOM     13  C   UNL     1      32.814 180.208 172.529  1.00  0.00     0.016 A 
ATOM     14  C   UNL     1      33.113 181.565 172.678  1.00  0.00     0.051 A 
ATOM     15  C   UNL     1      33.591 182.306 171.593  1.00  0.00     0.157 A 
ATOM     16  C   UNL     1      33.474 180.320 170.201  1.00  0.00     0.062 A 
ATOM     17  C   UNL     1      33.777 181.682 170.349  1.00  0.00     0.158 A 
BRANCH  15  18
ATOM     18  O   UNL     1      33.879 183.660 171.771  1.00  0.00    -0.504 OA
ATOM     19  H   UNL     1      33.928 184.306 170.993  1.00  0.00     0.293 HD
ENDBRANCH  15  18
BRANCH  17  20
ATOM     20  O   UNL     1      34.265 182.412 169.267  1.00  0.00    -0.504 OA
ATOM     21  H   UNL     1      35.174 182.860 169.296  1.00  0.00     0.293 HD
ENDBRANCH  17  20
ENDBRANCH   1  12
BRANCH   2  22
ATOM     22  O   UNL     1      30.587 178.571 169.988  1.00  0.00    -0.502 OA
ATOM     23  H   UNL     1      30.850 179.351 169.398  1.00  0.00     0.293 HD
ENDBRANCH   2  22
BRANCH   6  24
ATOM     24  O   UNL     1      31.212 173.282 170.090  1.00  0.00    -0.507 OA
ATOM     25  H   UNL     1      31.185 172.283 169.959  1.00  0.00     0.293 HD
ENDBRANCH   6  24
BRANCH   8  26
ATOM     26  O   UNL     1      35.081 172.948 172.914  1.00  0.00    -0.508 OA
ATOM     27  H   UNL     1      35.169 171.958 172.717  1.00  0.00     0.293 HD
ENDBRANCH   8  26
TORSDOF 6
ENDMDL
MODEL 8
REMARK VINA RESULT:    -4.690      1.371      2.204
REMARK INTER + INTRA:          -5.985
REMARK INTER:                  -5.955
REMARK INTRA:                  -0.029
REMARK UNBOUND:                -0.335
REMARK SMILES O=c1c(O)c(-c2ccc(O)c(O)c2)oc2cc(O)cc(O)c12
REMARK SMILES IDX 5 1 3 2 2 3 1 4 22 5 20 6 19 7 17 8 16 9 15 10 14 11 6 12
REMARK SMILES IDX 7 13 8 14 9 15 13 16 11 17 10 18 12 20 4 22 21 24 18 26
REMARK H PARENT 10 19 12 21 4 23 21 25 18 27
REMARK Flexibility Score: inf
ROOT
ATOM      1  C   UNL     1      35.144 182.099 171.974  1.00  0.00     0.180 A 
ATOM      2  C   UNL     1      34.619 183.273 172.541  1.00  0.00     0.208 A 
ATOM      3  C   UNL     1      35.479 184.355 172.787  1.00  0.00     0.238 A 
ATOM      4  O   UNL     1      34.994 185.422 173.244  1.00  0.00    -0.285 OA
ATOM      5  C   UNL     1      36.857 184.243 172.479  1.00  0.00     0.111 A 
ATOM      6  C   UNL     1      37.826 185.262 172.723  1.00  0.00     0.134 A 
ATOM      7  C   UNL     1      39.137 185.093 172.258  1.00  0.00     0.093 A 
ATOM      8  C   UNL     1      39.528 183.916 171.615  1.00  0.00     0.123 A 
ATOM      9  C   UNL     1      38.603 182.892 171.426  1.00  0.00     0.094 A 
ATOM     10  C   UNL     1      37.280 183.045 171.845  1.00  0.00     0.146 A 
ATOM     11  O   UNL     1      36.428 182.049 171.635  1.00  0.00    -0.452 OA
ENDROOT
BRANCH   1  12
ATOM     12  C   UNL     1      34.306 180.908 171.709  1.00  0.00     0.025 A 
ATOM     13  C   UNL     1      34.662 179.673 172.273  1.00  0.00     0.016 A 
ATOM     14  C   UNL     1      33.874 178.540 172.052  1.00  0.00     0.051 A 
ATOM     15  C   UNL     1      32.712 178.628 171.279  1.00  0.00     0.157 A 
ATOM     16  C   UNL     1      33.126 180.998 170.948  1.00  0.00     0.062 A 
ATOM     17  C   UNL     1      32.333 179.862 170.726  1.00  0.00     0.158 A 
BRANCH  15  18
ATOM     18  O   UNL     1      31.947 177.479 171.073  1.00  0.00    -0.504 OA
ATOM     19  H   UNL     1      32.010 176.936 170.220  1.00  0.00     0.293 HD
ENDBRANCH  15  18
BRANCH  17  20
ATOM     20  O   UNL     1      31.169 179.958 169.966  1.00  0.00    -0.504 OA
ATOM     21  H   UNL     1      30.257 179.769 170.365  1.00  0.00     0.293 HD
ENDBRANCH  17  20
ENDBRANCH   1  12
BRANCH   2  22
ATOM     22  O   UNL     1      33.253 183.369 172.817  1.00  0.00    -0.502 OA
ATOM     23  H   UNL     1      32.755 184.251 172.801  1.00  0.00     0.293 HD
ENDBRANCH   2  22
BRANCH   6  24
ATOM     24  O   UNL     1      37.564 186.435 173.437  1.00  0.00    -0.507 OA
ATOM     25  H   UNL     1      38.194 186.855 174.104  1.00  0.00     0.293 HD
ENDBRANCH   6  24
BRANCH   8  26
ATOM     26  O   UNL     1      40.837 183.751 171.170  1.00  0.00    -0.508 OA
ATOM     27  H   UNL     1      41.238 184.357 170.463  1.00  0.00     0.293 HD
ENDBRANCH   8  26
TORSDOF 6
ENDMDL
MODEL 9
REMARK VINA RESULT:    -4.682      2.408      3.904
REMARK INTER + INTRA:          -5.975
REMARK INTER:                  -5.719
REMARK INTRA:                  -0.256
REMARK UNBOUND:                -0.335
REMARK SMILES O=c1c(O)c(-c2ccc(O)c(O)c2)oc2cc(O)cc(O)c12
REMARK SMILES IDX 5 1 3 2 2 3 1 4 22 5 20 6 19 7 17 8 16 9 15 10 14 11 6 12
REMARK SMILES IDX 7 13 8 14 9 15 13 16 11 17 10 18 12 20 4 22 21 24 18 26
REMARK H PARENT 10 19 12 21 4 23 21 25 18 27
REMARK Flexibility Score: inf
ROOT
ATOM      1  C   UNL     1      34.078 180.952 171.729  1.00  0.00     0.180 A 
ATOM      2  C   UNL     1      34.879 180.800 172.874  1.00  0.00     0.208 A 
ATOM      3  C   UNL     1      36.069 181.539 172.975  1.00  0.00     0.238 A 
ATOM      4  O   UNL     1      36.754 181.440 174.026  1.00  0.00    -0.285 OA
ATOM      5  C   UNL     1      36.450 182.408 171.924  1.00  0.00     0.111 A 
ATOM      6  C   UNL     1      37.655 183.174 171.904  1.00  0.00     0.134 A 
ATOM      7  C   UNL     1      37.867 184.099 170.874  1.00  0.00     0.093 A 
ATOM      8  C   UNL     1      36.949 184.238 169.830  1.00  0.00     0.123 A 
ATOM      9  C   UNL     1      35.800 183.451 169.810  1.00  0.00     0.094 A 
ATOM     10  C   UNL     1      35.543 182.547 170.842  1.00  0.00     0.146 A 
ATOM     11  O   UNL     1      34.430 181.825 170.790  1.00  0.00    -0.452 OA
ENDROOT
BRANCH   1  12
ATOM     12  C   UNL     1      32.824 180.190 171.537  1.00  0.00     0.025 A 
ATOM     13  C   UNL     1      31.669 180.571 172.238  1.00  0.00     0.016 A 
ATOM     14  C   UNL     1      30.469 179.878 172.058  1.00  0.00     0.051 A 
ATOM     15  C   UNL     1      30.401 178.805 171.164  1.00  0.00     0.157 A 
ATOM     16  C   UNL     1      32.747 179.122 170.624  1.00  0.00     0.062 A 
ATOM     17  C   UNL     1      31.543 178.426 170.440  1.00  0.00     0.158 A 
BRANCH  15  18
ATOM     18  O   UNL     1      29.190 178.130 171.007  1.00  0.00    -0.504 OA
ATOM     19  H   UNL     1      29.001 177.547 170.201  1.00  0.00     0.293 HD
ENDBRANCH  15  18
BRANCH  17  20
ATOM     20  O   UNL     1      31.478 177.366 169.538  1.00  0.00    -0.504 OA
ATOM     21  H   UNL     1      31.025 176.492 169.778  1.00  0.00     0.293 HD
ENDBRANCH  17  20
ENDBRANCH   1  12
BRANCH   2  22
ATOM     22  O   UNL     1      34.473 179.954 173.908  1.00  0.00    -0.502 OA
ATOM     23  H   UNL     1      34.433 178.948 173.804  1.00  0.00     0.293 HD
ENDBRANCH   2  22
BRANCH   6  24
ATOM     24  O   UNL     1      38.678 183.046 172.848  1.00  0.00    -0.507 OA
ATOM     25  H   UNL     1      38.939 183.757 173.513  1.00  0.00     0.293 HD
ENDBRANCH   6  24
BRANCH   8  26
ATOM     26  O   UNL     1      37.176 185.149 168.801  1.00  0.00    -0.508 OA
ATOM     27  H   UNL     1      37.173 184.863 167.829  1.00  0.00     0.293 HD
ENDBRANCH   8  26
TORSDOF 6
ENDMDL
