MODEL 1
REMARK VINA RESULT:     3.339      0.000      0.000
REMARK INTER + INTRA:           6.105
REMARK INTER:                   5.682
REMARK INTRA:                   0.424
REMARK UNBOUND:                 0.424
REMARK SMILES CCCCCCCCCCCCCC(=O)[O-]
REMARK SMILES IDX 8 1 9 2 10 3 11 4 12 5 13 6 14 7 15 8 16 9 7 10 6 11 5 12
REMARK SMILES IDX 4 13 3 14 2 15 1 16
REMARK H PARENT
REMARK Flexibility Score: inf
ROOT
ATOM      1  C   UNL     1      -7.538  28.745 -17.241  1.00  0.00     0.000 C 
ENDROOT
BRANCH   1   2
ATOM      2  C   UNL     1      -6.138  28.617 -17.859  1.00  0.00     0.000 C 
BRANCH   2   3
ATOM      3  C   UNL     1      -6.179  28.231 -19.347  1.00  0.00     0.000 C 
BRANCH   3   4
ATOM      4  C   UNL     1      -6.948  29.250 -20.202  1.00  0.00     0.000 C 
BRANCH   4   5
ATOM      5  C   UNL     1      -6.290  29.417 -21.579  1.00  0.00     0.006 C 
BRANCH   5   6
ATOM      6  C   UNL     1      -5.233  28.339 -21.853  1.00  0.00     0.053 C 
BRANCH   6   7
ATOM      7  C   UNL     1      -5.783  27.220 -22.684  1.00  0.00     0.041 C 
ATOM      8  O   UNL     1      -5.019  26.321 -23.125  1.00  0.00    -0.550 OA
ATOM      9  O   UNL     1      -7.146  27.154 -22.944  1.00  0.00    -0.550 OA
ENDBRANCH   6   7
ENDBRANCH   5   6
ENDBRANCH   4   5
ENDBRANCH   3   4
ENDBRANCH   2   3
ENDBRANCH   1   2
BRANCH   1  10
ATOM     10  C   UNL     1      -7.481  28.592 -15.716  1.00  0.00     0.000 C 
BRANCH  10  11
ATOM     11  C   UNL     1      -8.316  29.678 -15.022  1.00  0.00    -0.000 C 
BRANCH  11  12
ATOM     12  C   UNL     1      -9.543  30.110 -15.845  1.00  0.00    -0.000 C 
BRANCH  12  13
ATOM     13  C   UNL     1      -9.230  30.996 -17.065  1.00  0.00    -0.000 C 
BRANCH  13  14
ATOM     14  C   UNL     1      -9.000  32.468 -16.693  1.00  0.00    -0.000 C 
BRANCH  14  15
ATOM     15  C   UNL     1      -8.915  32.641 -15.171  1.00  0.00    -0.003 C 
ATOM     16  C   UNL     1      -8.234  33.957 -14.804  1.00  0.00     0.004 C 
ENDBRANCH  14  15
ENDBRANCH  13  14
ENDBRANCH  12  13
ENDBRANCH  11  12
ENDBRANCH  10  11
ENDBRANCH   1  10
TORSDOF 12
ENDMDL
MODEL 2
REMARK VINA RESULT:     3.925      3.432      7.150
REMARK INTER + INTRA:           7.103
REMARK INTER:                   6.485
REMARK INTRA:                   0.618
REMARK UNBOUND:                 0.424
REMARK SMILES CCCCCCCCCCCCCC(=O)[O-]
REMARK SMILES IDX 8 1 9 2 10 3 11 4 12 5 13 6 14 7 15 8 16 9 7 10 6 11 5 12
REMARK SMILES IDX 4 13 3 14 2 15 1 16
REMARK H PARENT
REMARK Flexibility Score: inf
ROOT
ATOM      1  C   UNL     1      -6.655  28.024 -16.850  1.00  0.00     0.000 C 
ENDROOT
BRANCH   1   2
ATOM      2  C   UNL     1      -7.910  28.846 -16.517  1.00  0.00     0.000 C 
BRANCH   2   3
ATOM      3  C   UNL     1      -8.634  29.359 -17.773  1.00  0.00     0.000 C 
BRANCH   3   4
ATOM      4  C   UNL     1      -9.744  30.368 -17.445  1.00  0.00     0.000 C 
BRANCH   4   5
ATOM      5  C   UNL     1     -10.074  30.351 -15.945  1.00  0.00     0.006 C 
BRANCH   5   6
ATOM      6  C   UNL     1      -9.064  31.160 -15.119  1.00  0.00     0.053 C 
BRANCH   6   7
ATOM      7  C   UNL     1      -8.866  32.536 -15.677  1.00  0.00     0.041 C 
ATOM      8  O   UNL     1      -8.491  33.477 -14.928  1.00  0.00    -0.550 OA
ATOM      9  O   UNL     1      -9.062  32.770 -17.031  1.00  0.00    -0.550 OA
ENDBRANCH   6   7
ENDBRANCH   5   6
ENDBRANCH   4   5
ENDBRANCH   3   4
ENDBRANCH   2   3
ENDBRANCH   1   2
BRANCH   1  10
ATOM     10  C   UNL     1      -5.893  28.639 -18.030  1.00  0.00     0.000 C 
BRANCH  10  11
ATOM     11  C   UNL     1      -5.743  27.628 -19.175  1.00  0.00    -0.000 C 
BRANCH  11  12
ATOM     12  C   UNL     1      -6.766  27.843 -20.305  1.00  0.00    -0.000 C 
BRANCH  12  13
ATOM     13  C   UNL     1      -6.559  29.121 -21.137  1.00  0.00    -0.000 C 
BRANCH  13  14
ATOM     14  C   UNL     1      -5.650  28.902 -22.355  1.00  0.00    -0.000 C 
BRANCH  14  15
ATOM     15  C   UNL     1      -6.037  27.620 -23.103  1.00  0.00    -0.003 C 
ATOM     16  C   UNL     1      -4.880  26.625 -23.125  1.00  0.00     0.004 C 
ENDBRANCH  14  15
ENDBRANCH  13  14
ENDBRANCH  12  13
ENDBRANCH  11  12
ENDBRANCH  10  11
ENDBRANCH   1  10
TORSDOF 12
ENDMDL
MODEL 3
REMARK VINA RESULT:     4.045      0.993      2.091
REMARK INTER + INTRA:           7.306
REMARK INTER:                   7.139
REMARK INTRA:                   0.166
REMARK UNBOUND:                 0.424
REMARK SMILES CCCCCCCCCCCCCC(=O)[O-]
REMARK SMILES IDX 8 1 9 2 10 3 11 4 12 5 13 6 14 7 15 8 16 9 7 10 6 11 5 12
REMARK SMILES IDX 4 13 3 14 2 15 1 16
REMARK H PARENT
REMARK Flexibility Score: inf
ROOT
ATOM      1  C   UNL     1      -6.567  28.225 -16.309  1.00  0.00     0.000 C 
ENDROOT
BRANCH   1   2
ATOM      2  C   UNL     1      -6.729  28.808 -17.721  1.00  0.00     0.000 C 
BRANCH   2   3
ATOM      3  C   UNL     1      -5.997  27.983 -18.792  1.00  0.00     0.000 C 
BRANCH   3   4
ATOM      4  C   UNL     1      -6.671  28.070 -20.169  1.00  0.00     0.000 C 
BRANCH   4   5
ATOM      5  C   UNL     1      -6.241  29.345 -20.910  1.00  0.00     0.006 C 
BRANCH   5   6
ATOM      6  C   UNL     1      -5.979  29.091 -22.401  1.00  0.00     0.053 C 
BRANCH   6   7
ATOM      7  C   UNL     1      -6.028  27.631 -22.732  1.00  0.00     0.041 C 
ATOM      8  O   UNL     1      -7.106  27.102 -23.114  1.00  0.00    -0.550 OA
ATOM      9  O   UNL     1      -4.875  26.862 -22.651  1.00  0.00    -0.550 OA
ENDBRANCH   6   7
ENDBRANCH   5   6
ENDBRANCH   4   5
ENDBRANCH   3   4
ENDBRANCH   2   3
ENDBRANCH   1   2
BRANCH   1  10
ATOM     10  C   UNL     1      -7.868  28.356 -15.508  1.00  0.00     0.000 C 
BRANCH  10  11
ATOM     11  C   UNL     1      -7.878  29.649 -14.682  1.00  0.00    -0.000 C 
BRANCH  11  12
ATOM     12  C   UNL     1      -9.160  30.479 -14.879  1.00  0.00    -0.000 C 
BRANCH  12  13
ATOM     13  C   UNL     1      -8.978  31.774 -15.691  1.00  0.00    -0.000 C 
BRANCH  13  14
ATOM     14  C   UNL     1      -9.344  31.607 -17.173  1.00  0.00    -0.000 C 
BRANCH  14  15
ATOM     15  C   UNL     1      -9.671  30.144 -17.496  1.00  0.00    -0.003 C 
ATOM     16  C   UNL     1      -9.325  29.808 -18.944  1.00  0.00     0.004 C 
ENDBRANCH  14  15
ENDBRANCH  13  14
ENDBRANCH  12  13
ENDBRANCH  11  12
ENDBRANCH  10  11
ENDBRANCH   1  10
TORSDOF 12
ENDMDL
MODEL 4
REMARK VINA RESULT:     4.575      1.165      1.717
REMARK INTER + INTRA:           8.209
REMARK INTER:                   8.629
REMARK INTRA:                  -0.421
REMARK UNBOUND:                 0.424
REMARK SMILES CCCCCCCCCCCCCC(=O)[O-]
REMARK SMILES IDX 8 1 9 2 10 3 11 4 12 5 13 6 14 7 15 8 16 9 7 10 6 11 5 12
REMARK SMILES IDX 4 13 3 14 2 15 1 16
REMARK H PARENT
REMARK Flexibility Score: inf
ROOT
ATOM      1  C   UNL     1      -7.923  28.859 -16.663  1.00  0.00     0.000 C 
ENDROOT
BRANCH   1   2
ATOM      2  C   UNL     1      -6.701  28.123 -17.232  1.00  0.00     0.000 C 
BRANCH   2   3
ATOM      3  C   UNL     1      -6.118  28.814 -18.476  1.00  0.00     0.000 C 
BRANCH   3   4
ATOM      4  C   UNL     1      -6.452  28.070 -19.777  1.00  0.00     0.000 C 
BRANCH   4   5
ATOM      5  C   UNL     1      -6.496  29.040 -20.967  1.00  0.00     0.006 C 
BRANCH   5   6
ATOM      6  C   UNL     1      -5.457  28.689 -22.041  1.00  0.00     0.053 C 
BRANCH   6   7
ATOM      7  C   UNL     1      -5.817  27.433 -22.772  1.00  0.00     0.041 C 
ATOM      8  O   UNL     1      -4.919  26.623 -23.125  1.00  0.00    -0.550 OA
ATOM      9  O   UNL     1      -7.149  27.141 -23.035  1.00  0.00    -0.550 OA
ENDBRANCH   6   7
ENDBRANCH   5   6
ENDBRANCH   4   5
ENDBRANCH   3   4
ENDBRANCH   2   3
ENDBRANCH   1   2
BRANCH   1  10
ATOM     10  C   UNL     1      -7.837  28.968 -15.136  1.00  0.00     0.000 C 
BRANCH  10  11
ATOM     11  C   UNL     1      -8.821  30.019 -14.603  1.00  0.00    -0.000 C 
BRANCH  11  12
ATOM     12  C   UNL     1      -9.712  30.621 -15.704  1.00  0.00    -0.000 C 
BRANCH  12  13
ATOM     13  C   UNL     1      -9.156  31.894 -16.367  1.00  0.00    -0.000 C 
BRANCH  13  14
ATOM     14  C   UNL     1      -9.577  32.037 -17.837  1.00  0.00    -0.000 C 
BRANCH  14  15
ATOM     15  C   UNL     1      -9.425  33.487 -18.312  1.00  0.00    -0.003 C 
ATOM     16  C   UNL     1      -9.258  33.556 -19.828  1.00  0.00     0.004 C 
ENDBRANCH  14  15
ENDBRANCH  13  14
ENDBRANCH  12  13
ENDBRANCH  11  12
ENDBRANCH  10  11
ENDBRANCH   1  10
TORSDOF 12
ENDMDL
MODEL 5
REMARK VINA RESULT:     4.887      3.507      7.604
REMARK INTER + INTRA:           8.739
REMARK INTER:                   7.562
REMARK INTRA:                   1.177
REMARK UNBOUND:                 0.424
REMARK SMILES CCCCCCCCCCCCCC(=O)[O-]
REMARK SMILES IDX 8 1 9 2 10 3 11 4 12 5 13 6 14 7 15 8 16 9 7 10 6 11 5 12
REMARK SMILES IDX 4 13 3 14 2 15 1 16
REMARK H PARENT
REMARK Flexibility Score: inf
ROOT
ATOM      1  C   UNL     1      -6.734  28.365 -18.277  1.00  0.00     0.000 C 
ENDROOT
BRANCH   1   2
ATOM      2  C   UNL     1      -7.954  29.264 -18.526  1.00  0.00     0.000 C 
BRANCH   2   3
ATOM      3  C   UNL     1      -8.743  29.564 -17.240  1.00  0.00     0.000 C 
BRANCH   3   4
ATOM      4  C   UNL     1      -7.932  29.275 -15.968  1.00  0.00     0.000 C 
BRANCH   4   5
ATOM      5  C   UNL     1      -8.558  29.969 -14.749  1.00  0.00     0.006 C 
BRANCH   5   6
ATOM      6  C   UNL     1      -9.632  30.989 -15.150  1.00  0.00     0.053 C 
BRANCH   6   7
ATOM      7  C   UNL     1      -9.032  32.312 -15.515  1.00  0.00     0.041 C 
ATOM      8  O   UNL     1      -8.973  32.672 -16.721  1.00  0.00    -0.550 OA
ATOM      9  O   UNL     1      -8.568  33.163 -14.520  1.00  0.00    -0.550 OA
ENDBRANCH   6   7
ENDBRANCH   5   6
ENDBRANCH   4   5
ENDBRANCH   3   4
ENDBRANCH   2   3
ENDBRANCH   1   2
BRANCH   1  10
ATOM     10  C   UNL     1      -5.746  28.445 -19.448  1.00  0.00     0.000 C 
BRANCH  10  11
ATOM     11  C   UNL     1      -6.488  28.494 -20.791  1.00  0.00    -0.000 C 
BRANCH  11  12
ATOM     12  C   UNL     1      -5.810  29.420 -21.818  1.00  0.00    -0.000 C 
BRANCH  12  13
ATOM     13  C   UNL     1      -5.296  28.717 -23.087  1.00  0.00    -0.000 C 
BRANCH  13  14
ATOM     14  C   UNL     1      -4.875  27.262 -22.837  1.00  0.00    -0.000 C 
BRANCH  14  15
ATOM     15  C   UNL     1      -6.035  26.299 -23.123  1.00  0.00    -0.003 C 
ATOM     16  C   UNL     1      -7.382  26.967 -22.864  1.00  0.00     0.004 C 
ENDBRANCH  14  15
ENDBRANCH  13  14
ENDBRANCH  12  13
ENDBRANCH  11  12
ENDBRANCH  10  11
ENDBRANCH   1  10
TORSDOF 12
ENDMDL
MODEL 6
REMARK VINA RESULT:     5.035      3.377      7.183
REMARK INTER + INTRA:           8.991
REMARK INTER:                   7.506
REMARK INTRA:                   1.485
REMARK UNBOUND:                 0.424
REMARK SMILES CCCCCCCCCCCCCC(=O)[O-]
REMARK SMILES IDX 8 1 9 2 10 3 11 4 12 5 13 6 14 7 15 8 16 9 7 10 6 11 5 12
REMARK SMILES IDX 4 13 3 14 2 15 1 16
REMARK H PARENT
REMARK Flexibility Score: inf
ROOT
ATOM      1  C   UNL     1      -7.543  28.593 -17.540  1.00  0.00     0.000 C 
ENDROOT
BRANCH   1   2
ATOM      2  C   UNL     1      -8.554  29.438 -18.330  1.00  0.00     0.000 C 
BRANCH   2   3
ATOM      3  C   UNL     1      -9.544  30.184 -17.419  1.00  0.00     0.000 C 
BRANCH   3   4
ATOM      4  C   UNL     1      -9.050  31.586 -17.033  1.00  0.00     0.000 C 
BRANCH   4   5
ATOM      5  C   UNL     1      -9.007  31.750 -15.506  1.00  0.00     0.006 C 
BRANCH   5   6
ATOM      6  C   UNL     1      -9.449  30.477 -14.772  1.00  0.00     0.053 C 
BRANCH   6   7
ATOM      7  C   UNL     1      -8.276  29.681 -14.287  1.00  0.00     0.041 C 
ATOM      8  O   UNL     1      -7.664  28.909 -15.072  1.00  0.00    -0.550 OA
ATOM      9  O   UNL     1      -7.840  29.817 -12.976  1.00  0.00    -0.550 OA
ENDBRANCH   6   7
ENDBRANCH   5   6
ENDBRANCH   4   5
ENDBRANCH   3   4
ENDBRANCH   2   3
ENDBRANCH   1   2
BRANCH   1  10
ATOM     10  C   UNL     1      -6.120  28.799 -18.073  1.00  0.00     0.000 C 
BRANCH  10  11
ATOM     11  C   UNL     1      -5.873  27.946 -19.326  1.00  0.00    -0.000 C 
BRANCH  11  12
ATOM     12  C   UNL     1      -6.779  28.338 -20.508  1.00  0.00    -0.000 C 
BRANCH  12  13
ATOM     13  C   UNL     1      -6.073  29.101 -21.643  1.00  0.00    -0.000 C 
BRANCH  13  14
ATOM     14  C   UNL     1      -4.919  28.306 -22.272  1.00  0.00    -0.000 C 
BRANCH  14  15
ATOM     15  C   UNL     1      -5.410  26.953 -22.802  1.00  0.00    -0.003 C 
ATOM     16  C   UNL     1      -6.901  26.996 -23.125  1.00  0.00     0.004 C 
ENDBRANCH  14  15
ENDBRANCH  13  14
ENDBRANCH  12  13
ENDBRANCH  11  12
ENDBRANCH  10  11
ENDBRANCH   1  10
TORSDOF 12
ENDMDL
MODEL 7
REMARK VINA RESULT:     5.156      2.752      6.865
REMARK INTER + INTRA:           9.196
REMARK INTER:                   8.973
REMARK INTRA:                   0.224
REMARK UNBOUND:                 0.424
REMARK SMILES CCCCCCCCCCCCCC(=O)[O-]
REMARK SMILES IDX 8 1 9 2 10 3 11 4 12 5 13 6 14 7 15 8 16 9 7 10 6 11 5 12
REMARK SMILES IDX 4 13 3 14 2 15 1 16
REMARK H PARENT
REMARK Flexibility Score: inf
ROOT
ATOM      1  C   UNL     1      -9.246  29.766 -17.904  1.00  0.00     0.000 C 
ENDROOT
BRANCH   1   2
ATOM      2  C   UNL     1      -9.061  31.272 -17.659  1.00  0.00     0.000 C 
BRANCH   2   3
ATOM      3  C   UNL     1      -9.280  31.665 -16.189  1.00  0.00     0.000 C 
BRANCH   3   4
ATOM      4  C   UNL     1      -9.406  30.446 -15.262  1.00  0.00     0.000 C 
BRANCH   4   5
ATOM      5  C   UNL     1      -8.070  30.149 -14.565  1.00  0.00     0.006 C 
BRANCH   5   6
ATOM      6  C   UNL     1      -7.885  28.653 -14.276  1.00  0.00     0.053 C 
BRANCH   6   7
ATOM      7  C   UNL     1      -7.133  27.965 -15.373  1.00  0.00     0.041 C 
ATOM      8  O   UNL     1      -7.012  26.711 -15.370  1.00  0.00    -0.550 OA
ATOM      9  O   UNL     1      -6.593  28.706 -16.415  1.00  0.00    -0.550 OA
ENDBRANCH   6   7
ENDBRANCH   5   6
ENDBRANCH   4   5
ENDBRANCH   3   4
ENDBRANCH   2   3
ENDBRANCH   1   2
BRANCH   1  10
ATOM     10  C   UNL     1      -8.498  29.319 -19.166  1.00  0.00     0.000 C 
BRANCH  10  11
ATOM     11  C   UNL     1      -7.031  28.994 -18.849  1.00  0.00    -0.000 C 
BRANCH  11  12
ATOM     12  C   UNL     1      -6.279  28.380 -20.044  1.00  0.00    -0.000 C 
BRANCH  12  13
ATOM     13  C   UNL     1      -6.390  29.173 -21.359  1.00  0.00    -0.000 C 
BRANCH  13  14
ATOM     14  C   UNL     1      -6.356  28.274 -22.604  1.00  0.00    -0.000 C 
BRANCH  14  15
ATOM     15  C   UNL     1      -4.929  27.794 -22.894  1.00  0.00    -0.003 C 
ATOM     16  C   UNL     1      -4.875  26.275 -23.031  1.00  0.00     0.004 C 
ENDBRANCH  14  15
ENDBRANCH  13  14
ENDBRANCH  12  13
ENDBRANCH  11  12
ENDBRANCH  10  11
ENDBRANCH   1  10
TORSDOF 12
ENDMDL
