MODEL 1
REMARK VINA RESULT:    -4.411      0.000      0.000
REMARK INTER + INTRA:          -8.240
REMARK INTER:                  -6.731
REMARK INTRA:                  -1.509
REMARK UNBOUND:                -1.509
REMARK SMILES CC(=O)CCC=C(C)CCC=C(C)CCC=C(C)C
REMARK SMILES IDX 10 1 11 2 12 3 13 4 14 5 15 6 16 7 18 8 17 9 19 10 9 11 7 12
REMARK SMILES IDX 6 13 8 14 5 15 4 16 2 17 3 18 1 19
REMARK H PARENT
REMARK Flexibility Score: inf
ROOT
ATOM      1  C   UNL     1      97.176   7.263  75.199  1.00  0.00     0.032 C 
ENDROOT
BRANCH   1   2
ATOM      2  C   UNL     1      97.234   5.930  75.901  1.00  0.00    -0.028 C 
ATOM      3  C   UNL     1      97.607   4.771  75.311  1.00  0.00    -0.077 C 
ATOM      4  C   UNL     1      97.954   4.700  73.841  1.00  0.00     0.039 C 
BRANCH   3   5
ATOM      5  C   UNL     1      97.662   3.503  76.141  1.00  0.00     0.034 C 
BRANCH   5   6
ATOM      6  C   UNL     1      99.078   3.200  76.649  1.00  0.00     0.032 C 
BRANCH   6   7
ATOM      7  C   UNL     1      99.491   4.116  77.777  1.00  0.00    -0.028 C 
ATOM      8  C   UNL     1     100.722   5.962  78.873  1.00  0.00     0.039 C 
ATOM      9  C   UNL     1     100.405   5.105  77.671  1.00  0.00    -0.080 C 
ATOM     10  C   UNL     1     101.077   5.445  76.364  1.00  0.00     0.039 C 
ENDBRANCH   6   7
ENDBRANCH   5   6
ENDBRANCH   3   5
ENDBRANCH   1   2
BRANCH   1  11
ATOM     11  C   UNL     1      96.091   8.152  75.819  1.00  0.00     0.034 C 
BRANCH  11  12
ATOM     12  C   UNL     1      96.713   9.263  76.637  1.00  0.00    -0.077 C 
ATOM     13  C   UNL     1      97.757   8.972  77.449  1.00  0.00    -0.028 C 
ATOM     14  C   UNL     1      96.143  10.659  76.532  1.00  0.00     0.039 C 
BRANCH  13  15
ATOM     15  C   UNL     1      98.504   9.983  78.289  1.00  0.00     0.035 C 
BRANCH  15  16
ATOM     16  C   UNL     1      99.540   9.293  79.182  1.00  0.00     0.079 C 
BRANCH  16  17
ATOM     17  C   UNL     1     100.928   9.839  78.956  1.00  0.00     0.130 C 
ATOM     18  O   UNL     1     101.378  10.673  79.725  1.00  0.00    -0.300 OA
ATOM     19  C   UNL     1     101.782   9.361  77.818  1.00  0.00     0.087 C 
ENDBRANCH  16  17
ENDBRANCH  15  16
ENDBRANCH  13  15
ENDBRANCH  11  12
ENDBRANCH   1  11
TORSDOF 9
ENDMDL
MODEL 2
REMARK VINA RESULT:    -4.305      2.122      4.143
REMARK INTER + INTRA:          -8.080
REMARK INTER:                  -5.656
REMARK INTRA:                  -2.423
REMARK UNBOUND:                -1.509
REMARK SMILES CC(=O)CCC=C(C)CCC=C(C)CCC=C(C)C
REMARK SMILES IDX 10 1 11 2 12 3 13 4 14 5 15 6 16 7 18 8 17 9 19 10 9 11 7 12
REMARK SMILES IDX 6 13 8 14 5 15 4 16 2 17 3 18 1 19
REMARK H PARENT
REMARK Flexibility Score: inf
ROOT
ATOM      1  C   UNL     1      98.660   8.247  77.891  1.00  0.00     0.032 C 
ENDROOT
BRANCH   1   2
ATOM      2  C   UNL     1      98.474   6.919  77.203  1.00  0.00    -0.028 C 
ATOM      3  C   UNL     1      97.570   6.684  76.225  1.00  0.00    -0.077 C 
ATOM      4  C   UNL     1      96.601   7.750  75.762  1.00  0.00     0.039 C 
BRANCH   3   5
ATOM      5  C   UNL     1      97.512   5.311  75.585  1.00  0.00     0.034 C 
BRANCH   5   6
ATOM      6  C   UNL     1      97.710   4.183  76.606  1.00  0.00     0.032 C 
BRANCH   6   7
ATOM      7  C   UNL     1      98.976   3.398  76.356  1.00  0.00    -0.028 C 
ATOM      8  C   UNL     1     101.240   2.523  76.834  1.00  0.00     0.039 C 
ATOM      9  C   UNL     1     100.036   3.358  77.194  1.00  0.00    -0.080 C 
ATOM     10  C   UNL     1     100.035   4.060  78.528  1.00  0.00     0.039 C 
ENDBRANCH   6   7
ENDBRANCH   5   6
ENDBRANCH   3   5
ENDBRANCH   1   2
BRANCH   1  11
ATOM     11  C   UNL     1      99.840   8.189  78.868  1.00  0.00     0.034 C 
BRANCH  11  12
ATOM     12  C   UNL     1     101.155   8.188  78.118  1.00  0.00    -0.077 C 
ATOM     13  C   UNL     1     102.010   7.154  78.299  1.00  0.00    -0.028 C 
ATOM     14  C   UNL     1     101.478   9.346  77.203  1.00  0.00     0.039 C 
BRANCH  13  15
ATOM     15  C   UNL     1     103.335   6.996  77.587  1.00  0.00     0.035 C 
BRANCH  15  16
ATOM     16  C   UNL     1     103.252   5.912  76.509  1.00  0.00     0.079 C 
BRANCH  16  17
ATOM     17  C   UNL     1     102.607   6.427  75.246  1.00  0.00     0.130 C 
ATOM     18  O   UNL     1     103.232   7.180  74.516  1.00  0.00    -0.300 OA
ATOM     19  C   UNL     1     101.220   6.013  74.850  1.00  0.00     0.087 C 
ENDBRANCH  16  17
ENDBRANCH  15  16
ENDBRANCH  13  15
ENDBRANCH  11  12
ENDBRANCH   1  11
TORSDOF 9
ENDMDL
MODEL 3
REMARK VINA RESULT:    -4.300      1.747      4.110
REMARK INTER + INTRA:          -8.072
REMARK INTER:                  -5.643
REMARK INTRA:                  -2.429
REMARK UNBOUND:                -1.509
REMARK SMILES CC(=O)CCC=C(C)CCC=C(C)CCC=C(C)C
REMARK SMILES IDX 10 1 11 2 12 3 13 4 14 5 15 6 16 7 18 8 17 9 19 10 9 11 7 12
REMARK SMILES IDX 6 13 8 14 5 15 4 16 2 17 3 18 1 19
REMARK H PARENT
REMARK Flexibility Score: inf
ROOT
ATOM      1  C   UNL     1     101.953   3.818  75.908  1.00  0.00     0.032 C 
ENDROOT
BRANCH   1   2
ATOM      2  C   UNL     1     100.727   3.363  75.158  1.00  0.00    -0.028 C 
ATOM      3  C   UNL     1      99.632   2.819  75.738  1.00  0.00    -0.077 C 
ATOM      4  C   UNL     1      99.565   2.561  77.227  1.00  0.00     0.039 C 
BRANCH   3   5
ATOM      5  C   UNL     1      98.447   2.440  74.872  1.00  0.00     0.034 C 
BRANCH   5   6
ATOM      6  C   UNL     1      97.798   3.659  74.206  1.00  0.00     0.032 C 
BRANCH   6   7
ATOM      7  C   UNL     1      97.546   4.782  75.184  1.00  0.00    -0.028 C 
ATOM      8  C   UNL     1      97.657   7.086  76.079  1.00  0.00     0.039 C 
ATOM      9  C   UNL     1      97.987   6.050  75.033  1.00  0.00    -0.080 C 
ATOM     10  C   UNL     1      98.743   6.500  73.807  1.00  0.00     0.039 C 
ENDBRANCH   6   7
ENDBRANCH   5   6
ENDBRANCH   3   5
ENDBRANCH   1   2
BRANCH   1  11
ATOM     11  C   UNL     1     102.333   5.247  75.504  1.00  0.00     0.034 C 
BRANCH  11  12
ATOM     12  C   UNL     1     101.637   6.257  76.391  1.00  0.00    -0.077 C 
ATOM     13  C   UNL     1     101.158   5.853  77.592  1.00  0.00    -0.028 C 
ATOM     14  C   UNL     1     101.486   7.679  75.904  1.00  0.00     0.039 C 
BRANCH  13  15
ATOM     15  C   UNL     1     100.481   6.755  78.599  1.00  0.00     0.035 C 
BRANCH  15  16
ATOM     16  C   UNL     1     101.498   7.327  79.591  1.00  0.00     0.079 C 
BRANCH  16  17
ATOM     17  C   UNL     1     101.136   8.728  80.019  1.00  0.00     0.130 C 
ATOM     18  O   UNL     1     101.184   9.027  81.202  1.00  0.00    -0.300 OA
ATOM     19  C   UNL     1     100.742   9.775  79.018  1.00  0.00     0.087 C 
ENDBRANCH  16  17
ENDBRANCH  15  16
ENDBRANCH  13  15
ENDBRANCH  11  12
ENDBRANCH   1  11
TORSDOF 9
ENDMDL
MODEL 4
REMARK VINA RESULT:    -4.250      1.524      2.980
REMARK INTER + INTRA:          -7.996
REMARK INTER:                  -5.675
REMARK INTRA:                  -2.321
REMARK UNBOUND:                -1.509
REMARK SMILES CC(=O)CCC=C(C)CCC=C(C)CCC=C(C)C
REMARK SMILES IDX 10 1 11 2 12 3 13 4 14 5 15 6 16 7 18 8 17 9 19 10 9 11 7 12
REMARK SMILES IDX 6 13 8 14 5 15 4 16 2 17 3 18 1 19
REMARK H PARENT
REMARK Flexibility Score: inf
ROOT
ATOM      1  C   UNL     1      97.701   4.083  76.692  1.00  0.00     0.032 C 
ENDROOT
BRANCH   1   2
ATOM      2  C   UNL     1      98.988   3.366  76.372  1.00  0.00    -0.028 C 
ATOM      3  C   UNL     1     100.007   3.196  77.247  1.00  0.00    -0.077 C 
ATOM      4  C   UNL     1      99.964   3.777  78.643  1.00  0.00     0.039 C 
BRANCH   3   5
ATOM      5  C   UNL     1     101.233   2.419  76.812  1.00  0.00     0.034 C 
BRANCH   5   6
ATOM      6  C   UNL     1     102.030   3.148  75.722  1.00  0.00     0.032 C 
BRANCH   6   7
ATOM      7  C   UNL     1     102.471   4.525  76.158  1.00  0.00    -0.028 C 
ATOM      8  C   UNL     1     102.599   6.995  76.104  1.00  0.00     0.039 C 
ATOM      9  C   UNL     1     102.096   5.679  75.563  1.00  0.00    -0.080 C 
ATOM     10  C   UNL     1     101.123   5.713  74.412  1.00  0.00     0.039 C 
ENDBRANCH   6   7
ENDBRANCH   5   6
ENDBRANCH   3   5
ENDBRANCH   1   2
BRANCH   1  11
ATOM     11  C   UNL     1      97.419   5.175  75.653  1.00  0.00     0.034 C 
BRANCH  11  12
ATOM     12  C   UNL     1      97.714   6.545  76.224  1.00  0.00    -0.077 C 
ATOM     13  C   UNL     1      98.782   6.697  77.042  1.00  0.00    -0.028 C 
ATOM     14  C   UNL     1      96.801   7.697  75.874  1.00  0.00     0.039 C 
BRANCH  13  15
ATOM     15  C   UNL     1      99.224   8.009  77.651  1.00  0.00     0.035 C 
BRANCH  15  16
ATOM     16  C   UNL     1     100.178   7.774  78.825  1.00  0.00     0.079 C 
BRANCH  16  17
ATOM     17  C   UNL     1     100.820   9.057  79.291  1.00  0.00     0.130 C 
ATOM     18  O   UNL     1     100.671   9.419  80.448  1.00  0.00    -0.300 OA
ATOM     19  C   UNL     1     101.663   9.890  78.370  1.00  0.00     0.087 C 
ENDBRANCH  16  17
ENDBRANCH  15  16
ENDBRANCH  13  15
ENDBRANCH  11  12
ENDBRANCH   1  11
TORSDOF 9
ENDMDL
MODEL 5
REMARK VINA RESULT:    -4.167      2.199      5.159
REMARK INTER + INTRA:          -7.869
REMARK INTER:                  -6.509
REMARK INTRA:                  -1.360
REMARK UNBOUND:                -1.509
REMARK SMILES CC(=O)CCC=C(C)CCC=C(C)CCC=C(C)C
REMARK SMILES IDX 10 1 11 2 12 3 13 4 14 5 15 6 16 7 18 8 17 9 19 10 9 11 7 12
REMARK SMILES IDX 6 13 8 14 5 15 4 16 2 17 3 18 1 19
REMARK H PARENT
REMARK Flexibility Score: inf
ROOT
ATOM      1  C   UNL     1      98.570   3.629  76.819  1.00  0.00     0.032 C 
ENDROOT
BRANCH   1   2
ATOM      2  C   UNL     1      98.342   3.732  75.332  1.00  0.00    -0.028 C 
ATOM      3  C   UNL     1      97.928   4.852  74.697  1.00  0.00    -0.077 C 
ATOM      4  C   UNL     1      97.593   6.119  75.453  1.00  0.00     0.039 C 
BRANCH   3   5
ATOM      5  C   UNL     1      97.776   4.835  73.189  1.00  0.00     0.034 C 
BRANCH   5   6
ATOM      6  C   UNL     1      98.620   5.919  72.505  1.00  0.00     0.032 C 
BRANCH   6   7
ATOM      7  C   UNL     1      97.769   6.974  71.841  1.00  0.00    -0.028 C 
ATOM      8  C   UNL     1      96.543   8.077  69.995  1.00  0.00     0.039 C 
ATOM      9  C   UNL     1      97.410   6.967  70.538  1.00  0.00    -0.080 C 
ATOM     10  C   UNL     1      97.781   5.840  69.606  1.00  0.00     0.039 C 
ENDBRANCH   6   7
ENDBRANCH   5   6
ENDBRANCH   3   5
ENDBRANCH   1   2
BRANCH   1  11
ATOM     11  C   UNL     1     100.070   3.599  77.134  1.00  0.00     0.034 C 
BRANCH  11  12
ATOM     12  C   UNL     1     100.606   5.003  77.315  1.00  0.00    -0.077 C 
ATOM     13  C   UNL     1     100.305   5.677  78.450  1.00  0.00    -0.028 C 
ATOM     14  C   UNL     1     101.450   5.612  76.219  1.00  0.00     0.039 C 
BRANCH  13  15
ATOM     15  C   UNL     1     100.804   7.064  78.788  1.00  0.00     0.035 C 
BRANCH  15  16
ATOM     16  C   UNL     1      99.682   8.098  78.651  1.00  0.00     0.079 C 
BRANCH  16  17
ATOM     17  C   UNL     1      99.977   9.353  79.434  1.00  0.00     0.130 C 
ATOM     18  O   UNL     1      99.376  10.382  79.169  1.00  0.00    -0.300 OA
ATOM     19  C   UNL     1     100.978   9.360  80.553  1.00  0.00     0.087 C 
ENDBRANCH  16  17
ENDBRANCH  15  16
ENDBRANCH  13  15
ENDBRANCH  11  12
ENDBRANCH   1  11
TORSDOF 9
ENDMDL
MODEL 6
REMARK VINA RESULT:    -4.154      3.018      5.737
REMARK INTER + INTRA:          -7.849
REMARK INTER:                  -6.229
REMARK INTRA:                  -1.620
REMARK UNBOUND:                -1.509
REMARK SMILES CC(=O)CCC=C(C)CCC=C(C)CCC=C(C)C
REMARK SMILES IDX 10 1 11 2 12 3 13 4 14 5 15 6 16 7 18 8 17 9 19 10 9 11 7 12
REMARK SMILES IDX 6 13 8 14 5 15 4 16 2 17 3 18 1 19
REMARK H PARENT
REMARK Flexibility Score: inf
ROOT
ATOM      1  C   UNL     1      97.412   6.781  75.981  1.00  0.00     0.032 C 
ENDROOT
BRANCH   1   2
ATOM      2  C   UNL     1      98.522   7.031  76.969  1.00  0.00    -0.028 C 
ATOM      3  C   UNL     1      98.605   8.121  77.766  1.00  0.00    -0.077 C 
ATOM      4  C   UNL     1      97.592   9.242  77.692  1.00  0.00     0.039 C 
BRANCH   3   5
ATOM      5  C   UNL     1      99.754   8.234  78.749  1.00  0.00     0.034 C 
BRANCH   5   6
ATOM      6  C   UNL     1     100.568   6.937  78.845  1.00  0.00     0.032 C 
BRANCH   6   7
ATOM      7  C   UNL     1     102.010   7.133  78.444  1.00  0.00    -0.028 C 
ATOM      8  C   UNL     1     104.052   6.833  77.078  1.00  0.00     0.039 C 
ATOM      9  C   UNL     1     102.602   6.544  77.381  1.00  0.00    -0.080 C 
ATOM     10  C   UNL     1     101.843   5.656  76.426  1.00  0.00     0.039 C 
ENDBRANCH   6   7
ENDBRANCH   5   6
ENDBRANCH   3   5
ENDBRANCH   1   2
BRANCH   1  11
ATOM     11  C   UNL     1      96.891   5.344  76.107  1.00  0.00     0.034 C 
BRANCH  11  12
ATOM     12  C   UNL     1      97.943   4.353  75.658  1.00  0.00    -0.077 C 
ATOM     13  C   UNL     1      98.594   3.622  76.592  1.00  0.00    -0.028 C 
ATOM     14  C   UNL     1      98.242   4.220  74.182  1.00  0.00     0.039 C 
BRANCH  13  15
ATOM     15  C   UNL     1      99.634   2.566  76.292  1.00  0.00     0.035 C 
BRANCH  15  16
ATOM     16  C   UNL     1     100.484   2.267  77.530  1.00  0.00     0.079 C 
BRANCH  16  17
ATOM     17  C   UNL     1     101.710   1.458  77.186  1.00  0.00     0.130 C 
ATOM     18  O   UNL     1     101.746   0.271  77.468  1.00  0.00    -0.300 OA
ATOM     19  C   UNL     1     102.883   2.075  76.480  1.00  0.00     0.087 C 
ENDBRANCH  16  17
ENDBRANCH  15  16
ENDBRANCH  13  15
ENDBRANCH  11  12
ENDBRANCH   1  11
TORSDOF 9
ENDMDL
MODEL 7
REMARK VINA RESULT:    -4.153      3.651      6.161
REMARK INTER + INTRA:          -7.847
REMARK INTER:                  -6.654
REMARK INTRA:                  -1.192
REMARK UNBOUND:                -1.509
REMARK SMILES CC(=O)CCC=C(C)CCC=C(C)CCC=C(C)C
REMARK SMILES IDX 10 1 11 2 12 3 13 4 14 5 15 6 16 7 18 8 17 9 19 10 9 11 7 12
REMARK SMILES IDX 6 13 8 14 5 15 4 16 2 17 3 18 1 19
REMARK H PARENT
REMARK Flexibility Score: inf
ROOT
ATOM      1  C   UNL     1      98.340   5.211  72.833  1.00  0.00     0.032 C 
ENDROOT
BRANCH   1   2
ATOM      2  C   UNL     1      97.792   4.925  71.458  1.00  0.00    -0.028 C 
ATOM      3  C   UNL     1      98.553   4.749  70.353  1.00  0.00    -0.077 C 
ATOM      4  C   UNL     1     100.059   4.885  70.392  1.00  0.00     0.039 C 
BRANCH   3   5
ATOM      5  C   UNL     1      97.879   4.425  69.035  1.00  0.00     0.034 C 
BRANCH   5   6
ATOM      6  C   UNL     1      96.981   5.568  68.543  1.00  0.00     0.032 C 
BRANCH   6   7
ATOM      7  C   UNL     1      97.712   6.889  68.490  1.00  0.00    -0.028 C 
ATOM      8  C   UNL     1      98.158   9.264  69.023  1.00  0.00     0.039 C 
ATOM      9  C   UNL     1      97.333   8.006  69.149  1.00  0.00    -0.080 C 
ATOM     10  C   UNL     1      96.145   8.029  70.079  1.00  0.00     0.039 C 
ENDBRANCH   6   7
ENDBRANCH   5   6
ENDBRANCH   3   5
ENDBRANCH   1   2
BRANCH   1  11
ATOM     11  C   UNL     1      97.697   4.287  73.874  1.00  0.00     0.034 C 
BRANCH  11  12
ATOM     12  C   UNL     1      97.466   5.025  75.174  1.00  0.00    -0.077 C 
ATOM     13  C   UNL     1      97.655   6.365  75.209  1.00  0.00    -0.028 C 
ATOM     14  C   UNL     1      97.044   4.242  76.396  1.00  0.00     0.039 C 
BRANCH  13  15
ATOM     15  C   UNL     1      97.421   7.239  76.421  1.00  0.00     0.035 C 
BRANCH  15  16
ATOM     16  C   UNL     1      98.731   7.497  77.170  1.00  0.00     0.079 C 
BRANCH  16  17
ATOM     17  C   UNL     1      98.652   8.734  78.029  1.00  0.00     0.130 C 
ATOM     18  O   UNL     1      97.700   9.490  77.908  1.00  0.00    -0.300 OA
ATOM     19  C   UNL     1      99.705   9.047  79.052  1.00  0.00     0.087 C 
ENDBRANCH  16  17
ENDBRANCH  15  16
ENDBRANCH  13  15
ENDBRANCH  11  12
ENDBRANCH   1  11
TORSDOF 9
ENDMDL
MODEL 8
REMARK VINA RESULT:    -4.097      3.896      7.091
REMARK INTER + INTRA:          -7.762
REMARK INTER:                  -5.927
REMARK INTRA:                  -1.836
REMARK UNBOUND:                -1.509
REMARK SMILES CC(=O)CCC=C(C)CCC=C(C)CCC=C(C)C
REMARK SMILES IDX 10 1 11 2 12 3 13 4 14 5 15 6 16 7 18 8 17 9 19 10 9 11 7 12
REMARK SMILES IDX 6 13 8 14 5 15 4 16 2 17 3 18 1 19
REMARK H PARENT
REMARK Flexibility Score: inf
ROOT
ATOM      1  C   UNL     1      99.295   6.574  72.286  1.00  0.00     0.032 C 
ENDROOT
BRANCH   1   2
ATOM      2  C   UNL     1      98.057   7.064  71.580  1.00  0.00    -0.028 C 
ATOM      3  C   UNL     1      98.061   7.740  70.408  1.00  0.00    -0.077 C 
ATOM      4  C   UNL     1      99.350   8.123  69.714  1.00  0.00     0.039 C 
BRANCH   3   5
ATOM      5  C   UNL     1      96.741   8.142  69.781  1.00  0.00     0.034 C 
BRANCH   5   6
ATOM      6  C   UNL     1      95.875   6.930  69.416  1.00  0.00     0.032 C 
BRANCH   6   7
ATOM      7  C   UNL     1      96.663   5.854  68.708  1.00  0.00    -0.028 C 
ATOM      8  C   UNL     1      97.661   3.614  68.370  1.00  0.00     0.039 C 
ATOM      9  C   UNL     1      96.862   4.604  69.183  1.00  0.00    -0.080 C 
ATOM     10  C   UNL     1      96.248   4.126  70.475  1.00  0.00     0.039 C 
ENDBRANCH   6   7
ENDBRANCH   5   6
ENDBRANCH   3   5
ENDBRANCH   1   2
BRANCH   1  11
ATOM     11  C   UNL     1      99.436   5.055  72.137  1.00  0.00     0.034 C 
BRANCH  11  12
ATOM     12  C   UNL     1      99.223   4.365  73.467  1.00  0.00    -0.077 C 
ATOM     13  C   UNL     1      97.982   4.356  74.008  1.00  0.00    -0.028 C 
ATOM     14  C   UNL     1     100.404   3.720  74.156  1.00  0.00     0.039 C 
BRANCH  13  15
ATOM     15  C   UNL     1      97.610   3.672  75.304  1.00  0.00     0.035 C 
BRANCH  15  16
ATOM     16  C   UNL     1      97.119   4.688  76.339  1.00  0.00     0.079 C 
BRANCH  16  17
ATOM     17  C   UNL     1      98.224   5.614  76.784  1.00  0.00     0.130 C 
ATOM     18  O   UNL     1      99.199   5.154  77.356  1.00  0.00    -0.300 OA
ATOM     19  C   UNL     1      98.165   7.090  76.517  1.00  0.00     0.087 C 
ENDBRANCH  16  17
ENDBRANCH  15  16
ENDBRANCH  13  15
ENDBRANCH  11  12
ENDBRANCH   1  11
TORSDOF 9
ENDMDL
MODEL 9
REMARK VINA RESULT:    -3.992      2.011      3.904
REMARK INTER + INTRA:          -7.601
REMARK INTER:                  -5.393
REMARK INTRA:                  -2.209
REMARK UNBOUND:                -1.509
REMARK SMILES CC(=O)CCC=C(C)CCC=C(C)CCC=C(C)C
REMARK SMILES IDX 10 1 11 2 12 3 13 4 14 5 15 6 16 7 18 8 17 9 19 10 9 11 7 12
REMARK SMILES IDX 6 13 8 14 5 15 4 16 2 17 3 18 1 19
REMARK H PARENT
REMARK Flexibility Score: inf
ROOT
ATOM      1  C   UNL     1      97.350   5.138  76.526  1.00  0.00     0.032 C 
ENDROOT
BRANCH   1   2
ATOM      2  C   UNL     1      97.375   4.375  75.226  1.00  0.00    -0.028 C 
ATOM      3  C   UNL     1      98.228   3.362  74.949  1.00  0.00    -0.077 C 
ATOM      4  C   UNL     1      99.297   2.931  75.929  1.00  0.00     0.039 C 
BRANCH   3   5
ATOM      5  C   UNL     1      98.122   2.648  73.616  1.00  0.00     0.034 C 
BRANCH   5   6
ATOM      6  C   UNL     1      97.867   3.618  72.455  1.00  0.00     0.032 C 
BRANCH   6   7
ATOM      7  C   UNL     1      99.117   4.355  72.038  1.00  0.00    -0.028 C 
ATOM      8  C   UNL     1     100.548   6.318  71.563  1.00  0.00     0.039 C 
ATOM      9  C   UNL     1      99.237   5.701  71.986  1.00  0.00    -0.080 C 
ATOM     10  C   UNL     1      98.125   6.626  72.411  1.00  0.00     0.039 C 
ENDBRANCH   6   7
ENDBRANCH   5   6
ENDBRANCH   3   5
ENDBRANCH   1   2
BRANCH   1  11
ATOM     11  C   UNL     1      97.897   6.557  76.330  1.00  0.00     0.034 C 
BRANCH  11  12
ATOM     12  C   UNL     1      99.386   6.597  76.598  1.00  0.00    -0.077 C 
ATOM     13  C   UNL     1      99.821   6.566  77.879  1.00  0.00    -0.028 C 
ATOM     14  C   UNL     1     100.339   6.685  75.428  1.00  0.00     0.039 C 
BRANCH  13  15
ATOM     15  C   UNL     1     101.274   6.556  78.298  1.00  0.00     0.035 C 
BRANCH  15  16
ATOM     16  C   UNL     1     101.500   7.462  79.512  1.00  0.00     0.079 C 
BRANCH  16  17
ATOM     17  C   UNL     1     101.142   8.897  79.215  1.00  0.00     0.130 C 
ATOM     18  O   UNL     1     100.342   9.478  79.932  1.00  0.00    -0.300 OA
ATOM     19  C   UNL     1     101.766   9.639  78.070  1.00  0.00     0.087 C 
ENDBRANCH  16  17
ENDBRANCH  15  16
ENDBRANCH  13  15
ENDBRANCH  11  12
ENDBRANCH   1  11
TORSDOF 9
ENDMDL
