MODEL 1
REMARK VINA RESULT:    -2.727      0.000      0.000
REMARK INTER + INTRA:          -4.763
REMARK INTER:                  -4.162
REMARK INTRA:                  -0.602
REMARK UNBOUND:                -0.602
REMARK SMILES C=CCCCCCCCCCC
REMARK SMILES IDX 7 1 8 2 9 3 10 4 11 5 12 6 6 7 5 8 4 9 3 10 2 11 1 12
REMARK H PARENT
REMARK Flexibility Score: inf
ROOT
ATOM      1  C   UNL     1       6.227   4.876  13.486  1.00  0.00     0.000 C 
ENDROOT
BRANCH   1   2
ATOM      2  C   UNL     1       5.112   4.928  12.427  1.00  0.00    -0.000 C 
BRANCH   2   3
ATOM      3  C   UNL     1       3.997   5.921  12.794  1.00  0.00    -0.000 C 
BRANCH   3   4
ATOM      4  C   UNL     1       4.490   7.375  12.850  1.00  0.00    -0.000 C 
BRANCH   4   5
ATOM      5  C   UNL     1       4.382   8.044  11.475  1.00  0.00    -0.003 C 
ATOM      6  C   UNL     1       5.546   9.002  11.235  1.00  0.00     0.004 C 
ENDBRANCH   4   5
ENDBRANCH   3   4
ENDBRANCH   2   3
ENDBRANCH   1   2
BRANCH   1   7
ATOM      7  C   UNL     1       7.632   4.970  12.869  1.00  0.00     0.000 C 
BRANCH   7   8
ATOM      8  C   UNL     1       7.710   5.989  11.722  1.00  0.00     0.000 C 
BRANCH   8   9
ATOM      9  C   UNL     1       8.194   7.352  12.232  1.00  0.00     0.004 C 
BRANCH   9  10
ATOM     10  C   UNL     1       7.736   7.595  13.675  1.00  0.00     0.027 C 
BRANCH  10  11
ATOM     11  C   UNL     1       8.699   8.487  14.409  1.00  0.00    -0.035 C 
ATOM     12  C   UNL     1       9.996   8.534  14.093  1.00  0.00     0.004 C 
ENDBRANCH  10  11
ENDBRANCH   9  10
ENDBRANCH   8   9
ENDBRANCH   7   8
ENDBRANCH   1   7
TORSDOF 9
ENDMDL
MODEL 2
REMARK VINA RESULT:    -2.207      1.552      5.654
REMARK INTER + INTRA:          -3.970
REMARK INTER:                  -3.429
REMARK INTRA:                  -0.541
REMARK UNBOUND:                -0.602
REMARK SMILES C=CCCCCCCCCCC
REMARK SMILES IDX 7 1 8 2 9 3 10 4 11 5 12 6 6 7 5 8 4 9 3 10 2 11 1 12
REMARK H PARENT
REMARK Flexibility Score: inf
ROOT
ATOM      1  C   UNL     1       7.950   7.344  13.849  1.00  0.00     0.000 C 
ENDROOT
BRANCH   1   2
ATOM      2  C   UNL     1       8.848   8.593  13.903  1.00  0.00    -0.000 C 
BRANCH   2   3
ATOM      3  C   UNL     1      10.345   8.244  13.884  1.00  0.00    -0.000 C 
BRANCH   3   4
ATOM      4  C   UNL     1      11.052   8.587  15.204  1.00  0.00    -0.000 C 
BRANCH   4   5
ATOM      5  C   UNL     1      12.529   8.179  15.156  1.00  0.00    -0.003 C 
ATOM      6  C   UNL     1      13.338   8.912  16.223  1.00  0.00     0.004 C 
ENDBRANCH   4   5
ENDBRANCH   3   4
ENDBRANCH   2   3
ENDBRANCH   1   2
BRANCH   1   7
ATOM      7  C   UNL     1       7.967   6.664  12.471  1.00  0.00     0.000 C 
BRANCH   7   8
ATOM      8  C   UNL     1       7.297   5.281  12.483  1.00  0.00     0.000 C 
BRANCH   8   9
ATOM      9  C   UNL     1       6.010   5.303  13.315  1.00  0.00     0.004 C 
BRANCH   9  10
ATOM     10  C   UNL     1       4.814   5.755  12.468  1.00  0.00     0.027 C 
BRANCH  10  11
ATOM     11  C   UNL     1       4.488   7.202  12.715  1.00  0.00    -0.035 C 
ATOM     12  C   UNL     1       4.807   8.155  11.834  1.00  0.00     0.004 C 
ENDBRANCH  10  11
ENDBRANCH   9  10
ENDBRANCH   8   9
ENDBRANCH   7   8
ENDBRANCH   1   7
TORSDOF 9
ENDMDL
MODEL 3
REMARK VINA RESULT:    -2.074      1.392      2.683
REMARK INTER + INTRA:          -3.767
REMARK INTER:                  -3.511
REMARK INTRA:                  -0.256
REMARK UNBOUND:                -0.602
REMARK SMILES C=CCCCCCCCCCC
REMARK SMILES IDX 7 1 8 2 9 3 10 4 11 5 12 6 6 7 5 8 4 9 3 10 2 11 1 12
REMARK H PARENT
REMARK Flexibility Score: inf
ROOT
ATOM      1  C   UNL     1       7.874   6.524  12.539  1.00  0.00     0.000 C 
ENDROOT
BRANCH   1   2
ATOM      2  C   UNL     1       7.308   5.093  12.536  1.00  0.00    -0.000 C 
BRANCH   2   3
ATOM      3  C   UNL     1       5.919   5.007  13.187  1.00  0.00    -0.000 C 
BRANCH   3   4
ATOM      4  C   UNL     1       4.832   5.718  12.367  1.00  0.00    -0.000 C 
BRANCH   4   5
ATOM      5  C   UNL     1       4.587   7.136  12.894  1.00  0.00    -0.003 C 
ATOM      6  C   UNL     1       4.691   8.167  11.773  1.00  0.00     0.004 C 
ENDBRANCH   4   5
ENDBRANCH   3   4
ENDBRANCH   2   3
ENDBRANCH   1   2
BRANCH   1   7
ATOM      7  C   UNL     1       7.711   7.220  13.900  1.00  0.00     0.000 C 
BRANCH   7   8
ATOM      8  C   UNL     1       8.469   8.554  13.979  1.00  0.00     0.000 C 
BRANCH   8   9
ATOM      9  C   UNL     1       9.982   8.332  13.866  1.00  0.00     0.004 C 
BRANCH   9  10
ATOM     10  C   UNL     1      10.687   8.655  15.189  1.00  0.00     0.027 C 
BRANCH  10  11
ATOM     11  C   UNL     1      12.167   8.406  15.093  1.00  0.00    -0.035 C 
ATOM     12  C   UNL     1      13.008   8.778  16.062  1.00  0.00     0.004 C 
ENDBRANCH  10  11
ENDBRANCH   9  10
ENDBRANCH   8   9
ENDBRANCH   7   8
ENDBRANCH   1   7
TORSDOF 9
ENDMDL
MODEL 4
REMARK VINA RESULT:    -1.936      0.830      4.553
REMARK INTER + INTRA:          -3.557
REMARK INTER:                  -2.955
REMARK INTRA:                  -0.602
REMARK UNBOUND:                -0.602
REMARK SMILES C=CCCCCCCCCCC
REMARK SMILES IDX 7 1 8 2 9 3 10 4 11 5 12 6 6 7 5 8 4 9 3 10 2 11 1 12
REMARK H PARENT
REMARK Flexibility Score: inf
ROOT
ATOM      1  C   UNL     1       6.614   8.632  11.496  1.00  0.00     0.000 C 
ENDROOT
BRANCH   1   2
ATOM      2  C   UNL     1       7.334   7.285  11.316  1.00  0.00    -0.000 C 
BRANCH   2   3
ATOM      3  C   UNL     1       8.196   6.909  12.533  1.00  0.00    -0.000 C 
BRANCH   3   4
ATOM      4  C   UNL     1       7.650   7.485  13.848  1.00  0.00    -0.000 C 
BRANCH   4   5
ATOM      5  C   UNL     1       8.582   8.572  14.398  1.00  0.00    -0.003 C 
ATOM      6  C   UNL     1       9.989   8.436  13.822  1.00  0.00     0.004 C 
ENDBRANCH   4   5
ENDBRANCH   3   4
ENDBRANCH   2   3
ENDBRANCH   1   2
BRANCH   1   7
ATOM      7  C   UNL     1       5.085   8.503  11.386  1.00  0.00     0.000 C 
BRANCH   7   8
ATOM      8  C   UNL     1       4.385   8.561  12.752  1.00  0.00     0.000 C 
BRANCH   8   9
ATOM      9  C   UNL     1       4.029   7.153  13.247  1.00  0.00     0.004 C 
BRANCH   9  10
ATOM     10  C   UNL     1       4.227   6.114  12.137  1.00  0.00     0.027 C 
BRANCH  10  11
ATOM     11  C   UNL     1       4.904   4.878  12.663  1.00  0.00    -0.035 C 
ATOM     12  C   UNL     1       5.854   4.941  13.602  1.00  0.00     0.004 C 
ENDBRANCH  10  11
ENDBRANCH   9  10
ENDBRANCH   8   9
ENDBRANCH   7   8
ENDBRANCH   1   7
TORSDOF 9
ENDMDL
MODEL 5
REMARK VINA RESULT:    -1.664      0.930      3.799
REMARK INTER + INTRA:          -3.142
REMARK INTER:                  -1.961
REMARK INTRA:                  -1.180
REMARK UNBOUND:                -0.602
REMARK SMILES C=CCCCCCCCCCC
REMARK SMILES IDX 7 1 8 2 9 3 10 4 11 5 12 6 6 7 5 8 4 9 3 10 2 11 1 12
REMARK H PARENT
REMARK Flexibility Score: inf
ROOT
ATOM      1  C   UNL     1       4.443   7.431  12.708  1.00  0.00     0.000 C 
ENDROOT
BRANCH   1   2
ATOM      2  C   UNL     1       5.136   8.421  11.756  1.00  0.00    -0.000 C 
BRANCH   2   3
ATOM      3  C   UNL     1       6.627   8.605  12.079  1.00  0.00    -0.000 C 
BRANCH   3   4
ATOM      4  C   UNL     1       6.874   9.010  13.540  1.00  0.00    -0.000 C 
BRANCH   4   5
ATOM      5  C   UNL     1       7.920   8.098  14.192  1.00  0.00    -0.003 C 
ATOM      6  C   UNL     1       9.307   8.339  13.601  1.00  0.00     0.004 C 
ENDBRANCH   4   5
ENDBRANCH   3   4
ENDBRANCH   2   3
ENDBRANCH   1   2
BRANCH   1   7
ATOM      7  C   UNL     1       4.030   6.127  12.006  1.00  0.00     0.000 C 
BRANCH   7   8
ATOM      8  C   UNL     1       4.569   4.875  12.714  1.00  0.00     0.000 C 
BRANCH   8   9
ATOM      9  C   UNL     1       5.438   5.257  13.918  1.00  0.00     0.004 C 
BRANCH   9  10
ATOM     10  C   UNL     1       6.906   4.884  13.678  1.00  0.00     0.027 C 
BRANCH  10  11
ATOM     11  C   UNL     1       7.242   4.910  12.212  1.00  0.00    -0.035 C 
ATOM     12  C   UNL     1       8.233   5.666  11.730  1.00  0.00     0.004 C 
ENDBRANCH  10  11
ENDBRANCH   9  10
ENDBRANCH   8   9
ENDBRANCH   7   8
ENDBRANCH   1   7
TORSDOF 9
ENDMDL
MODEL 6
REMARK VINA RESULT:    -1.556      1.826      3.211
REMARK INTER + INTRA:          -2.976
REMARK INTER:                  -3.081
REMARK INTRA:                   0.105
REMARK UNBOUND:                -0.602
REMARK SMILES C=CCCCCCCCCCC
REMARK SMILES IDX 7 1 8 2 9 3 10 4 11 5 12 6 6 7 5 8 4 9 3 10 2 11 1 12
REMARK H PARENT
REMARK Flexibility Score: inf
ROOT
ATOM      1  C   UNL     1       7.367   7.307  14.079  1.00  0.00     0.000 C 
ENDROOT
BRANCH   1   2
ATOM      2  C   UNL     1       7.350   6.299  12.917  1.00  0.00    -0.000 C 
BRANCH   2   3
ATOM      3  C   UNL     1       6.173   5.313  13.009  1.00  0.00    -0.000 C 
BRANCH   3   4
ATOM      4  C   UNL     1       4.876   5.879  12.413  1.00  0.00    -0.000 C 
BRANCH   4   5
ATOM      5  C   UNL     1       4.654   7.328  12.860  1.00  0.00    -0.003 C 
ATOM      6  C   UNL     1       4.738   8.290  11.677  1.00  0.00     0.004 C 
ENDBRANCH   4   5
ENDBRANCH   3   4
ENDBRANCH   2   3
ENDBRANCH   1   2
BRANCH   1   7
ATOM      7  C   UNL     1       8.179   8.571  13.751  1.00  0.00     0.000 C 
BRANCH   7   8
ATOM      8  C   UNL     1       9.683   8.290  13.610  1.00  0.00     0.000 C 
BRANCH   8   9
ATOM      9  C   UNL     1      10.422   8.589  14.921  1.00  0.00     0.004 C 
BRANCH   9  10
ATOM     10  C   UNL     1      11.924   8.317  14.779  1.00  0.00     0.027 C 
BRANCH  10  11
ATOM     11  C   UNL     1      12.656   8.624  16.057  1.00  0.00    -0.035 C 
ATOM     12  C   UNL     1      13.859   9.206  16.058  1.00  0.00     0.004 C 
ENDBRANCH  10  11
ENDBRANCH   9  10
ENDBRANCH   8   9
ENDBRANCH   7   8
ENDBRANCH   1   7
TORSDOF 9
ENDMDL
MODEL 7
REMARK VINA RESULT:    -1.390      0.840      2.753
REMARK INTER + INTRA:          -2.722
REMARK INTER:                  -3.028
REMARK INTRA:                   0.306
REMARK UNBOUND:                -0.602
REMARK SMILES C=CCCCCCCCCCC
REMARK SMILES IDX 7 1 8 2 9 3 10 4 11 5 12 6 6 7 5 8 4 9 3 10 2 11 1 12
REMARK H PARENT
REMARK Flexibility Score: inf
ROOT
ATOM      1  C   UNL     1       5.025   8.385  11.511  1.00  0.00     0.000 C 
ENDROOT
BRANCH   1   2
ATOM      2  C   UNL     1       4.379   7.430  12.529  1.00  0.00    -0.000 C 
BRANCH   2   3
ATOM      3  C   UNL     1       3.932   6.104  11.894  1.00  0.00    -0.000 C 
BRANCH   3   4
ATOM      4  C   UNL     1       4.433   4.875  12.668  1.00  0.00    -0.000 C 
BRANCH   4   5
ATOM      5  C   UNL     1       5.963   4.877  12.768  1.00  0.00    -0.003 C 
ATOM      6  C   UNL     1       6.421   4.916  14.224  1.00  0.00     0.004 C 
ENDBRANCH   4   5
ENDBRANCH   3   4
ENDBRANCH   2   3
ENDBRANCH   1   2
BRANCH   1   7
ATOM      7  C   UNL     1       6.514   8.637  11.802  1.00  0.00     0.000 C 
BRANCH   7   8
ATOM      8  C   UNL     1       7.410   7.467  11.369  1.00  0.00     0.000 C 
BRANCH   8   9
ATOM      9  C   UNL     1       8.199   6.910  12.561  1.00  0.00     0.004 C 
BRANCH   9  10
ATOM     10  C   UNL     1       7.844   7.656  13.853  1.00  0.00     0.027 C 
BRANCH  10  11
ATOM     11  C   UNL     1       8.909   8.654  14.215  1.00  0.00    -0.035 C 
ATOM     12  C   UNL     1      10.195   8.453  13.910  1.00  0.00     0.004 C 
ENDBRANCH  10  11
ENDBRANCH   9  10
ENDBRANCH   8   9
ENDBRANCH   7   8
ENDBRANCH   1   7
TORSDOF 9
ENDMDL
MODEL 8
REMARK VINA RESULT:    -0.810      2.048      6.289
REMARK INTER + INTRA:          -1.837
REMARK INTER:                  -1.730
REMARK INTRA:                  -0.107
REMARK UNBOUND:                -0.602
REMARK SMILES C=CCCCCCCCCCC
REMARK SMILES IDX 7 1 8 2 9 3 10 4 11 5 12 6 6 7 5 8 4 9 3 10 2 11 1 12
REMARK H PARENT
REMARK Flexibility Score: inf
ROOT
ATOM      1  C   UNL     1       9.008   8.334  13.182  1.00  0.00     0.000 C 
ENDROOT
BRANCH   1   2
ATOM      2  C   UNL     1       9.715   8.645  14.512  1.00  0.00    -0.000 C 
BRANCH   2   3
ATOM      3  C   UNL     1      11.210   8.288  14.483  1.00  0.00    -0.000 C 
BRANCH   3   4
ATOM      4  C   UNL     1      11.922   8.600  15.807  1.00  0.00    -0.000 C 
BRANCH   4   5
ATOM      5  C   UNL     1      13.443   8.488  15.651  1.00  0.00    -0.003 C 
ATOM      6  C   UNL     1      14.163   9.548  16.481  1.00  0.00     0.004 C 
ENDBRANCH   4   5
ENDBRANCH   3   4
ENDBRANCH   2   3
ENDBRANCH   1   2
BRANCH   1   7
ATOM      7  C   UNL     1       7.816   7.379  13.356  1.00  0.00     0.000 C 
BRANCH   7   8
ATOM      8  C   UNL     1       7.645   6.419  12.169  1.00  0.00     0.000 C 
BRANCH   8   9
ATOM      9  C   UNL     1       7.365   4.991  12.653  1.00  0.00     0.004 C 
BRANCH   9  10
ATOM     10  C   UNL     1       5.953   4.875  13.240  1.00  0.00     0.027 C 
BRANCH  10  11
ATOM     11  C   UNL     1       4.939   5.543  12.352  1.00  0.00    -0.035 C 
ATOM     12  C   UNL     1       4.373   6.708  12.681  1.00  0.00     0.004 C 
ENDBRANCH  10  11
ENDBRANCH   9  10
ENDBRANCH   8   9
ENDBRANCH   7   8
ENDBRANCH   1   7
TORSDOF 9
ENDMDL
