MODEL 1
REMARK VINA RESULT:    -2.693      0.000      0.000
REMARK INTER + INTRA:          -2.693
REMARK INTER:                  -2.693
REMARK INTRA:                   0.000
REMARK UNBOUND:                 0.000
REMARK SMILES CC1=CC[C@]23C[C@H]1C(C)(C)[C@@H]2CC[C@H]3C
REMARK SMILES IDX 15 1 14 2 13 3 12 4 11 5 5 6 4 7 3 8 2 9 7 10 6 11 8 12 9 13
REMARK SMILES IDX 10 14 1 15
REMARK H PARENT
REMARK Flexibility Score: inf
ROOT
ATOM      1  C   UNL     1       3.628  15.367  13.123  1.00  0.00     0.008 C 
ATOM      2  C   UNL     1       3.581  14.534  11.830  1.00  0.00    -0.007 C 
ATOM      3  C   UNL     1       2.409  14.961  10.888  1.00  0.00     0.004 C 
ATOM      4  C   UNL     1       1.369  13.810  10.876  1.00  0.00     0.005 C 
ATOM      5  C   UNL     1       1.801  12.989  12.071  1.00  0.00     0.002 C 
ATOM      6  C   UNL     1       3.321  13.027  12.054  1.00  0.00    -0.020 C 
ATOM      7  C   UNL     1       4.013  12.219  10.876  1.00  0.00     0.035 C 
ATOM      8  C   UNL     1       4.084  10.716  11.082  1.00  0.00    -0.027 C 
ATOM      9  C   UNL     1       3.512  10.135  12.152  1.00  0.00    -0.074 C 
ATOM     10  C   UNL     1       2.732  11.013  13.111  1.00  0.00     0.021 C 
ATOM     11  C   UNL     1       3.599  12.282  13.360  1.00  0.00     0.016 C 
ATOM     12  C   UNL     1       1.397  11.545  12.443  1.00  0.00    -0.025 C 
ATOM     13  C   UNL     1       0.885  10.747  11.216  1.00  0.00     0.012 C 
ATOM     14  C   UNL     1       0.268  11.543  13.502  1.00  0.00     0.012 C 
ATOM     15  C   UNL     1       3.627   8.653  12.368  1.00  0.00     0.039 C 
ENDROOT
TORSDOF 0
ENDMDL
MODEL 2
REMARK VINA RESULT:    -1.945      1.318      4.305
REMARK INTER + INTRA:          -1.945
REMARK INTER:                  -1.945
REMARK INTRA:                   0.000
REMARK UNBOUND:                 0.000
REMARK SMILES CC1=CC[C@]23C[C@H]1C(C)(C)[C@@H]2CC[C@H]3C
REMARK SMILES IDX 15 1 14 2 13 3 12 4 11 5 5 6 4 7 3 8 2 9 7 10 6 11 8 12 9 13
REMARK SMILES IDX 10 14 1 15
REMARK H PARENT
REMARK Flexibility Score: inf
ROOT
ATOM      1  C   UNL     1       4.036   8.200  13.434  1.00  0.00     0.008 C 
ATOM      2  C   UNL     1       3.588   8.718  12.056  1.00  0.00    -0.007 C 
ATOM      3  C   UNL     1       4.795   8.999  11.103  1.00  0.00     0.004 C 
ATOM      4  C   UNL     1       4.892  10.535  10.905  1.00  0.00     0.005 C 
ATOM      5  C   UNL     1       4.012  11.048  12.024  1.00  0.00     0.002 C 
ATOM      6  C   UNL     1       2.847  10.074  12.095  1.00  0.00    -0.020 C 
ATOM      7  C   UNL     1       1.833  10.127  10.875  1.00  0.00     0.035 C 
ATOM      8  C   UNL     1       0.837  11.272  10.916  1.00  0.00    -0.027 C 
ATOM      9  C   UNL     1       0.895  12.207  11.881  1.00  0.00    -0.074 C 
ATOM     10  C   UNL     1       2.027  12.128  12.888  1.00  0.00     0.021 C 
ATOM     11  C   UNL     1       2.132  10.636  13.324  1.00  0.00     0.016 C 
ATOM     12  C   UNL     1       3.419  12.463  12.209  1.00  0.00    -0.025 C 
ATOM     13  C   UNL     1       3.355  13.250  10.875  1.00  0.00     0.012 C 
ATOM     14  C   UNL     1       4.274  13.294  13.197  1.00  0.00     0.012 C 
ATOM     15  C   UNL     1      -0.124  13.310  11.937  1.00  0.00     0.039 C 
ENDROOT
TORSDOF 0
ENDMDL
MODEL 3
REMARK VINA RESULT:    -0.746      3.329      6.314
REMARK INTER + INTRA:          -0.746
REMARK INTER:                  -0.746
REMARK INTRA:                   0.000
REMARK UNBOUND:                 0.000
REMARK SMILES CC1=CC[C@]23C[C@H]1C(C)(C)[C@@H]2CC[C@H]3C
REMARK SMILES IDX 15 1 14 2 13 3 12 4 11 5 5 6 4 7 3 8 2 9 7 10 6 11 8 12 9 13
REMARK SMILES IDX 10 14 1 15
REMARK H PARENT
REMARK Flexibility Score: inf
ROOT
ATOM      1  C   UNL     1       8.625   6.749  11.882  1.00  0.00     0.008 C 
ATOM      2  C   UNL     1       7.922   7.791  12.768  1.00  0.00    -0.007 C 
ATOM      3  C   UNL     1       7.773   7.313  14.249  1.00  0.00     0.004 C 
ATOM      4  C   UNL     1       6.266   7.054  14.513  1.00  0.00     0.005 C 
ATOM      5  C   UNL     1       5.706   7.025  13.108  1.00  0.00     0.002 C 
ATOM      6  C   UNL     1       6.466   8.103  12.352  1.00  0.00    -0.020 C 
ATOM      7  C   UNL     1       6.134   9.598  12.771  1.00  0.00     0.035 C 
ATOM      8  C   UNL     1       4.841  10.154  12.200  1.00  0.00    -0.027 C 
ATOM      9  C   UNL     1       4.016   9.381  11.472  1.00  0.00    -0.074 C 
ATOM     10  C   UNL     1       4.376   7.918  11.294  1.00  0.00     0.021 C 
ATOM     11  C   UNL     1       5.895   7.870  10.952  1.00  0.00     0.016 C 
ATOM     12  C   UNL     1       4.231   7.125  12.658  1.00  0.00    -0.025 C 
ATOM     13  C   UNL     1       3.333   7.784  13.737  1.00  0.00     0.012 C 
ATOM     14  C   UNL     1       3.648   5.720  12.365  1.00  0.00     0.012 C 
ATOM     15  C   UNL     1       2.762   9.954  10.875  1.00  0.00     0.039 C 
ENDROOT
TORSDOF 0
ENDMDL
MODEL 4
REMARK VINA RESULT:    -0.259      3.984      6.513
REMARK INTER + INTRA:          -0.259
REMARK INTER:                  -0.259
REMARK INTRA:                   0.000
REMARK UNBOUND:                 0.000
REMARK SMILES CC1=CC[C@]23C[C@H]1C(C)(C)[C@@H]2CC[C@H]3C
REMARK SMILES IDX 15 1 14 2 13 3 12 4 11 5 5 6 4 7 3 8 2 9 7 10 6 11 8 12 9 13
REMARK SMILES IDX 10 14 1 15
REMARK H PARENT
REMARK Flexibility Score: inf
ROOT
ATOM      1  C   UNL     1       8.178   8.591  15.245  1.00  0.00     0.008 C 
ATOM      2  C   UNL     1       8.151   7.644  14.033  1.00  0.00    -0.007 C 
ATOM      3  C   UNL     1       8.692   8.323  12.733  1.00  0.00     0.004 C 
ATOM      4  C   UNL     1       7.494   8.514  11.766  1.00  0.00     0.005 C 
ATOM      5  C   UNL     1       6.314   8.299  12.688  1.00  0.00     0.002 C 
ATOM      6  C   UNL     1       6.736   7.176  13.623  1.00  0.00    -0.020 C 
ATOM      7  C   UNL     1       6.856   5.740  12.958  1.00  0.00     0.035 C 
ATOM      8  C   UNL     1       5.537   5.020  12.739  1.00  0.00    -0.027 C 
ATOM      9  C   UNL     1       4.365   5.620  13.016  1.00  0.00    -0.074 C 
ATOM     10  C   UNL     1       4.393   7.063  13.485  1.00  0.00     0.021 C 
ATOM     11  C   UNL     1       5.522   7.163  14.553  1.00  0.00     0.016 C 
ATOM     12  C   UNL     1       4.838   8.035  12.316  1.00  0.00    -0.025 C 
ATOM     13  C   UNL     1       4.688   7.481  10.875  1.00  0.00     0.012 C 
ATOM     14  C   UNL     1       4.006   9.338  12.400  1.00  0.00     0.012 C 
ATOM     15  C   UNL     1       3.069   4.882  12.838  1.00  0.00     0.039 C 
ENDROOT
TORSDOF 0
ENDMDL
MODEL 5
REMARK VINA RESULT:    -0.237      5.229      7.232
REMARK INTER + INTRA:          -0.237
REMARK INTER:                  -0.237
REMARK INTRA:                   0.000
REMARK UNBOUND:                 0.000
REMARK SMILES CC1=CC[C@]23C[C@H]1C(C)(C)[C@@H]2CC[C@H]3C
REMARK SMILES IDX 15 1 14 2 13 3 12 4 11 5 5 6 4 7 3 8 2 9 7 10 6 11 8 12 9 13
REMARK SMILES IDX 10 14 1 15
REMARK H PARENT
REMARK Flexibility Score: inf
ROOT
ATOM      1  C   UNL     1       2.992   7.819  13.874  1.00  0.00     0.008 C 
ATOM      2  C   UNL     1       3.910   7.606  12.658  1.00  0.00    -0.007 C 
ATOM      3  C   UNL     1       3.622   6.257  11.922  1.00  0.00     0.004 C 
ATOM      4  C   UNL     1       4.836   5.321  12.160  1.00  0.00     0.005 C 
ATOM      5  C   UNL     1       5.547   6.018  13.299  1.00  0.00     0.002 C 
ATOM      6  C   UNL     1       5.413   7.504  13.005  1.00  0.00    -0.020 C 
ATOM      7  C   UNL     1       6.250   8.035  11.766  1.00  0.00     0.035 C 
ATOM      8  C   UNL     1       7.729   8.253  12.035  1.00  0.00    -0.027 C 
ATOM      9  C   UNL     1       8.274   7.925  13.220  1.00  0.00    -0.074 C 
ATOM     10  C   UNL     1       7.386   7.264  14.257  1.00  0.00     0.021 C 
ATOM     11  C   UNL     1       6.050   8.064  14.277  1.00  0.00     0.016 C 
ATOM     12  C   UNL     1       6.986   5.796  13.814  1.00  0.00    -0.025 C 
ATOM     13  C   UNL     1       7.895   5.136  12.745  1.00  0.00     0.012 C 
ATOM     14  C   UNL     1       6.991   4.875  15.059  1.00  0.00     0.012 C 
ATOM     15  C   UNL     1       9.728   8.187  13.490  1.00  0.00     0.039 C 
ENDROOT
TORSDOF 0
ENDMDL
MODEL 6
REMARK VINA RESULT:    -0.166      1.109      3.168
REMARK INTER + INTRA:          -0.166
REMARK INTER:                  -0.166
REMARK INTRA:                   0.000
REMARK UNBOUND:                 0.000
REMARK SMILES CC1=CC[C@]23C[C@H]1C(C)(C)[C@@H]2CC[C@H]3C
REMARK SMILES IDX 15 1 14 2 13 3 12 4 11 5 5 6 4 7 3 8 2 9 7 10 6 11 8 12 9 13
REMARK SMILES IDX 10 14 1 15
REMARK H PARENT
REMARK Flexibility Score: inf
ROOT
ATOM      1  C   UNL     1       4.090  15.066  11.581  1.00  0.00     0.008 C 
ATOM      2  C   UNL     1       3.417  14.297  12.730  1.00  0.00    -0.007 C 
ATOM      3  C   UNL     1       4.440  13.828  13.815  1.00  0.00     0.004 C 
ATOM      4  C   UNL     1       4.543  12.283  13.731  1.00  0.00     0.005 C 
ATOM      5  C   UNL     1       3.894  12.000  12.394  1.00  0.00     0.002 C 
ATOM      6  C   UNL     1       2.734  12.979  12.298  1.00  0.00    -0.020 C 
ATOM      7  C   UNL     1       1.518  12.699  13.281  1.00  0.00     0.035 C 
ATOM      8  C   UNL     1       0.579  11.590  12.842  1.00  0.00    -0.027 C 
ATOM      9  C   UNL     1       0.835  10.858  11.743  1.00  0.00    -0.074 C 
ATOM     10  C   UNL     1       2.127  11.122  10.993  1.00  0.00     0.021 C 
ATOM     11  C   UNL     1       2.267  12.668  10.875  1.00  0.00     0.016 C 
ATOM     12  C   UNL     1       3.383  10.652  11.837  1.00  0.00    -0.025 C 
ATOM     13  C   UNL     1       3.102   9.623  12.963  1.00  0.00     0.012 C 
ATOM     14  C   UNL     1       4.425  10.021  10.882  1.00  0.00     0.012 C 
ATOM     15  C   UNL     1      -0.125   9.794  11.294  1.00  0.00     0.039 C 
ENDROOT
TORSDOF 0
ENDMDL
MODEL 7
REMARK VINA RESULT:     0.081      1.237      4.174
REMARK INTER + INTRA:           0.081
REMARK INTER:                   0.081
REMARK INTRA:                   0.000
REMARK UNBOUND:                 0.000
REMARK SMILES CC1=CC[C@]23C[C@H]1C(C)(C)[C@@H]2CC[C@H]3C
REMARK SMILES IDX 15 1 14 2 13 3 12 4 11 5 5 6 4 7 3 8 2 9 7 10 6 11 8 12 9 13
REMARK SMILES IDX 10 14 1 15
REMARK H PARENT
REMARK Flexibility Score: inf
ROOT
ATOM      1  C   UNL     1       0.140  10.866  11.919  1.00  0.00     0.008 C 
ATOM      2  C   UNL     1       1.638  10.839  11.570  1.00  0.00    -0.007 C 
ATOM      3  C   UNL     1       2.423   9.765  12.391  1.00  0.00     0.004 C 
ATOM      4  C   UNL     1       3.352  10.515  13.383  1.00  0.00     0.005 C 
ATOM      5  C   UNL     1       2.780  11.915  13.346  1.00  0.00     0.002 C 
ATOM      6  C   UNL     1       2.391  12.149  11.894  1.00  0.00    -0.020 C 
ATOM      7  C   UNL     1       3.601  12.298  10.877  1.00  0.00     0.035 C 
ATOM      8  C   UNL     1       4.282  13.655  10.881  1.00  0.00    -0.027 C 
ATOM      9  C   UNL     1       3.922  14.609  11.758  1.00  0.00    -0.074 C 
ATOM     10  C   UNL     1       2.865  14.269  12.792  1.00  0.00     0.021 C 
ATOM     11  C   UNL     1       1.727  13.520  12.037  1.00  0.00     0.016 C 
ATOM     12  C   UNL     1       3.417  13.228  13.852  1.00  0.00    -0.025 C 
ATOM     13  C   UNL     1       4.960  13.124  13.965  1.00  0.00     0.012 C 
ATOM     14  C   UNL     1       2.873  13.601  15.253  1.00  0.00     0.012 C 
ATOM     15  C   UNL     1       4.573  15.962  11.723  1.00  0.00     0.039 C 
ENDROOT
TORSDOF 0
ENDMDL
MODEL 8
REMARK VINA RESULT:     0.296      3.503      6.210
REMARK INTER + INTRA:           0.296
REMARK INTER:                   0.296
REMARK INTRA:                   0.000
REMARK UNBOUND:                 0.000
REMARK SMILES CC1=CC[C@]23C[C@H]1C(C)(C)[C@@H]2CC[C@H]3C
REMARK SMILES IDX 15 1 14 2 13 3 12 4 11 5 5 6 4 7 3 8 2 9 7 10 6 11 8 12 9 13
REMARK SMILES IDX 10 14 1 15
REMARK H PARENT
REMARK Flexibility Score: inf
ROOT
ATOM      1  C   UNL     1       3.966  10.051  10.875  1.00  0.00     0.008 C 
ATOM      2  C   UNL     1       3.690   8.755  11.657  1.00  0.00    -0.007 C 
ATOM      3  C   UNL     1       3.074   9.027  13.067  1.00  0.00     0.004 C 
ATOM      4  C   UNL     1       4.140   8.651  14.129  1.00  0.00     0.005 C 
ATOM      5  C   UNL     1       5.395   8.558  13.290  1.00  0.00     0.002 C 
ATOM      6  C   UNL     1       4.953   7.925  11.980  1.00  0.00    -0.020 C 
ATOM      7  C   UNL     1       4.541   6.394  12.063  1.00  0.00     0.035 C 
ATOM      8  C   UNL     1       5.702   5.416  12.108  1.00  0.00    -0.027 C 
ATOM      9  C   UNL     1       6.973   5.852  12.164  1.00  0.00    -0.074 C 
ATOM     10  C   UNL     1       7.214   7.347  12.252  1.00  0.00     0.021 C 
ATOM     11  C   UNL     1       6.271   8.014  11.208  1.00  0.00     0.016 C 
ATOM     12  C   UNL     1       6.753   7.917  13.656  1.00  0.00    -0.025 C 
ATOM     13  C   UNL     1       6.621   6.882  14.803  1.00  0.00     0.012 C 
ATOM     14  C   UNL     1       7.764   8.995  14.119  1.00  0.00     0.012 C 
ATOM     15  C   UNL     1       8.114   4.875  12.162  1.00  0.00     0.039 C 
ENDROOT
TORSDOF 0
ENDMDL
