MODEL 1
REMARK VINA RESULT:     1.137      0.000      0.000
REMARK INTER + INTRA:           2.605
REMARK INTER:                   2.865
REMARK INTRA:                  -0.260
REMARK UNBOUND:                -0.260
REMARK SMILES CCCCCCCCCCCCCCCCCCCCCCCCCCCC(=O)[O-]
REMARK SMILES IDX 15 1 16 2 17 3 18 4 19 5 20 6 21 7 22 8 23 9 24 10 25 11
REMARK SMILES IDX 26 12 27 13 28 14 29 15 30 16 14 17 13 18 12 19 11 20 10 21
REMARK SMILES IDX 9 22 8 23 7 24 6 25 5 26 4 27 3 28 2 29 1 30
REMARK H PARENT
REMARK Flexibility Score: inf
ROOT
ATOM      1  C   UNL     1     -11.932 -22.108  11.862  1.00  0.00     0.000 C 
ENDROOT
BRANCH   1   2
ATOM      2  C   UNL     1     -11.000 -22.821  10.863  1.00  0.00     0.000 C 
BRANCH   2   3
ATOM      3  C   UNL     1      -9.583 -23.116  11.388  1.00  0.00     0.000 C 
BRANCH   3   4
ATOM      4  C   UNL     1      -9.337 -22.548  12.797  1.00  0.00     0.000 C 
BRANCH   4   5
ATOM      5  C   UNL     1      -8.049 -23.115  13.433  1.00  0.00     0.000 C 
BRANCH   5   6
ATOM      6  C   UNL     1      -7.991 -22.962  14.962  1.00  0.00     0.000 C 
BRANCH   6   7
ATOM      7  C   UNL     1      -9.317 -22.470  15.564  1.00  0.00     0.000 C 
BRANCH   7   8
ATOM      8  C   UNL     1      -9.540 -20.958  15.376  1.00  0.00     0.000 C 
BRANCH   8   9
ATOM      9  C   UNL     1      -8.266 -20.094  15.448  1.00  0.00     0.000 C 
BRANCH   9  10
ATOM     10  C   UNL     1      -8.087 -19.183  14.224  1.00  0.00     0.000 C 
BRANCH  10  11
ATOM     11  C   UNL     1      -8.895 -19.700  13.028  1.00  0.00     0.000 C 
BRANCH  11  12
ATOM     12  C   UNL     1      -8.184 -19.380  11.705  1.00  0.00     0.006 C 
BRANCH  12  13
ATOM     13  C   UNL     1      -8.320 -17.900  11.317  1.00  0.00     0.053 C 
BRANCH  13  14
ATOM     14  C   UNL     1      -9.299 -17.708  10.200  1.00  0.00     0.041 C 
ATOM     15  O   UNL     1      -9.817 -16.578   9.998  1.00  0.00    -0.550 OA
ATOM     16  O   UNL     1      -9.624 -18.772   9.367  1.00  0.00    -0.550 OA
ENDBRANCH  13  14
ENDBRANCH  12  13
ENDBRANCH  11  12
ENDBRANCH  10  11
ENDBRANCH   9  10
ENDBRANCH   8   9
ENDBRANCH   7   8
ENDBRANCH   6   7
ENDBRANCH   5   6
ENDBRANCH   4   5
ENDBRANCH   3   4
ENDBRANCH   2   3
ENDBRANCH   1   2
BRANCH   1  17
ATOM     17  C   UNL     1     -13.233 -22.863  12.206  1.00  0.00     0.000 C 
BRANCH  17  18
ATOM     18  C   UNL     1     -13.473 -23.088  13.710  1.00  0.00     0.000 C 
BRANCH  18  19
ATOM     19  C   UNL     1     -14.702 -22.330  14.232  1.00  0.00     0.000 C 
BRANCH  19  20
ATOM     20  C   UNL     1     -14.619 -22.117  15.753  1.00  0.00     0.000 C 
BRANCH  20  21
ATOM     21  C   UNL     1     -14.022 -20.753  16.125  1.00  0.00     0.000 C 
BRANCH  21  22
ATOM     22  C   UNL     1     -12.718 -20.447  15.367  1.00  0.00    -0.000 C 
BRANCH  22  23
ATOM     23  C   UNL     1     -11.938 -19.263  15.969  1.00  0.00    -0.000 C 
BRANCH  23  24
ATOM     24  C   UNL     1     -12.569 -17.878  15.727  1.00  0.00    -0.000 C 
BRANCH  24  25
ATOM     25  C   UNL     1     -12.119 -17.233  14.408  1.00  0.00    -0.000 C 
BRANCH  25  26
ATOM     26  C   UNL     1     -10.805 -16.463  14.594  1.00  0.00    -0.000 C 
BRANCH  26  27
ATOM     27  C   UNL     1     -10.171 -16.780  15.956  1.00  0.00    -0.000 C 
BRANCH  27  28
ATOM     28  C   UNL     1      -8.682 -17.149  15.848  1.00  0.00    -0.000 C 
BRANCH  28  29
ATOM     29  C   UNL     1      -7.876 -16.115  15.051  1.00  0.00    -0.003 C 
ATOM     30  C   UNL     1      -7.950 -14.737  15.703  1.00  0.00     0.004 C 
ENDBRANCH  28  29
ENDBRANCH  27  28
ENDBRANCH  26  27
ENDBRANCH  25  26
ENDBRANCH  24  25
ENDBRANCH  23  24
ENDBRANCH  22  23
ENDBRANCH  21  22
ENDBRANCH  20  21
ENDBRANCH  19  20
ENDBRANCH  18  19
ENDBRANCH  17  18
ENDBRANCH   1  17
TORSDOF 26
ENDMDL
MODEL 2
REMARK VINA RESULT:     1.154      1.883      6.497
REMARK INTER + INTRA:           2.648
REMARK INTER:                   0.862
REMARK INTRA:                   1.786
REMARK UNBOUND:                -0.260
REMARK SMILES CCCCCCCCCCCCCCCCCCCCCCCCCCCC(=O)[O-]
REMARK SMILES IDX 15 1 16 2 17 3 18 4 19 5 20 6 21 7 22 8 23 9 24 10 25 11
REMARK SMILES IDX 26 12 27 13 28 14 29 15 30 16 14 17 13 18 12 19 11 20 10 21
REMARK SMILES IDX 9 22 8 23 7 24 6 25 5 26 4 27 3 28 2 29 1 30
REMARK H PARENT
REMARK Flexibility Score: inf
ROOT
ATOM      1  C   UNL     1      -9.912 -16.407  10.376  1.00  0.00     0.000 C 
ENDROOT
BRANCH   1   2
ATOM      2  C   UNL     1      -8.900 -16.593  11.523  1.00  0.00     0.000 C 
BRANCH   2   3
ATOM      3  C   UNL     1      -9.390 -16.131  12.908  1.00  0.00     0.000 C 
BRANCH   3   4
ATOM      4  C   UNL     1      -8.442 -16.544  14.048  1.00  0.00     0.000 C 
BRANCH   4   5
ATOM      5  C   UNL     1      -7.906 -17.980  13.863  1.00  0.00     0.000 C 
BRANCH   5   6
ATOM      6  C   UNL     1      -7.954 -18.831  15.144  1.00  0.00     0.000 C 
BRANCH   6   7
ATOM      7  C   UNL     1      -8.251 -20.313  14.866  1.00  0.00     0.000 C 
BRANCH   7   8
ATOM      8  C   UNL     1      -7.923 -21.228  16.061  1.00  0.00     0.000 C 
BRANCH   8   9
ATOM      9  C   UNL     1      -8.127 -22.734  15.809  1.00  0.00     0.000 C 
BRANCH   9  10
ATOM     10  C   UNL     1      -9.561 -23.085  15.386  1.00  0.00     0.000 C 
BRANCH  10  11
ATOM     11  C   UNL     1     -10.583 -22.213  16.125  1.00  0.00     0.000 C 
BRANCH  11  12
ATOM     12  C   UNL     1     -11.218 -21.187  15.175  1.00  0.00     0.006 C 
BRANCH  12  13
ATOM     13  C   UNL     1     -11.762 -19.962  15.922  1.00  0.00     0.053 C 
BRANCH  13  14
ATOM     14  C   UNL     1     -11.399 -18.684  15.230  1.00  0.00     0.041 C 
ATOM     15  O   UNL     1     -10.646 -18.702  14.220  1.00  0.00    -0.550 OA
ATOM     16  O   UNL     1     -11.910 -17.474  15.686  1.00  0.00    -0.550 OA
ENDBRANCH  13  14
ENDBRANCH  12  13
ENDBRANCH  11  12
ENDBRANCH  10  11
ENDBRANCH   9  10
ENDBRANCH   8   9
ENDBRANCH   7   8
ENDBRANCH   6   7
ENDBRANCH   5   6
ENDBRANCH   4   5
ENDBRANCH   3   4
ENDBRANCH   2   3
ENDBRANCH   1   2
BRANCH   1  17
ATOM     17  C   UNL     1      -9.451 -16.927   8.999  1.00  0.00     0.000 C 
BRANCH  17  18
ATOM     18  C   UNL     1      -8.176 -17.790   9.025  1.00  0.00     0.000 C 
BRANCH  18  19
ATOM     19  C   UNL     1      -8.477 -19.281   9.234  1.00  0.00     0.000 C 
BRANCH  19  20
ATOM     20  C   UNL     1      -9.789 -19.480  10.010  1.00  0.00     0.000 C 
BRANCH  20  21
ATOM     21  C   UNL     1      -9.621 -20.400  11.227  1.00  0.00     0.000 C 
BRANCH  21  22
ATOM     22  C   UNL     1      -8.173 -20.889  11.408  1.00  0.00    -0.000 C 
BRANCH  22  23
ATOM     23  C   UNL     1      -8.089 -22.337  11.927  1.00  0.00    -0.000 C 
BRANCH  23  24
ATOM     24  C   UNL     1      -9.428 -22.938  12.395  1.00  0.00    -0.000 C 
BRANCH  24  25
ATOM     25  C   UNL     1     -10.596 -22.619  11.450  1.00  0.00    -0.000 C 
BRANCH  25  26
ATOM     26  C   UNL     1     -11.783 -22.029  12.221  1.00  0.00    -0.000 C 
BRANCH  26  27
ATOM     27  C   UNL     1     -12.797 -23.122  12.587  1.00  0.00    -0.000 C 
BRANCH  27  28
ATOM     28  C   UNL     1     -13.209 -23.081  14.068  1.00  0.00    -0.000 C 
BRANCH  28  29
ATOM     29  C   UNL     1     -14.503 -22.287  14.297  1.00  0.00    -0.003 C 
ATOM     30  C   UNL     1     -15.174 -22.693  15.606  1.00  0.00     0.004 C 
ENDBRANCH  28  29
ENDBRANCH  27  28
ENDBRANCH  26  27
ENDBRANCH  25  26
ENDBRANCH  24  25
ENDBRANCH  23  24
ENDBRANCH  22  23
ENDBRANCH  21  22
ENDBRANCH  20  21
ENDBRANCH  19  20
ENDBRANCH  18  19
ENDBRANCH  17  18
ENDBRANCH   1  17
TORSDOF 26
ENDMDL
MODEL 3
REMARK VINA RESULT:     1.757      1.556      5.520
REMARK INTER + INTRA:           4.167
REMARK INTER:                   2.308
REMARK INTRA:                   1.859
REMARK UNBOUND:                -0.260
REMARK SMILES CCCCCCCCCCCCCCCCCCCCCCCCCCCC(=O)[O-]
REMARK SMILES IDX 15 1 16 2 17 3 18 4 19 5 20 6 21 7 22 8 23 9 24 10 25 11
REMARK SMILES IDX 26 12 27 13 28 14 29 15 30 16 14 17 13 18 12 19 11 20 10 21
REMARK SMILES IDX 9 22 8 23 7 24 6 25 5 26 4 27 3 28 2 29 1 30
REMARK H PARENT
REMARK Flexibility Score: inf
ROOT
ATOM      1  C   UNL     1      -9.027 -18.746  10.576  1.00  0.00     0.000 C 
ENDROOT
BRANCH   1   2
ATOM      2  C   UNL     1      -7.876 -18.172  11.426  1.00  0.00     0.000 C 
BRANCH   2   3
ATOM      3  C   UNL     1      -7.916 -18.549  12.919  1.00  0.00     0.000 C 
BRANCH   3   4
ATOM      4  C   UNL     1      -8.021 -17.323  13.844  1.00  0.00     0.000 C 
BRANCH   4   5
ATOM      5  C   UNL     1      -7.992 -17.719  15.335  1.00  0.00     0.000 C 
BRANCH   5   6
ATOM      6  C   UNL     1      -9.084 -18.728  15.732  1.00  0.00     0.000 C 
BRANCH   6   7
ATOM      7  C   UNL     1     -10.329 -18.645  14.835  1.00  0.00     0.000 C 
BRANCH   7   8
ATOM      8  C   UNL     1     -11.610 -18.292  15.613  1.00  0.00     0.000 C 
BRANCH   8   9
ATOM      9  C   UNL     1     -11.821 -16.789  15.882  1.00  0.00     0.000 C 
BRANCH   9  10
ATOM     10  C   UNL     1     -11.685 -15.926  14.618  1.00  0.00     0.000 C 
BRANCH  10  11
ATOM     11  C   UNL     1     -11.189 -16.761  13.431  1.00  0.00     0.000 C 
BRANCH  11  12
ATOM     12  C   UNL     1     -11.398 -16.010  12.108  1.00  0.00     0.006 C 
BRANCH  12  13
ATOM     13  C   UNL     1     -10.145 -16.036  11.222  1.00  0.00     0.053 C 
BRANCH  13  14
ATOM     14  C   UNL     1     -10.446 -15.594   9.822  1.00  0.00     0.041 C 
ATOM     15  O   UNL     1     -11.321 -14.713   9.610  1.00  0.00    -0.550 OA
ATOM     16  O   UNL     1      -9.745 -16.139   8.753  1.00  0.00    -0.550 OA
ENDBRANCH  13  14
ENDBRANCH  12  13
ENDBRANCH  11  12
ENDBRANCH  10  11
ENDBRANCH   9  10
ENDBRANCH   8   9
ENDBRANCH   7   8
ENDBRANCH   6   7
ENDBRANCH   5   6
ENDBRANCH   4   5
ENDBRANCH   3   4
ENDBRANCH   2   3
ENDBRANCH   1   2
BRANCH   1  17
ATOM     17  C   UNL     1     -10.158 -19.429  11.372  1.00  0.00     0.000 C 
BRANCH  17  18
ATOM     18  C   UNL     1      -9.725 -20.664  12.183  1.00  0.00     0.000 C 
BRANCH  18  19
ATOM     19  C   UNL     1      -8.593 -21.449  11.505  1.00  0.00     0.000 C 
BRANCH  19  20
ATOM     20  C   UNL     1      -8.453 -22.855  12.110  1.00  0.00     0.000 C 
BRANCH  20  21
ATOM     21  C   UNL     1      -7.976 -22.825  13.569  1.00  0.00     0.000 C 
BRANCH  21  22
ATOM     22  C   UNL     1      -8.823 -21.892  14.452  1.00  0.00    -0.000 C 
BRANCH  22  23
ATOM     23  C   UNL     1      -9.838 -22.653  15.327  1.00  0.00    -0.000 C 
BRANCH  23  24
ATOM     24  C   UNL     1     -11.298 -22.180  15.188  1.00  0.00    -0.000 C 
BRANCH  24  25
ATOM     25  C   UNL     1     -12.264 -22.925  16.121  1.00  0.00    -0.000 C 
BRANCH  25  26
ATOM     26  C   UNL     1     -13.694 -22.900  15.566  1.00  0.00    -0.000 C 
BRANCH  26  27
ATOM     27  C   UNL     1     -13.710 -22.396  14.115  1.00  0.00    -0.000 C 
BRANCH  27  28
ATOM     28  C   UNL     1     -12.692 -23.124  13.221  1.00  0.00    -0.000 C 
BRANCH  28  29
ATOM     29  C   UNL     1     -12.726 -22.630  11.768  1.00  0.00    -0.003 C 
ATOM     30  C   UNL     1     -11.455 -23.026  11.021  1.00  0.00     0.004 C 
ENDBRANCH  28  29
ENDBRANCH  27  28
ENDBRANCH  26  27
ENDBRANCH  25  26
ENDBRANCH  24  25
ENDBRANCH  23  24
ENDBRANCH  22  23
ENDBRANCH  21  22
ENDBRANCH  20  21
ENDBRANCH  19  20
ENDBRANCH  18  19
ENDBRANCH  17  18
ENDBRANCH   1  17
TORSDOF 26
ENDMDL
MODEL 4
REMARK VINA RESULT:     2.293      2.552      5.203
REMARK INTER + INTRA:           5.519
REMARK INTER:                   2.909
REMARK INTRA:                   2.610
REMARK UNBOUND:                -0.260
REMARK SMILES CCCCCCCCCCCCCCCCCCCCCCCCCCCC(=O)[O-]
REMARK SMILES IDX 15 1 16 2 17 3 18 4 19 5 20 6 21 7 22 8 23 9 24 10 25 11
REMARK SMILES IDX 26 12 27 13 28 14 29 15 30 16 14 17 13 18 12 19 11 20 10 21
REMARK SMILES IDX 9 22 8 23 7 24 6 25 5 26 4 27 3 28 2 29 1 30
REMARK H PARENT
REMARK Flexibility Score: inf
ROOT
ATOM      1  C   UNL     1     -10.521 -17.682   9.518  1.00  0.00     0.000 C 
ENDROOT
BRANCH   1   2
ATOM      2  C   UNL     1      -9.143 -18.165   9.024  1.00  0.00     0.000 C 
BRANCH   2   3
ATOM      3  C   UNL     1      -9.184 -19.274   7.956  1.00  0.00     0.000 C 
BRANCH   3   4
ATOM      4  C   UNL     1      -7.903 -20.125   7.927  1.00  0.00     0.000 C 
BRANCH   4   5
ATOM      5  C   UNL     1      -7.880 -21.176   9.057  1.00  0.00     0.000 C 
BRANCH   5   6
ATOM      6  C   UNL     1      -8.654 -20.750  10.317  1.00  0.00     0.000 C 
BRANCH   6   7
ATOM      7  C   UNL     1      -8.007 -21.259  11.615  1.00  0.00     0.000 C 
BRANCH   7   8
ATOM      8  C   UNL     1      -8.223 -22.767  11.845  1.00  0.00     0.000 C 
BRANCH   8   9
ATOM      9  C   UNL     1      -9.136 -23.125  13.034  1.00  0.00     0.000 C 
BRANCH   9  10
ATOM     10  C   UNL     1     -10.311 -22.151  13.205  1.00  0.00     0.000 C 
BRANCH  10  11
ATOM     11  C   UNL     1     -11.350 -22.340  12.093  1.00  0.00     0.000 C 
BRANCH  11  12
ATOM     12  C   UNL     1     -12.704 -22.772  12.675  1.00  0.00     0.006 C 
BRANCH  12  13
ATOM     13  C   UNL     1     -12.664 -22.900  14.204  1.00  0.00     0.053 C 
BRANCH  13  14
ATOM     14  C   UNL     1     -13.485 -21.838  14.870  1.00  0.00     0.041 C 
ATOM     15  O   UNL     1     -12.922 -20.877  15.459  1.00  0.00    -0.550 OA
ATOM     16  O   UNL     1     -14.873 -21.898  14.823  1.00  0.00    -0.550 OA
ENDBRANCH  13  14
ENDBRANCH  12  13
ENDBRANCH  11  12
ENDBRANCH  10  11
ENDBRANCH   9  10
ENDBRANCH   8   9
ENDBRANCH   7   8
ENDBRANCH   6   7
ENDBRANCH   5   6
ENDBRANCH   4   5
ENDBRANCH   3   4
ENDBRANCH   2   3
ENDBRANCH   1   2
BRANCH   1  17
ATOM     17  C   UNL     1     -10.487 -16.582  10.599  1.00  0.00     0.000 C 
BRANCH  17  18
ATOM     18  C   UNL     1     -10.586 -17.095  12.048  1.00  0.00     0.000 C 
BRANCH  18  19
ATOM     19  C   UNL     1      -9.964 -18.486  12.227  1.00  0.00     0.000 C 
BRANCH  19  20
ATOM     20  C   UNL     1     -10.154 -18.999  13.663  1.00  0.00     0.000 C 
BRANCH  20  21
ATOM     21  C   UNL     1     -11.441 -18.470  14.313  1.00  0.00     0.000 C 
BRANCH  21  22
ATOM     22  C   UNL     1     -11.206 -17.906  15.725  1.00  0.00    -0.000 C 
BRANCH  22  23
ATOM     23  C   UNL     1     -11.087 -16.370  15.745  1.00  0.00    -0.000 C 
BRANCH  23  24
ATOM     24  C   UNL     1     -10.396 -15.755  14.513  1.00  0.00    -0.000 C 
BRANCH  24  25
ATOM     25  C   UNL     1      -8.966 -15.276  14.801  1.00  0.00    -0.000 C 
BRANCH  25  26
ATOM     26  C   UNL     1      -8.033 -16.462  15.075  1.00  0.00    -0.000 C 
BRANCH  26  27
ATOM     27  C   UNL     1      -8.779 -17.589  15.804  1.00  0.00    -0.000 C 
BRANCH  27  28
ATOM     28  C   UNL     1      -7.876 -18.792  16.121  1.00  0.00    -0.000 C 
BRANCH  28  29
ATOM     29  C   UNL     1      -8.031 -19.929  15.101  1.00  0.00    -0.003 C 
ATOM     30  C   UNL     1      -8.181 -21.279  15.797  1.00  0.00     0.004 C 
ENDBRANCH  28  29
ENDBRANCH  27  28
ENDBRANCH  26  27
ENDBRANCH  25  26
ENDBRANCH  24  25
ENDBRANCH  23  24
ENDBRANCH  22  23
ENDBRANCH  21  22
ENDBRANCH  20  21
ENDBRANCH  19  20
ENDBRANCH  18  19
ENDBRANCH  17  18
ENDBRANCH   1  17
TORSDOF 26
ENDMDL
MODEL 5
REMARK VINA RESULT:     2.490      2.126      5.359
REMARK INTER + INTRA:           6.014
REMARK INTER:                   5.981
REMARK INTRA:                   0.034
REMARK UNBOUND:                -0.260
REMARK SMILES CCCCCCCCCCCCCCCCCCCCCCCCCCCC(=O)[O-]
REMARK SMILES IDX 15 1 16 2 17 3 18 4 19 5 20 6 21 7 22 8 23 9 24 10 25 11
REMARK SMILES IDX 26 12 27 13 28 14 29 15 30 16 14 17 13 18 12 19 11 20 10 21
REMARK SMILES IDX 9 22 8 23 7 24 6 25 5 26 4 27 3 28 2 29 1 30
REMARK H PARENT
REMARK Flexibility Score: inf
ROOT
ATOM      1  C   UNL     1      -8.432 -21.728  12.355  1.00  0.00     0.000 C 
ENDROOT
BRANCH   1   2
ATOM      2  C   UNL     1      -7.950 -23.043  13.000  1.00  0.00     0.000 C 
BRANCH   2   3
ATOM      3  C   UNL     1      -8.112 -23.117  14.530  1.00  0.00     0.000 C 
BRANCH   3   4
ATOM      4  C   UNL     1      -7.936 -21.751  15.217  1.00  0.00     0.000 C 
BRANCH   4   5
ATOM      5  C   UNL     1      -9.238 -21.270  15.892  1.00  0.00     0.000 C 
BRANCH   5   6
ATOM      6  C   UNL     1     -10.425 -21.131  14.925  1.00  0.00     0.000 C 
BRANCH   6   7
ATOM      7  C   UNL     1     -11.784 -21.129  15.643  1.00  0.00     0.000 C 
BRANCH   7   8
ATOM      8  C   UNL     1     -12.231 -22.534  16.090  1.00  0.00     0.000 C 
BRANCH   8   9
ATOM      9  C   UNL     1     -13.427 -23.119  15.316  1.00  0.00     0.000 C 
BRANCH   9  10
ATOM     10  C   UNL     1     -14.784 -22.647  15.859  1.00  0.00     0.000 C 
BRANCH  10  11
ATOM     11  C   UNL     1     -15.775 -22.388  14.717  1.00  0.00     0.000 C 
BRANCH  11  12
ATOM     12  C   UNL     1     -15.179 -22.814  13.367  1.00  0.00     0.006 C 
BRANCH  12  13
ATOM     13  C   UNL     1     -13.979 -21.946  12.963  1.00  0.00     0.053 C 
BRANCH  13  14
ATOM     14  C   UNL     1     -12.959 -22.732  12.197  1.00  0.00     0.041 C 
ATOM     15  O   UNL     1     -11.902 -23.119  12.761  1.00  0.00    -0.550 OA
ATOM     16  O   UNL     1     -13.187 -23.058  10.865  1.00  0.00    -0.550 OA
ENDBRANCH  13  14
ENDBRANCH  12  13
ENDBRANCH  11  12
ENDBRANCH  10  11
ENDBRANCH   9  10
ENDBRANCH   8   9
ENDBRANCH   7   8
ENDBRANCH   6   7
ENDBRANCH   5   6
ENDBRANCH   4   5
ENDBRANCH   3   4
ENDBRANCH   2   3
ENDBRANCH   1   2
BRANCH   1  17
ATOM     17  C   UNL     1      -9.456 -21.890  11.213  1.00  0.00     0.000 C 
BRANCH  17  18
ATOM     18  C   UNL     1      -8.907 -21.603   9.803  1.00  0.00     0.000 C 
BRANCH  18  19
ATOM     19  C   UNL     1      -8.099 -20.299   9.738  1.00  0.00     0.000 C 
BRANCH  19  20
ATOM     20  C   UNL     1      -7.957 -19.664  11.131  1.00  0.00     0.000 C 
BRANCH  20  21
ATOM     21  C   UNL     1      -8.049 -18.132  11.092  1.00  0.00     0.000 C 
BRANCH  21  22
ATOM     22  C   UNL     1      -9.239 -17.629  10.256  1.00  0.00    -0.000 C 
BRANCH  22  23
ATOM     23  C   UNL     1     -10.582 -17.727  11.005  1.00  0.00    -0.000 C 
BRANCH  23  24
ATOM     24  C   UNL     1     -10.487 -17.562  12.534  1.00  0.00    -0.000 C 
BRANCH  24  25
ATOM     25  C   UNL     1     -10.610 -16.101  12.992  1.00  0.00    -0.000 C 
BRANCH  25  26
ATOM     26  C   UNL     1     -11.607 -15.970  14.150  1.00  0.00    -0.000 C 
BRANCH  26  27
ATOM     27  C   UNL     1     -11.681 -17.273  14.959  1.00  0.00    -0.000 C 
BRANCH  27  28
ATOM     28  C   UNL     1     -10.640 -17.332  16.089  1.00  0.00    -0.000 C 
BRANCH  28  29
ATOM     29  C   UNL     1      -9.285 -16.742  15.672  1.00  0.00    -0.003 C 
ATOM     30  C   UNL     1      -8.196 -17.811  15.669  1.00  0.00     0.004 C 
ENDBRANCH  28  29
ENDBRANCH  27  28
ENDBRANCH  26  27
ENDBRANCH  25  26
ENDBRANCH  24  25
ENDBRANCH  23  24
ENDBRANCH  22  23
ENDBRANCH  21  22
ENDBRANCH  20  21
ENDBRANCH  19  20
ENDBRANCH  18  19
ENDBRANCH  17  18
ENDBRANCH   1  17
TORSDOF 26
ENDMDL
MODEL 6
REMARK VINA RESULT:     2.739      2.106      5.094
REMARK INTER + INTRA:           6.643
REMARK INTER:                   2.503
REMARK INTRA:                   4.140
REMARK UNBOUND:                -0.260
REMARK SMILES CCCCCCCCCCCCCCCCCCCCCCCCCCCC(=O)[O-]
REMARK SMILES IDX 15 1 16 2 17 3 18 4 19 5 20 6 21 7 22 8 23 9 24 10 25 11
REMARK SMILES IDX 26 12 27 13 28 14 29 15 30 16 14 17 13 18 12 19 11 20 10 21
REMARK SMILES IDX 9 22 8 23 7 24 6 25 5 26 4 27 3 28 2 29 1 30
REMARK H PARENT
REMARK Flexibility Score: inf
ROOT
ATOM      1  C   UNL     1      -8.295 -18.055   9.357  1.00  0.00     0.000 C 
ENDROOT
BRANCH   1   2
ATOM      2  C   UNL     1      -9.295 -19.208   9.571  1.00  0.00     0.000 C 
BRANCH   2   3
ATOM      3  C   UNL     1      -8.659 -20.596   9.775  1.00  0.00     0.000 C 
BRANCH   3   4
ATOM      4  C   UNL     1      -8.016 -20.762  11.163  1.00  0.00     0.000 C 
BRANCH   4   5
ATOM      5  C   UNL     1      -8.009 -22.234  11.626  1.00  0.00     0.000 C 
BRANCH   5   6
ATOM      6  C   UNL     1      -7.876 -22.407  13.148  1.00  0.00     0.000 C 
BRANCH   6   7
ATOM      7  C   UNL     1      -9.084 -23.119  13.777  1.00  0.00     0.000 C 
BRANCH   7   8
ATOM      8  C   UNL     1      -9.151 -22.955  15.308  1.00  0.00     0.000 C 
BRANCH   8   9
ATOM      9  C   UNL     1     -10.297 -22.064  15.822  1.00  0.00     0.000 C 
BRANCH   9  10
ATOM     10  C   UNL     1     -11.604 -22.837  16.053  1.00  0.00     0.000 C 
BRANCH  10  11
ATOM     11  C   UNL     1     -12.740 -22.269  15.194  1.00  0.00     0.000 C 
BRANCH  11  12
ATOM     12  C   UNL     1     -12.222 -21.164  14.261  1.00  0.00     0.006 C 
BRANCH  12  13
ATOM     13  C   UNL     1     -11.493 -21.734  13.036  1.00  0.00     0.053 C 
BRANCH  13  14
ATOM     14  C   UNL     1     -12.407 -22.555  12.179  1.00  0.00     0.041 C 
ATOM     15  O   UNL     1     -12.115 -22.779  10.974  1.00  0.00    -0.550 OA
ATOM     16  O   UNL     1     -13.571 -23.092  12.716  1.00  0.00    -0.550 OA
ENDBRANCH  13  14
ENDBRANCH  12  13
ENDBRANCH  11  12
ENDBRANCH  10  11
ENDBRANCH   9  10
ENDBRANCH   8   9
ENDBRANCH   7   8
ENDBRANCH   6   7
ENDBRANCH   5   6
ENDBRANCH   4   5
ENDBRANCH   3   4
ENDBRANCH   2   3
ENDBRANCH   1   2
BRANCH   1  17
ATOM     17  C   UNL     1      -8.748 -16.681   9.892  1.00  0.00     0.000 C 
BRANCH  17  18
ATOM     18  C   UNL     1     -10.241 -16.587  10.257  1.00  0.00     0.000 C 
BRANCH  18  19
ATOM     19  C   UNL     1     -10.489 -15.756  11.523  1.00  0.00     0.000 C 
BRANCH  19  20
ATOM     20  C   UNL     1     -10.490 -16.643  12.779  1.00  0.00     0.000 C 
BRANCH  20  21
ATOM     21  C   UNL     1      -9.118 -16.695  13.465  1.00  0.00     0.000 C 
BRANCH  21  22
ATOM     22  C   UNL     1      -8.092 -17.530  12.679  1.00  0.00    -0.000 C 
BRANCH  22  23
ATOM     23  C   UNL     1      -7.888 -18.939  13.268  1.00  0.00    -0.000 C 
BRANCH  23  24
ATOM     24  C   UNL     1      -8.835 -19.302  14.427  1.00  0.00    -0.000 C 
BRANCH  24  25
ATOM     25  C   UNL     1      -8.337 -18.802  15.791  1.00  0.00    -0.000 C 
BRANCH  25  26
ATOM     26  C   UNL     1      -8.290 -17.269  15.832  1.00  0.00    -0.000 C 
BRANCH  26  27
ATOM     27  C   UNL     1      -9.680 -16.686  16.125  1.00  0.00    -0.000 C 
BRANCH  27  28
ATOM     28  C   UNL     1     -10.813 -17.487  15.462  1.00  0.00    -0.000 C 
BRANCH  28  29
ATOM     29  C   UNL     1     -12.188 -16.831  15.654  1.00  0.00    -0.003 C 
ATOM     30  C   UNL     1     -12.061 -15.318  15.809  1.00  0.00     0.004 C 
ENDBRANCH  28  29
ENDBRANCH  27  28
ENDBRANCH  26  27
ENDBRANCH  25  26
ENDBRANCH  24  25
ENDBRANCH  23  24
ENDBRANCH  22  23
ENDBRANCH  21  22
ENDBRANCH  20  21
ENDBRANCH  19  20
ENDBRANCH  18  19
ENDBRANCH  17  18
ENDBRANCH   1  17
TORSDOF 26
ENDMDL
MODEL 7
REMARK VINA RESULT:     2.850      2.739      5.912
REMARK INTER + INTRA:           6.922
REMARK INTER:                   1.113
REMARK INTRA:                   5.809
REMARK UNBOUND:                -0.260
REMARK SMILES CCCCCCCCCCCCCCCCCCCCCCCCCCCC(=O)[O-]
REMARK SMILES IDX 15 1 16 2 17 3 18 4 19 5 20 6 21 7 22 8 23 9 24 10 25 11
REMARK SMILES IDX 26 12 27 13 28 14 29 15 30 16 14 17 13 18 12 19 11 20 10 21
REMARK SMILES IDX 9 22 8 23 7 24 6 25 5 26 4 27 3 28 2 29 1 30
REMARK H PARENT
REMARK Flexibility Score: inf
ROOT
ATOM      1  C   UNL     1      -9.241 -19.037  13.381  1.00  0.00     0.000 C 
ENDROOT
BRANCH   1   2
ATOM      2  C   UNL     1      -9.467 -19.746  12.031  1.00  0.00     0.000 C 
BRANCH   2   3
ATOM      3  C   UNL     1      -9.459 -21.285  12.092  1.00  0.00     0.000 C 
BRANCH   3   4
ATOM      4  C   UNL     1      -8.038 -21.876  12.101  1.00  0.00     0.000 C 
BRANCH   4   5
ATOM      5  C   UNL     1      -7.882 -22.993  13.154  1.00  0.00     0.000 C 
BRANCH   5   6
ATOM      6  C   UNL     1      -8.233 -22.552  14.585  1.00  0.00     0.000 C 
BRANCH   6   7
ATOM      7  C   UNL     1      -9.666 -22.931  14.993  1.00  0.00     0.000 C 
BRANCH   7   8
ATOM      8  C   UNL     1     -10.610 -23.102  13.787  1.00  0.00     0.000 C 
BRANCH   8   9
ATOM      9  C   UNL     1     -11.648 -21.978  13.603  1.00  0.00     0.000 C 
BRANCH   9  10
ATOM     10  C   UNL     1     -11.904 -21.178  14.889  1.00  0.00     0.000 C 
BRANCH  10  11
ATOM     11  C   UNL     1     -11.925 -22.097  16.116  1.00  0.00     0.000 C 
BRANCH  11  12
ATOM     12  C   UNL     1     -13.123 -23.057  16.060  1.00  0.00     0.006 C 
BRANCH  12  13
ATOM     13  C   UNL     1     -13.880 -22.965  14.727  1.00  0.00     0.053 C 
BRANCH  13  14
ATOM     14  C   UNL     1     -15.211 -22.299  14.890  1.00  0.00     0.041 C 
ATOM     15  O   UNL     1     -16.000 -22.674  15.798  1.00  0.00    -0.550 OA
ATOM     16  O   UNL     1     -15.572 -21.249  14.054  1.00  0.00    -0.550 OA
ENDBRANCH  13  14
ENDBRANCH  12  13
ENDBRANCH  11  12
ENDBRANCH  10  11
ENDBRANCH   9  10
ENDBRANCH   8   9
ENDBRANCH   7   8
ENDBRANCH   6   7
ENDBRANCH   5   6
ENDBRANCH   4   5
ENDBRANCH   3   4
ENDBRANCH   2   3
ENDBRANCH   1   2
BRANCH   1  17
ATOM     17  C   UNL     1      -7.940 -18.214  13.484  1.00  0.00     0.000 C 
BRANCH  17  18
ATOM     18  C   UNL     1      -8.093 -16.842  14.166  1.00  0.00     0.000 C 
BRANCH  18  19
ATOM     19  C   UNL     1      -8.635 -16.951  15.598  1.00  0.00     0.000 C 
BRANCH  19  20
ATOM     20  C   UNL     1      -9.793 -17.958  15.679  1.00  0.00     0.000 C 
BRANCH  20  21
ATOM     21  C   UNL     1     -11.146 -17.281  15.941  1.00  0.00     0.000 C 
BRANCH  21  22
ATOM     22  C   UNL     1     -11.823 -16.784  14.652  1.00  0.00    -0.000 C 
BRANCH  22  23
ATOM     23  C   UNL     1     -10.838 -16.103  13.682  1.00  0.00    -0.000 C 
BRANCH  23  24
ATOM     24  C   UNL     1     -10.643 -16.829  12.337  1.00  0.00    -0.000 C 
BRANCH  24  25
ATOM     25  C   UNL     1      -9.957 -15.957  11.275  1.00  0.00    -0.000 C 
BRANCH  25  26
ATOM     26  C   UNL     1      -9.505 -16.803  10.078  1.00  0.00    -0.000 C 
BRANCH  26  27
ATOM     27  C   UNL     1     -10.008 -18.248  10.207  1.00  0.00    -0.000 C 
BRANCH  27  28
ATOM     28  C   UNL     1     -10.032 -18.992   8.861  1.00  0.00    -0.000 C 
BRANCH  28  29
ATOM     29  C   UNL     1      -8.625 -19.223   8.291  1.00  0.00    -0.003 C 
ATOM     30  C   UNL     1      -8.104 -20.610   8.653  1.00  0.00     0.004 C 
ENDBRANCH  28  29
ENDBRANCH  27  28
ENDBRANCH  26  27
ENDBRANCH  25  26
ENDBRANCH  24  25
ENDBRANCH  23  24
ENDBRANCH  22  23
ENDBRANCH  21  22
ENDBRANCH  20  21
ENDBRANCH  19  20
ENDBRANCH  18  19
ENDBRANCH  17  18
ENDBRANCH   1  17
TORSDOF 26
ENDMDL
MODEL 8
REMARK VINA RESULT:     3.049      1.780      4.746
REMARK INTER + INTRA:           7.423
REMARK INTER:                   3.205
REMARK INTRA:                   4.218
REMARK UNBOUND:                -0.260
REMARK SMILES CCCCCCCCCCCCCCCCCCCCCCCCCCCC(=O)[O-]
REMARK SMILES IDX 15 1 16 2 17 3 18 4 19 5 20 6 21 7 22 8 23 9 24 10 25 11
REMARK SMILES IDX 26 12 27 13 28 14 29 15 30 16 14 17 13 18 12 19 11 20 10 21
REMARK SMILES IDX 9 22 8 23 7 24 6 25 5 26 4 27 3 28 2 29 1 30
REMARK H PARENT
REMARK Flexibility Score: inf
ROOT
ATOM      1  C   UNL     1      -8.123 -18.503   9.395  1.00  0.00     0.000 C 
ENDROOT
BRANCH   1   2
ATOM      2  C   UNL     1      -8.877 -19.711   9.984  1.00  0.00     0.000 C 
BRANCH   2   3
ATOM      3  C   UNL     1      -7.987 -20.771  10.660  1.00  0.00     0.000 C 
BRANCH   3   4
ATOM      4  C   UNL     1      -7.892 -20.589  12.185  1.00  0.00     0.000 C 
BRANCH   4   5
ATOM      5  C   UNL     1      -7.990 -21.934  12.936  1.00  0.00     0.000 C 
BRANCH   5   6
ATOM      6  C   UNL     1      -8.431 -21.796  14.403  1.00  0.00     0.000 C 
BRANCH   6   7
ATOM      7  C   UNL     1      -8.942 -23.118  15.000  1.00  0.00     0.000 C 
BRANCH   7   8
ATOM      8  C   UNL     1     -10.041 -22.915  16.059  1.00  0.00     0.000 C 
BRANCH   8   9
ATOM      9  C   UNL     1     -11.295 -22.167  15.568  1.00  0.00     0.000 C 
BRANCH   9  10
ATOM     10  C   UNL     1     -12.605 -22.791  16.073  1.00  0.00     0.000 C 
BRANCH  10  11
ATOM     11  C   UNL     1     -13.675 -22.789  14.975  1.00  0.00     0.000 C 
BRANCH  11  12
ATOM     12  C   UNL     1     -13.167 -22.073  13.715  1.00  0.00     0.006 C 
BRANCH  12  13
ATOM     13  C   UNL     1     -12.241 -22.963  12.874  1.00  0.00     0.053 C 
BRANCH  13  14
ATOM     14  C   UNL     1     -11.147 -22.171  12.228  1.00  0.00     0.041 C 
ATOM     15  O   UNL     1     -10.429 -22.693  11.334  1.00  0.00    -0.550 OA
ATOM     16  O   UNL     1     -10.932 -20.848  12.598  1.00  0.00    -0.550 OA
ENDBRANCH  13  14
ENDBRANCH  12  13
ENDBRANCH  11  12
ENDBRANCH  10  11
ENDBRANCH   9  10
ENDBRANCH   8   9
ENDBRANCH   7   8
ENDBRANCH   6   7
ENDBRANCH   5   6
ENDBRANCH   4   5
ENDBRANCH   3   4
ENDBRANCH   2   3
ENDBRANCH   1   2
BRANCH   1  17
ATOM     17  C   UNL     1      -8.789 -17.132   9.628  1.00  0.00     0.000 C 
BRANCH  17  18
ATOM     18  C   UNL     1     -10.027 -17.159  10.543  1.00  0.00     0.000 C 
BRANCH  18  19
ATOM     19  C   UNL     1     -10.247 -15.831  11.280  1.00  0.00     0.000 C 
BRANCH  19  20
ATOM     20  C   UNL     1      -9.487 -15.804  12.616  1.00  0.00     0.000 C 
BRANCH  20  21
ATOM     21  C   UNL     1     -10.159 -16.666  13.694  1.00  0.00     0.000 C 
BRANCH  21  22
ATOM     22  C   UNL     1     -11.659 -16.359  13.851  1.00  0.00    -0.000 C 
BRANCH  22  23
ATOM     23  C   UNL     1     -12.232 -16.847  15.195  1.00  0.00    -0.000 C 
BRANCH  23  24
ATOM     24  C   UNL     1     -11.260 -17.680  16.052  1.00  0.00    -0.000 C 
BRANCH  24  25
ATOM     25  C   UNL     1     -11.045 -19.101  15.511  1.00  0.00    -0.000 C 
BRANCH  25  26
ATOM     26  C   UNL     1      -9.757 -19.183  14.681  1.00  0.00    -0.000 C 
BRANCH  26  27
ATOM     27  C   UNL     1      -8.519 -19.172  15.589  1.00  0.00    -0.000 C 
BRANCH  27  28
ATOM     28  C   UNL     1      -8.187 -17.770  16.125  1.00  0.00    -0.000 C 
BRANCH  28  29
ATOM     29  C   UNL     1      -7.876 -16.769  15.003  1.00  0.00    -0.003 C 
ATOM     30  C   UNL     1      -8.329 -15.361  15.378  1.00  0.00     0.004 C 
ENDBRANCH  28  29
ENDBRANCH  27  28
ENDBRANCH  26  27
ENDBRANCH  25  26
ENDBRANCH  24  25
ENDBRANCH  23  24
ENDBRANCH  22  23
ENDBRANCH  21  22
ENDBRANCH  20  21
ENDBRANCH  19  20
ENDBRANCH  18  19
ENDBRANCH  17  18
ENDBRANCH   1  17
TORSDOF 26
ENDMDL
