MODEL 1
REMARK VINA RESULT:    -6.325      0.000      0.000
REMARK INTER + INTRA:         -10.589
REMARK INTER:                  -9.283
REMARK INTRA:                  -1.306
REMARK UNBOUND:                -1.306
REMARK SMILES O=c1c(O[C@@H]2O[C@@H](CO)[C@@H](O)[C@H](O)[C@H]2O)c(-c2ccc(O)c(O)c2)oc2cc(O)cc(O)c12
REMARK SMILES IDX 4 1 3 2 16 3 25 4 2 5 26 6 1 7 33 8 27 9 31 10 28 11 30 12
REMARK SMILES IDX 17 13 18 14 19 15 20 16 24 17 22 18 21 19 23 21 32 23 29 25
REMARK SMILES IDX 5 27 14 28 6 29 12 30 7 31 10 32 15 33 13 35 8 37 9 38 11 40
REMARK H PARENT 21 20 23 22 32 24 29 26 15 34 13 36 9 39 11 41
REMARK Flexibility Score: inf
ROOT
ATOM      1  O   UNL     1      21.660  -9.631  17.572  1.00  0.00    -0.454 OA
ENDROOT
BRANCH   1   2
ATOM      2  C   UNL     1      21.273  -8.467  18.246  1.00  0.00     0.214 A 
ATOM      3  C   UNL     1      20.655  -8.536  19.503  1.00  0.00     0.180 A 
ATOM      4  O   UNL     1      20.278  -7.411  20.091  1.00  0.00    -0.452 OA
ATOM      5  C   UNL     1      21.549  -7.204  17.689  1.00  0.00     0.239 A 
ATOM      6  C   UNL     1      20.527  -6.199  19.615  1.00  0.00     0.146 A 
ATOM      7  O   UNL     1      22.116  -7.152  16.558  1.00  0.00    -0.285 OA
ATOM      8  C   UNL     1      21.188  -6.030  18.382  1.00  0.00     0.111 A 
ATOM      9  C   UNL     1      20.059  -5.089  20.320  1.00  0.00     0.094 A 
ATOM     10  C   UNL     1      21.412  -4.715  17.901  1.00  0.00     0.134 A 
ATOM     11  C   UNL     1      20.272  -3.798  19.840  1.00  0.00     0.123 A 
ATOM     12  C   UNL     1      21.028  -3.610  18.673  1.00  0.00     0.093 A 
BRANCH   3  13
ATOM     13  C   UNL     1      20.415  -9.800  20.248  1.00  0.00     0.025 A 
ATOM     14  C   UNL     1      19.125 -10.045  20.752  1.00  0.00     0.016 A 
ATOM     15  C   UNL     1      18.861 -11.206  21.493  1.00  0.00     0.051 A 
ATOM     16  C   UNL     1      19.880 -12.155  21.714  1.00  0.00     0.157 A 
ATOM     17  C   UNL     1      21.429 -10.755  20.471  1.00  0.00     0.062 A 
ATOM     18  C   UNL     1      21.140 -11.951  21.147  1.00  0.00     0.158 A 
BRANCH  16  19
ATOM     19  O   UNL     1      19.600 -13.284  22.492  1.00  0.00    -0.504 OA
ATOM     20  H   UNL     1      20.102 -14.154  22.425  1.00  0.00     0.293 HD
ENDBRANCH  16  19
BRANCH  18  21
ATOM     21  O   UNL     1      22.104 -12.946  21.219  1.00  0.00    -0.504 OA
ATOM     22  H   UNL     1      22.985 -12.791  21.678  1.00  0.00     0.293 HD
ENDBRANCH  18  21
ENDBRANCH   3  13
BRANCH  10  23
ATOM     23  O   UNL     1      21.948  -4.462  16.636  1.00  0.00    -0.507 OA
ATOM     24  H   UNL     1      21.896  -5.168  15.919  1.00  0.00     0.293 HD
ENDBRANCH  10  23
BRANCH  11  25
ATOM     25  O   UNL     1      19.710  -2.709  20.500  1.00  0.00    -0.508 OA
ATOM     26  H   UNL     1      20.164  -2.345  21.328  1.00  0.00     0.293 HD
ENDBRANCH  11  25
ENDBRANCH   1   2
BRANCH   1  27
ATOM     27  C   UNL     1      20.935 -10.295  16.525  1.00  0.00     0.339 C 
ATOM     28  C   UNL     1      21.688 -11.545  16.008  1.00  0.00     0.214 C 
ATOM     29  O   UNL     1      19.546 -10.477  16.815  1.00  0.00    -0.332 OA
ATOM     30  C   UNL     1      21.208 -12.866  16.668  1.00  0.00     0.180 C 
ATOM     31  C   UNL     1      19.261 -11.655  17.567  1.00  0.00     0.179 C 
ATOM     32  C   UNL     1      19.677 -12.892  16.755  1.00  0.00     0.177 C 
BRANCH  28  33
ATOM     33  O   UNL     1      21.565 -11.609  14.600  1.00  0.00    -0.384 OA
ATOM     34  H   UNL     1      22.486 -11.498  14.225  1.00  0.00     0.211 HD
ENDBRANCH  28  33
BRANCH  30  35
ATOM     35  O   UNL     1      21.784 -13.003  17.935  1.00  0.00    -0.387 OA
ATOM     36  H   UNL     1      22.506 -12.324  18.001  1.00  0.00     0.211 HD
ENDBRANCH  30  35
BRANCH  31  37
ATOM     37  C   UNL     1      17.762 -11.735  17.928  1.00  0.00     0.191 C 
BRANCH  37  38
ATOM     38  O   UNL     1      17.171 -10.474  17.741  1.00  0.00    -0.394 OA
ATOM     39  H   UNL     1      16.992 -10.398  16.776  1.00  0.00     0.210 HD
ENDBRANCH  37  38
ENDBRANCH  31  37
BRANCH  32  40
ATOM     40  O   UNL     1      19.148 -12.921  15.442  1.00  0.00    -0.387 OA
ATOM     41  H   UNL     1      19.236 -13.820  15.025  1.00  0.00     0.211 HD
ENDBRANCH  32  40
ENDBRANCH   1  27
TORSDOF 12
ENDMDL
MODEL 2
REMARK VINA RESULT:    -6.314      3.042      7.510
REMARK INTER + INTRA:         -10.573
REMARK INTER:                 -10.356
REMARK INTRA:                  -0.217
REMARK UNBOUND:                -1.306
REMARK SMILES O=c1c(O[C@@H]2O[C@@H](CO)[C@@H](O)[C@H](O)[C@H]2O)c(-c2ccc(O)c(O)c2)oc2cc(O)cc(O)c12
REMARK SMILES IDX 4 1 3 2 16 3 25 4 2 5 26 6 1 7 33 8 27 9 31 10 28 11 30 12
REMARK SMILES IDX 17 13 18 14 19 15 20 16 24 17 22 18 21 19 23 21 32 23 29 25
REMARK SMILES IDX 5 27 14 28 6 29 12 30 7 31 10 32 15 33 13 35 8 37 9 38 11 40
REMARK H PARENT 21 20 23 22 32 24 29 26 15 34 13 36 9 39 11 41
REMARK Flexibility Score: inf
ROOT
ATOM      1  O   UNL     1      18.646 -13.534  19.202  1.00  0.00    -0.454 OA
ENDROOT
BRANCH   1   2
ATOM      2  C   UNL     1      18.865 -13.543  17.820  1.00  0.00     0.214 A 
ATOM      3  C   UNL     1      18.617 -12.402  17.045  1.00  0.00     0.180 A 
ATOM      4  O   UNL     1      18.809 -12.466  15.736  1.00  0.00    -0.452 OA
ATOM      5  C   UNL     1      19.389 -14.692  17.197  1.00  0.00     0.239 A 
ATOM      6  C   UNL     1      19.313 -13.516  15.105  1.00  0.00     0.146 A 
ATOM      7  O   UNL     1      19.620 -15.715  17.906  1.00  0.00    -0.285 OA
ATOM      8  C   UNL     1      19.641 -14.692  15.808  1.00  0.00     0.111 A 
ATOM      9  C   UNL     1      19.449 -13.467  13.716  1.00  0.00     0.094 A 
ATOM     10  C   UNL     1      20.155 -15.799  15.088  1.00  0.00     0.134 A 
ATOM     11  C   UNL     1      19.946 -14.560  13.009  1.00  0.00     0.123 A 
ATOM     12  C   UNL     1      20.382 -15.695  13.709  1.00  0.00     0.093 A 
BRANCH   3  13
ATOM     13  C   UNL     1      18.175 -11.095  17.599  1.00  0.00     0.025 A 
ATOM     14  C   UNL     1      17.043 -11.072  18.435  1.00  0.00     0.016 A 
ATOM     15  C   UNL     1      16.567  -9.858  18.950  1.00  0.00     0.051 A 
ATOM     16  C   UNL     1      17.237  -8.651  18.663  1.00  0.00     0.157 A 
ATOM     17  C   UNL     1      18.841  -9.885  17.317  1.00  0.00     0.062 A 
ATOM     18  C   UNL     1      18.406  -8.683  17.899  1.00  0.00     0.158 A 
BRANCH  16  19
ATOM     19  O   UNL     1      16.717  -7.450  19.157  1.00  0.00    -0.504 OA
ATOM     20  H   UNL     1      15.832  -7.370  19.631  1.00  0.00     0.293 HD
ENDBRANCH  16  19
BRANCH  18  21
ATOM     21  O   UNL     1      19.163  -7.532  17.739  1.00  0.00    -0.504 OA
ATOM     22  H   UNL     1      18.795  -6.625  17.968  1.00  0.00     0.293 HD
ENDBRANCH  18  21
ENDBRANCH   3  13
BRANCH  10  23
ATOM     23  O   UNL     1      20.388 -17.039  15.687  1.00  0.00    -0.507 OA
ATOM     24  H   UNL     1      21.155 -17.148  16.332  1.00  0.00     0.293 HD
ENDBRANCH  10  23
BRANCH  11  25
ATOM     25  O   UNL     1      19.978 -14.533  11.618  1.00  0.00    -0.508 OA
ATOM     26  H   UNL     1      19.816 -15.389  11.104  1.00  0.00     0.293 HD
ENDBRANCH  11  25
ENDBRANCH   1   2
BRANCH   1  27
ATOM     27  C   UNL     1      19.643 -13.407  20.227  1.00  0.00     0.339 C 
ATOM     28  C   UNL     1      21.076 -13.540  19.655  1.00  0.00     0.214 C 
ATOM     29  O   UNL     1      19.422 -12.301  21.108  1.00  0.00    -0.332 OA
ATOM     30  C   UNL     1      21.745 -12.170  19.354  1.00  0.00     0.180 C 
ATOM     31  C   UNL     1      19.953 -11.067  20.634  1.00  0.00     0.179 C 
ATOM     32  C   UNL     1      21.480 -11.186  20.500  1.00  0.00     0.177 C 
BRANCH  28  33
ATOM     33  O   UNL     1      21.863 -14.300  20.551  1.00  0.00    -0.384 OA
ATOM     34  H   UNL     1      21.275 -14.527  21.329  1.00  0.00     0.211 HD
ENDBRANCH  28  33
BRANCH  30  35
ATOM     35  O   UNL     1      21.272 -11.665  18.139  1.00  0.00    -0.387 OA
ATOM     36  H   UNL     1      21.762 -12.139  17.416  1.00  0.00     0.211 HD
ENDBRANCH  30  35
BRANCH  31  37
ATOM     37  C   UNL     1      19.592  -9.904  21.583  1.00  0.00     0.191 C 
BRANCH  37  38
ATOM     38  O   UNL     1      20.253 -10.085  22.811  1.00  0.00    -0.394 OA
ATOM     39  H   UNL     1      19.654 -10.639  23.362  1.00  0.00     0.210 HD
ENDBRANCH  37  38
ENDBRANCH  31  37
BRANCH  32  40
ATOM     40  O   UNL     1      22.124 -11.662  21.667  1.00  0.00    -0.387 OA
ATOM     41  H   UNL     1      22.870 -12.285  21.454  1.00  0.00     0.211 HD
ENDBRANCH  32  40
ENDBRANCH   1  27
TORSDOF 12
ENDMDL
MODEL 3
REMARK VINA RESULT:    -6.108      2.586      6.667
REMARK INTER + INTRA:         -10.271
REMARK INTER:                 -10.158
REMARK INTRA:                  -0.112
REMARK UNBOUND:                -1.306
REMARK SMILES O=c1c(O[C@@H]2O[C@@H](CO)[C@@H](O)[C@H](O)[C@H]2O)c(-c2ccc(O)c(O)c2)oc2cc(O)cc(O)c12
REMARK SMILES IDX 4 1 3 2 16 3 25 4 2 5 26 6 1 7 33 8 27 9 31 10 28 11 30 12
REMARK SMILES IDX 17 13 18 14 19 15 20 16 24 17 22 18 21 19 23 21 32 23 29 25
REMARK SMILES IDX 5 27 14 28 6 29 12 30 7 31 10 32 15 33 13 35 8 37 9 38 11 40
REMARK H PARENT 21 20 23 22 32 24 29 26 15 34 13 36 9 39 11 41
REMARK Flexibility Score: inf
ROOT
ATOM      1  O   UNL     1      20.240 -10.196  17.575  1.00  0.00    -0.454 OA
ENDROOT
BRANCH   1   2
ATOM      2  C   UNL     1      20.161 -11.592  17.511  1.00  0.00     0.214 A 
ATOM      3  C   UNL     1      20.016 -12.358  18.677  1.00  0.00     0.180 A 
ATOM      4  O   UNL     1      19.977 -13.678  18.571  1.00  0.00    -0.452 OA
ATOM      5  C   UNL     1      20.176 -12.243  16.263  1.00  0.00     0.239 A 
ATOM      6  C   UNL     1      19.972 -14.336  17.421  1.00  0.00     0.146 A 
ATOM      7  O   UNL     1      20.297 -11.542  15.215  1.00  0.00    -0.285 OA
ATOM      8  C   UNL     1      20.064 -13.648  16.195  1.00  0.00     0.111 A 
ATOM      9  C   UNL     1      19.948 -15.732  17.444  1.00  0.00     0.094 A 
ATOM     10  C   UNL     1      20.080 -14.395  14.991  1.00  0.00     0.134 A 
ATOM     11  C   UNL     1      19.973 -16.464  16.259  1.00  0.00     0.123 A 
ATOM     12  C   UNL     1      19.949 -15.790  15.029  1.00  0.00     0.093 A 
BRANCH   3  13
ATOM     13  C   UNL     1      19.871 -11.785  20.041  1.00  0.00     0.025 A 
ATOM     14  C   UNL     1      19.314 -12.592  21.049  1.00  0.00     0.016 A 
ATOM     15  C   UNL     1      19.123 -12.081  22.341  1.00  0.00     0.051 A 
ATOM     16  C   UNL     1      19.518 -10.764  22.651  1.00  0.00     0.157 A 
ATOM     17  C   UNL     1      20.266 -10.469  20.358  1.00  0.00     0.062 A 
ATOM     18  C   UNL     1      20.144  -9.990  21.672  1.00  0.00     0.158 A 
BRANCH  16  19
ATOM     19  O   UNL     1      19.278 -10.266  23.937  1.00  0.00    -0.504 OA
ATOM     20  H   UNL     1      18.430 -10.426  24.455  1.00  0.00     0.293 HD
ENDBRANCH  16  19
BRANCH  18  21
ATOM     21  O   UNL     1      20.681  -8.753  22.001  1.00  0.00    -0.504 OA
ATOM     22  H   UNL     1      20.330  -7.903  21.595  1.00  0.00     0.293 HD
ENDBRANCH  18  21
ENDBRANCH   3  13
BRANCH  10  23
ATOM     23  O   UNL     1      20.292 -13.802  13.744  1.00  0.00    -0.507 OA
ATOM     24  H   UNL     1      19.524 -13.362  13.261  1.00  0.00     0.293 HD
ENDBRANCH  10  23
BRANCH  11  25
ATOM     25  O   UNL     1      20.053 -17.853  16.301  1.00  0.00    -0.508 OA
ATOM     26  H   UNL     1      20.350 -18.305  17.156  1.00  0.00     0.293 HD
ENDBRANCH  11  25
ENDBRANCH   1   2
BRANCH   1  27
ATOM     27  C   UNL     1      19.243  -9.261  17.137  1.00  0.00     0.339 C 
ATOM     28  C   UNL     1      17.897  -9.959  16.823  1.00  0.00     0.214 C 
ATOM     29  O   UNL     1      19.162  -8.086  17.949  1.00  0.00    -0.332 OA
ATOM     30  C   UNL     1      16.890  -9.909  18.004  1.00  0.00     0.180 C 
ATOM     31  C   UNL     1      18.324  -8.228  19.093  1.00  0.00     0.179 C 
ATOM     32  C   UNL     1      16.884  -8.512  18.638  1.00  0.00     0.177 C 
BRANCH  28  33
ATOM     33  O   UNL     1      17.339  -9.384  15.658  1.00  0.00    -0.384 OA
ATOM     34  H   UNL     1      18.105  -9.145  15.059  1.00  0.00     0.211 HD
ENDBRANCH  28  33
BRANCH  30  35
ATOM     35  O   UNL     1      17.215 -10.887  18.950  1.00  0.00    -0.387 OA
ATOM     36  H   UNL     1      18.171 -11.118  18.812  1.00  0.00     0.211 HD
ENDBRANCH  30  35
BRANCH  31  37
ATOM     37  C   UNL     1      18.363  -6.961  19.973  1.00  0.00     0.191 C 
BRANCH  37  38
ATOM     38  O   UNL     1      18.027  -7.302  21.295  1.00  0.00    -0.394 OA
ATOM     39  H   UNL     1      17.733  -8.241  21.266  1.00  0.00     0.210 HD
ENDBRANCH  37  38
ENDBRANCH  31  37
BRANCH  32  40
ATOM     40  O   UNL     1      16.387  -7.585  17.690  1.00  0.00    -0.387 OA
ATOM     41  H   UNL     1      15.505  -7.862  17.325  1.00  0.00     0.211 HD
ENDBRANCH  32  40
ENDBRANCH   1  27
TORSDOF 12
ENDMDL
MODEL 4
REMARK VINA RESULT:    -6.044      3.051      7.968
REMARK INTER + INTRA:         -10.177
REMARK INTER:                  -9.679
REMARK INTRA:                  -0.498
REMARK UNBOUND:                -1.306
REMARK SMILES O=c1c(O[C@@H]2O[C@@H](CO)[C@@H](O)[C@H](O)[C@H]2O)c(-c2ccc(O)c(O)c2)oc2cc(O)cc(O)c12
REMARK SMILES IDX 4 1 3 2 16 3 25 4 2 5 26 6 1 7 33 8 27 9 31 10 28 11 30 12
REMARK SMILES IDX 17 13 18 14 19 15 20 16 24 17 22 18 21 19 23 21 32 23 29 25
REMARK SMILES IDX 5 27 14 28 6 29 12 30 7 31 10 32 15 33 13 35 8 37 9 38 11 40
REMARK H PARENT 21 20 23 22 32 24 29 26 15 34 13 36 9 39 11 41
REMARK Flexibility Score: inf
ROOT
ATOM      1  O   UNL     1      19.366 -11.027  20.947  1.00  0.00    -0.454 OA
ENDROOT
BRANCH   1   2
ATOM      2  C   UNL     1      19.569 -12.011  19.973  1.00  0.00     0.214 A 
ATOM      3  C   UNL     1      18.969 -11.908  18.709  1.00  0.00     0.180 A 
ATOM      4  O   UNL     1      19.164 -12.878  17.830  1.00  0.00    -0.452 OA
ATOM      5  C   UNL     1      20.424 -13.098  20.236  1.00  0.00     0.239 A 
ATOM      6  C   UNL     1      19.970 -13.912  18.024  1.00  0.00     0.146 A 
ATOM      7  O   UNL     1      20.969 -13.178  21.376  1.00  0.00    -0.285 OA
ATOM      8  C   UNL     1      20.655 -14.074  19.244  1.00  0.00     0.111 A 
ATOM      9  C   UNL     1      20.076 -14.881  17.024  1.00  0.00     0.094 A 
ATOM     10  C   UNL     1      21.488 -15.209  19.416  1.00  0.00     0.134 A 
ATOM     11  C   UNL     1      20.888 -16.000  17.199  1.00  0.00     0.123 A 
ATOM     12  C   UNL     1      21.663 -16.116  18.362  1.00  0.00     0.093 A 
BRANCH   3  13
ATOM     13  C   UNL     1      18.141 -10.754  18.269  1.00  0.00     0.025 A 
ATOM     14  C   UNL     1      18.098 -10.446  16.897  1.00  0.00     0.016 A 
ATOM     15  C   UNL     1      17.362  -9.344  16.440  1.00  0.00     0.051 A 
ATOM     16  C   UNL     1      16.629  -8.552  17.348  1.00  0.00     0.157 A 
ATOM     17  C   UNL     1      17.405  -9.959  19.172  1.00  0.00     0.062 A 
ATOM     18  C   UNL     1      16.607  -8.904  18.700  1.00  0.00     0.158 A 
BRANCH  16  19
ATOM     19  O   UNL     1      15.936  -7.434  16.871  1.00  0.00    -0.504 OA
ATOM     20  H   UNL     1      15.982  -7.105  15.920  1.00  0.00     0.293 HD
ENDBRANCH  16  19
BRANCH  18  21
ATOM     21  O   UNL     1      15.769  -8.234  19.579  1.00  0.00    -0.504 OA
ATOM     22  H   UNL     1      15.043  -7.621  19.248  1.00  0.00     0.293 HD
ENDBRANCH  18  21
ENDBRANCH   3  13
BRANCH  10  23
ATOM     23  O   UNL     1      22.103 -15.508  20.633  1.00  0.00    -0.507 OA
ATOM     24  H   UNL     1      21.593 -16.010  21.343  1.00  0.00     0.293 HD
ENDBRANCH  10  23
BRANCH  11  25
ATOM     25  O   UNL     1      20.902 -17.007  16.238  1.00  0.00    -0.508 OA
ATOM     26  H   UNL     1      20.501 -17.908  16.462  1.00  0.00     0.293 HD
ENDBRANCH  11  25
ENDBRANCH   1   2
BRANCH   1  27
ATOM     27  C   UNL     1      20.293 -10.003  21.336  1.00  0.00     0.339 C 
ATOM     28  C   UNL     1      19.947  -8.638  20.691  1.00  0.00     0.214 C 
ATOM     29  O   UNL     1      20.566  -9.979  22.740  1.00  0.00    -0.332 OA
ATOM     30  C   UNL     1      19.113  -7.715  21.621  1.00  0.00     0.180 C 
ATOM     31  C   UNL     1      19.627  -9.221  23.500  1.00  0.00     0.179 C 
ATOM     32  C   UNL     1      19.672  -7.753  23.049  1.00  0.00     0.177 C 
BRANCH  28  33
ATOM     33  O   UNL     1      21.143  -8.001  20.288  1.00  0.00    -0.384 OA
ATOM     34  H   UNL     1      21.659  -8.670  19.751  1.00  0.00     0.211 HD
ENDBRANCH  28  33
BRANCH  30  35
ATOM     35  O   UNL     1      17.769  -8.103  21.598  1.00  0.00    -0.387 OA
ATOM     36  H   UNL     1      17.413  -7.969  22.516  1.00  0.00     0.211 HD
ENDBRANCH  30  35
BRANCH  31  37
ATOM     37  C   UNL     1      19.925  -9.322  25.012  1.00  0.00     0.191 C 
BRANCH  37  38
ATOM     38  O   UNL     1      19.427  -8.178  25.660  1.00  0.00    -0.394 OA
ATOM     39  H   UNL     1      20.073  -7.966  26.371  1.00  0.00     0.210 HD
ENDBRANCH  37  38
ENDBRANCH  31  37
BRANCH  32  40
ATOM     40  O   UNL     1      20.972  -7.193  23.043  1.00  0.00    -0.387 OA
ATOM     41  H   UNL     1      21.238  -6.857  23.941  1.00  0.00     0.211 HD
ENDBRANCH  32  40
ENDBRANCH   1  27
TORSDOF 12
ENDMDL
MODEL 5
REMARK VINA RESULT:    -5.896      2.260      7.477
REMARK INTER + INTRA:          -9.960
REMARK INTER:                  -8.993
REMARK INTRA:                  -0.967
REMARK UNBOUND:                -1.306
REMARK SMILES O=c1c(O[C@@H]2O[C@@H](CO)[C@@H](O)[C@H](O)[C@H]2O)c(-c2ccc(O)c(O)c2)oc2cc(O)cc(O)c12
REMARK SMILES IDX 4 1 3 2 16 3 25 4 2 5 26 6 1 7 33 8 27 9 31 10 28 11 30 12
REMARK SMILES IDX 17 13 18 14 19 15 20 16 24 17 22 18 21 19 23 21 32 23 29 25
REMARK SMILES IDX 5 27 14 28 6 29 12 30 7 31 10 32 15 33 13 35 8 37 9 38 11 40
REMARK H PARENT 21 20 23 22 32 24 29 26 15 34 13 36 9 39 11 41
REMARK Flexibility Score: inf
ROOT
ATOM      1  O   UNL     1      21.295 -12.653  18.625  1.00  0.00    -0.454 OA
ENDROOT
BRANCH   1   2
ATOM      2  C   UNL     1      20.886 -12.836  17.299  1.00  0.00     0.214 A 
ATOM      3  C   UNL     1      20.597 -11.737  16.477  1.00  0.00     0.180 A 
ATOM      4  O   UNL     1      20.183 -11.959  15.239  1.00  0.00    -0.452 OA
ATOM      5  C   UNL     1      20.809 -14.133  16.758  1.00  0.00     0.239 A 
ATOM      6  C   UNL     1      20.109 -13.158  14.679  1.00  0.00     0.146 A 
ATOM      7  O   UNL     1      21.082 -15.119  17.504  1.00  0.00    -0.285 OA
ATOM      8  C   UNL     1      20.428 -14.318  15.412  1.00  0.00     0.111 A 
ATOM      9  C   UNL     1      19.638 -13.261  13.369  1.00  0.00     0.094 A 
ATOM     10  C   UNL     1      20.310 -15.581  14.779  1.00  0.00     0.134 A 
ATOM     11  C   UNL     1      19.515 -14.504  12.752  1.00  0.00     0.123 A 
ATOM     12  C   UNL     1      19.936 -15.658  13.430  1.00  0.00     0.093 A 
BRANCH   3  13
ATOM     13  C   UNL     1      20.752 -10.319  16.894  1.00  0.00     0.025 A 
ATOM     14  C   UNL     1      21.918  -9.632  16.510  1.00  0.00     0.016 A 
ATOM     15  C   UNL     1      22.125  -8.305  16.913  1.00  0.00     0.051 A 
ATOM     16  C   UNL     1      21.150  -7.634  17.679  1.00  0.00     0.157 A 
ATOM     17  C   UNL     1      19.780  -9.641  17.659  1.00  0.00     0.062 A 
ATOM     18  C   UNL     1      19.957  -8.289  17.992  1.00  0.00     0.158 A 
BRANCH  16  19
ATOM     19  O   UNL     1      21.400  -6.324  18.101  1.00  0.00    -0.504 OA
ATOM     20  H   UNL     1      20.810  -5.538  17.883  1.00  0.00     0.293 HD
ENDBRANCH  16  19
BRANCH  18  21
ATOM     21  O   UNL     1      18.924  -7.595  18.606  1.00  0.00    -0.504 OA
ATOM     22  H   UNL     1      18.682  -6.659  18.328  1.00  0.00     0.293 HD
ENDBRANCH  18  21
ENDBRANCH   3  13
BRANCH  10  23
ATOM     23  O   UNL     1      20.488 -16.783  15.467  1.00  0.00    -0.507 OA
ATOM     24  H   UNL     1      21.353 -17.291  15.375  1.00  0.00     0.293 HD
ENDBRANCH  10  23
BRANCH  11  25
ATOM     25  O   UNL     1      18.947 -14.599  11.485  1.00  0.00    -0.508 OA
ATOM     26  H   UNL     1      19.532 -14.851  10.699  1.00  0.00     0.293 HD
ENDBRANCH  11  25
ENDBRANCH   1   2
BRANCH   1  27
ATOM     27  C   UNL     1      20.543 -12.975  19.805  1.00  0.00     0.339 C 
ATOM     28  C   UNL     1      21.276 -12.527  21.094  1.00  0.00     0.214 C 
ATOM     29  O   UNL     1      19.159 -12.622  19.718  1.00  0.00    -0.332 OA
ATOM     30  C   UNL     1      20.800 -11.145  21.620  1.00  0.00     0.180 C 
ATOM     31  C   UNL     1      18.882 -11.271  20.080  1.00  0.00     0.179 C 
ATOM     32  C   UNL     1      19.271 -11.047  21.551  1.00  0.00     0.177 C 
BRANCH  28  33
ATOM     33  O   UNL     1      21.122 -13.525  22.084  1.00  0.00    -0.384 OA
ATOM     34  H   UNL     1      20.742 -14.330  21.625  1.00  0.00     0.211 HD
ENDBRANCH  28  33
BRANCH  30  35
ATOM     35  O   UNL     1      21.402 -10.121  20.883  1.00  0.00    -0.387 OA
ATOM     36  H   UNL     1      21.497  -9.342  21.492  1.00  0.00     0.211 HD
ENDBRANCH  30  35
BRANCH  31  37
ATOM     37  C   UNL     1      17.391 -10.933  19.868  1.00  0.00     0.191 C 
BRANCH  37  38
ATOM     38  O   UNL     1      16.873 -11.741  18.841  1.00  0.00    -0.394 OA
ATOM     39  H   UNL     1      17.325 -11.453  18.015  1.00  0.00     0.210 HD
ENDBRANCH  37  38
ENDBRANCH  31  37
BRANCH  32  40
ATOM     40  O   UNL     1      18.713 -11.994  22.443  1.00  0.00    -0.387 OA
ATOM     41  H   UNL     1      18.451 -11.581  23.309  1.00  0.00     0.211 HD
ENDBRANCH  32  40
ENDBRANCH   1  27
TORSDOF 12
ENDMDL
MODEL 6
REMARK VINA RESULT:    -5.631      4.080      9.364
REMARK INTER + INTRA:          -9.570
REMARK INTER:                  -8.770
REMARK INTRA:                  -0.800
REMARK UNBOUND:                -1.306
REMARK SMILES O=c1c(O[C@@H]2O[C@@H](CO)[C@@H](O)[C@H](O)[C@H]2O)c(-c2ccc(O)c(O)c2)oc2cc(O)cc(O)c12
REMARK SMILES IDX 4 1 3 2 16 3 25 4 2 5 26 6 1 7 33 8 27 9 31 10 28 11 30 12
REMARK SMILES IDX 17 13 18 14 19 15 20 16 24 17 22 18 21 19 23 21 32 23 29 25
REMARK SMILES IDX 5 27 14 28 6 29 12 30 7 31 10 32 15 33 13 35 8 37 9 38 11 40
REMARK H PARENT 21 20 23 22 32 24 29 26 15 34 13 36 9 39 11 41
REMARK Flexibility Score: inf
ROOT
ATOM      1  O   UNL     1      21.064 -13.969  18.070  1.00  0.00    -0.454 OA
ENDROOT
BRANCH   1   2
ATOM      2  C   UNL     1      21.001 -15.361  17.945  1.00  0.00     0.214 A 
ATOM      3  C   UNL     1      20.582 -15.958  16.747  1.00  0.00     0.180 A 
ATOM      4  O   UNL     1      20.508 -17.279  16.685  1.00  0.00    -0.452 OA
ATOM      5  C   UNL     1      21.409 -16.184  19.012  1.00  0.00     0.239 A 
ATOM      6  C   UNL     1      20.894 -18.096  17.655  1.00  0.00     0.146 A 
ATOM      7  O   UNL     1      21.795 -15.636  20.086  1.00  0.00    -0.285 OA
ATOM      8  C   UNL     1      21.376 -17.588  18.877  1.00  0.00     0.111 A 
ATOM      9  C   UNL     1      20.747 -19.472  17.474  1.00  0.00     0.094 A 
ATOM     10  C   UNL     1      21.754 -18.499  19.895  1.00  0.00     0.134 A 
ATOM     11  C   UNL     1      21.111 -20.366  18.479  1.00  0.00     0.123 A 
ATOM     12  C   UNL     1      21.698 -19.880  19.657  1.00  0.00     0.093 A 
BRANCH   3  13
ATOM     13  C   UNL     1      20.238 -15.203  15.513  1.00  0.00     0.025 A 
ATOM     14  C   UNL     1      20.219 -15.896  14.289  1.00  0.00     0.016 A 
ATOM     15  C   UNL     1      19.937 -15.218  13.095  1.00  0.00     0.051 A 
ATOM     16  C   UNL     1      19.638 -13.840  13.112  1.00  0.00     0.157 A 
ATOM     17  C   UNL     1      19.936 -13.826  15.525  1.00  0.00     0.062 A 
ATOM     18  C   UNL     1      19.578 -13.169  14.336  1.00  0.00     0.158 A 
BRANCH  16  19
ATOM     19  O   UNL     1      19.400 -13.180  11.902  1.00  0.00    -0.504 OA
ATOM     20  H   UNL     1      18.520 -13.196  11.413  1.00  0.00     0.293 HD
ENDBRANCH  16  19
BRANCH  18  21
ATOM     21  O   UNL     1      19.131 -11.857  14.388  1.00  0.00    -0.504 OA
ATOM     22  H   UNL     1      19.118 -11.274  13.569  1.00  0.00     0.293 HD
ENDBRANCH  18  21
ENDBRANCH   3  13
BRANCH  10  23
ATOM     23  O   UNL     1      22.125 -18.081  21.174  1.00  0.00    -0.507 OA
ATOM     24  H   UNL     1      22.545 -17.174  21.304  1.00  0.00     0.293 HD
ENDBRANCH  10  23
BRANCH  11  25
ATOM     25  O   UNL     1      20.862 -21.726  18.325  1.00  0.00    -0.508 OA
ATOM     26  H   UNL     1      20.160 -22.027  17.662  1.00  0.00     0.293 HD
ENDBRANCH  11  25
ENDBRANCH   1   2
BRANCH   1  27
ATOM     27  C   UNL     1      20.484 -13.175  19.116  1.00  0.00     0.339 C 
ATOM     28  C   UNL     1      21.009 -11.719  19.093  1.00  0.00     0.214 C 
ATOM     29  O   UNL     1      19.066 -13.326  19.232  1.00  0.00    -0.332 OA
ATOM     30  C   UNL     1      20.068 -10.740  18.339  1.00  0.00     0.180 C 
ATOM     31  C   UNL     1      18.320 -12.475  18.366  1.00  0.00     0.179 C 
ATOM     32  C   UNL     1      18.606 -11.007  18.722  1.00  0.00     0.177 C 
BRANCH  28  33
ATOM     33  O   UNL     1      21.231 -11.286  20.421  1.00  0.00    -0.384 OA
ATOM     34  H   UNL     1      22.128 -11.636  20.692  1.00  0.00     0.211 HD
ENDBRANCH  28  33
BRANCH  30  35
ATOM     35  O   UNL     1      20.255 -10.864  16.959  1.00  0.00    -0.387 OA
ATOM     36  H   UNL     1      19.611 -10.247  16.522  1.00  0.00     0.211 HD
ENDBRANCH  30  35
BRANCH  31  37
ATOM     37  C   UNL     1      16.806 -12.761  18.473  1.00  0.00     0.191 C 
BRANCH  37  38
ATOM     38  O   UNL     1      16.109 -11.544  18.563  1.00  0.00    -0.394 OA
ATOM     39  H   UNL     1      16.732 -10.850  18.249  1.00  0.00     0.210 HD
ENDBRANCH  37  38
ENDBRANCH  31  37
BRANCH  32  40
ATOM     40  O   UNL     1      18.433 -10.704  20.094  1.00  0.00    -0.387 OA
ATOM     41  H   UNL     1      19.240 -10.275  20.486  1.00  0.00     0.211 HD
ENDBRANCH  32  40
ENDBRANCH   1  27
TORSDOF 12
ENDMDL
MODEL 7
REMARK VINA RESULT:    -5.621      1.148      1.929
REMARK INTER + INTRA:          -9.556
REMARK INTER:                  -8.298
REMARK INTRA:                  -1.258
REMARK UNBOUND:                -1.306
REMARK SMILES O=c1c(O[C@@H]2O[C@@H](CO)[C@@H](O)[C@H](O)[C@H]2O)c(-c2ccc(O)c(O)c2)oc2cc(O)cc(O)c12
REMARK SMILES IDX 4 1 3 2 16 3 25 4 2 5 26 6 1 7 33 8 27 9 31 10 28 11 30 12
REMARK SMILES IDX 17 13 18 14 19 15 20 16 24 17 22 18 21 19 23 21 32 23 29 25
REMARK SMILES IDX 5 27 14 28 6 29 12 30 7 31 10 32 15 33 13 35 8 37 9 38 11 40
REMARK H PARENT 21 20 23 22 32 24 29 26 15 34 13 36 9 39 11 41
REMARK Flexibility Score: inf
ROOT
ATOM      1  O   UNL     1      21.105 -10.267  17.431  1.00  0.00    -0.454 OA
ENDROOT
BRANCH   1   2
ATOM      2  C   UNL     1      20.956  -9.034  18.078  1.00  0.00     0.214 A 
ATOM      3  C   UNL     1      20.432  -8.962  19.376  1.00  0.00     0.180 A 
ATOM      4  O   UNL     1      20.280  -7.772  19.937  1.00  0.00    -0.452 OA
ATOM      5  C   UNL     1      21.383  -7.851  17.446  1.00  0.00     0.239 A 
ATOM      6  C   UNL     1      20.679  -6.631  19.391  1.00  0.00     0.146 A 
ATOM      7  O   UNL     1      21.865  -7.927  16.278  1.00  0.00    -0.285 OA
ATOM      8  C   UNL     1      21.263  -6.611  18.110  1.00  0.00     0.111 A 
ATOM      9  C   UNL     1      20.444  -5.438  20.076  1.00  0.00     0.094 A 
ATOM     10  C   UNL     1      21.652  -5.365  17.555  1.00  0.00     0.134 A 
ATOM     11  C   UNL     1      20.819  -4.215  19.525  1.00  0.00     0.123 A 
ATOM     12  C   UNL     1      21.504  -4.188  18.302  1.00  0.00     0.093 A 
BRANCH   3  13
ATOM     13  C   UNL     1      20.054 -10.146  20.192  1.00  0.00     0.025 A 
ATOM     14  C   UNL     1      18.689 -10.454  20.332  1.00  0.00     0.016 A 
ATOM     15  C   UNL     1      18.284 -11.539  21.123  1.00  0.00     0.051 A 
ATOM     16  C   UNL     1      19.244 -12.352  21.760  1.00  0.00     0.157 A 
ATOM     17  C   UNL     1      21.009 -10.964  20.831  1.00  0.00     0.062 A 
ATOM     18  C   UNL     1      20.601 -12.094  21.557  1.00  0.00     0.158 A 
BRANCH  16  19
ATOM     19  O   UNL     1      18.810 -13.403  22.576  1.00  0.00    -0.504 OA
ATOM     20  H   UNL     1      18.167 -14.119  22.281  1.00  0.00     0.293 HD
ENDBRANCH  16  19
BRANCH  18  21
ATOM     21  O   UNL     1      21.556 -12.975  22.044  1.00  0.00    -0.504 OA
ATOM     22  H   UNL     1      22.526 -12.718  22.105  1.00  0.00     0.293 HD
ENDBRANCH  18  21
ENDBRANCH   3  13
BRANCH  10  23
ATOM     23  O   UNL     1      22.124  -5.243  16.246  1.00  0.00    -0.507 OA
ATOM     24  H   UNL     1      21.546  -4.811  15.543  1.00  0.00     0.293 HD
ENDBRANCH  10  23
BRANCH  11  25
ATOM     25  O   UNL     1      20.485  -3.029  20.172  1.00  0.00    -0.508 OA
ATOM     26  H   UNL     1      19.545  -2.907  20.526  1.00  0.00     0.293 HD
ENDBRANCH  11  25
ENDBRANCH   1   2
BRANCH   1  27
ATOM     27  C   UNL     1      20.056 -11.186  17.089  1.00  0.00     0.339 C 
ATOM     28  C   UNL     1      19.777 -11.198  15.566  1.00  0.00     0.214 C 
ATOM     29  O   UNL     1      20.192 -12.468  17.710  1.00  0.00    -0.332 OA
ATOM     30  C   UNL     1      20.515 -12.342  14.816  1.00  0.00     0.180 C 
ATOM     31  C   UNL     1      21.028 -13.373  16.994  1.00  0.00     0.179 C 
ATOM     32  C   UNL     1      20.414 -13.650  15.612  1.00  0.00     0.177 C 
BRANCH  28  33
ATOM     33  O   UNL     1      18.381 -11.273  15.353  1.00  0.00    -0.384 OA
ATOM     34  H   UNL     1      18.074 -12.136  15.757  1.00  0.00     0.211 HD
ENDBRANCH  28  33
BRANCH  30  35
ATOM     35  O   UNL     1      21.850 -11.987  14.601  1.00  0.00    -0.387 OA
ATOM     36  H   UNL     1      22.333 -12.816  14.341  1.00  0.00     0.211 HD
ENDBRANCH  30  35
BRANCH  31  37
ATOM     37  C   UNL     1      21.208 -14.696  17.769  1.00  0.00     0.191 C 
BRANCH  37  38
ATOM     38  O   UNL     1      20.849 -15.773  16.940  1.00  0.00    -0.394 OA
ATOM     39  H   UNL     1      21.512 -15.790  16.213  1.00  0.00     0.210 HD
ENDBRANCH  37  38
ENDBRANCH  31  37
BRANCH  32  40
ATOM     40  O   UNL     1      19.058 -14.052  15.655  1.00  0.00    -0.387 OA
ATOM     41  H   UNL     1      18.437 -13.275  15.643  1.00  0.00     0.211 HD
ENDBRANCH  32  40
ENDBRANCH   1  27
TORSDOF 12
ENDMDL
MODEL 8
REMARK VINA RESULT:    -5.367      2.022      7.378
REMARK INTER + INTRA:          -9.183
REMARK INTER:                  -9.093
REMARK INTRA:                  -0.090
REMARK UNBOUND:                -1.306
REMARK SMILES O=c1c(O[C@@H]2O[C@@H](CO)[C@@H](O)[C@H](O)[C@H]2O)c(-c2ccc(O)c(O)c2)oc2cc(O)cc(O)c12
REMARK SMILES IDX 4 1 3 2 16 3 25 4 2 5 26 6 1 7 33 8 27 9 31 10 28 11 30 12
REMARK SMILES IDX 17 13 18 14 19 15 20 16 24 17 22 18 21 19 23 21 32 23 29 25
REMARK SMILES IDX 5 27 14 28 6 29 12 30 7 31 10 32 15 33 13 35 8 37 9 38 11 40
REMARK H PARENT 21 20 23 22 32 24 29 26 15 34 13 36 9 39 11 41
REMARK Flexibility Score: inf
ROOT
ATOM      1  O   UNL     1      18.069 -10.841  18.841  1.00  0.00    -0.454 OA
ENDROOT
BRANCH   1   2
ATOM      2  C   UNL     1      18.623 -11.484  17.728  1.00  0.00     0.214 A 
ATOM      3  C   UNL     1      19.627 -10.867  16.967  1.00  0.00     0.180 A 
ATOM      4  O   UNL     1      20.100 -11.500  15.904  1.00  0.00    -0.452 OA
ATOM      5  C   UNL     1      18.212 -12.787  17.389  1.00  0.00     0.239 A 
ATOM      6  C   UNL     1      19.757 -12.731  15.552  1.00  0.00     0.146 A 
ATOM      7  O   UNL     1      17.313 -13.340  18.088  1.00  0.00    -0.285 OA
ATOM      8  C   UNL     1      18.793 -13.449  16.287  1.00  0.00     0.111 A 
ATOM      9  C   UNL     1      20.314 -13.281  14.396  1.00  0.00     0.094 A 
ATOM     10  C   UNL     1      18.439 -14.753  15.859  1.00  0.00     0.134 A 
ATOM     11  C   UNL     1      19.958 -14.560  13.973  1.00  0.00     0.123 A 
ATOM     12  C   UNL     1      19.086 -15.330  14.757  1.00  0.00     0.093 A 
BRANCH   3  13
ATOM     13  C   UNL     1      20.227  -9.546  17.290  1.00  0.00     0.025 A 
ATOM     14  C   UNL     1      21.465  -9.215  16.710  1.00  0.00     0.016 A 
ATOM     15  C   UNL     1      22.088  -7.996  17.015  1.00  0.00     0.051 A 
ATOM     16  C   UNL     1      21.463  -7.075  17.881  1.00  0.00     0.157 A 
ATOM     17  C   UNL     1      19.606  -8.620  18.153  1.00  0.00     0.062 A 
ATOM     18  C   UNL     1      20.197  -7.369  18.393  1.00  0.00     0.158 A 
BRANCH  16  19
ATOM     19  O   UNL     1      22.125  -5.884  18.200  1.00  0.00    -0.504 OA
ATOM     20  H   UNL     1      21.721  -4.968  18.098  1.00  0.00     0.293 HD
ENDBRANCH  16  19
BRANCH  18  21
ATOM     21  O   UNL     1      19.501  -6.411  19.116  1.00  0.00    -0.504 OA
ATOM     22  H   UNL     1      19.898  -5.977  19.931  1.00  0.00     0.293 HD
ENDBRANCH  18  21
ENDBRANCH   3  13
BRANCH  10  23
ATOM     23  O   UNL     1      17.408 -15.483  16.455  1.00  0.00    -0.507 OA
ATOM     24  H   UNL     1      17.490 -15.773  17.417  1.00  0.00     0.293 HD
ENDBRANCH  10  23
BRANCH  11  25
ATOM     25  O   UNL     1      20.442 -15.053  12.765  1.00  0.00    -0.508 OA
ATOM     26  H   UNL     1      20.679 -16.034  12.691  1.00  0.00     0.293 HD
ENDBRANCH  11  25
ENDBRANCH   1   2
BRANCH   1  27
ATOM     27  C   UNL     1      18.249 -11.204  20.218  1.00  0.00     0.339 C 
ATOM     28  C   UNL     1      19.322 -12.307  20.386  1.00  0.00     0.214 C 
ATOM     29  O   UNL     1      18.363 -10.081  21.097  1.00  0.00    -0.332 OA
ATOM     30  C   UNL     1      20.727 -11.747  20.738  1.00  0.00     0.180 C 
ATOM     31  C   UNL     1      19.687  -9.564  21.207  1.00  0.00     0.179 C 
ATOM     32  C   UNL     1      20.609 -10.643  21.797  1.00  0.00     0.177 C 
BRANCH  28  33
ATOM     33  O   UNL     1      18.886 -13.230  21.365  1.00  0.00    -0.384 OA
ATOM     34  H   UNL     1      19.704 -13.700  21.702  1.00  0.00     0.211 HD
ENDBRANCH  28  33
BRANCH  30  35
ATOM     35  O   UNL     1      21.353 -11.268  19.583  1.00  0.00    -0.387 OA
ATOM     36  H   UNL     1      22.269 -11.653  19.568  1.00  0.00     0.211 HD
ENDBRANCH  30  35
BRANCH  31  37
ATOM     37  C   UNL     1      19.718  -8.298  22.090  1.00  0.00     0.191 C 
BRANCH  37  38
ATOM     38  O   UNL     1      18.595  -7.503  21.802  1.00  0.00    -0.394 OA
ATOM     39  H   UNL     1      18.751  -7.127  20.905  1.00  0.00     0.210 HD
ENDBRANCH  37  38
ENDBRANCH  31  37
BRANCH  32  40
ATOM     40  O   UNL     1      20.129 -11.215  22.999  1.00  0.00    -0.387 OA
ATOM     41  H   UNL     1      20.383 -10.677  23.796  1.00  0.00     0.211 HD
ENDBRANCH  32  40
ENDBRANCH   1  27
TORSDOF 12
ENDMDL
