MODEL 1
REMARK VINA RESULT:    -2.585      0.000      0.000
REMARK INTER + INTRA:          -2.585
REMARK INTER:                  -2.585
REMARK INTRA:                   0.000
REMARK UNBOUND:                 0.000
REMARK SMILES CC(=O)[O-]
REMARK SMILES IDX 1 1 2 2 3 3 4 4
REMARK H PARENT
REMARK Flexibility Score: inf
ROOT
ATOM      1  C   UNL     1     -47.370  16.418 -23.513  1.00  0.00     0.063 C 
ATOM      2  C   UNL     1     -45.892  16.269 -23.631  1.00  0.00     0.038 C 
ATOM      3  O   UNL     1     -45.344  15.167 -23.369  1.00  0.00    -0.550 OA
ATOM      4  O   UNL     1     -45.120  17.331 -24.086  1.00  0.00    -0.550 OA
ENDROOT
TORSDOF 0
ENDMDL
MODEL 2
REMARK VINA RESULT:    -2.265      8.077      8.468
REMARK INTER + INTRA:          -2.265
REMARK INTER:                  -2.265
REMARK INTRA:                   0.000
REMARK UNBOUND:                 0.000
REMARK SMILES CC(=O)[O-]
REMARK SMILES IDX 1 1 2 2 3 3 4 4
REMARK H PARENT
REMARK Flexibility Score: inf
ROOT
ATOM      1  C   UNL     1     -41.057  19.123 -27.803  1.00  0.00     0.063 C 
ATOM      2  C   UNL     1     -40.012  19.479 -28.804  1.00  0.00     0.038 C 
ATOM      3  O   UNL     1     -39.376  18.573 -29.404  1.00  0.00    -0.550 OA
ATOM      4  O   UNL     1     -39.777  20.811 -29.120  1.00  0.00    -0.550 OA
ENDROOT
TORSDOF 0
ENDMDL
MODEL 3
REMARK VINA RESULT:    -2.253     10.179     10.372
REMARK INTER + INTRA:          -2.253
REMARK INTER:                  -2.253
REMARK INTRA:                   0.000
REMARK UNBOUND:                 0.000
REMARK SMILES CC(=O)[O-]
REMARK SMILES IDX 1 1 2 2 3 3 4 4
REMARK H PARENT
REMARK Flexibility Score: inf
ROOT
ATOM      1  C   UNL     1     -38.386  18.648 -30.743  1.00  0.00     0.063 C 
ATOM      2  C   UNL     1     -38.584  17.173 -30.656  1.00  0.00     0.038 C 
ATOM      3  O   UNL     1     -39.529  16.624 -31.280  1.00  0.00    -0.550 OA
ATOM      4  O   UNL     1     -37.692  16.393 -29.931  1.00  0.00    -0.550 OA
ENDROOT
TORSDOF 0
ENDMDL
MODEL 4
REMARK VINA RESULT:    -2.245     17.673     17.863
REMARK INTER + INTRA:          -2.245
REMARK INTER:                  -2.245
REMARK INTRA:                   0.000
REMARK UNBOUND:                 0.000
REMARK SMILES CC(=O)[O-]
REMARK SMILES IDX 1 1 2 2 3 3 4 4
REMARK H PARENT
REMARK Flexibility Score: inf
ROOT
ATOM      1  C   UNL     1     -51.613  23.933 -38.237  1.00  0.00     0.063 C 
ATOM      2  C   UNL     1     -51.975  22.756 -39.078  1.00  0.00     0.038 C 
ATOM      3  O   UNL     1     -53.054  22.141 -38.873  1.00  0.00    -0.550 OA
ATOM      4  O   UNL     1     -51.149  22.369 -40.125  1.00  0.00    -0.550 OA
ENDROOT
TORSDOF 0
ENDMDL
MODEL 5
REMARK VINA RESULT:    -2.229     10.137     10.302
REMARK INTER + INTRA:          -2.229
REMARK INTER:                  -2.229
REMARK INTRA:                   0.000
REMARK UNBOUND:                 0.000
REMARK SMILES CC(=O)[O-]
REMARK SMILES IDX 1 1 2 2 3 3 4 4
REMARK H PARENT
REMARK Flexibility Score: inf
ROOT
ATOM      1  C   UNL     1     -38.354  18.692 -30.672  1.00  0.00     0.063 C 
ATOM      2  C   UNL     1     -38.539  17.216 -30.579  1.00  0.00     0.038 C 
ATOM      3  O   UNL     1     -37.769  16.527 -29.861  1.00  0.00    -0.550 OA
ATOM      4  O   UNL     1     -39.597  16.605 -31.239  1.00  0.00    -0.550 OA
ENDROOT
TORSDOF 0
ENDMDL
MODEL 6
REMARK VINA RESULT:    -2.227     17.409     17.914
REMARK INTER + INTRA:          -2.227
REMARK INTER:                  -2.227
REMARK INTRA:                   0.000
REMARK UNBOUND:                 0.000
REMARK SMILES CC(=O)[O-]
REMARK SMILES IDX 1 1 2 2 3 3 4 4
REMARK H PARENT
REMARK Flexibility Score: inf
ROOT
ATOM      1  C   UNL     1     -50.757  24.335 -37.955  1.00  0.00     0.063 C 
ATOM      2  C   UNL     1     -52.177  24.117 -38.353  1.00  0.00     0.038 C 
ATOM      3  O   UNL     1     -52.918  25.100 -38.613  1.00  0.00    -0.550 OA
ATOM      4  O   UNL     1     -52.670  22.826 -38.491  1.00  0.00    -0.550 OA
ENDROOT
TORSDOF 0
ENDMDL
MODEL 7
REMARK VINA RESULT:    -2.207     10.129     10.320
REMARK INTER + INTRA:          -2.207
REMARK INTER:                  -2.207
REMARK INTRA:                   0.000
REMARK UNBOUND:                 0.000
REMARK SMILES CC(=O)[O-]
REMARK SMILES IDX 1 1 2 2 3 3 4 4
REMARK H PARENT
REMARK Flexibility Score: inf
ROOT
ATOM      1  C   UNL     1     -39.477  16.709 -31.156  1.00  0.00     0.063 C 
ATOM      2  C   UNL     1     -38.384  17.504 -30.526  1.00  0.00     0.038 C 
ATOM      3  O   UNL     1     -37.599  16.961 -29.706  1.00  0.00    -0.550 OA
ATOM      4  O   UNL     1     -38.196  18.832 -30.886  1.00  0.00    -0.550 OA
ENDROOT
TORSDOF 0
ENDMDL
MODEL 8
REMARK VINA RESULT:    -2.207      9.646     10.183
REMARK INTER + INTRA:          -2.207
REMARK INTER:                  -2.207
REMARK INTRA:                   0.000
REMARK UNBOUND:                 0.000
REMARK SMILES CC(=O)[O-]
REMARK SMILES IDX 1 1 2 2 3 3 4 4
REMARK H PARENT
REMARK Flexibility Score: inf
ROOT
ATOM      1  C   UNL     1     -51.397  25.333 -20.000  1.00  0.00     0.063 C 
ATOM      2  C   UNL     1     -51.179  24.454 -21.184  1.00  0.00     0.038 C 
ATOM      3  O   UNL     1     -50.022  24.300 -21.653  1.00  0.00    -0.550 OA
ATOM      4  O   UNL     1     -52.246  23.758 -21.738  1.00  0.00    -0.550 OA
ENDROOT
TORSDOF 0
ENDMDL
MODEL 9
REMARK VINA RESULT:    -2.199      7.834      8.642
REMARK INTER + INTRA:          -2.199
REMARK INTER:                  -2.199
REMARK INTRA:                   0.000
REMARK UNBOUND:                 0.000
REMARK SMILES CC(=O)[O-]
REMARK SMILES IDX 1 1 2 2 3 3 4 4
REMARK H PARENT
REMARK Flexibility Score: inf
ROOT
ATOM      1  C   UNL     1     -38.769  19.001 -28.494  1.00  0.00     0.063 C 
ATOM      2  C   UNL     1     -40.094  19.683 -28.522  1.00  0.00     0.038 C 
ATOM      3  O   UNL     1     -40.222  20.792 -29.102  1.00  0.00    -0.550 OA
ATOM      4  O   UNL     1     -41.204  19.069 -27.955  1.00  0.00    -0.550 OA
ENDROOT
TORSDOF 0
ENDMDL
