MODEL 1
REMARK VINA RESULT:    -3.647      0.000      0.000
REMARK INTER + INTRA:          -3.754
REMARK INTER:                  -3.754
REMARK INTRA:                   0.000
REMARK UNBOUND:                 0.000
REMARK SMILES CC1(C)[C@H]2CC[C@](C)(C2)[C@@H]1O
REMARK SMILES IDX 1 1 2 2 4 3 5 4 6 5 7 6 9 7 10 8 8 9 3 10 11 11
REMARK H PARENT 11 12
REMARK Flexibility Score: inf
ROOT
ATOM      1  C   UNL     1      -2.719   2.645  -6.561  1.00  0.00     0.014 C 
ATOM      2  C   UNL     1      -1.832   3.510  -5.627  1.00  0.00    -0.006 C 
ATOM      3  C   UNL     1      -0.598   4.055  -6.424  1.00  0.00    -0.002 C 
ATOM      4  C   UNL     1       0.149   5.144  -5.627  1.00  0.00     0.005 C 
ATOM      5  C   UNL     1       0.754   4.354  -4.457  1.00  0.00     0.010 C 
ATOM      6  C   UNL     1       0.372   2.894  -4.796  1.00  0.00    -0.006 C 
ATOM      7  C   UNL     1       0.397   2.914  -6.308  1.00  0.00     0.013 C 
ATOM      8  C   UNL     1      -1.139   2.686  -4.489  1.00  0.00     0.126 C 
ATOM      9  C   UNL     1       1.315   1.862  -4.165  1.00  0.00     0.014 C 
ATOM     10  C   UNL     1      -2.732   4.626  -5.043  1.00  0.00     0.014 C 
ENDROOT
BRANCH   8  11
ATOM     11  O   UNL     1      -1.485   1.322  -4.553  1.00  0.00    -0.392 OA
ATOM     12  H   UNL     1      -0.771   0.820  -4.080  1.00  0.00     0.211 HD
ENDBRANCH   8  11
TORSDOF 1
ENDMDL
MODEL 2
REMARK VINA RESULT:    -3.421      1.813      3.456
REMARK INTER + INTRA:          -3.521
REMARK INTER:                  -3.521
REMARK INTRA:                   0.000
REMARK UNBOUND:                 0.000
REMARK SMILES CC1(C)[C@H]2CC[C@](C)(C2)[C@@H]1O
REMARK SMILES IDX 1 1 2 2 4 3 5 4 6 5 7 6 9 7 10 8 8 9 3 10 11 11
REMARK H PARENT 11 12
REMARK Flexibility Score: inf
ROOT
ATOM      1  C   UNL     1       1.739   2.913  -5.680  1.00  0.00     0.014 C 
ATOM      2  C   UNL     1       0.371   2.957  -4.950  1.00  0.00    -0.006 C 
ATOM      3  C   UNL     1      -0.788   3.032  -6.002  1.00  0.00    -0.002 C 
ATOM      4  C   UNL     1      -2.162   2.787  -5.343  1.00  0.00     0.005 C 
ATOM      5  C   UNL     1      -2.345   4.034  -4.465  1.00  0.00     0.010 C 
ATOM      6  C   UNL     1      -1.106   4.889  -4.821  1.00  0.00    -0.006 C 
ATOM      7  C   UNL     1      -0.889   4.523  -6.272  1.00  0.00     0.013 C 
ATOM      8  C   UNL     1       0.144   4.272  -4.129  1.00  0.00     0.126 C 
ATOM      9  C   UNL     1      -1.316   6.388  -4.574  1.00  0.00     0.014 C 
ATOM     10  C   UNL     1       0.296   1.708  -4.038  1.00  0.00     0.014 C 
ENDROOT
BRANCH   8  11
ATOM     11  O   UNL     1       1.252   5.138  -4.223  1.00  0.00    -0.392 OA
ATOM     12  H   UNL     1       2.066   4.571  -4.192  1.00  0.00     0.211 HD
ENDBRANCH   8  11
TORSDOF 1
ENDMDL
MODEL 3
REMARK VINA RESULT:    -3.397      1.309      3.300
REMARK INTER + INTRA:          -3.496
REMARK INTER:                  -3.496
REMARK INTRA:                   0.000
REMARK UNBOUND:                 0.000
REMARK SMILES CC1(C)[C@H]2CC[C@](C)(C2)[C@@H]1O
REMARK SMILES IDX 1 1 2 2 4 3 5 4 6 5 7 6 9 7 10 8 8 9 3 10 11 11
REMARK H PARENT 11 12
REMARK Flexibility Score: inf
ROOT
ATOM      1  C   UNL     1       0.162   2.132  -4.216  1.00  0.00     0.014 C 
ATOM      2  C   UNL     1      -0.471   3.413  -4.822  1.00  0.00    -0.006 C 
ATOM      3  C   UNL     1      -1.984   3.496  -4.422  1.00  0.00    -0.002 C 
ATOM      4  C   UNL     1      -2.577   4.881  -4.752  1.00  0.00     0.005 C 
ATOM      5  C   UNL     1      -2.575   4.894  -6.288  1.00  0.00     0.010 C 
ATOM      6  C   UNL     1      -2.087   3.470  -6.642  1.00  0.00    -0.006 C 
ATOM      7  C   UNL     1      -2.654   2.659  -5.498  1.00  0.00     0.013 C 
ATOM      8  C   UNL     1      -0.555   3.386  -6.386  1.00  0.00     0.126 C 
ATOM      9  C   UNL     1      -2.545   3.004  -8.030  1.00  0.00     0.014 C 
ATOM     10  C   UNL     1       0.366   4.617  -4.327  1.00  0.00     0.014 C 
ENDROOT
BRANCH   8  11
ATOM     11  O   UNL     1      -0.020   2.194  -6.913  1.00  0.00    -0.392 OA
ATOM     12  H   UNL     1      -0.760   1.532  -6.943  1.00  0.00     0.211 HD
ENDBRANCH   8  11
TORSDOF 1
ENDMDL
MODEL 4
REMARK VINA RESULT:    -3.392      1.035      3.112
REMARK INTER + INTRA:          -3.491
REMARK INTER:                  -3.491
REMARK INTRA:                   0.000
REMARK UNBOUND:                 0.000
REMARK SMILES CC1(C)[C@H]2CC[C@](C)(C2)[C@@H]1O
REMARK SMILES IDX 1 1 2 2 4 3 5 4 6 5 7 6 9 7 10 8 8 9 3 10 11 11
REMARK H PARENT 11 12
REMARK Flexibility Score: inf
ROOT
ATOM      1  C   UNL     1       0.178   1.925  -4.004  1.00  0.00     0.014 C 
ATOM      2  C   UNL     1      -0.024   2.954  -5.148  1.00  0.00    -0.006 C 
ATOM      3  C   UNL     1      -0.043   4.405  -4.557  1.00  0.00    -0.002 C 
ATOM      4  C   UNL     1       0.050   5.467  -5.672  1.00  0.00     0.005 C 
ATOM      5  C   UNL     1      -1.297   5.319  -6.396  1.00  0.00     0.010 C 
ATOM      6  C   UNL     1      -2.036   4.270  -5.533  1.00  0.00    -0.006 C 
ATOM      7  C   UNL     1      -1.498   4.575  -4.153  1.00  0.00     0.013 C 
ATOM      8  C   UNL     1      -1.434   2.865  -5.824  1.00  0.00     0.126 C 
ATOM      9  C   UNL     1      -3.563   4.363  -5.647  1.00  0.00     0.014 C 
ATOM     10  C   UNL     1       1.108   2.723  -6.178  1.00  0.00     0.014 C 
ENDROOT
BRANCH   8  11
ATOM     11  O   UNL     1      -2.221   1.848  -5.248  1.00  0.00    -0.392 OA
ATOM     12  H   UNL     1      -2.763   1.452  -5.980  1.00  0.00     0.211 HD
ENDBRANCH   8  11
TORSDOF 1
ENDMDL
MODEL 5
REMARK VINA RESULT:    -3.388      1.317      1.859
REMARK INTER + INTRA:          -3.487
REMARK INTER:                  -3.487
REMARK INTRA:                   0.000
REMARK UNBOUND:                 0.000
REMARK SMILES CC1(C)[C@H]2CC[C@](C)(C2)[C@@H]1O
REMARK SMILES IDX 1 1 2 2 4 3 5 4 6 5 7 6 9 7 10 8 8 9 3 10 11 11
REMARK H PARENT 11 12
REMARK Flexibility Score: inf
ROOT
ATOM      1  C   UNL     1      -1.824   4.607  -5.961  1.00  0.00     0.014 C 
ATOM      2  C   UNL     1      -0.322   4.679  -5.583  1.00  0.00    -0.006 C 
ATOM      3  C   UNL     1       0.528   3.892  -6.638  1.00  0.00    -0.002 C 
ATOM      4  C   UNL     1       2.035   4.175  -6.470  1.00  0.00     0.005 C 
ATOM      5  C   UNL     1       2.359   3.506  -5.125  1.00  0.00     0.010 C 
ATOM      6  C   UNL     1       1.021   2.826  -4.751  1.00  0.00    -0.006 C 
ATOM      7  C   UNL     1       0.467   2.468  -6.112  1.00  0.00     0.013 C 
ATOM      8  C   UNL     1       0.025   3.916  -4.259  1.00  0.00     0.126 C 
ATOM      9  C   UNL     1       1.196   1.628  -3.808  1.00  0.00     0.014 C 
ATOM     10  C   UNL     1       0.055   6.177  -5.480  1.00  0.00     0.014 C 
ENDROOT
BRANCH   8  11
ATOM     11  O   UNL     1      -1.121   3.331  -3.684  1.00  0.00    -0.392 OA
ATOM     12  H   UNL     1      -1.272   3.784  -2.814  1.00  0.00     0.211 HD
ENDBRANCH   8  11
TORSDOF 1
ENDMDL
MODEL 6
REMARK VINA RESULT:    -3.350      1.812      2.524
REMARK INTER + INTRA:          -3.448
REMARK INTER:                  -3.448
REMARK INTRA:                   0.000
REMARK UNBOUND:                 0.000
REMARK SMILES CC1(C)[C@H]2CC[C@](C)(C2)[C@@H]1O
REMARK SMILES IDX 1 1 2 2 4 3 5 4 6 5 7 6 9 7 10 8 8 9 3 10 11 11
REMARK H PARENT 11 12
REMARK Flexibility Score: inf
ROOT
ATOM      1  C   UNL     1      -1.741   4.101  -4.176  1.00  0.00     0.014 C 
ATOM      2  C   UNL     1      -0.815   4.083  -5.421  1.00  0.00    -0.006 C 
ATOM      3  C   UNL     1      -0.546   2.603  -5.860  1.00  0.00    -0.002 C 
ATOM      4  C   UNL     1       0.122   2.541  -7.249  1.00  0.00     0.005 C 
ATOM      5  C   UNL     1       1.515   3.133  -6.983  1.00  0.00     0.010 C 
ATOM      6  C   UNL     1       1.507   3.352  -5.452  1.00  0.00    -0.006 C 
ATOM      7  C   UNL     1       0.631   2.211  -4.984  1.00  0.00     0.013 C 
ATOM      8  C   UNL     1       0.634   4.599  -5.127  1.00  0.00     0.126 C 
ATOM      9  C   UNL     1       2.912   3.359  -4.836  1.00  0.00     0.014 C 
ATOM     10  C   UNL     1      -1.502   4.936  -6.516  1.00  0.00     0.014 C 
ENDROOT
BRANCH   8  11
ATOM     11  O   UNL     1       0.784   4.983  -3.780  1.00  0.00    -0.392 OA
ATOM     12  H   UNL     1       1.002   4.162  -3.267  1.00  0.00     0.211 HD
ENDBRANCH   8  11
TORSDOF 1
ENDMDL
MODEL 7
REMARK VINA RESULT:    -3.341     12.554     13.830
REMARK INTER + INTRA:          -3.439
REMARK INTER:                  -3.439
REMARK INTRA:                   0.000
REMARK UNBOUND:                 0.000
REMARK SMILES CC1(C)[C@H]2CC[C@](C)(C2)[C@@H]1O
REMARK SMILES IDX 1 1 2 2 4 3 5 4 6 5 7 6 9 7 10 8 8 9 3 10 11 11
REMARK H PARENT 11 12
REMARK Flexibility Score: inf
ROOT
ATOM      1  C   UNL     1       0.245   2.868   8.584  1.00  0.00     0.014 C 
ATOM      2  C   UNL     1      -0.511   1.537   8.337  1.00  0.00    -0.006 C 
ATOM      3  C   UNL     1      -0.869   1.405   6.817  1.00  0.00    -0.002 C 
ATOM      4  C   UNL     1      -1.358  -0.018   6.477  1.00  0.00     0.005 C 
ATOM      5  C   UNL     1      -2.707  -0.098   7.207  1.00  0.00     0.010 C 
ATOM      6  C   UNL     1      -2.872   1.329   7.779  1.00  0.00    -0.006 C 
ATOM      7  C   UNL     1      -2.181   2.164   6.723  1.00  0.00     0.013 C 
ATOM      8  C   UNL     1      -1.928   1.492   9.005  1.00  0.00     0.126 C 
ATOM      9  C   UNL     1      -4.336   1.715   8.026  1.00  0.00     0.014 C 
ATOM     10  C   UNL     1       0.391   0.393   8.860  1.00  0.00     0.014 C 
ENDROOT
BRANCH   8  11
ATOM     11  O   UNL     1      -2.208   2.682   9.704  1.00  0.00    -0.392 OA
ATOM     12  H   UNL     1      -2.862   3.192   9.158  1.00  0.00     0.211 HD
ENDBRANCH   8  11
TORSDOF 1
ENDMDL
MODEL 8
REMARK VINA RESULT:    -3.201      1.765      2.726
REMARK INTER + INTRA:          -3.295
REMARK INTER:                  -3.295
REMARK INTRA:                   0.000
REMARK UNBOUND:                 0.000
REMARK SMILES CC1(C)[C@H]2CC[C@](C)(C2)[C@@H]1O
REMARK SMILES IDX 1 1 2 2 4 3 5 4 6 5 7 6 9 7 10 8 8 9 3 10 11 11
REMARK H PARENT 11 12
REMARK Flexibility Score: inf
ROOT
ATOM      1  C   UNL     1       0.261   5.048  -7.463  1.00  0.00     0.014 C 
ATOM      2  C   UNL     1      -0.250   3.795  -6.706  1.00  0.00    -0.006 C 
ATOM      3  C   UNL     1      -0.741   4.204  -5.275  1.00  0.00    -0.002 C 
ATOM      4  C   UNL     1      -1.518   3.056  -4.598  1.00  0.00     0.005 C 
ATOM      5  C   UNL     1      -0.426   2.003  -4.354  1.00  0.00     0.010 C 
ATOM      6  C   UNL     1       0.858   2.729  -4.818  1.00  0.00    -0.006 C 
ATOM      7  C   UNL     1       0.544   4.165  -4.465  1.00  0.00     0.013 C 
ATOM      8  C   UNL     1       0.881   2.763  -6.373  1.00  0.00     0.126 C 
ATOM      9  C   UNL     1       2.131   2.183  -4.158  1.00  0.00     0.014 C 
ATOM     10  C   UNL     1      -1.356   3.151  -7.577  1.00  0.00     0.014 C 
ENDROOT
BRANCH   8  11
ATOM     11  O   UNL     1       2.134   3.197  -6.851  1.00  0.00    -0.392 OA
ATOM     12  H   UNL     1       2.822   2.629  -6.416  1.00  0.00     0.211 HD
ENDBRANCH   8  11
TORSDOF 1
ENDMDL
MODEL 9
REMARK VINA RESULT:    -3.200     12.602     13.848
REMARK INTER + INTRA:          -3.294
REMARK INTER:                  -3.294
REMARK INTRA:                   0.000
REMARK UNBOUND:                 0.000
REMARK SMILES CC1(C)[C@H]2CC[C@](C)(C2)[C@@H]1O
REMARK SMILES IDX 1 1 2 2 4 3 5 4 6 5 7 6 9 7 10 8 8 9 3 10 11 11
REMARK H PARENT 11 12
REMARK Flexibility Score: inf
ROOT
ATOM      1  C   UNL     1      -0.877   0.424   6.141  1.00  0.00     0.014 C 
ATOM      2  C   UNL     1      -1.310   0.953   7.533  1.00  0.00    -0.006 C 
ATOM      3  C   UNL     1      -2.311  -0.055   8.194  1.00  0.00    -0.002 C 
ATOM      4  C   UNL     1      -2.542   0.278   9.683  1.00  0.00     0.005 C 
ATOM      5  C   UNL     1      -3.306   1.608   9.620  1.00  0.00     0.010 C 
ATOM      6  C   UNL     1      -3.517   1.810   8.101  1.00  0.00    -0.006 C 
ATOM      7  C   UNL     1      -3.645   0.383   7.617  1.00  0.00     0.013 C 
ATOM      8  C   UNL     1      -2.171   2.260   7.463  1.00  0.00     0.126 C 
ATOM      9  C   UNL     1      -4.724   2.697   7.772  1.00  0.00     0.014 C 
ATOM     10  C   UNL     1      -0.020   1.175   8.361  1.00  0.00     0.014 C 
ENDROOT
BRANCH   8  11
ATOM     11  O   UNL     1      -2.359   2.685   6.133  1.00  0.00    -0.392 OA
ATOM     12  H   UNL     1      -3.334   2.646   5.952  1.00  0.00     0.211 HD
ENDBRANCH   8  11
TORSDOF 1
ENDMDL
