MODEL 1
REMARK VINA RESULT:    -2.963      0.000      0.000
REMARK INTER + INTRA:          -4.802
REMARK INTER:                  -4.523
REMARK INTRA:                  -0.279
REMARK UNBOUND:                -0.279
REMARK SMILES CC1=CCC[C@H](C)C(=O)C[C@H](C(C)C)C(=O)C1
REMARK SMILES IDX 8 1 9 2 6 3 7 4 5 5 4 6 3 7 2 8 1 9 10 11 11 12 15 13 16 14
REMARK SMILES IDX 17 15 12 17 13 18 14 19
REMARK H PARENT
REMARK Flexibility Score: 70.00
ROOT
ATOM      1  C   UNL     1     -35.641  -7.119  50.276  1.00  0.00     0.136 C 
ATOM      2  O   UNL     1     -35.976  -6.933  51.437  1.00  0.00    -0.299 OA
ENDROOT
BRANCH   1   3
ATOM      3  C   UNL     1     -34.948  -8.407  49.897  1.00  0.00     0.053 C 
ATOM      4  C   UNL     1     -33.595  -8.526  50.608  1.00  0.00     0.016 C 
BRANCH   3   5
ATOM      5  C   UNL     1     -35.870  -9.606  50.234  1.00  0.00     0.015 C 
BRANCH   5   6
ATOM      6  C   UNL     1     -36.757 -10.125  49.084  1.00  0.00     0.028 C 
BRANCH   6   7
ATOM      7  C   UNL     1     -38.226  -9.758  49.116  1.00  0.00    -0.028 C 
ATOM      8  C   UNL     1     -38.858  -8.850  48.335  1.00  0.00    -0.070 CG0
ATOM      9  C   UNL     1     -40.300  -8.542  48.656  1.00  0.00     0.039 C 
ATOM     10  G   UNL     1     -38.223  -8.154  47.141  1.00  0.00     0.000 G0
ENDBRANCH   6   7
ENDBRANCH   5   6
ENDBRANCH   3   5
ENDBRANCH   1   3
BRANCH   1  11
ATOM     11  C   UNL     1     -35.936  -6.061  49.240  1.00  0.00     0.087 C 
BRANCH  11  12
ATOM     12  C   UNL     1     -36.119  -6.596  47.791  1.00  0.00     0.066 C 
BRANCH  12  13
ATOM     13  C   UNL     1     -37.603  -6.806  47.476  1.00  0.00     0.140 C 
ATOM     14  O   UNL     1     -38.328  -5.823  47.549  1.00  0.00    -0.299 OA
BRANCH  13  15
ATOM     15  C   UNL     1     -38.247  -8.140  47.123  1.00  0.00     0.106 CG0
ATOM     16  G   UNL     1     -38.838  -8.818  48.349  1.00  0.00     0.000 G0
ENDBRANCH  13  15
ENDBRANCH  12  13
BRANCH  12  17
ATOM     17  C   UNL     1     -35.287  -5.848  46.696  1.00  0.00    -0.006 C 
ATOM     18  C   UNL     1     -35.426  -6.518  45.316  1.00  0.00     0.008 C 
ATOM     19  C   UNL     1     -35.733  -4.379  46.559  1.00  0.00     0.008 C 
ENDBRANCH  12  17
ENDBRANCH  11  12
ENDBRANCH   1  11
TORSDOF 1
ENDMDL
MODEL 2
REMARK VINA RESULT:    -2.922      2.745      4.409
REMARK INTER + INTRA:          -4.738
REMARK INTER:                  -4.332
REMARK INTRA:                  -0.406
REMARK UNBOUND:                -0.279
REMARK SMILES CC1=CCC[C@H](C)C(=O)C[C@H](C(C)C)C(=O)C1
REMARK SMILES IDX 8 1 9 2 6 3 7 4 5 5 4 6 3 7 2 8 1 9 10 11 11 12 15 13 16 14
REMARK SMILES IDX 17 15 12 17 13 18 14 19
REMARK H PARENT
REMARK Flexibility Score: 70.00
ROOT
ATOM      1  C   UNL     1     -34.959  -9.171  49.068  1.00  0.00     0.136 C 
ATOM      2  O   UNL     1     -35.205 -10.303  49.459  1.00  0.00    -0.299 OA
ENDROOT
BRANCH   1   3
ATOM      3  C   UNL     1     -33.596  -8.573  49.326  1.00  0.00     0.053 C 
ATOM      4  C   UNL     1     -33.118  -8.902  50.745  1.00  0.00     0.016 C 
BRANCH   3   5
ATOM      5  C   UNL     1     -32.597  -9.090  48.260  1.00  0.00     0.015 C 
BRANCH   5   6
ATOM      6  C   UNL     1     -32.056  -8.038  47.270  1.00  0.00     0.028 C 
BRANCH   6   7
ATOM      7  C   UNL     1     -32.355  -8.244  45.800  1.00  0.00    -0.028 C 
ATOM      8  C   UNL     1     -33.328  -7.642  45.073  1.00  0.00    -0.070 CG0
ATOM      9  C   UNL     1     -33.534  -8.124  43.658  1.00  0.00     0.039 C 
ATOM     10  G   UNL     1     -34.192  -6.497  45.576  1.00  0.00     0.000 G0
ENDBRANCH   6   7
ENDBRANCH   5   6
ENDBRANCH   3   5
ENDBRANCH   1   3
BRANCH   1  11
ATOM     11  C   UNL     1     -36.020  -8.396  48.323  1.00  0.00     0.087 C 
BRANCH  11  12
ATOM     12  C   UNL     1     -35.580  -6.985  47.837  1.00  0.00     0.066 C 
BRANCH  12  13
ATOM     13  C   UNL     1     -35.429  -6.962  46.313  1.00  0.00     0.140 C 
ATOM     14  O   UNL     1     -36.361  -7.410  45.658  1.00  0.00    -0.299 OA
BRANCH  13  15
ATOM     15  C   UNL     1     -34.202  -6.468  45.558  1.00  0.00     0.106 CG0
ATOM     16  G   UNL     1     -33.349  -7.624  45.059  1.00  0.00     0.000 G0
ENDBRANCH  13  15
ENDBRANCH  12  13
BRANCH  12  17
ATOM     17  C   UNL     1     -36.372  -5.789  48.463  1.00  0.00    -0.006 C 
ATOM     18  C   UNL     1     -36.574  -5.969  49.980  1.00  0.00     0.008 C 
ATOM     19  C   UNL     1     -35.640  -4.452  48.237  1.00  0.00     0.008 C 
ENDBRANCH  12  17
ENDBRANCH  11  12
ENDBRANCH   1  11
TORSDOF 1
ENDMDL
MODEL 3
REMARK VINA RESULT:    -2.870      2.248      4.687
REMARK INTER + INTRA:          -4.659
REMARK INTER:                  -4.548
REMARK INTRA:                  -0.112
REMARK UNBOUND:                -0.279
REMARK SMILES CC1=CCC[C@H](C)C(=O)C[C@H](C(C)C)C(=O)C1
REMARK SMILES IDX 8 1 9 2 6 3 7 4 5 5 4 6 3 7 2 8 1 9 10 11 11 12 15 13 16 14
REMARK SMILES IDX 17 15 12 17 13 18 14 19
REMARK H PARENT
REMARK Flexibility Score: 70.00
ROOT
ATOM      1  C   UNL     1     -33.529  -8.432  46.589  1.00  0.00     0.136 C 
ATOM      2  O   UNL     1     -32.531  -9.122  46.740  1.00  0.00    -0.299 OA
ENDROOT
BRANCH   1   3
ATOM      3  C   UNL     1     -33.531  -7.344  45.541  1.00  0.00     0.053 C 
ATOM      4  C   UNL     1     -34.329  -7.780  44.307  1.00  0.00     0.016 C 
BRANCH   3   5
ATOM      5  C   UNL     1     -34.102  -6.041  46.151  1.00  0.00     0.015 C 
BRANCH   5   6
ATOM      6  C   UNL     1     -35.547  -5.679  45.750  1.00  0.00     0.028 C 
BRANCH   6   7
ATOM      7  C   UNL     1     -36.388  -4.936  46.766  1.00  0.00    -0.028 C 
ATOM      8  C   UNL     1     -37.104  -5.474  47.782  1.00  0.00    -0.070 CG0
ATOM      9  C   UNL     1     -37.992  -4.544  48.574  1.00  0.00     0.039 C 
ATOM     10  G   UNL     1     -37.043  -6.935  48.198  1.00  0.00     0.000 G0
ENDBRANCH   6   7
ENDBRANCH   5   6
ENDBRANCH   3   5
ENDBRANCH   1   3
BRANCH   1  11
ATOM     11  C   UNL     1     -34.745  -8.688  47.447  1.00  0.00     0.087 C 
BRANCH  11  12
ATOM     12  C   UNL     1     -34.670  -8.096  48.883  1.00  0.00     0.066 C 
BRANCH  12  13
ATOM     13  C   UNL     1     -35.893  -7.221  49.172  1.00  0.00     0.140 C 
ATOM     14  O   UNL     1     -35.968  -6.726  50.288  1.00  0.00    -0.299 OA
BRANCH  13  15
ATOM     15  C   UNL     1     -37.035  -6.957  48.199  1.00  0.00     0.106 CG0
ATOM     16  G   UNL     1     -37.091  -5.494  47.786  1.00  0.00     0.000 G0
ENDBRANCH  13  15
ENDBRANCH  12  13
BRANCH  12  17
ATOM     17  C   UNL     1     -34.281  -9.118  50.004  1.00  0.00    -0.006 C 
ATOM     18  C   UNL     1     -34.786 -10.538  49.683  1.00  0.00     0.008 C 
ATOM     19  C   UNL     1     -32.753  -9.188  50.192  1.00  0.00     0.008 C 
ENDBRANCH  12  17
ENDBRANCH  11  12
ENDBRANCH   1  11
TORSDOF 1
ENDMDL
MODEL 4
REMARK VINA RESULT:    -2.820      2.399      5.013
REMARK INTER + INTRA:          -4.583
REMARK INTER:                  -4.254
REMARK INTRA:                  -0.329
REMARK UNBOUND:                -0.279
REMARK SMILES CC1=CCC[C@H](C)C(=O)C[C@H](C(C)C)C(=O)C1
REMARK SMILES IDX 8 1 9 2 6 3 7 4 5 5 4 6 3 7 2 8 1 9 10 11 11 12 15 13 16 14
REMARK SMILES IDX 17 15 12 17 13 18 14 19
REMARK H PARENT
REMARK Flexibility Score: 70.00
ROOT
ATOM      1  C   UNL     1     -36.513  -3.774  48.478  1.00  0.00     0.136 C 
ATOM      2  O   UNL     1     -36.782  -2.724  49.045  1.00  0.00    -0.299 OA
ENDROOT
BRANCH   1   3
ATOM      3  C   UNL     1     -36.702  -3.883  46.983  1.00  0.00     0.053 C 
ATOM      4  C   UNL     1     -37.124  -2.535  46.389  1.00  0.00     0.016 C 
BRANCH   3   5
ATOM      5  C   UNL     1     -35.394  -4.401  46.336  1.00  0.00     0.015 C 
BRANCH   5   6
ATOM      6  C   UNL     1     -35.471  -5.785  45.659  1.00  0.00     0.028 C 
BRANCH   6   7
ATOM      7  C   UNL     1     -34.351  -6.763  45.941  1.00  0.00    -0.028 C 
ATOM      8  C   UNL     1     -34.355  -7.769  46.848  1.00  0.00    -0.070 CG0
ATOM      9  C   UNL     1     -33.060  -8.517  47.059  1.00  0.00     0.039 C 
ATOM     10  G   UNL     1     -35.578  -8.214  47.634  1.00  0.00     0.000 G0
ENDBRANCH   6   7
ENDBRANCH   5   6
ENDBRANCH   3   5
ENDBRANCH   1   3
BRANCH   1  11
ATOM     11  C   UNL     1     -35.986  -4.937  49.283  1.00  0.00     0.087 C 
BRANCH  11  12
ATOM     12  C   UNL     1     -36.759  -6.272  49.089  1.00  0.00     0.066 C 
BRANCH  12  13
ATOM     13  C   UNL     1     -35.785  -7.440  48.913  1.00  0.00     0.140 C 
ATOM     14  O   UNL     1     -35.085  -7.726  49.875  1.00  0.00    -0.299 OA
BRANCH  13  15
ATOM     15  C   UNL     1     -35.592  -8.239  47.631  1.00  0.00     0.106 CG0
ATOM     16  G   UNL     1     -34.367  -7.772  46.859  1.00  0.00     0.000 G0
ENDBRANCH  13  15
ENDBRANCH  12  13
BRANCH  12  17
ATOM     17  C   UNL     1     -37.938  -6.510  50.092  1.00  0.00    -0.006 C 
ATOM     18  C   UNL     1     -37.632  -5.922  51.483  1.00  0.00     0.008 C 
ATOM     19  C   UNL     1     -39.244  -5.872  49.583  1.00  0.00     0.008 C 
ENDBRANCH  12  17
ENDBRANCH  11  12
ENDBRANCH   1  11
TORSDOF 1
ENDMDL
MODEL 5
REMARK VINA RESULT:    -2.810      2.217      4.737
REMARK INTER + INTRA:          -4.567
REMARK INTER:                  -4.133
REMARK INTRA:                  -0.434
REMARK UNBOUND:                -0.279
REMARK SMILES CC1=CCC[C@H](C)C(=O)C[C@H](C(C)C)C(=O)C1
REMARK SMILES IDX 8 1 9 2 6 3 7 4 5 5 4 6 3 7 2 8 1 9 10 11 11 12 15 13 16 14
REMARK SMILES IDX 17 15 12 17 13 18 14 19
REMARK H PARENT
REMARK Flexibility Score: 70.00
ROOT
ATOM      1  C   UNL     1     -36.810  -8.208  46.930  1.00  0.00     0.136 C 
ATOM      2  O   UNL     1     -37.607  -8.510  46.053  1.00  0.00    -0.299 OA
ENDROOT
BRANCH   1   3
ATOM      3  C   UNL     1     -35.810  -7.104  46.681  1.00  0.00     0.053 C 
ATOM      4  C   UNL     1     -35.260  -7.182  45.252  1.00  0.00     0.016 C 
BRANCH   3   5
ATOM      5  C   UNL     1     -36.477  -5.733  46.955  1.00  0.00     0.015 C 
BRANCH   5   6
ATOM      6  C   UNL     1     -35.930  -4.941  48.160  1.00  0.00     0.028 C 
BRANCH   6   7
ATOM      7  C   UNL     1     -36.872  -4.698  49.320  1.00  0.00    -0.028 C 
ATOM      8  C   UNL     1     -36.925  -5.386  50.487  1.00  0.00    -0.070 CG0
ATOM      9  C   UNL     1     -38.055  -5.060  51.433  1.00  0.00     0.039 C 
ATOM     10  G   UNL     1     -35.905  -6.429  50.916  1.00  0.00     0.000 G0
ENDBRANCH   6   7
ENDBRANCH   5   6
ENDBRANCH   3   5
ENDBRANCH   1   3
BRANCH   1  11
ATOM     11  C   UNL     1     -36.850  -8.938  48.252  1.00  0.00     0.087 C 
BRANCH  11  12
ATOM     12  C   UNL     1     -35.719  -8.553  49.247  1.00  0.00     0.066 C 
BRANCH  12  13
ATOM     13  C   UNL     1     -36.296  -7.836  50.470  1.00  0.00     0.140 C 
ATOM     14  O   UNL     1     -37.158  -8.429  51.104  1.00  0.00    -0.299 OA
BRANCH  13  15
ATOM     15  C   UNL     1     -35.913  -6.435  50.930  1.00  0.00     0.106 CG0
ATOM     16  G   UNL     1     -36.931  -5.400  50.479  1.00  0.00     0.000 G0
ENDBRANCH  13  15
ENDBRANCH  12  13
BRANCH  12  17
ATOM     17  C   UNL     1     -34.682  -9.688  49.546  1.00  0.00    -0.006 C 
ATOM     18  C   UNL     1     -33.968 -10.162  48.265  1.00  0.00     0.008 C 
ATOM     19  C   UNL     1     -33.606  -9.215  50.543  1.00  0.00     0.008 C 
ENDBRANCH  12  17
ENDBRANCH  11  12
ENDBRANCH   1  11
TORSDOF 1
ENDMDL
MODEL 6
REMARK VINA RESULT:    -2.766      2.394      3.811
REMARK INTER + INTRA:          -4.501
REMARK INTER:                  -4.148
REMARK INTRA:                  -0.353
REMARK UNBOUND:                -0.279
REMARK SMILES CC1=CCC[C@H](C)C(=O)C[C@H](C(C)C)C(=O)C1
REMARK SMILES IDX 8 1 9 2 6 3 7 4 5 5 4 6 3 7 2 8 1 9 10 11 11 12 15 13 16 14
REMARK SMILES IDX 17 15 12 17 13 18 14 19
REMARK H PARENT
REMARK Flexibility Score: 70.00
ROOT
ATOM      1  C   UNL     1     -37.602  -8.719  47.938  1.00  0.00     0.136 C 
ATOM      2  O   UNL     1     -37.931  -8.907  46.775  1.00  0.00    -0.299 OA
ENDROOT
BRANCH   1   3
ATOM      3  C   UNL     1     -38.550  -9.100  49.051  1.00  0.00     0.053 C 
ATOM      4  C   UNL     1     -37.783  -9.355  50.354  1.00  0.00     0.016 C 
BRANCH   3   5
ATOM      5  C   UNL     1     -39.611  -7.986  49.228  1.00  0.00     0.015 C 
BRANCH   5   6
ATOM      6  C   UNL     1     -39.137  -6.703  49.942  1.00  0.00     0.028 C 
BRANCH   6   7
ATOM      7  C   UNL     1     -39.013  -5.446  49.107  1.00  0.00    -0.028 C 
ATOM      8  C   UNL     1     -37.880  -4.757  48.832  1.00  0.00    -0.070 CG0
ATOM      9  C   UNL     1     -38.027  -3.442  48.105  1.00  0.00     0.039 C 
ATOM     10  G   UNL     1     -36.478  -5.237  49.173  1.00  0.00     0.000 G0
ENDBRANCH   6   7
ENDBRANCH   5   6
ENDBRANCH   3   5
ENDBRANCH   1   3
BRANCH   1  11
ATOM     11  C   UNL     1     -36.249  -8.121  48.239  1.00  0.00     0.087 C 
BRANCH  11  12
ATOM     12  C   UNL     1     -35.779  -7.028  47.237  1.00  0.00     0.066 C 
BRANCH  12  13
ATOM     13  C   UNL     1     -35.707  -5.661  47.924  1.00  0.00     0.140 C 
ATOM     14  O   UNL     1     -34.937  -4.841  47.444  1.00  0.00    -0.299 OA
BRANCH  13  15
ATOM     15  C   UNL     1     -36.483  -5.262  49.173  1.00  0.00     0.106 CG0
ATOM     16  G   UNL     1     -37.874  -4.754  48.829  1.00  0.00     0.000 G0
ENDBRANCH  13  15
ENDBRANCH  12  13
BRANCH  12  17
ATOM     17  C   UNL     1     -34.542  -7.417  46.359  1.00  0.00    -0.006 C 
ATOM     18  C   UNL     1     -33.991  -8.807  46.733  1.00  0.00     0.008 C 
ATOM     19  C   UNL     1     -34.903  -7.436  44.861  1.00  0.00     0.008 C 
ENDBRANCH  12  17
ENDBRANCH  11  12
ENDBRANCH   1  11
TORSDOF 1
ENDMDL
MODEL 7
REMARK VINA RESULT:    -2.747      2.081      3.677
REMARK INTER + INTRA:          -4.472
REMARK INTER:                  -4.054
REMARK INTRA:                  -0.418
REMARK UNBOUND:                -0.279
REMARK SMILES CC1=CCC[C@H](C)C(=O)C[C@H](C(C)C)C(=O)C1
REMARK SMILES IDX 8 1 9 2 6 3 7 4 5 5 4 6 3 7 2 8 1 9 10 11 11 12 15 13 16 14
REMARK SMILES IDX 17 15 12 17 13 18 14 19
REMARK H PARENT
REMARK Flexibility Score: 70.00
ROOT
ATOM      1  C   UNL     1     -36.704  -5.957  47.090  1.00  0.00     0.136 C 
ATOM      2  O   UNL     1     -36.688  -5.149  46.173  1.00  0.00    -0.299 OA
ENDROOT
BRANCH   1   3
ATOM      3  C   UNL     1     -36.666  -5.465  48.518  1.00  0.00     0.053 C 
ATOM      4  C   UNL     1     -35.781  -4.219  48.640  1.00  0.00     0.016 C 
BRANCH   3   5
ATOM      5  C   UNL     1     -38.109  -5.183  49.004  1.00  0.00     0.015 C 
BRANCH   5   6
ATOM      6  C   UNL     1     -38.642  -6.101  50.124  1.00  0.00     0.028 C 
BRANCH   6   7
ATOM      7  C   UNL     1     -39.807  -7.007  49.788  1.00  0.00    -0.028 C 
ATOM      8  C   UNL     1     -39.751  -8.322  49.468  1.00  0.00    -0.070 CG0
ATOM      9  C   UNL     1     -41.034  -8.981  49.019  1.00  0.00     0.039 C 
ATOM     10  G   UNL     1     -38.499  -9.179  49.567  1.00  0.00     0.000 G0
ENDBRANCH   6   7
ENDBRANCH   5   6
ENDBRANCH   3   5
ENDBRANCH   1   3
BRANCH   1  11
ATOM     11  C   UNL     1     -36.772  -7.432  46.777  1.00  0.00     0.087 C 
BRANCH  11  12
ATOM     12  C   UNL     1     -36.482  -8.372  47.982  1.00  0.00     0.066 C 
BRANCH  12  13
ATOM     13  C   UNL     1     -37.704  -9.239  48.298  1.00  0.00     0.140 C 
ATOM     14  O   UNL     1     -38.079 -10.005  47.421  1.00  0.00    -0.299 OA
BRANCH  13  15
ATOM     15  C   UNL     1     -38.506  -9.192  49.592  1.00  0.00     0.106 CG0
ATOM     16  G   UNL     1     -39.748  -8.327  49.449  1.00  0.00     0.000 G0
ENDBRANCH  13  15
ENDBRANCH  12  13
BRANCH  12  17
ATOM     17  C   UNL     1     -35.108  -9.121  47.926  1.00  0.00    -0.006 C 
ATOM     18  C   UNL     1     -33.966  -8.188  47.478  1.00  0.00     0.008 C 
ATOM     19  C   UNL     1     -34.732  -9.707  49.301  1.00  0.00     0.008 C 
ENDBRANCH  12  17
ENDBRANCH  11  12
ENDBRANCH   1  11
TORSDOF 1
ENDMDL
MODEL 8
REMARK VINA RESULT:    -2.694     14.850     16.867
REMARK INTER + INTRA:          -4.391
REMARK INTER:                  -4.082
REMARK INTRA:                  -0.309
REMARK UNBOUND:                -0.279
REMARK SMILES CC1=CCC[C@H](C)C(=O)C[C@H](C(C)C)C(=O)C1
REMARK SMILES IDX 8 1 9 2 6 3 7 4 5 5 4 6 3 7 2 8 1 9 10 11 11 12 15 13 16 14
REMARK SMILES IDX 17 15 12 17 13 18 14 19
REMARK H PARENT
REMARK Flexibility Score: 70.00
ROOT
ATOM      1  C   UNL     1     -35.471   3.620  56.785  1.00  0.00     0.136 C 
ATOM      2  O   UNL     1     -35.669   2.516  56.299  1.00  0.00    -0.299 OA
ENDROOT
BRANCH   1   3
ATOM      3  C   UNL     1     -35.733   4.856  55.957  1.00  0.00     0.053 C 
ATOM      4  C   UNL     1     -36.974   5.599  56.467  1.00  0.00     0.016 C 
BRANCH   3   5
ATOM      5  C   UNL     1     -34.481   5.767  55.979  1.00  0.00     0.015 C 
BRANCH   5   6
ATOM      6  C   UNL     1     -34.622   7.098  56.746  1.00  0.00     0.028 C 
BRANCH   6   7
ATOM      7  C   UNL     1     -33.415   7.592  57.515  1.00  0.00    -0.028 C 
ATOM      8  C   UNL     1     -33.039   7.230  58.765  1.00  0.00    -0.070 CG0
ATOM      9  C   UNL     1     -31.882   7.975  59.384  1.00  0.00     0.039 C 
ATOM     10  G   UNL     1     -33.679   6.105  59.563  1.00  0.00     0.000 G0
ENDBRANCH   6   7
ENDBRANCH   5   6
ENDBRANCH   3   5
ENDBRANCH   1   3
BRANCH   1  11
ATOM     11  C   UNL     1     -34.979   3.727  58.208  1.00  0.00     0.087 C 
BRANCH  11  12
ATOM     12  C   UNL     1     -33.432   3.690  58.371  1.00  0.00     0.066 C 
BRANCH  12  13
ATOM     13  C   UNL     1     -32.966   4.770  59.351  1.00  0.00     0.140 C 
ATOM     14  O   UNL     1     -31.974   4.518  60.021  1.00  0.00    -0.299 OA
BRANCH  13  15
ATOM     15  C   UNL     1     -33.661   6.105  59.586  1.00  0.00     0.106 CG0
ATOM     16  G   UNL     1     -33.025   7.219  58.769  1.00  0.00     0.000 G0
ENDBRANCH  13  15
ENDBRANCH  12  13
BRANCH  12  17
ATOM     17  C   UNL     1     -32.820   2.264  58.583  1.00  0.00    -0.006 C 
ATOM     18  C   UNL     1     -33.839   1.291  59.205  1.00  0.00     0.008 C 
ATOM     19  C   UNL     1     -32.337   1.659  57.250  1.00  0.00     0.008 C 
ENDBRANCH  12  17
ENDBRANCH  11  12
ENDBRANCH   1  11
TORSDOF 1
ENDMDL
MODEL 9
REMARK VINA RESULT:    -2.689      2.131      4.201
REMARK INTER + INTRA:          -4.384
REMARK INTER:                  -3.972
REMARK INTRA:                  -0.411
REMARK UNBOUND:                -0.279
REMARK SMILES CC1=CCC[C@H](C)C(=O)C[C@H](C(C)C)C(=O)C1
REMARK SMILES IDX 8 1 9 2 6 3 7 4 5 5 4 6 3 7 2 8 1 9 10 11 11 12 15 13 16 14
REMARK SMILES IDX 17 15 12 17 13 18 14 19
REMARK H PARENT
REMARK Flexibility Score: 70.00
ROOT
ATOM      1  C   UNL     1     -34.821  -9.636  48.946  1.00  0.00     0.136 C 
ATOM      2  O   UNL     1     -34.566 -10.557  49.709  1.00  0.00    -0.299 OA
ENDROOT
BRANCH   1   3
ATOM      3  C   UNL     1     -33.694  -8.913  48.248  1.00  0.00     0.053 C 
ATOM      4  C   UNL     1     -32.342  -9.292  48.863  1.00  0.00     0.016 C 
BRANCH   3   5
ATOM      5  C   UNL     1     -33.735  -9.233  46.734  1.00  0.00     0.015 C 
BRANCH   5   6
ATOM      6  C   UNL     1     -33.987  -8.038  45.792  1.00  0.00     0.028 C 
BRANCH   6   7
ATOM      7  C   UNL     1     -34.164  -6.675  46.427  1.00  0.00    -0.028 C 
ATOM      8  C   UNL     1     -35.325  -6.109  46.837  1.00  0.00    -0.070 CG0
ATOM      9  C   UNL     1     -35.271  -4.673  47.300  1.00  0.00     0.039 C 
ATOM     10  G   UNL     1     -36.660  -6.834  46.896  1.00  0.00     0.000 G0
ENDBRANCH   6   7
ENDBRANCH   5   6
ENDBRANCH   3   5
ENDBRANCH   1   3
BRANCH   1  11
ATOM     11  C   UNL     1     -36.261  -9.249  48.707  1.00  0.00     0.087 C 
BRANCH  11  12
ATOM     12  C   UNL     1     -36.699  -7.914  49.374  1.00  0.00     0.066 C 
BRANCH  12  13
ATOM     13  C   UNL     1     -37.197  -6.921  48.319  1.00  0.00     0.140 C 
ATOM     14  O   UNL     1     -38.112  -6.179  48.647  1.00  0.00    -0.299 OA
BRANCH  13  15
ATOM     15  C   UNL     1     -36.672  -6.816  46.893  1.00  0.00     0.106 CG0
ATOM     16  G   UNL     1     -35.320  -6.121  46.843  1.00  0.00     0.000 G0
ENDBRANCH  13  15
ENDBRANCH  12  13
BRANCH  12  17
ATOM     17  C   UNL     1     -37.600  -8.070  50.645  1.00  0.00    -0.006 C 
ATOM     18  C   UNL     1     -38.155  -9.501  50.780  1.00  0.00     0.008 C 
ATOM     19  C   UNL     1     -36.817  -7.740  51.930  1.00  0.00     0.008 C 
ENDBRANCH  12  17
ENDBRANCH  11  12
ENDBRANCH   1  11
TORSDOF 1
ENDMDL
