MODEL 1
REMARK VINA RESULT:    -3.040      0.000      0.000
REMARK INTER + INTRA:          -3.621
REMARK INTER:                  -3.573
REMARK INTRA:                  -0.048
REMARK UNBOUND:                -0.048
REMARK SMILES O=C([O-])CCC(=O)[O-]
REMARK SMILES IDX 4 1 2 2 1 3 3 4 5 5 6 6 7 7 8 8
REMARK H PARENT
REMARK Flexibility Score: inf
ROOT
ATOM      1  C   UNL     1      29.574   9.214  28.962  1.00  0.00     0.059 C 
ENDROOT
BRANCH   1   2
ATOM      2  C   UNL     1      29.504   8.511  27.642  1.00  0.00     0.042 C 
ATOM      3  O   UNL     1      30.299   8.821  26.717  1.00  0.00    -0.550 OA
ATOM      4  O   UNL     1      28.593   7.480  27.451  1.00  0.00    -0.550 OA
ENDBRANCH   1   2
BRANCH   1   5
ATOM      5  C   UNL     1      29.916  10.690  28.764  1.00  0.00     0.059 C 
BRANCH   5   6
ATOM      6  C   UNL     1      30.514  11.261  30.012  1.00  0.00     0.042 C 
ATOM      7  O   UNL     1      31.083  10.507  30.844  1.00  0.00    -0.550 OA
ATOM      8  O   UNL     1      30.399  12.619  30.280  1.00  0.00    -0.550 OA
ENDBRANCH   5   6
ENDBRANCH   1   5
TORSDOF 3
ENDMDL
MODEL 2
REMARK VINA RESULT:    -2.985      0.185      4.196
REMARK INTER + INTRA:          -3.557
REMARK INTER:                  -3.520
REMARK INTRA:                  -0.037
REMARK UNBOUND:                -0.048
REMARK SMILES O=C([O-])CCC(=O)[O-]
REMARK SMILES IDX 4 1 2 2 1 3 3 4 5 5 6 6 7 7 8 8
REMARK H PARENT
REMARK Flexibility Score: inf
ROOT
ATOM      1  C   UNL     1      29.980  10.703  28.646  1.00  0.00     0.059 C 
ENDROOT
BRANCH   1   2
ATOM      2  C   UNL     1      30.391  11.400  29.905  1.00  0.00     0.042 C 
ATOM      3  O   UNL     1      30.136  12.622  30.063  1.00  0.00    -0.550 OA
ATOM      4  O   UNL     1      31.010  10.688  30.924  1.00  0.00    -0.550 OA
ENDBRANCH   1   2
BRANCH   1   5
ATOM      5  C   UNL     1      29.521   9.277  28.949  1.00  0.00     0.059 C 
BRANCH   5   6
ATOM      6  C   UNL     1      29.449   8.471  27.690  1.00  0.00     0.042 C 
ATOM      7  O   UNL     1      28.636   7.514  27.597  1.00  0.00    -0.550 OA
ATOM      8  O   UNL     1      30.313   8.745  26.638  1.00  0.00    -0.550 OA
ENDBRANCH   5   6
ENDBRANCH   1   5
TORSDOF 3
ENDMDL
MODEL 3
REMARK VINA RESULT:    -2.870     17.647     18.506
REMARK INTER + INTRA:          -3.422
REMARK INTER:                  -3.243
REMARK INTRA:                  -0.179
REMARK UNBOUND:                -0.048
REMARK SMILES O=C([O-])CCC(=O)[O-]
REMARK SMILES IDX 4 1 2 2 1 3 3 4 5 5 6 6 7 7 8 8
REMARK H PARENT
REMARK Flexibility Score: inf
ROOT
ATOM      1  C   UNL     1      16.759  15.636  16.275  1.00  0.00     0.059 C 
ENDROOT
BRANCH   1   2
ATOM      2  C   UNL     1      17.419  16.648  17.157  1.00  0.00     0.042 C 
ATOM      3  O   UNL     1      17.722  17.782  16.702  1.00  0.00    -0.550 OA
ATOM      4  O   UNL     1      17.655  16.357  18.494  1.00  0.00    -0.550 OA
ENDBRANCH   1   2
BRANCH   1   5
ATOM      5  C   UNL     1      17.654  15.302  15.081  1.00  0.00     0.059 C 
BRANCH   5   6
ATOM      6  C   UNL     1      18.890  14.592  15.535  1.00  0.00     0.042 C 
ATOM      7  O   UNL     1      20.025  15.081  15.296  1.00  0.00    -0.550 OA
ATOM      8  O   UNL     1      18.791  13.365  16.178  1.00  0.00    -0.550 OA
ENDBRANCH   5   6
ENDBRANCH   1   5
TORSDOF 3
ENDMDL
MODEL 4
REMARK VINA RESULT:    -2.865     17.634     18.237
REMARK INTER + INTRA:          -3.416
REMARK INTER:                  -3.233
REMARK INTRA:                  -0.184
REMARK UNBOUND:                -0.048
REMARK SMILES O=C([O-])CCC(=O)[O-]
REMARK SMILES IDX 4 1 2 2 1 3 3 4 5 5 6 6 7 7 8 8
REMARK H PARENT
REMARK Flexibility Score: inf
ROOT
ATOM      1  C   UNL     1      17.637  15.314  15.091  1.00  0.00     0.059 C 
ENDROOT
BRANCH   1   2
ATOM      2  C   UNL     1      18.882  14.600  15.515  1.00  0.00     0.042 C 
ATOM      3  O   UNL     1      20.010  15.126  15.326  1.00  0.00    -0.550 OA
ATOM      4  O   UNL     1      18.794  13.375  16.165  1.00  0.00    -0.550 OA
ENDBRANCH   1   2
BRANCH   1   5
ATOM      5  C   UNL     1      16.767  15.640  16.304  1.00  0.00     0.059 C 
BRANCH   5   6
ATOM      6  C   UNL     1      17.447  16.641  17.184  1.00  0.00     0.042 C 
ATOM      7  O   UNL     1      17.757  17.774  16.731  1.00  0.00    -0.550 OA
ATOM      8  O   UNL     1      17.784  16.305  18.489  1.00  0.00    -0.550 OA
ENDBRANCH   5   6
ENDBRANCH   1   5
TORSDOF 3
ENDMDL
MODEL 5
REMARK VINA RESULT:    -2.822      1.449      1.909
REMARK INTER + INTRA:          -3.365
REMARK INTER:                  -3.243
REMARK INTRA:                  -0.123
REMARK UNBOUND:                -0.048
REMARK SMILES O=C([O-])CCC(=O)[O-]
REMARK SMILES IDX 4 1 2 2 1 3 3 4 5 5 6 6 7 7 8 8
REMARK H PARENT
REMARK Flexibility Score: inf
ROOT
ATOM      1  C   UNL     1      29.389  10.162  28.621  1.00  0.00     0.059 C 
ENDROOT
BRANCH   1   2
ATOM      2  C   UNL     1      30.152  10.123  27.334  1.00  0.00     0.042 C 
ATOM      3  O   UNL     1      30.778  11.141  26.939  1.00  0.00    -0.550 OA
ATOM      4  O   UNL     1      30.211   8.948  26.596  1.00  0.00    -0.550 OA
ENDBRANCH   1   2
BRANCH   1   5
ATOM      5  C   UNL     1      30.308  10.560  29.776  1.00  0.00     0.059 C 
BRANCH   5   6
ATOM      6  C   UNL     1      29.888  11.876  30.351  1.00  0.00     0.042 C 
ATOM      7  O   UNL     1      29.331  12.737  29.620  1.00  0.00    -0.550 OA
ATOM      8  O   UNL     1      30.155  12.172  31.681  1.00  0.00    -0.550 OA
ENDBRANCH   5   6
ENDBRANCH   1   5
TORSDOF 3
ENDMDL
MODEL 6
REMARK VINA RESULT:    -2.758     17.953     18.447
REMARK INTER + INTRA:          -3.290
REMARK INTER:                  -3.207
REMARK INTRA:                  -0.083
REMARK UNBOUND:                -0.048
REMARK SMILES O=C([O-])CCC(=O)[O-]
REMARK SMILES IDX 4 1 2 2 1 3 3 4 5 5 6 6 7 7 8 8
REMARK H PARENT
REMARK Flexibility Score: inf
ROOT
ATOM      1  C   UNL     1      16.981  15.555  16.192  1.00  0.00     0.059 C 
ENDROOT
BRANCH   1   2
ATOM      2  C   UNL     1      18.075  14.706  15.626  1.00  0.00     0.042 C 
ATOM      3  O   UNL     1      18.263  13.541  16.062  1.00  0.00    -0.550 OA
ATOM      4  O   UNL     1      18.857  15.185  14.582  1.00  0.00    -0.550 OA
ENDBRANCH   1   2
BRANCH   1   5
ATOM      5  C   UNL     1      17.372  17.032  16.148  1.00  0.00     0.059 C 
BRANCH   5   6
ATOM      6  C   UNL     1      17.649  17.543  17.527  1.00  0.00     0.042 C 
ATOM      7  O   UNL     1      17.982  18.744  17.702  1.00  0.00    -0.550 OA
ATOM      8  O   UNL     1      17.587  16.680  18.614  1.00  0.00    -0.550 OA
ENDBRANCH   5   6
ENDBRANCH   1   5
TORSDOF 3
ENDMDL
MODEL 7
REMARK VINA RESULT:    -2.715      1.803      4.186
REMARK INTER + INTRA:          -3.240
REMARK INTER:                  -3.118
REMARK INTRA:                  -0.122
REMARK UNBOUND:                -0.048
REMARK SMILES O=C([O-])CCC(=O)[O-]
REMARK SMILES IDX 4 1 2 2 1 3 3 4 5 5 6 6 7 7 8 8
REMARK H PARENT
REMARK Flexibility Score: inf
ROOT
ATOM      1  C   UNL     1      29.385  10.748  28.322  1.00  0.00     0.059 C 
ENDROOT
BRANCH   1   2
ATOM      2  C   UNL     1      29.909  11.735  29.318  1.00  0.00     0.042 C 
ATOM      3  O   UNL     1      29.169  12.663  29.738  1.00  0.00    -0.550 OA
ATOM      4  O   UNL     1      31.197  11.600  29.819  1.00  0.00    -0.550 OA
ENDBRANCH   1   2
BRANCH   1   5
ATOM      5  C   UNL     1      29.686  11.214  26.898  1.00  0.00     0.059 C 
BRANCH   5   6
ATOM      6  C   UNL     1      30.953  10.592  26.400  1.00  0.00     0.042 C 
ATOM      7  O   UNL     1      32.001  11.282  26.300  1.00  0.00    -0.550 OA
ATOM      8  O   UNL     1      30.964   9.262  25.999  1.00  0.00    -0.550 OA
ENDBRANCH   5   6
ENDBRANCH   1   5
TORSDOF 3
ENDMDL
MODEL 8
REMARK VINA RESULT:    -2.706     16.260     17.291
REMARK INTER + INTRA:          -3.229
REMARK INTER:                  -3.110
REMARK INTRA:                  -0.119
REMARK UNBOUND:                -0.048
REMARK SMILES O=C([O-])CCC(=O)[O-]
REMARK SMILES IDX 4 1 2 2 1 3 3 4 5 5 6 6 7 7 8 8
REMARK H PARENT
REMARK Flexibility Score: inf
ROOT
ATOM      1  C   UNL     1      19.293  14.492  15.687  1.00  0.00     0.059 C 
ENDROOT
BRANCH   1   2
ATOM      2  C   UNL     1      17.911  15.049  15.543  1.00  0.00     0.042 C 
ATOM      3  O   UNL     1      17.242  15.353  16.565  1.00  0.00    -0.550 OA
ATOM      4  O   UNL     1      17.382  15.278  14.280  1.00  0.00    -0.550 OA
ENDBRANCH   1   2
BRANCH   1   5
ATOM      5  C   UNL     1      19.244  13.084  16.281  1.00  0.00     0.059 C 
BRANCH   5   6
ATOM      6  C   UNL     1      20.007  13.031  17.567  1.00  0.00     0.042 C 
ATOM      7  O   UNL     1      20.021  14.027  18.336  1.00  0.00    -0.550 OA
ATOM      8  O   UNL     1      20.743  11.899  17.893  1.00  0.00    -0.550 OA
ENDBRANCH   5   6
ENDBRANCH   1   5
TORSDOF 3
ENDMDL
MODEL 9
REMARK VINA RESULT:    -2.671     16.199     17.267
REMARK INTER + INTRA:          -3.187
REMARK INTER:                  -3.064
REMARK INTRA:                  -0.123
REMARK UNBOUND:                -0.048
REMARK SMILES O=C([O-])CCC(=O)[O-]
REMARK SMILES IDX 4 1 2 2 1 3 3 4 5 5 6 6 7 7 8 8
REMARK H PARENT
REMARK Flexibility Score: inf
ROOT
ATOM      1  C   UNL     1      19.264  13.047  16.280  1.00  0.00     0.059 C 
ENDROOT
BRANCH   1   2
ATOM      2  C   UNL     1      20.026  12.980  17.566  1.00  0.00     0.042 C 
ATOM      3  O   UNL     1      20.651  11.932  17.877  1.00  0.00    -0.550 OA
ATOM      4  O   UNL     1      20.087  14.091  18.397  1.00  0.00    -0.550 OA
ENDBRANCH   1   2
BRANCH   1   5
ATOM      5  C   UNL     1      19.388  14.438  15.656  1.00  0.00     0.059 C 
BRANCH   5   6
ATOM      6  C   UNL     1      18.052  15.110  15.606  1.00  0.00     0.042 C 
ATOM      7  O   UNL     1      17.480  15.460  16.671  1.00  0.00    -0.550 OA
ATOM      8  O   UNL     1      17.417  15.306  14.387  1.00  0.00    -0.550 OA
ENDBRANCH   5   6
ENDBRANCH   1   5
TORSDOF 3
ENDMDL
