MODEL 1
REMARK VINA RESULT:    -4.837      0.000      0.000
REMARK INTER + INTRA:          -5.627
REMARK INTER:                  -5.544
REMARK INTRA:                  -0.084
REMARK UNBOUND:                -0.084
REMARK SMILES COc1cc(C(=O)[O-])ccc1O
REMARK SMILES IDX 5 1 9 2 4 3 10 4 3 5 11 6 6 7 7 8 8 9 2 10 1 11 12 12
REMARK H PARENT 12 13
REMARK Flexibility Score: inf
ROOT
ATOM      1  C   UNL     1     -12.695  44.542  22.255  1.00  0.00     0.001 A 
ATOM      2  C   UNL     1     -13.752  43.621  22.205  1.00  0.00     0.014 A 
ATOM      3  C   UNL     1     -12.690  45.523  23.264  1.00  0.00     0.060 A 
ATOM      4  C   UNL     1     -14.785  43.678  23.143  1.00  0.00     0.051 A 
ATOM      5  C   UNL     1     -13.730  45.585  24.214  1.00  0.00     0.161 A 
ATOM      6  C   UNL     1     -14.780  44.651  24.144  1.00  0.00     0.157 A 
ENDROOT
BRANCH   1   7
ATOM      7  C   UNL     1     -11.602  44.477  21.258  1.00  0.00     0.072 C 
ATOM      8  O   UNL     1     -11.285  45.496  20.587  1.00  0.00    -0.545 OA
ATOM      9  O   UNL     1     -10.910  43.290  21.049  1.00  0.00    -0.545 OA
ENDBRANCH   1   7
BRANCH   5  10
ATOM     10  O   UNL     1     -13.751  46.553  25.231  1.00  0.00    -0.493 OA
ATOM     11  C   UNL     1     -13.538  47.946  25.027  1.00  0.00     0.278 C 
ENDBRANCH   5  10
BRANCH   6  12
ATOM     12  O   UNL     1     -15.829  44.677  25.064  1.00  0.00    -0.504 OA
ATOM     13  H   UNL     1     -16.633  45.281  24.950  1.00  0.00     0.293 HD
ENDBRANCH   6  12
TORSDOF 3
ENDMDL
MODEL 2
REMARK VINA RESULT:    -4.833     20.031     21.938
REMARK INTER + INTRA:          -5.623
REMARK INTER:                  -5.532
REMARK INTRA:                  -0.091
REMARK UNBOUND:                -0.084
REMARK SMILES COc1cc(C(=O)[O-])ccc1O
REMARK SMILES IDX 5 1 9 2 4 3 10 4 3 5 11 6 6 7 7 8 8 9 2 10 1 11 12 12
REMARK H PARENT 12 13
REMARK Flexibility Score: inf
ROOT
ATOM      1  C   UNL     1     -23.299  61.918  31.074  1.00  0.00     0.001 A 
ATOM      2  C   UNL     1     -24.079  62.837  30.356  1.00  0.00     0.014 A 
ATOM      3  C   UNL     1     -23.902  61.155  32.091  1.00  0.00     0.060 A 
ATOM      4  C   UNL     1     -25.435  62.992  30.648  1.00  0.00     0.051 A 
ATOM      5  C   UNL     1     -25.272  61.307  32.389  1.00  0.00     0.161 A 
ATOM      6  C   UNL     1     -26.035  62.235  31.657  1.00  0.00     0.157 A 
ENDROOT
BRANCH   1   7
ATOM      7  C   UNL     1     -21.860  61.757  30.762  1.00  0.00     0.072 C 
ATOM      8  O   UNL     1     -21.006  62.543  31.251  1.00  0.00    -0.545 OA
ATOM      9  O   UNL     1     -21.433  60.734  29.923  1.00  0.00    -0.545 OA
ENDBRANCH   1   7
BRANCH   5  10
ATOM     10  O   UNL     1     -25.901  60.561  33.398  1.00  0.00    -0.493 OA
ATOM     11  C   UNL     1     -25.944  60.932  34.772  1.00  0.00     0.278 C 
ENDBRANCH   5  10
BRANCH   6  12
ATOM     12  O   UNL     1     -27.393  62.418  31.919  1.00  0.00    -0.504 OA
ATOM     13  H   UNL     1     -28.102  61.793  31.556  1.00  0.00     0.293 HD
ENDBRANCH   6  12
TORSDOF 3
ENDMDL
MODEL 3
REMARK VINA RESULT:    -4.681     19.010     22.042
REMARK INTER + INTRA:          -5.449
REMARK INTER:                  -5.356
REMARK INTRA:                  -0.093
REMARK UNBOUND:                -0.084
REMARK SMILES COc1cc(C(=O)[O-])ccc1O
REMARK SMILES IDX 5 1 9 2 4 3 10 4 3 5 11 6 6 7 7 8 8 9 2 10 1 11 12 12
REMARK H PARENT 12 13
REMARK Flexibility Score: inf
ROOT
ATOM      1  C   UNL     1     -26.148  61.482  31.310  1.00  0.00     0.001 A 
ATOM      2  C   UNL     1     -25.498  62.704  31.080  1.00  0.00     0.014 A 
ATOM      3  C   UNL     1     -25.877  60.393  30.462  1.00  0.00     0.060 A 
ATOM      4  C   UNL     1     -24.596  62.837  30.023  1.00  0.00     0.051 A 
ATOM      5  C   UNL     1     -24.966  60.521  29.393  1.00  0.00     0.161 A 
ATOM      6  C   UNL     1     -24.327  61.756  29.180  1.00  0.00     0.157 A 
ENDROOT
BRANCH   1   7
ATOM      7  C   UNL     1     -27.103  61.346  32.433  1.00  0.00     0.072 C 
ATOM      8  O   UNL     1     -27.698  60.255  32.640  1.00  0.00    -0.545 OA
ATOM      9  O   UNL     1     -27.357  62.422  33.275  1.00  0.00    -0.545 OA
ENDBRANCH   1   7
BRANCH   5  10
ATOM     10  O   UNL     1     -24.677  59.452  28.530  1.00  0.00    -0.493 OA
ATOM     11  C   UNL     1     -23.645  58.496  28.744  1.00  0.00     0.278 C 
ENDBRANCH   5  10
BRANCH   6  12
ATOM     12  O   UNL     1     -23.419  61.927  28.134  1.00  0.00    -0.504 OA
ATOM     13  H   UNL     1     -22.602  62.518  28.220  1.00  0.00     0.293 HD
ENDBRANCH   6  12
TORSDOF 3
ENDMDL
MODEL 4
REMARK VINA RESULT:    -4.660      1.139      4.288
REMARK INTER + INTRA:          -5.425
REMARK INTER:                  -5.339
REMARK INTRA:                  -0.086
REMARK UNBOUND:                -0.084
REMARK SMILES COc1cc(C(=O)[O-])ccc1O
REMARK SMILES IDX 5 1 9 2 4 3 10 4 3 5 11 6 6 7 7 8 8 9 2 10 1 11 12 12
REMARK H PARENT 12 13
REMARK Flexibility Score: inf
ROOT
ATOM      1  C   UNL     1     -13.958  45.139  24.021  1.00  0.00     0.001 A 
ATOM      2  C   UNL     1     -14.844  44.107  23.681  1.00  0.00     0.014 A 
ATOM      3  C   UNL     1     -12.908  45.458  23.139  1.00  0.00     0.060 A 
ATOM      4  C   UNL     1     -14.686  43.404  22.485  1.00  0.00     0.051 A 
ATOM      5  C   UNL     1     -12.743  44.752  21.930  1.00  0.00     0.161 A 
ATOM      6  C   UNL     1     -13.644  43.720  21.610  1.00  0.00     0.157 A 
ENDROOT
BRANCH   1   7
ATOM      7  C   UNL     1     -14.129  45.882  25.290  1.00  0.00     0.072 C 
ATOM      8  O   UNL     1     -13.498  46.952  25.498  1.00  0.00    -0.545 OA
ATOM      9  O   UNL     1     -14.991  45.407  26.272  1.00  0.00    -0.545 OA
ENDBRANCH   1   7
BRANCH   5  10
ATOM     10  O   UNL     1     -11.706  45.047  21.032  1.00  0.00    -0.493 OA
ATOM     11  C   UNL     1     -10.424  44.426  21.044  1.00  0.00     0.278 C 
ENDBRANCH   5  10
BRANCH   6  12
ATOM     12  O   UNL     1     -13.518  42.996  20.423  1.00  0.00    -0.504 OA
ATOM     13  H   UNL     1     -13.295  43.440  19.541  1.00  0.00     0.293 HD
ENDBRANCH   6  12
TORSDOF 3
ENDMDL
MODEL 5
REMARK VINA RESULT:    -4.628     18.497     20.991
REMARK INTER + INTRA:          -5.388
REMARK INTER:                  -5.284
REMARK INTRA:                  -0.104
REMARK UNBOUND:                -0.084
REMARK SMILES COc1cc(C(=O)[O-])ccc1O
REMARK SMILES IDX 5 1 9 2 4 3 10 4 3 5 11 6 6 7 7 8 8 9 2 10 1 11 12 12
REMARK H PARENT 12 13
REMARK Flexibility Score: inf
ROOT
ATOM      1  C   UNL     1     -24.124  60.702  29.091  1.00  0.00     0.001 A 
ATOM      2  C   UNL     1     -24.018  62.100  29.056  1.00  0.00     0.014 A 
ATOM      3  C   UNL     1     -25.030  60.106  29.989  1.00  0.00     0.060 A 
ATOM      4  C   UNL     1     -24.798  62.890  29.902  1.00  0.00     0.051 A 
ATOM      5  C   UNL     1     -25.821  60.899  30.845  1.00  0.00     0.161 A 
ATOM      6  C   UNL     1     -25.696  62.299  30.794  1.00  0.00     0.157 A 
ENDROOT
BRANCH   1   7
ATOM      7  C   UNL     1     -23.294  59.868  28.191  1.00  0.00     0.072 C 
ATOM      8  O   UNL     1     -23.428  58.615  28.173  1.00  0.00    -0.545 OA
ATOM      9  O   UNL     1     -22.354  60.458  27.354  1.00  0.00    -0.545 OA
ENDBRANCH   1   7
BRANCH   5  10
ATOM     10  O   UNL     1     -26.731  60.333  31.752  1.00  0.00    -0.493 OA
ATOM     11  C   UNL     1     -26.379  59.788  33.019  1.00  0.00     0.278 C 
ENDBRANCH   5  10
BRANCH   6  12
ATOM     12  O   UNL     1     -26.460  63.121  31.623  1.00  0.00    -0.504 OA
ATOM     13  H   UNL     1     -27.473  63.115  31.606  1.00  0.00     0.293 HD
ENDBRANCH   6  12
TORSDOF 3
ENDMDL
MODEL 6
REMARK VINA RESULT:    -4.595     21.697     22.916
REMARK INTER + INTRA:          -5.351
REMARK INTER:                  -5.254
REMARK INTRA:                  -0.096
REMARK UNBOUND:                -0.084
REMARK SMILES COc1cc(C(=O)[O-])ccc1O
REMARK SMILES IDX 5 1 9 2 4 3 10 4 3 5 11 6 6 7 7 8 8 9 2 10 1 11 12 12
REMARK H PARENT 12 13
REMARK Flexibility Score: inf
ROOT
ATOM      1  C   UNL     1     -24.769  60.852  34.365  1.00  0.00     0.001 A 
ATOM      2  C   UNL     1     -25.948  61.250  35.012  1.00  0.00     0.014 A 
ATOM      3  C   UNL     1     -24.706  60.908  32.960  1.00  0.00     0.060 A 
ATOM      4  C   UNL     1     -27.044  61.695  34.271  1.00  0.00     0.051 A 
ATOM      5  C   UNL     1     -25.810  61.357  32.207  1.00  0.00     0.161 A 
ATOM      6  C   UNL     1     -26.983  61.751  32.877  1.00  0.00     0.157 A 
ENDROOT
BRANCH   1   7
ATOM      7  C   UNL     1     -23.608  60.381  35.155  1.00  0.00     0.072 C 
ATOM      8  O   UNL     1     -23.676  60.304  36.411  1.00  0.00    -0.545 OA
ATOM      9  O   UNL     1     -22.426  60.017  34.520  1.00  0.00    -0.545 OA
ENDBRANCH   1   7
BRANCH   5  10
ATOM     10  O   UNL     1     -25.776  61.423  30.805  1.00  0.00    -0.493 OA
ATOM     11  C   UNL     1     -24.872  62.227  30.054  1.00  0.00     0.278 C 
ENDBRANCH   5  10
BRANCH   6  12
ATOM     12  O   UNL     1     -28.099  62.202  32.170  1.00  0.00    -0.504 OA
ATOM     13  H   UNL     1     -28.020  62.830  31.380  1.00  0.00     0.293 HD
ENDBRANCH   6  12
TORSDOF 3
ENDMDL
MODEL 7
REMARK VINA RESULT:    -4.569      1.375      2.747
REMARK INTER + INTRA:          -5.321
REMARK INTER:                  -5.220
REMARK INTRA:                  -0.101
REMARK UNBOUND:                -0.084
REMARK SMILES COc1cc(C(=O)[O-])ccc1O
REMARK SMILES IDX 5 1 9 2 4 3 10 4 3 5 11 6 6 7 7 8 8 9 2 10 1 11 12 12
REMARK H PARENT 12 13
REMARK Flexibility Score: inf
ROOT
ATOM      1  C   UNL     1     -13.127  44.996  22.883  1.00  0.00     0.001 A 
ATOM      2  C   UNL     1     -12.788  45.880  23.918  1.00  0.00     0.014 A 
ATOM      3  C   UNL     1     -14.276  44.194  23.017  1.00  0.00     0.060 A 
ATOM      4  C   UNL     1     -13.579  45.961  25.066  1.00  0.00     0.051 A 
ATOM      5  C   UNL     1     -15.079  44.273  24.173  1.00  0.00     0.161 A 
ATOM      6  C   UNL     1     -14.719  45.166  25.199  1.00  0.00     0.157 A 
ENDROOT
BRANCH   1   7
ATOM      7  C   UNL     1     -12.285  44.913  21.668  1.00  0.00     0.072 C 
ATOM      8  O   UNL     1     -12.778  44.537  20.571  1.00  0.00    -0.545 OA
ATOM      9  O   UNL     1     -10.937  45.250  21.722  1.00  0.00    -0.545 OA
ENDBRANCH   1   7
BRANCH   5  10
ATOM     10  O   UNL     1     -16.230  43.485  24.334  1.00  0.00    -0.493 OA
ATOM     11  C   UNL     1     -17.513  43.809  23.809  1.00  0.00     0.278 C 
ENDBRANCH   5  10
BRANCH   6  12
ATOM     12  O   UNL     1     -15.486  45.275  26.360  1.00  0.00    -0.504 OA
ATOM     13  H   UNL     1     -15.067  45.388  27.275  1.00  0.00     0.293 HD
ENDBRANCH   6  12
TORSDOF 3
ENDMDL
MODEL 8
REMARK VINA RESULT:    -4.539     21.311     22.406
REMARK INTER + INTRA:          -5.286
REMARK INTER:                  -5.213
REMARK INTRA:                  -0.073
REMARK UNBOUND:                -0.084
REMARK SMILES COc1cc(C(=O)[O-])ccc1O
REMARK SMILES IDX 5 1 9 2 4 3 10 4 3 5 11 6 6 7 7 8 8 9 2 10 1 11 12 12
REMARK H PARENT 12 13
REMARK Flexibility Score: inf
ROOT
ATOM      1  C   UNL     1     -24.831  61.419  31.674  1.00  0.00     0.001 A 
ATOM      2  C   UNL     1     -23.519  61.201  32.120  1.00  0.00     0.014 A 
ATOM      3  C   UNL     1     -25.898  61.245  32.575  1.00  0.00     0.060 A 
ATOM      4  C   UNL     1     -23.276  60.814  33.440  1.00  0.00     0.051 A 
ATOM      5  C   UNL     1     -25.659  60.855  33.909  1.00  0.00     0.161 A 
ATOM      6  C   UNL     1     -24.335  60.641  34.334  1.00  0.00     0.157 A 
ENDROOT
BRANCH   1   7
ATOM      7  C   UNL     1     -25.084  61.828  30.274  1.00  0.00     0.072 C 
ATOM      8  O   UNL     1     -25.556  61.009  29.442  1.00  0.00    -0.545 OA
ATOM      9  O   UNL     1     -24.803  63.125  29.858  1.00  0.00    -0.545 OA
ENDBRANCH   1   7
BRANCH   5  10
ATOM     10  O   UNL     1     -26.703  60.673  34.829  1.00  0.00    -0.493 OA
ATOM     11  C   UNL     1     -28.085  60.833  34.527  1.00  0.00     0.278 C 
ENDBRANCH   5  10
BRANCH   6  12
ATOM     12  O   UNL     1     -24.053  60.255  35.645  1.00  0.00    -0.504 OA
ATOM     13  H   UNL     1     -24.031  60.918  36.410  1.00  0.00     0.293 HD
ENDBRANCH   6  12
TORSDOF 3
ENDMDL
MODEL 9
REMARK VINA RESULT:    -4.481     21.163     22.940
REMARK INTER + INTRA:          -5.219
REMARK INTER:                  -5.146
REMARK INTRA:                  -0.073
REMARK UNBOUND:                -0.084
REMARK SMILES COc1cc(C(=O)[O-])ccc1O
REMARK SMILES IDX 5 1 9 2 4 3 10 4 3 5 11 6 6 7 7 8 8 9 2 10 1 11 12 12
REMARK H PARENT 12 13
REMARK Flexibility Score: inf
ROOT
ATOM      1  C   UNL     1     -26.326  60.795  32.103  1.00  0.00     0.001 A 
ATOM      2  C   UNL     1     -27.627  61.267  32.334  1.00  0.00     0.014 A 
ATOM      3  C   UNL     1     -25.443  60.660  33.191  1.00  0.00     0.060 A 
ATOM      4  C   UNL     1     -28.039  61.599  33.626  1.00  0.00     0.051 A 
ATOM      5  C   UNL     1     -25.854  60.994  34.498  1.00  0.00     0.161 A 
ATOM      6  C   UNL     1     -27.163  61.466  34.706  1.00  0.00     0.157 A 
ENDROOT
BRANCH   1   7
ATOM      7  C   UNL     1     -25.893  60.444  30.731  1.00  0.00     0.072 C 
ATOM      8  O   UNL     1     -25.898  59.245  30.344  1.00  0.00    -0.545 OA
ATOM      9  O   UNL     1     -25.474  61.435  29.850  1.00  0.00    -0.545 OA
ENDBRANCH   1   7
BRANCH   5  10
ATOM     10  O   UNL     1     -24.996  60.870  35.601  1.00  0.00    -0.493 OA
ATOM     11  C   UNL     1     -23.608  60.563  35.517  1.00  0.00     0.278 C 
ENDBRANCH   5  10
BRANCH   6  12
ATOM     12  O   UNL     1     -27.611  61.807  35.982  1.00  0.00    -0.504 OA
ATOM     13  H   UNL     1     -27.419  61.232  36.794  1.00  0.00     0.293 HD
ENDBRANCH   6  12
TORSDOF 3
ENDMDL
