MODEL 1
REMARK VINA RESULT:    -3.764      0.000      0.000
REMARK INTER + INTRA:          -9.569
REMARK INTER:                  -7.064
REMARK INTRA:                  -2.506
REMARK UNBOUND:                -2.506
REMARK SMILES O=C([O-])CCCCCCCCCCCCCCC(=O)[O-]
REMARK SMILES IDX 10 1 9 2 8 3 7 4 6 5 5 6 4 7 2 8 1 9 3 10 11 11 12 12 13 13
REMARK SMILES IDX 14 14 15 15 16 16 17 17 18 18 19 19 20 20
REMARK H PARENT
REMARK Flexibility Score: inf
ROOT
ATOM      1  C   UNL     1      21.972  36.554  38.430  1.00  0.00     0.000 C 
ENDROOT
BRANCH   1   2
ATOM      2  C   UNL     1      22.438  36.163  37.020  1.00  0.00     0.000 C 
BRANCH   2   3
ATOM      3  C   UNL     1      21.509  36.695  35.914  1.00  0.00     0.000 C 
BRANCH   3   4
ATOM      4  C   UNL     1      22.149  37.723  34.960  1.00  0.00     0.000 C 
BRANCH   4   5
ATOM      5  C   UNL     1      21.324  38.052  33.704  1.00  0.00     0.000 C 
BRANCH   5   6
ATOM      6  C   UNL     1      20.513  36.849  33.192  1.00  0.00     0.006 C 
BRANCH   6   7
ATOM      7  C   UNL     1      20.158  36.982  31.705  1.00  0.00     0.053 C 
BRANCH   7   8
ATOM      8  C   UNL     1      18.733  37.403  31.512  1.00  0.00     0.041 C 
ATOM      9  O   UNL     1      18.432  38.625  31.471  1.00  0.00    -0.550 OA
ATOM     10  O   UNL     1      17.733  36.444  31.413  1.00  0.00    -0.550 OA
ENDBRANCH   7   8
ENDBRANCH   6   7
ENDBRANCH   5   6
ENDBRANCH   4   5
ENDBRANCH   3   4
ENDBRANCH   2   3
ENDBRANCH   1   2
BRANCH   1  11
ATOM     11  C   UNL     1      20.486  36.936  38.429  1.00  0.00     0.000 C 
BRANCH  11  12
ATOM     12  C   UNL     1      20.265  38.287  39.120  1.00  0.00     0.000 C 
BRANCH  12  13
ATOM     13  C   UNL     1      21.385  39.277  38.764  1.00  0.00     0.000 C 
BRANCH  13  14
ATOM     14  C   UNL     1      21.054  40.127  37.525  1.00  0.00     0.000 C 
BRANCH  14  15
ATOM     15  C   UNL     1      19.540  40.258  37.287  1.00  0.00     0.000 C 
BRANCH  15  16
ATOM     16  C   UNL     1      19.115  39.818  35.873  1.00  0.00     0.006 C 
BRANCH  16  17
ATOM     17  C   UNL     1      18.250  38.546  35.847  1.00  0.00     0.053 C 
BRANCH  17  18
ATOM     18  C   UNL     1      17.163  38.604  34.817  1.00  0.00     0.041 C 
ATOM     19  O   UNL     1      16.598  37.549  34.428  1.00  0.00    -0.550 OA
ATOM     20  O   UNL     1      16.759  39.830  34.304  1.00  0.00    -0.550 OA
ENDBRANCH  17  18
ENDBRANCH  16  17
ENDBRANCH  15  16
ENDBRANCH  14  15
ENDBRANCH  13  14
ENDBRANCH  12  13
ENDBRANCH  11  12
ENDBRANCH   1  11
TORSDOF 15
ENDMDL
MODEL 2
REMARK VINA RESULT:    -3.698      2.419      5.526
REMARK INTER + INTRA:          -9.447
REMARK INTER:                  -6.955
REMARK INTRA:                  -2.492
REMARK UNBOUND:                -2.506
REMARK SMILES O=C([O-])CCCCCCCCCCCCCCC(=O)[O-]
REMARK SMILES IDX 10 1 9 2 8 3 7 4 6 5 5 6 4 7 2 8 1 9 3 10 11 11 12 12 13 13
REMARK SMILES IDX 14 14 15 15 16 16 17 17 18 18 19 19 20 20
REMARK H PARENT
REMARK Flexibility Score: inf
ROOT
ATOM      1  C   UNL     1      20.378  40.056  33.875  1.00  0.00     0.000 C 
ENDROOT
BRANCH   1   2
ATOM      2  C   UNL     1      21.419  39.629  34.920  1.00  0.00     0.000 C 
BRANCH   2   3
ATOM      3  C   UNL     1      22.113  38.302  34.565  1.00  0.00     0.000 C 
BRANCH   3   4
ATOM      4  C   UNL     1      21.496  37.046  35.215  1.00  0.00     0.000 C 
BRANCH   4   5
ATOM      5  C   UNL     1      21.995  36.736  36.638  1.00  0.00     0.000 C 
BRANCH   5   6
ATOM      6  C   UNL     1      20.911  36.949  37.708  1.00  0.00     0.006 C 
BRANCH   6   7
ATOM      7  C   UNL     1      21.161  38.214  38.540  1.00  0.00     0.053 C 
BRANCH   7   8
ATOM      8  C   UNL     1      19.998  38.529  39.431  1.00  0.00     0.041 C 
ATOM      9  O   UNL     1      20.061  39.493  40.239  1.00  0.00    -0.550 OA
ATOM     10  O   UNL     1      18.858  37.736  39.391  1.00  0.00    -0.550 OA
ENDBRANCH   7   8
ENDBRANCH   6   7
ENDBRANCH   5   6
ENDBRANCH   4   5
ENDBRANCH   3   4
ENDBRANCH   2   3
ENDBRANCH   1   2
BRANCH   1  11
ATOM     11  C   UNL     1      19.017  40.318  34.532  1.00  0.00     0.000 C 
BRANCH  11  12
ATOM     12  C   UNL     1      18.932  39.645  35.908  1.00  0.00     0.000 C 
BRANCH  12  13
ATOM     13  C   UNL     1      18.008  38.417  35.863  1.00  0.00     0.000 C 
BRANCH  13  14
ATOM     14  C   UNL     1      17.385  38.194  34.475  1.00  0.00     0.000 C 
BRANCH  14  15
ATOM     15  C   UNL     1      17.969  36.965  33.757  1.00  0.00     0.000 C 
BRANCH  15  16
ATOM     16  C   UNL     1      18.533  37.297  32.362  1.00  0.00     0.006 C 
BRANCH  16  17
ATOM     17  C   UNL     1      19.902  36.654  32.072  1.00  0.00     0.053 C 
BRANCH  17  18
ATOM     18  C   UNL     1      20.489  37.104  30.770  1.00  0.00     0.041 C 
ATOM     19  O   UNL     1      19.956  36.766  29.681  1.00  0.00    -0.550 OA
ATOM     20  O   UNL     1      21.614  37.919  30.760  1.00  0.00    -0.550 OA
ENDBRANCH  17  18
ENDBRANCH  16  17
ENDBRANCH  15  16
ENDBRANCH  14  15
ENDBRANCH  13  14
ENDBRANCH  12  13
ENDBRANCH  11  12
ENDBRANCH   1  11
TORSDOF 15
ENDMDL
MODEL 3
REMARK VINA RESULT:    -3.677      2.343      4.922
REMARK INTER + INTRA:          -9.406
REMARK INTER:                  -7.251
REMARK INTRA:                  -2.155
REMARK UNBOUND:                -2.506
REMARK SMILES O=C([O-])CCCCCCCCCCCCCCC(=O)[O-]
REMARK SMILES IDX 10 1 9 2 8 3 7 4 6 5 5 6 4 7 2 8 1 9 3 10 11 11 12 12 13 13
REMARK SMILES IDX 14 14 15 15 16 16 17 17 18 18 19 19 20 20
REMARK H PARENT
REMARK Flexibility Score: inf
ROOT
ATOM      1  C   UNL     1      22.829  38.921  35.595  1.00  0.00     0.000 C 
ENDROOT
BRANCH   1   2
ATOM      2  C   UNL     1      21.937  37.992  34.759  1.00  0.00     0.000 C 
BRANCH   2   3
ATOM      3  C   UNL     1      21.653  36.649  35.457  1.00  0.00     0.000 C 
BRANCH   3   4
ATOM      4  C   UNL     1      22.590  36.313  36.635  1.00  0.00     0.000 C 
BRANCH   4   5
ATOM      5  C   UNL     1      21.889  35.768  37.892  1.00  0.00     0.000 C 
BRANCH   5   6
ATOM      6  C   UNL     1      20.699  36.636  38.335  1.00  0.00     0.006 C 
BRANCH   6   7
ATOM      7  C   UNL     1      21.135  37.791  39.247  1.00  0.00     0.053 C 
BRANCH   7   8
ATOM      8  C   UNL     1      19.966  38.412  39.950  1.00  0.00     0.041 C 
ATOM      9  O   UNL     1      20.087  39.530  40.516  1.00  0.00    -0.550 OA
ATOM     10  O   UNL     1      18.753  37.738  40.009  1.00  0.00    -0.550 OA
ENDBRANCH   7   8
ENDBRANCH   6   7
ENDBRANCH   5   6
ENDBRANCH   4   5
ENDBRANCH   3   4
ENDBRANCH   2   3
ENDBRANCH   1   2
BRANCH   1  11
ATOM     11  C   UNL     1      21.982  39.911  36.405  1.00  0.00     0.000 C 
BRANCH  11  12
ATOM     12  C   UNL     1      20.622  40.147  35.738  1.00  0.00     0.000 C 
BRANCH  12  13
ATOM     13  C   UNL     1      19.473  39.886  36.725  1.00  0.00     0.000 C 
BRANCH  13  14
ATOM     14  C   UNL     1      18.583  38.706  36.302  1.00  0.00     0.000 C 
BRANCH  14  15
ATOM     15  C   UNL     1      18.270  38.713  34.796  1.00  0.00     0.000 C 
BRANCH  15  16
ATOM     16  C   UNL     1      16.764  38.590  34.495  1.00  0.00     0.006 C 
BRANCH  16  17
ATOM     17  C   UNL     1      16.374  37.286  33.777  1.00  0.00     0.053 C 
BRANCH  17  18
ATOM     18  C   UNL     1      17.396  36.851  32.771  1.00  0.00     0.041 C 
ATOM     19  O   UNL     1      17.530  37.479  31.688  1.00  0.00    -0.550 OA
ATOM     20  O   UNL     1      18.217  35.763  33.040  1.00  0.00    -0.550 OA
ENDBRANCH  17  18
ENDBRANCH  16  17
ENDBRANCH  15  16
ENDBRANCH  14  15
ENDBRANCH  13  14
ENDBRANCH  12  13
ENDBRANCH  11  12
ENDBRANCH   1  11
TORSDOF 15
ENDMDL
MODEL 4
REMARK VINA RESULT:    -3.652      1.429      2.052
REMARK INTER + INTRA:          -9.360
REMARK INTER:                  -7.435
REMARK INTRA:                  -1.926
REMARK UNBOUND:                -2.506
REMARK SMILES O=C([O-])CCCCCCCCCCCCCCC(=O)[O-]
REMARK SMILES IDX 10 1 9 2 8 3 7 4 6 5 5 6 4 7 2 8 1 9 3 10 11 11 12 12 13 13
REMARK SMILES IDX 14 14 15 15 16 16 17 17 18 18 19 19 20 20
REMARK H PARENT
REMARK Flexibility Score: inf
ROOT
ATOM      1  C   UNL     1      21.650  36.050  38.159  1.00  0.00     0.000 C 
ENDROOT
BRANCH   1   2
ATOM      2  C   UNL     1      22.485  36.247  36.886  1.00  0.00     0.000 C 
BRANCH   2   3
ATOM      3  C   UNL     1      21.644  36.720  35.686  1.00  0.00     0.000 C 
BRANCH   3   4
ATOM      4  C   UNL     1      22.208  37.941  34.932  1.00  0.00     0.000 C 
BRANCH   4   5
ATOM      5  C   UNL     1      21.543  38.236  33.576  1.00  0.00     0.000 C 
BRANCH   5   6
ATOM      6  C   UNL     1      22.478  38.970  32.600  1.00  0.00     0.006 C 
BRANCH   6   7
ATOM      7  C   UNL     1      22.195  38.600  31.139  1.00  0.00     0.053 C 
BRANCH   7   8
ATOM      8  C   UNL     1      20.767  38.190  30.939  1.00  0.00     0.041 C 
ATOM      9  O   UNL     1      20.484  36.998  30.649  1.00  0.00    -0.550 OA
ATOM     10  O   UNL     1      19.753  39.134  31.038  1.00  0.00    -0.550 OA
ENDBRANCH   7   8
ENDBRANCH   6   7
ENDBRANCH   5   6
ENDBRANCH   4   5
ENDBRANCH   3   4
ENDBRANCH   2   3
ENDBRANCH   1   2
BRANCH   1  11
ATOM     11  C   UNL     1      21.170  37.397  38.714  1.00  0.00     0.000 C 
BRANCH  11  12
ATOM     12  C   UNL     1      19.652  37.394  38.932  1.00  0.00     0.000 C 
BRANCH  12  13
ATOM     13  C   UNL     1      19.028  38.720  38.472  1.00  0.00     0.000 C 
BRANCH  13  14
ATOM     14  C   UNL     1      19.833  39.398  37.351  1.00  0.00     0.000 C 
BRANCH  14  15
ATOM     15  C   UNL     1      19.025  39.547  36.051  1.00  0.00     0.000 C 
BRANCH  15  16
ATOM     16  C   UNL     1      18.199  38.292  35.710  1.00  0.00     0.006 C 
BRANCH  16  17
ATOM     17  C   UNL     1      17.427  38.392  34.382  1.00  0.00     0.053 C 
BRANCH  17  18
ATOM     18  C   UNL     1      17.777  37.295  33.424  1.00  0.00     0.041 C 
ATOM     19  O   UNL     1      17.213  37.228  32.300  1.00  0.00    -0.550 OA
ATOM     20  O   UNL     1      18.743  36.358  33.765  1.00  0.00    -0.550 OA
ENDBRANCH  17  18
ENDBRANCH  16  17
ENDBRANCH  15  16
ENDBRANCH  14  15
ENDBRANCH  13  14
ENDBRANCH  12  13
ENDBRANCH  11  12
ENDBRANCH   1  11
TORSDOF 15
ENDMDL
MODEL 5
REMARK VINA RESULT:    -3.596      1.136      4.162
REMARK INTER + INTRA:          -9.256
REMARK INTER:                  -7.197
REMARK INTRA:                  -2.059
REMARK UNBOUND:                -2.506
REMARK SMILES O=C([O-])CCCCCCCCCCCCCCC(=O)[O-]
REMARK SMILES IDX 10 1 9 2 8 3 7 4 6 5 5 6 4 7 2 8 1 9 3 10 11 11 12 12 13 13
REMARK SMILES IDX 14 14 15 15 16 16 17 17 18 18 19 19 20 20
REMARK H PARENT
REMARK Flexibility Score: inf
ROOT
ATOM      1  C   UNL     1      22.016  36.270  36.439  1.00  0.00     0.000 C 
ENDROOT
BRANCH   1   2
ATOM      2  C   UNL     1      21.983  37.118  37.718  1.00  0.00     0.000 C 
BRANCH   2   3
ATOM      3  C   UNL     1      20.700  36.907  38.543  1.00  0.00     0.000 C 
BRANCH   3   4
ATOM      4  C   UNL     1      19.850  38.174  38.768  1.00  0.00     0.000 C 
BRANCH   4   5
ATOM      5  C   UNL     1      19.583  39.014  37.506  1.00  0.00     0.000 C 
BRANCH   5   6
ATOM      6  C   UNL     1      18.463  38.431  36.628  1.00  0.00     0.006 C 
BRANCH   6   7
ATOM      7  C   UNL     1      18.463  39.033  35.216  1.00  0.00     0.053 C 
BRANCH   7   8
ATOM      8  C   UNL     1      17.114  38.931  34.572  1.00  0.00     0.041 C 
ATOM      9  O   UNL     1      16.568  39.952  34.078  1.00  0.00    -0.550 OA
ATOM     10  O   UNL     1      16.445  37.713  34.549  1.00  0.00    -0.550 OA
ENDBRANCH   7   8
ENDBRANCH   6   7
ENDBRANCH   5   6
ENDBRANCH   4   5
ENDBRANCH   3   4
ENDBRANCH   2   3
ENDBRANCH   1   2
BRANCH   1  11
ATOM     11  C   UNL     1      21.922  37.155  35.191  1.00  0.00     0.000 C 
BRANCH  11  12
ATOM     12  C   UNL     1      22.601  38.510  35.425  1.00  0.00     0.000 C 
BRANCH  12  13
ATOM     13  C   UNL     1      22.848  39.237  34.093  1.00  0.00     0.000 C 
BRANCH  13  14
ATOM     14  C   UNL     1      21.635  39.179  33.151  1.00  0.00     0.000 C 
BRANCH  14  15
ATOM     15  C   UNL     1      21.974  38.546  31.791  1.00  0.00     0.000 C 
BRANCH  15  16
ATOM     16  C   UNL     1      20.744  38.403  30.873  1.00  0.00     0.006 C 
BRANCH  16  17
ATOM     17  C   UNL     1      20.136  36.989  30.858  1.00  0.00     0.053 C 
BRANCH  17  18
ATOM     18  C   UNL     1      19.031  36.824  31.857  1.00  0.00     0.041 C 
ATOM     19  O   UNL     1      19.278  36.395  33.014  1.00  0.00    -0.550 OA
ATOM     20  O   UNL     1      17.729  37.166  31.514  1.00  0.00    -0.550 OA
ENDBRANCH  17  18
ENDBRANCH  16  17
ENDBRANCH  15  16
ENDBRANCH  14  15
ENDBRANCH  13  14
ENDBRANCH  12  13
ENDBRANCH  11  12
ENDBRANCH   1  11
TORSDOF 15
ENDMDL
MODEL 6
REMARK VINA RESULT:    -3.582      2.553      5.215
REMARK INTER + INTRA:          -9.228
REMARK INTER:                  -7.166
REMARK INTRA:                  -2.061
REMARK UNBOUND:                -2.506
REMARK SMILES O=C([O-])CCCCCCCCCCCCCCC(=O)[O-]
REMARK SMILES IDX 10 1 9 2 8 3 7 4 6 5 5 6 4 7 2 8 1 9 3 10 11 11 12 12 13 13
REMARK SMILES IDX 14 14 15 15 16 16 17 17 18 18 19 19 20 20
REMARK H PARENT
REMARK Flexibility Score: inf
ROOT
ATOM      1  C   UNL     1      20.043  37.079  31.051  1.00  0.00     0.000 C 
ENDROOT
BRANCH   1   2
ATOM      2  C   UNL     1      18.598  37.244  31.544  1.00  0.00     0.000 C 
BRANCH   2   3
ATOM      3  C   UNL     1      18.325  36.491  32.859  1.00  0.00     0.000 C 
BRANCH   3   4
ATOM      4  C   UNL     1      17.855  37.373  34.033  1.00  0.00     0.000 C 
BRANCH   4   5
ATOM      5  C   UNL     1      18.043  38.887  33.829  1.00  0.00     0.000 C 
BRANCH   5   6
ATOM      6  C   UNL     1      16.728  39.673  33.955  1.00  0.00     0.006 C 
BRANCH   6   7
ATOM      7  C   UNL     1      15.498  38.760  33.869  1.00  0.00     0.053 C 
BRANCH   7   8
ATOM      8  C   UNL     1      14.255  39.535  33.552  1.00  0.00     0.041 C 
ATOM      9  O   UNL     1      13.131  39.118  33.939  1.00  0.00    -0.550 OA
ATOM     10  O   UNL     1      14.335  40.699  32.798  1.00  0.00    -0.550 OA
ENDBRANCH   7   8
ENDBRANCH   6   7
ENDBRANCH   5   6
ENDBRANCH   4   5
ENDBRANCH   3   4
ENDBRANCH   2   3
ENDBRANCH   1   2
BRANCH   1  11
ATOM     11  C   UNL     1      21.040  37.284  32.198  1.00  0.00     0.000 C 
BRANCH  11  12
ATOM     12  C   UNL     1      21.513  38.741  32.263  1.00  0.00     0.000 C 
BRANCH  12  13
ATOM     13  C   UNL     1      22.217  39.031  33.598  1.00  0.00     0.000 C 
BRANCH  13  14
ATOM     14  C   UNL     1      21.830  38.033  34.702  1.00  0.00     0.000 C 
BRANCH  14  15
ATOM     15  C   UNL     1      21.121  38.711  35.888  1.00  0.00     0.000 C 
BRANCH  15  16
ATOM     16  C   UNL     1      20.320  37.719  36.754  1.00  0.00     0.006 C 
BRANCH  16  17
ATOM     17  C   UNL     1      19.059  38.326  37.394  1.00  0.00     0.053 C 
BRANCH  17  18
ATOM     18  C   UNL     1      19.209  38.553  38.867  1.00  0.00     0.041 C 
ATOM     19  O   UNL     1      19.807  39.574  39.296  1.00  0.00    -0.550 OA
ATOM     20  O   UNL     1      18.666  37.646  39.768  1.00  0.00    -0.550 OA
ENDBRANCH  17  18
ENDBRANCH  16  17
ENDBRANCH  15  16
ENDBRANCH  14  15
ENDBRANCH  13  14
ENDBRANCH  12  13
ENDBRANCH  11  12
ENDBRANCH   1  11
TORSDOF 15
ENDMDL
MODEL 7
REMARK VINA RESULT:    -3.578      1.927      5.432
REMARK INTER + INTRA:          -9.221
REMARK INTER:                  -7.290
REMARK INTRA:                  -1.931
REMARK UNBOUND:                -2.506
REMARK SMILES O=C([O-])CCCCCCCCCCCCCCC(=O)[O-]
REMARK SMILES IDX 10 1 9 2 8 3 7 4 6 5 5 6 4 7 2 8 1 9 3 10 11 11 12 12 13 13
REMARK SMILES IDX 14 14 15 15 16 16 17 17 18 18 19 19 20 20
REMARK H PARENT
REMARK Flexibility Score: inf
ROOT
ATOM      1  C   UNL     1      22.430  38.992  34.067  1.00  0.00     0.000 C 
ENDROOT
BRANCH   1   2
ATOM      2  C   UNL     1      21.682  38.338  35.237  1.00  0.00     0.000 C 
BRANCH   2   3
ATOM      3  C   UNL     1      21.745  36.800  35.203  1.00  0.00     0.000 C 
BRANCH   3   4
ATOM      4  C   UNL     1      22.116  36.130  36.541  1.00  0.00     0.000 C 
BRANCH   4   5
ATOM      5  C   UNL     1      22.736  37.068  37.592  1.00  0.00     0.000 C 
BRANCH   5   6
ATOM      6  C   UNL     1      21.897  37.158  38.878  1.00  0.00     0.006 C 
BRANCH   6   7
ATOM      7  C   UNL     1      20.997  38.400  38.895  1.00  0.00     0.053 C 
BRANCH   7   8
ATOM      8  C   UNL     1      19.553  38.040  38.722  1.00  0.00     0.041 C 
ATOM      9  O   UNL     1      18.925  37.469  39.653  1.00  0.00    -0.550 OA
ATOM     10  O   UNL     1      18.911  38.303  37.518  1.00  0.00    -0.550 OA
ENDBRANCH   7   8
ENDBRANCH   6   7
ENDBRANCH   5   6
ENDBRANCH   4   5
ENDBRANCH   3   4
ENDBRANCH   2   3
ENDBRANCH   1   2
BRANCH   1  11
ATOM     11  C   UNL     1      21.508  39.161  32.853  1.00  0.00     0.000 C 
BRANCH  11  12
ATOM     12  C   UNL     1      22.087  38.458  31.619  1.00  0.00     0.000 C 
BRANCH  12  13
ATOM     13  C   UNL     1      21.010  37.628  30.903  1.00  0.00     0.000 C 
BRANCH  13  14
ATOM     14  C   UNL     1      20.199  36.748  31.869  1.00  0.00     0.000 C 
BRANCH  14  15
ATOM     15  C   UNL     1      18.685  37.001  31.769  1.00  0.00     0.000 C 
BRANCH  15  16
ATOM     16  C   UNL     1      17.919  36.563  33.032  1.00  0.00     0.006 C 
BRANCH  16  17
ATOM     17  C   UNL     1      18.159  37.467  34.254  1.00  0.00     0.053 C 
BRANCH  17  18
ATOM     18  C   UNL     1      17.330  38.714  34.225  1.00  0.00     0.041 C 
ATOM     19  O   UNL     1      17.815  39.810  34.609  1.00  0.00    -0.550 OA
ATOM     20  O   UNL     1      16.025  38.670  33.749  1.00  0.00    -0.550 OA
ENDBRANCH  17  18
ENDBRANCH  16  17
ENDBRANCH  15  16
ENDBRANCH  14  15
ENDBRANCH  13  14
ENDBRANCH  12  13
ENDBRANCH  11  12
ENDBRANCH   1  11
TORSDOF 15
ENDMDL
MODEL 8
REMARK VINA RESULT:    -3.575      2.081      5.142
REMARK INTER + INTRA:          -9.215
REMARK INTER:                  -7.099
REMARK INTRA:                  -2.116
REMARK UNBOUND:                -2.506
REMARK SMILES O=C([O-])CCCCCCCCCCCCCCC(=O)[O-]
REMARK SMILES IDX 10 1 9 2 8 3 7 4 6 5 5 6 4 7 2 8 1 9 3 10 11 11 12 12 13 13
REMARK SMILES IDX 14 14 15 15 16 16 17 17 18 18 19 19 20 20
REMARK H PARENT
REMARK Flexibility Score: inf
ROOT
ATOM      1  C   UNL     1      21.143  36.801  35.753  1.00  0.00     0.000 C 
ENDROOT
BRANCH   1   2
ATOM      2  C   UNL     1      22.319  36.243  36.568  1.00  0.00     0.000 C 
BRANCH   2   3
ATOM      3  C   UNL     1      21.922  35.863  38.007  1.00  0.00     0.000 C 
BRANCH   3   4
ATOM      4  C   UNL     1      22.820  36.456  39.112  1.00  0.00     0.000 C 
BRANCH   4   5
ATOM      5  C   UNL     1      22.791  37.991  39.224  1.00  0.00     0.000 C 
BRANCH   5   6
ATOM      6  C   UNL     1      21.606  38.505  40.059  1.00  0.00     0.006 C 
BRANCH   6   7
ATOM      7  C   UNL     1      20.544  39.193  39.191  1.00  0.00     0.053 C 
BRANCH   7   8
ATOM      8  C   UNL     1      19.288  38.379  39.103  1.00  0.00     0.041 C 
ATOM      9  O   UNL     1      18.911  37.687  40.085  1.00  0.00    -0.550 OA
ATOM     10  O   UNL     1      18.555  38.358  37.924  1.00  0.00    -0.550 OA
ENDBRANCH   7   8
ENDBRANCH   6   7
ENDBRANCH   5   6
ENDBRANCH   4   5
ENDBRANCH   3   4
ENDBRANCH   2   3
ENDBRANCH   1   2
BRANCH   1  11
ATOM     11  C   UNL     1      21.219  38.330  35.657  1.00  0.00     0.000 C 
BRANCH  11  12
ATOM     12  C   UNL     1      22.653  38.793  35.373  1.00  0.00     0.000 C 
BRANCH  12  13
ATOM     13  C   UNL     1      22.838  39.127  33.884  1.00  0.00     0.000 C 
BRANCH  13  14
ATOM     14  C   UNL     1      21.506  39.186  33.119  1.00  0.00     0.000 C 
BRANCH  14  15
ATOM     15  C   UNL     1      21.346  38.025  32.122  1.00  0.00     0.000 C 
BRANCH  15  16
ATOM     16  C   UNL     1      19.904  37.877  31.601  1.00  0.00     0.006 C 
BRANCH  16  17
ATOM     17  C   UNL     1      18.829  38.384  32.580  1.00  0.00     0.053 C 
BRANCH  17  18
ATOM     18  C   UNL     1      18.276  37.295  33.447  1.00  0.00     0.041 C 
ATOM     19  O   UNL     1      17.525  37.575  34.418  1.00  0.00    -0.550 OA
ATOM     20  O   UNL     1      18.571  35.967  33.168  1.00  0.00    -0.550 OA
ENDBRANCH  17  18
ENDBRANCH  16  17
ENDBRANCH  15  16
ENDBRANCH  14  15
ENDBRANCH  13  14
ENDBRANCH  12  13
ENDBRANCH  11  12
ENDBRANCH   1  11
TORSDOF 15
ENDMDL
MODEL 9
REMARK VINA RESULT:    -3.513      2.886      5.429
REMARK INTER + INTRA:          -9.099
REMARK INTER:                  -6.449
REMARK INTRA:                  -2.650
REMARK UNBOUND:                -2.506
REMARK SMILES O=C([O-])CCCCCCCCCCCCCCC(=O)[O-]
REMARK SMILES IDX 10 1 9 2 8 3 7 4 6 5 5 6 4 7 2 8 1 9 3 10 11 11 12 12 13 13
REMARK SMILES IDX 14 14 15 15 16 16 17 17 18 18 19 19 20 20
REMARK H PARENT
REMARK Flexibility Score: inf
ROOT
ATOM      1  C   UNL     1      17.238  37.602  33.827  1.00  0.00     0.000 C 
ENDROOT
BRANCH   1   2
ATOM      2  C   UNL     1      18.072  36.495  33.165  1.00  0.00     0.000 C 
BRANCH   2   3
ATOM      3  C   UNL     1      19.020  37.030  32.076  1.00  0.00     0.000 C 
BRANCH   3   4
ATOM      4  C   UNL     1      20.521  36.948  32.418  1.00  0.00     0.000 C 
BRANCH   4   5
ATOM      5  C   UNL     1      21.146  38.256  32.935  1.00  0.00     0.000 C 
BRANCH   5   6
ATOM      6  C   UNL     1      21.821  38.092  34.307  1.00  0.00     0.006 C 
BRANCH   6   7
ATOM      7  C   UNL     1      21.431  36.775  34.990  1.00  0.00     0.053 C 
BRANCH   7   8
ATOM      8  C   UNL     1      21.500  36.883  36.483  1.00  0.00     0.041 C 
ATOM      9  O   UNL     1      22.003  35.951  37.164  1.00  0.00    -0.550 OA
ATOM     10  O   UNL     1      20.976  37.999  37.123  1.00  0.00    -0.550 OA
ENDBRANCH   7   8
ENDBRANCH   6   7
ENDBRANCH   5   6
ENDBRANCH   4   5
ENDBRANCH   3   4
ENDBRANCH   2   3
ENDBRANCH   1   2
BRANCH   1  11
ATOM     11  C   UNL     1      17.907  38.097  35.115  1.00  0.00     0.000 C 
BRANCH  11  12
ATOM     12  C   UNL     1      18.335  39.563  34.986  1.00  0.00     0.000 C 
BRANCH  12  13
ATOM     13  C   UNL     1      17.677  40.222  33.762  1.00  0.00     0.000 C 
BRANCH  13  14
ATOM     14  C   UNL     1      18.666  41.064  32.938  1.00  0.00     0.000 C 
BRANCH  14  15
ATOM     15  C   UNL     1      18.618  40.729  31.438  1.00  0.00     0.000 C 
BRANCH  15  16
ATOM     16  C   UNL     1      17.270  40.127  31.000  1.00  0.00     0.006 C 
BRANCH  16  17
ATOM     17  C   UNL     1      16.956  40.317  29.505  1.00  0.00     0.053 C 
BRANCH  17  18
ATOM     18  C   UNL     1      17.125  39.057  28.712  1.00  0.00     0.041 C 
ATOM     19  O   UNL     1      16.164  38.593  28.043  1.00  0.00    -0.550 OA
ATOM     20  O   UNL     1      18.352  38.406  28.695  1.00  0.00    -0.550 OA
ENDBRANCH  17  18
ENDBRANCH  16  17
ENDBRANCH  15  16
ENDBRANCH  14  15
ENDBRANCH  13  14
ENDBRANCH  12  13
ENDBRANCH  11  12
ENDBRANCH   1  11
TORSDOF 15
ENDMDL
