MODEL 1
REMARK VINA RESULT:    -4.040      0.000      0.000
REMARK INTER + INTRA:          -6.449
REMARK INTER:                  -5.693
REMARK INTRA:                  -0.756
REMARK UNBOUND:                -0.756
REMARK SMILES CCCCCCCCC(=O)[O-]
REMARK SMILES IDX 6 1 7 2 8 3 9 4 10 5 11 6 5 7 4 8 3 9 2 10 1 11
REMARK H PARENT
REMARK Flexibility Score: inf
ROOT
ATOM      1  C   UNL     1      -2.204  43.528  21.484  1.00  0.00     0.000 C 
ENDROOT
BRANCH   1   2
ATOM      2  C   UNL     1      -2.169  44.253  20.128  1.00  0.00     0.006 C 
BRANCH   2   3
ATOM      3  C   UNL     1      -3.376  45.179  19.921  1.00  0.00     0.053 C 
BRANCH   3   4
ATOM      4  C   UNL     1      -4.519  44.420  19.327  1.00  0.00     0.041 C 
ATOM      5  O   UNL     1      -4.598  44.266  18.079  1.00  0.00    -0.550 OA
ATOM      6  O   UNL     1      -5.472  43.838  20.153  1.00  0.00    -0.550 OA
ENDBRANCH   3   4
ENDBRANCH   2   3
ENDBRANCH   1   2
BRANCH   1   7
ATOM      7  C   UNL     1      -1.382  44.256  22.562  1.00  0.00     0.000 C 
BRANCH   7   8
ATOM      8  C   UNL     1      -2.267  44.999  23.576  1.00  0.00    -0.000 C 
BRANCH   8   9
ATOM      9  C   UNL     1      -3.738  44.550  23.521  1.00  0.00    -0.000 C 
BRANCH   9  10
ATOM     10  C   UNL     1      -4.702  45.720  23.278  1.00  0.00    -0.003 C 
ATOM     11  C   UNL     1      -3.994  47.076  23.279  1.00  0.00     0.004 C 
ENDBRANCH   9  10
ENDBRANCH   8   9
ENDBRANCH   7   8
ENDBRANCH   1   7
TORSDOF 7
ENDMDL
MODEL 2
REMARK VINA RESULT:    -3.985      3.246      4.584
REMARK INTER + INTRA:          -6.372
REMARK INTER:                  -5.760
REMARK INTRA:                  -0.612
REMARK UNBOUND:                -0.756
REMARK SMILES CCCCCCCCC(=O)[O-]
REMARK SMILES IDX 6 1 7 2 8 3 9 4 10 5 11 6 5 7 4 8 3 9 2 10 1 11
REMARK H PARENT
REMARK Flexibility Score: inf
ROOT
ATOM      1  C   UNL     1      -0.701  43.904  22.379  1.00  0.00     0.000 C 
ENDROOT
BRANCH   1   2
ATOM      2  C   UNL     1      -0.961  44.336  23.831  1.00  0.00     0.006 C 
BRANCH   2   3
ATOM      3  C   UNL     1      -0.752  43.194  24.835  1.00  0.00     0.053 C 
BRANCH   3   4
ATOM      4  C   UNL     1      -1.937  43.073  25.740  1.00  0.00     0.041 C 
ATOM      5  O   UNL     1      -1.947  42.214  26.661  1.00  0.00    -0.550 OA
ATOM      6  O   UNL     1      -3.011  43.943  25.600  1.00  0.00    -0.550 OA
ENDBRANCH   3   4
ENDBRANCH   2   3
ENDBRANCH   1   2
BRANCH   1   7
ATOM      7  C   UNL     1      -1.993  43.817  21.549  1.00  0.00     0.000 C 
BRANCH   7   8
ATOM      8  C   UNL     1      -2.879  45.064  21.707  1.00  0.00    -0.000 C 
BRANCH   8   9
ATOM      9  C   UNL     1      -4.290  44.729  22.222  1.00  0.00    -0.000 C 
BRANCH   9  10
ATOM     10  C   UNL     1      -4.845  45.809  23.162  1.00  0.00    -0.003 C 
ATOM     11  C   UNL     1      -3.861  46.957  23.387  1.00  0.00     0.004 C 
ENDBRANCH   9  10
ENDBRANCH   8   9
ENDBRANCH   7   8
ENDBRANCH   1   7
TORSDOF 7
ENDMDL
MODEL 3
REMARK VINA RESULT:    -3.954      3.098      4.165
REMARK INTER + INTRA:          -6.328
REMARK INTER:                  -5.496
REMARK INTRA:                  -0.832
REMARK UNBOUND:                -0.756
REMARK SMILES CCCCCCCCC(=O)[O-]
REMARK SMILES IDX 6 1 7 2 8 3 9 4 10 5 11 6 5 7 4 8 3 9 2 10 1 11
REMARK H PARENT
REMARK Flexibility Score: inf
ROOT
ATOM      1  C   UNL     1      -2.009  43.410  21.720  1.00  0.00     0.000 C 
ENDROOT
BRANCH   1   2
ATOM      2  C   UNL     1      -0.805  43.882  22.552  1.00  0.00     0.006 C 
BRANCH   2   3
ATOM      3  C   UNL     1      -1.222  44.563  23.863  1.00  0.00     0.053 C 
BRANCH   3   4
ATOM      4  C   UNL     1      -1.644  43.540  24.870  1.00  0.00     0.041 C 
ATOM      5  O   UNL     1      -2.721  43.683  25.506  1.00  0.00    -0.550 OA
ATOM      6  O   UNL     1      -0.872  42.402  25.069  1.00  0.00    -0.550 OA
ENDBRANCH   3   4
ENDBRANCH   2   3
ENDBRANCH   1   2
BRANCH   1   7
ATOM      7  C   UNL     1      -2.387  44.407  20.612  1.00  0.00     0.000 C 
BRANCH   7   8
ATOM      8  C   UNL     1      -3.556  45.321  21.016  1.00  0.00    -0.000 C 
BRANCH   8   9
ATOM      9  C   UNL     1      -4.509  44.655  22.024  1.00  0.00    -0.000 C 
BRANCH   9  10
ATOM     10  C   UNL     1      -4.775  45.537  23.252  1.00  0.00    -0.003 C 
ATOM     11  C   UNL     1      -4.082  46.897  23.163  1.00  0.00     0.004 C 
ENDBRANCH   9  10
ENDBRANCH   8   9
ENDBRANCH   7   8
ENDBRANCH   1   7
TORSDOF 7
ENDMDL
MODEL 4
REMARK VINA RESULT:    -3.933      2.090      4.035
REMARK INTER + INTRA:          -6.299
REMARK INTER:                  -5.691
REMARK INTRA:                  -0.609
REMARK UNBOUND:                -0.756
REMARK SMILES CCCCCCCCC(=O)[O-]
REMARK SMILES IDX 6 1 7 2 8 3 9 4 10 5 11 6 5 7 4 8 3 9 2 10 1 11
REMARK H PARENT
REMARK Flexibility Score: inf
ROOT
ATOM      1  C   UNL     1      -2.278  43.799  22.290  1.00  0.00     0.000 C 
ENDROOT
BRANCH   1   2
ATOM      2  C   UNL     1      -1.966  44.750  23.458  1.00  0.00     0.006 C 
BRANCH   2   3
ATOM      3  C   UNL     1      -3.192  45.026  24.340  1.00  0.00     0.053 C 
BRANCH   3   4
ATOM      4  C   UNL     1      -4.035  46.104  23.737  1.00  0.00     0.041 C 
ATOM      5  O   UNL     1      -3.636  47.298  23.741  1.00  0.00    -0.550 OA
ATOM      6  O   UNL     1      -5.241  45.783  23.125  1.00  0.00    -0.550 OA
ENDBRANCH   3   4
ENDBRANCH   2   3
ENDBRANCH   1   2
BRANCH   1   7
ATOM      7  C   UNL     1      -1.349  44.022  21.084  1.00  0.00     0.000 C 
BRANCH   7   8
ATOM      8  C   UNL     1      -2.126  44.263  19.779  1.00  0.00    -0.000 C 
BRANCH   8   9
ATOM      9  C   UNL     1      -3.451  45.013  20.007  1.00  0.00    -0.000 C 
BRANCH   9  10
ATOM     10  C   UNL     1      -4.652  44.288  19.381  1.00  0.00    -0.003 C 
ATOM     11  C   UNL     1      -5.498  43.548  20.417  1.00  0.00     0.004 C 
ENDBRANCH   9  10
ENDBRANCH   8   9
ENDBRANCH   7   8
ENDBRANCH   1   7
TORSDOF 7
ENDMDL
MODEL 5
REMARK VINA RESULT:    -3.885      2.470      4.440
REMARK INTER + INTRA:          -6.230
REMARK INTER:                  -5.693
REMARK INTRA:                  -0.538
REMARK UNBOUND:                -0.756
REMARK SMILES CCCCCCCCC(=O)[O-]
REMARK SMILES IDX 6 1 7 2 8 3 9 4 10 5 11 6 5 7 4 8 3 9 2 10 1 11
REMARK H PARENT
REMARK Flexibility Score: inf
ROOT
ATOM      1  C   UNL     1      -1.867  44.350  21.165  1.00  0.00     0.000 C 
ENDROOT
BRANCH   1   2
ATOM      2  C   UNL     1      -1.503  44.215  22.652  1.00  0.00     0.006 C 
BRANCH   2   3
ATOM      3  C   UNL     1      -2.425  45.036  23.565  1.00  0.00     0.053 C 
BRANCH   3   4
ATOM      4  C   UNL     1      -3.237  44.130  24.435  1.00  0.00     0.041 C 
ATOM      5  O   UNL     1      -2.851  43.858  25.602  1.00  0.00    -0.550 OA
ATOM      6  O   UNL     1      -4.447  43.625  23.976  1.00  0.00    -0.550 OA
ENDBRANCH   3   4
ENDBRANCH   2   3
ENDBRANCH   1   2
BRANCH   1   7
ATOM      7  C   UNL     1      -3.163  45.149  20.945  1.00  0.00     0.000 C 
BRANCH   7   8
ATOM      8  C   UNL     1      -3.595  45.177  19.469  1.00  0.00    -0.000 C 
BRANCH   8   9
ATOM      9  C   UNL     1      -4.732  44.185  19.164  1.00  0.00    -0.000 C 
BRANCH   9  10
ATOM     10  C   UNL     1      -5.444  43.698  20.434  1.00  0.00    -0.003 C 
ATOM     11  C   UNL     1      -5.444  42.174  20.562  1.00  0.00     0.004 C 
ENDBRANCH   9  10
ENDBRANCH   8   9
ENDBRANCH   7   8
ENDBRANCH   1   7
TORSDOF 7
ENDMDL
MODEL 6
REMARK VINA RESULT:    -3.859      2.208      4.527
REMARK INTER + INTRA:          -6.194
REMARK INTER:                  -5.709
REMARK INTRA:                  -0.485
REMARK UNBOUND:                -0.756
REMARK SMILES CCCCCCCCC(=O)[O-]
REMARK SMILES IDX 6 1 7 2 8 3 9 4 10 5 11 6 5 7 4 8 3 9 2 10 1 11
REMARK H PARENT
REMARK Flexibility Score: inf
ROOT
ATOM      1  C   UNL     1      -1.658  44.231  21.280  1.00  0.00     0.000 C 
ENDROOT
BRANCH   1   2
ATOM      2  C   UNL     1      -2.785  44.198  22.325  1.00  0.00     0.006 C 
BRANCH   2   3
ATOM      3  C   UNL     1      -2.655  45.312  23.372  1.00  0.00     0.053 C 
BRANCH   3   4
ATOM      4  C   UNL     1      -3.903  46.134  23.416  1.00  0.00     0.041 C 
ATOM      5  O   UNL     1      -3.865  47.325  23.823  1.00  0.00    -0.550 OA
ATOM      6  O   UNL     1      -5.103  45.601  22.961  1.00  0.00    -0.550 OA
ENDBRANCH   3   4
ENDBRANCH   2   3
ENDBRANCH   1   2
BRANCH   1   7
ATOM      7  C   UNL     1      -2.192  44.259  19.837  1.00  0.00     0.000 C 
BRANCH   7   8
ATOM      8  C   UNL     1      -3.456  45.123  19.694  1.00  0.00    -0.000 C 
BRANCH   8   9
ATOM      9  C   UNL     1      -4.641  44.346  19.094  1.00  0.00    -0.000 C 
BRANCH   9  10
ATOM     10  C   UNL     1      -4.193  43.278  18.085  1.00  0.00    -0.003 C 
ATOM     11  C   UNL     1      -4.136  43.809  16.652  1.00  0.00     0.004 C 
ENDBRANCH   9  10
ENDBRANCH   8   9
ENDBRANCH   7   8
ENDBRANCH   1   7
TORSDOF 7
ENDMDL
MODEL 7
REMARK VINA RESULT:    -3.729      3.416      4.927
REMARK INTER + INTRA:          -6.011
REMARK INTER:                  -5.544
REMARK INTRA:                  -0.466
REMARK UNBOUND:                -0.756
REMARK SMILES CCCCCCCCC(=O)[O-]
REMARK SMILES IDX 6 1 7 2 8 3 9 4 10 5 11 6 5 7 4 8 3 9 2 10 1 11
REMARK H PARENT
REMARK Flexibility Score: inf
ROOT
ATOM      1  C   UNL     1      -2.558  44.819  22.337  1.00  0.00     0.000 C 
ENDROOT
BRANCH   1   2
ATOM      2  C   UNL     1      -1.869  44.946  23.705  1.00  0.00     0.006 C 
BRANCH   2   3
ATOM      3  C   UNL     1      -0.699  43.967  23.873  1.00  0.00     0.053 C 
BRANCH   3   4
ATOM      4  C   UNL     1      -1.081  42.851  24.791  1.00  0.00     0.041 C 
ATOM      5  O   UNL     1      -0.772  41.663  24.509  1.00  0.00    -0.550 OA
ATOM      6  O   UNL     1      -1.736  43.126  25.986  1.00  0.00    -0.550 OA
ENDBRANCH   3   4
ENDBRANCH   2   3
ENDBRANCH   1   2
BRANCH   1   7
ATOM      7  C   UNL     1      -1.698  44.059  21.312  1.00  0.00     0.000 C 
BRANCH   7   8
ATOM      8  C   UNL     1      -2.169  44.283  19.866  1.00  0.00    -0.000 C 
BRANCH   8   9
ATOM      9  C   UNL     1      -3.467  45.106  19.785  1.00  0.00    -0.000 C 
BRANCH   9  10
ATOM     10  C   UNL     1      -4.648  44.289  19.240  1.00  0.00    -0.003 C 
ATOM     11  C   UNL     1      -5.441  43.590  20.345  1.00  0.00     0.004 C 
ENDBRANCH   9  10
ENDBRANCH   8   9
ENDBRANCH   7   8
ENDBRANCH   1   7
TORSDOF 7
ENDMDL
MODEL 8
REMARK VINA RESULT:    -3.711      2.599      5.034
REMARK INTER + INTRA:          -5.987
REMARK INTER:                  -5.654
REMARK INTRA:                  -0.332
REMARK UNBOUND:                -0.756
REMARK SMILES CCCCCCCCC(=O)[O-]
REMARK SMILES IDX 6 1 7 2 8 3 9 4 10 5 11 6 5 7 4 8 3 9 2 10 1 11
REMARK H PARENT
REMARK Flexibility Score: inf
ROOT
ATOM      1  C   UNL     1      -2.345  44.641  21.695  1.00  0.00     0.000 C 
ENDROOT
BRANCH   1   2
ATOM      2  C   UNL     1      -3.508  45.448  22.295  1.00  0.00     0.006 C 
BRANCH   2   3
ATOM      3  C   UNL     1      -3.365  45.657  23.809  1.00  0.00     0.053 C 
BRANCH   3   4
ATOM      4  C   UNL     1      -3.654  44.385  24.540  1.00  0.00     0.041 C 
ATOM      5  O   UNL     1      -2.947  44.045  25.525  1.00  0.00    -0.550 OA
ATOM      6  O   UNL     1      -4.735  43.597  24.164  1.00  0.00    -0.550 OA
ENDBRANCH   3   4
ENDBRANCH   2   3
ENDBRANCH   1   2
BRANCH   1   7
ATOM      7  C   UNL     1      -2.498  44.423  20.180  1.00  0.00     0.000 C 
BRANCH   7   8
ATOM      8  C   UNL     1      -3.589  45.315  19.564  1.00  0.00    -0.000 C 
BRANCH   8   9
ATOM      9  C   UNL     1      -4.450  44.570  18.528  1.00  0.00    -0.000 C 
BRANCH   9  10
ATOM     10  C   UNL     1      -3.604  43.811  17.497  1.00  0.00    -0.003 C 
ATOM     11  C   UNL     1      -4.361  43.542  16.196  1.00  0.00     0.004 C 
ENDBRANCH   9  10
ENDBRANCH   8   9
ENDBRANCH   7   8
ENDBRANCH   1   7
TORSDOF 7
ENDMDL
MODEL 9
REMARK VINA RESULT:    -3.674      2.598      3.868
REMARK INTER + INTRA:          -5.934
REMARK INTER:                  -5.317
REMARK INTRA:                  -0.616
REMARK UNBOUND:                -0.756
REMARK SMILES CCCCCCCCC(=O)[O-]
REMARK SMILES IDX 6 1 7 2 8 3 9 4 10 5 11 6 5 7 4 8 3 9 2 10 1 11
REMARK H PARENT
REMARK Flexibility Score: inf
ROOT
ATOM      1  C   UNL     1      -2.408  44.672  21.009  1.00  0.00     0.000 C 
ENDROOT
BRANCH   1   2
ATOM      2  C   UNL     1      -3.871  45.059  21.282  1.00  0.00     0.006 C 
BRANCH   2   3
ATOM      3  C   UNL     1      -4.324  44.695  22.703  1.00  0.00     0.053 C 
BRANCH   3   4
ATOM      4  C   UNL     1      -4.221  45.885  23.603  1.00  0.00     0.041 C 
ATOM      5  O   UNL     1      -4.262  47.049  23.122  1.00  0.00    -0.550 OA
ATOM      6  O   UNL     1      -4.129  45.711  24.978  1.00  0.00    -0.550 OA
ENDBRANCH   3   4
ENDBRANCH   2   3
ENDBRANCH   1   2
BRANCH   1   7
ATOM      7  C   UNL     1      -1.911  43.550  21.937  1.00  0.00     0.000 C 
BRANCH   7   8
ATOM      8  C   UNL     1      -0.571  43.892  22.609  1.00  0.00    -0.000 C 
BRANCH   8   9
ATOM      9  C   UNL     1      -0.724  44.226  24.103  1.00  0.00    -0.000 C 
BRANCH   9  10
ATOM     10  C   UNL     1      -0.902  42.972  24.971  1.00  0.00    -0.003 C 
ATOM     11  C   UNL     1      -2.174  43.017  25.819  1.00  0.00     0.004 C 
ENDBRANCH   9  10
ENDBRANCH   8   9
ENDBRANCH   7   8
ENDBRANCH   1   7
TORSDOF 7
ENDMDL
