MODEL 1
REMARK VINA RESULT:    -4.796      0.000      0.000
REMARK INTER + INTRA:          -5.235
REMARK INTER:                  -5.217
REMARK INTRA:                  -0.018
REMARK UNBOUND:                -0.018
REMARK SMILES OCc1ccccc1
REMARK SMILES IDX 2 1 3 2 6 3 5 4 7 5 4 6 8 7 1 8
REMARK H PARENT 1 9
REMARK Flexibility Score: inf
ROOT
ATOM      1  C   UNL     1     -10.950  74.057  33.361  1.00  0.00     0.191 C 
ENDROOT
BRANCH   1   2
ATOM      2  C   UNL     1     -11.203  73.740  31.913  1.00  0.00    -0.023 A 
ATOM      3  C   UNL     1     -11.598  73.138  29.201  1.00  0.00     0.000 A 
ATOM      4  C   UNL     1     -11.663  72.123  30.159  1.00  0.00     0.000 A 
ATOM      5  C   UNL     1     -11.325  74.452  29.592  1.00  0.00     0.000 A 
ATOM      6  C   UNL     1     -11.462  72.419  31.511  1.00  0.00     0.006 A 
ATOM      7  C   UNL     1     -11.123  74.753  30.943  1.00  0.00     0.006 A 
ENDBRANCH   1   2
BRANCH   1   8
ATOM      8  O   UNL     1     -11.112  75.430  33.589  1.00  0.00    -0.392 OA
ATOM      9  H   UNL     1     -11.692  75.772  32.858  1.00  0.00     0.211 HD
ENDBRANCH   1   8
TORSDOF 2
ENDMDL
MODEL 2
REMARK VINA RESULT:    -4.763      0.341      1.738
REMARK INTER + INTRA:          -5.199
REMARK INTER:                  -5.180
REMARK INTRA:                  -0.019
REMARK UNBOUND:                -0.018
REMARK SMILES OCc1ccccc1
REMARK SMILES IDX 2 1 3 2 6 3 5 4 7 5 4 6 8 7 1 8
REMARK H PARENT 1 9
REMARK Flexibility Score: inf
ROOT
ATOM      1  C   UNL     1     -10.871  73.839  33.607  1.00  0.00     0.191 C 
ENDROOT
BRANCH   1   2
ATOM      2  C   UNL     1     -11.045  73.674  32.123  1.00  0.00    -0.023 A 
ATOM      3  C   UNL     1     -11.444  73.386  29.361  1.00  0.00     0.000 A 
ATOM      4  C   UNL     1     -11.046  74.619  29.884  1.00  0.00     0.000 A 
ATOM      5  C   UNL     1     -11.653  72.299  30.214  1.00  0.00     0.000 A 
ATOM      6  C   UNL     1     -10.851  74.767  31.261  1.00  0.00     0.006 A 
ATOM      7  C   UNL     1     -11.460  72.442  31.592  1.00  0.00     0.006 A 
ENDBRANCH   1   2
BRANCH   1   8
ATOM      8  O   UNL     1     -10.906  75.198  33.948  1.00  0.00    -0.392 OA
ATOM      9  H   UNL     1     -10.079  75.381  34.466  1.00  0.00     0.211 HD
ENDBRANCH   1   8
TORSDOF 2
ENDMDL
MODEL 3
REMARK VINA RESULT:    -4.751      1.522      2.224
REMARK INTER + INTRA:          -5.185
REMARK INTER:                  -5.169
REMARK INTRA:                  -0.016
REMARK UNBOUND:                -0.018
REMARK SMILES OCc1ccccc1
REMARK SMILES IDX 2 1 3 2 6 3 5 4 7 5 4 6 8 7 1 8
REMARK H PARENT 1 9
REMARK Flexibility Score: inf
ROOT
ATOM      1  C   UNL     1     -11.504  72.985  33.409  1.00  0.00     0.191 C 
ENDROOT
BRANCH   1   2
ATOM      2  C   UNL     1     -11.370  73.286  31.941  1.00  0.00    -0.023 A 
ATOM      3  C   UNL     1     -11.194  73.870  29.204  1.00  0.00     0.000 A 
ATOM      4  C   UNL     1     -10.880  74.850  30.149  1.00  0.00     0.000 A 
ATOM      5  C   UNL     1     -11.606  72.602  29.622  1.00  0.00     0.000 A 
ATOM      6  C   UNL     1     -10.971  74.563  31.514  1.00  0.00     0.006 A 
ATOM      7  C   UNL     1     -11.700  72.310  30.987  1.00  0.00     0.006 A 
ENDBRANCH   1   2
BRANCH   1   8
ATOM      8  O   UNL     1     -11.241  71.629  33.648  1.00  0.00    -0.392 OA
ATOM      9  H   UNL     1     -11.875  71.113  33.084  1.00  0.00     0.211 HD
ENDBRANCH   1   8
TORSDOF 2
ENDMDL
MODEL 4
REMARK VINA RESULT:    -4.698      2.628      3.654
REMARK INTER + INTRA:          -5.128
REMARK INTER:                  -5.117
REMARK INTRA:                  -0.011
REMARK UNBOUND:                -0.018
REMARK SMILES OCc1ccccc1
REMARK SMILES IDX 2 1 3 2 6 3 5 4 7 5 4 6 8 7 1 8
REMARK H PARENT 1 9
REMARK Flexibility Score: inf
ROOT
ATOM      1  C   UNL     1      -9.933  75.202  28.029  1.00  0.00     0.191 C 
ENDROOT
BRANCH   1   2
ATOM      2  C   UNL     1     -10.247  74.666  29.399  1.00  0.00    -0.023 A 
ATOM      3  C   UNL     1     -10.881  73.727  31.965  1.00  0.00     0.000 A 
ATOM      4  C   UNL     1     -11.634  73.313  30.864  1.00  0.00     0.000 A 
ATOM      5  C   UNL     1      -9.817  74.618  31.790  1.00  0.00     0.000 A 
ATOM      6  C   UNL     1     -11.323  73.783  29.584  1.00  0.00     0.006 A 
ATOM      7  C   UNL     1      -9.504  75.092  30.511  1.00  0.00     0.006 A 
ENDBRANCH   1   2
BRANCH   1   8
ATOM      8  O   UNL     1      -8.649  74.800  27.637  1.00  0.00    -0.392 OA
ATOM      9  H   UNL     1      -8.199  74.457  28.453  1.00  0.00     0.211 HD
ENDBRANCH   1   8
TORSDOF 2
ENDMDL
MODEL 5
REMARK VINA RESULT:    -4.694      3.316      4.581
REMARK INTER + INTRA:          -5.123
REMARK INTER:                  -5.105
REMARK INTRA:                  -0.018
REMARK UNBOUND:                -0.018
REMARK SMILES OCc1ccccc1
REMARK SMILES IDX 2 1 3 2 6 3 5 4 7 5 4 6 8 7 1 8
REMARK H PARENT 1 9
REMARK Flexibility Score: inf
ROOT
ATOM      1  C   UNL     1     -10.014  73.610  26.529  1.00  0.00     0.191 C 
ENDROOT
BRANCH   1   2
ATOM      2  C   UNL     1     -10.316  73.993  27.951  1.00  0.00    -0.023 A 
ATOM      3  C   UNL     1     -10.871  74.631  30.626  1.00  0.00     0.000 A 
ATOM      4  C   UNL     1      -9.556  74.676  30.155  1.00  0.00     0.000 A 
ATOM      5  C   UNL     1     -11.909  74.257  29.767  1.00  0.00     0.000 A 
ATOM      6  C   UNL     1      -9.276  74.354  28.823  1.00  0.00     0.006 A 
ATOM      7  C   UNL     1     -11.633  73.933  28.434  1.00  0.00     0.006 A 
ENDBRANCH   1   2
BRANCH   1   8
ATOM      8  O   UNL     1     -11.187  73.644  25.762  1.00  0.00    -0.392 OA
ATOM      9  H   UNL     1     -11.898  74.012  26.349  1.00  0.00     0.211 HD
ENDBRANCH   1   8
TORSDOF 2
ENDMDL
MODEL 6
REMARK VINA RESULT:    -4.682      2.622      3.867
REMARK INTER + INTRA:          -5.111
REMARK INTER:                  -5.098
REMARK INTRA:                  -0.013
REMARK UNBOUND:                -0.018
REMARK SMILES OCc1ccccc1
REMARK SMILES IDX 2 1 3 2 6 3 5 4 7 5 4 6 8 7 1 8
REMARK H PARENT 1 9
REMARK Flexibility Score: inf
ROOT
ATOM      1  C   UNL     1      -9.935  75.072  27.969  1.00  0.00     0.191 C 
ENDROOT
BRANCH   1   2
ATOM      2  C   UNL     1     -10.286  74.631  29.363  1.00  0.00    -0.023 A 
ATOM      3  C   UNL     1     -10.892  73.746  31.955  1.00  0.00     0.000 A 
ATOM      4  C   UNL     1      -9.831  74.632  31.750  1.00  0.00     0.000 A 
ATOM      5  C   UNL     1     -11.645  73.293  30.869  1.00  0.00     0.000 A 
ATOM      6  C   UNL     1      -9.524  75.071  30.458  1.00  0.00     0.006 A 
ATOM      7  C   UNL     1     -11.340  73.728  29.574  1.00  0.00     0.006 A 
ENDBRANCH   1   2
BRANCH   1   8
ATOM      8  O   UNL     1      -8.614  74.712  27.669  1.00  0.00    -0.392 OA
ATOM      9  H   UNL     1      -8.274  75.391  27.029  1.00  0.00     0.211 HD
ENDBRANCH   1   8
TORSDOF 2
ENDMDL
MODEL 7
REMARK VINA RESULT:    -4.649      2.137      3.731
REMARK INTER + INTRA:          -5.075
REMARK INTER:                  -5.057
REMARK INTRA:                  -0.018
REMARK UNBOUND:                -0.018
REMARK SMILES OCc1ccccc1
REMARK SMILES IDX 2 1 3 2 6 3 5 4 7 5 4 6 8 7 1 8
REMARK H PARENT 1 9
REMARK Flexibility Score: inf
ROOT
ATOM      1  C   UNL     1     -11.136  73.799  29.236  1.00  0.00     0.191 C 
ENDROOT
BRANCH   1   2
ATOM      2  C   UNL     1     -11.195  73.869  30.737  1.00  0.00    -0.023 A 
ATOM      3  C   UNL     1     -11.228  73.976  33.540  1.00  0.00     0.000 A 
ATOM      4  C   UNL     1     -10.861  75.104  32.803  1.00  0.00     0.000 A 
ATOM      5  C   UNL     1     -11.569  72.791  32.883  1.00  0.00     0.000 A 
ATOM      6  C   UNL     1     -10.839  75.053  31.405  1.00  0.00     0.006 A 
ATOM      7  C   UNL     1     -11.548  72.734  31.485  1.00  0.00     0.006 A 
ENDBRANCH   1   2
BRANCH   1   8
ATOM      8  O   UNL     1     -11.916  72.730  28.774  1.00  0.00    -0.392 OA
ATOM      9  H   UNL     1     -11.304  72.128  28.275  1.00  0.00     0.211 HD
ENDBRANCH   1   8
TORSDOF 2
ENDMDL
MODEL 8
REMARK VINA RESULT:    -4.597      2.256      3.333
REMARK INTER + INTRA:          -5.018
REMARK INTER:                  -5.007
REMARK INTRA:                  -0.011
REMARK UNBOUND:                -0.018
REMARK SMILES OCc1ccccc1
REMARK SMILES IDX 2 1 3 2 6 3 5 4 7 5 4 6 8 7 1 8
REMARK H PARENT 1 9
REMARK Flexibility Score: inf
ROOT
ATOM      1  C   UNL     1     -11.320  73.935  28.361  1.00  0.00     0.191 C 
ENDROOT
BRANCH   1   2
ATOM      2  C   UNL     1     -11.244  73.832  29.859  1.00  0.00    -0.023 A 
ATOM      3  C   UNL     1     -11.173  73.668  32.659  1.00  0.00     0.000 A 
ATOM      4  C   UNL     1     -11.624  72.581  31.906  1.00  0.00     0.000 A 
ATOM      5  C   UNL     1     -10.767  74.842  32.017  1.00  0.00     0.000 A 
ATOM      6  C   UNL     1     -11.664  72.661  30.511  1.00  0.00     0.006 A 
ATOM      7  C   UNL     1     -10.807  74.928  30.622  1.00  0.00     0.006 A 
ENDBRANCH   1   2
BRANCH   1   8
ATOM      8  O   UNL     1     -12.658  74.023  27.952  1.00  0.00    -0.392 OA
ATOM      9  H   UNL     1     -13.212  73.872  28.763  1.00  0.00     0.211 HD
ENDBRANCH   1   8
TORSDOF 2
ENDMDL
MODEL 9
REMARK VINA RESULT:    -4.534      1.556      2.076
REMARK INTER + INTRA:          -4.950
REMARK INTER:                  -4.931
REMARK INTRA:                  -0.019
REMARK UNBOUND:                -0.018
REMARK SMILES OCc1ccccc1
REMARK SMILES IDX 2 1 3 2 6 3 5 4 7 5 4 6 8 7 1 8
REMARK H PARENT 1 9
REMARK Flexibility Score: inf
ROOT
ATOM      1  C   UNL     1     -10.857  74.722  32.033  1.00  0.00     0.191 C 
ENDROOT
BRANCH   1   2
ATOM      2  C   UNL     1     -10.755  74.576  30.539  1.00  0.00    -0.023 A 
ATOM      3  C   UNL     1     -10.551  74.228  27.763  1.00  0.00     0.000 A 
ATOM      4  C   UNL     1     -11.788  74.084  28.396  1.00  0.00     0.000 A 
ATOM      5  C   UNL     1      -9.413  74.535  28.514  1.00  0.00     0.000 A 
ATOM      6  C   UNL     1     -11.892  74.253  29.781  1.00  0.00     0.006 A 
ATOM      7  C   UNL     1      -9.511  74.703  29.900  1.00  0.00     0.006 A 
ENDBRANCH   1   2
BRANCH   1   8
ATOM      8  O   UNL     1      -9.713  75.360  32.532  1.00  0.00    -0.392 OA
ATOM      9  H   UNL     1     -10.021  76.209  32.947  1.00  0.00     0.211 HD
ENDBRANCH   1   8
TORSDOF 2
ENDMDL
