MODEL 1
REMARK VINA RESULT:     6.188      0.000      0.000
REMARK INTER + INTRA:           7.309
REMARK INTER:                   7.273
REMARK INTRA:                   0.036
REMARK UNBOUND:                 0.036
REMARK SMILES C=C[C@]1(C)CC[C@@H](C(=C)C)C[C@H]1C(=C)C
REMARK SMILES IDX 7 1 6 2 5 3 3 4 12 5 11 6 4 7 8 8 10 9 9 10 13 11 14 12
REMARK SMILES IDX 15 13 2 14 1 15
REMARK H PARENT
REMARK Flexibility Score: inf
ROOT
ATOM      1  C   UNL     1       4.205   7.442  13.131  1.00  0.00     0.015 C 
ATOM      2  C   UNL     1       4.216   5.908  13.025  1.00  0.00     0.009 C 
ATOM      3  C   UNL     1       5.499   5.412  12.342  1.00  0.00     0.012 C 
ATOM      4  C   UNL     1       6.800   5.880  13.064  1.00  0.00    -0.008 C 
ATOM      5  C   UNL     1       6.750   7.446  13.228  1.00  0.00     0.024 C 
ATOM      6  C   UNL     1       5.445   7.946  13.892  1.00  0.00     0.017 C 
ATOM      7  C   UNL     1       6.941   5.150  14.425  1.00  0.00     0.016 C 
ENDROOT
BRANCH   1   8
ATOM      8  C   UNL     1       2.917   7.946  13.770  1.00  0.00    -0.077 C 
ATOM      9  C   UNL     1       2.933   9.183  14.629  1.00  0.00     0.039 C 
ATOM     10  C   UNL     1       1.749   7.308  13.584  1.00  0.00     0.008 C 
ENDBRANCH   1   8
BRANCH   5  11
ATOM     11  C   UNL     1       7.987   8.052  13.900  1.00  0.00    -0.077 C 
ATOM     12  C   UNL     1       7.957   8.523  15.159  1.00  0.00     0.008 C 
ATOM     13  C   UNL     1       9.275   8.189  13.126  1.00  0.00     0.039 C 
ENDBRANCH   5  11
BRANCH   4  14
ATOM     14  C   UNL     1       7.992   5.509  12.182  1.00  0.00    -0.028 C 
ATOM     15  C   UNL     1       8.213   6.053  10.977  1.00  0.00     0.004 C 
ENDBRANCH   4  14
TORSDOF 3
ENDMDL
