MODEL 1
REMARK VINA RESULT:    -2.386      0.000      0.000
REMARK INTER + INTRA:          -2.626
REMARK INTER:                  -2.874
REMARK INTRA:                   0.248
REMARK UNBOUND:                 0.248
REMARK SMILES Oc1cc(O)c2c(c1)O[C@@H](c1ccc(O)c(O)c1)[C@H](O)C2
REMARK SMILES IDX 21 1 19 2 10 3 9 4 7 5 8 6 2 7 3 8 4 9 6 10 20 11 11 13
REMARK SMILES IDX 18 14 12 15 16 16 13 17 14 18 17 19 15 21 5 23 1 25
REMARK H PARENT 20 12 17 20 15 22 5 24 1 26
REMARK Flexibility Score: inf
ROOT
ATOM      1  C   UNL     1      10.333 -17.082   6.586  1.00  0.00     0.079 C 
ATOM      2  C   UNL     1       8.915 -17.421   7.078  1.00  0.00     0.164 C 
ATOM      3  C   UNL     1       8.936 -18.759   7.841  1.00  0.00     0.232 C 
ATOM      4  O   UNL     1       9.877 -18.699   8.914  1.00  0.00    -0.482 OA
ATOM      5  C   UNL     1      11.093 -18.015   8.808  1.00  0.00     0.131 A 
ATOM      6  C   UNL     1      12.040 -18.138   9.829  1.00  0.00     0.093 A 
ATOM      7  C   UNL     1      13.263 -17.461   9.741  1.00  0.00     0.122 A 
ATOM      8  C   UNL     1      13.538 -16.663   8.627  1.00  0.00     0.092 A 
ATOM      9  C   UNL     1      12.592 -16.527   7.600  1.00  0.00     0.126 A 
ATOM     10  C   UNL     1      11.354 -17.189   7.696  1.00  0.00     0.039 A 
ENDROOT
BRANCH   2  11
ATOM     11  O   UNL     1       8.042 -17.514   5.982  1.00  0.00    -0.389 OA
ATOM     12  H   UNL     1       7.592 -18.396   6.048  1.00  0.00     0.211 HD
ENDBRANCH   2  11
BRANCH   3  13
ATOM     13  C   UNL     1       7.567 -19.097   8.386  1.00  0.00    -0.001 A 
ATOM     14  C   UNL     1       7.409 -19.443   9.738  1.00  0.00     0.057 A 
ATOM     15  C   UNL     1       6.447 -19.116   7.539  1.00  0.00     0.012 A 
ATOM     16  C   UNL     1       6.147 -19.786  10.243  1.00  0.00     0.157 A 
ATOM     17  C   UNL     1       5.188 -19.456   8.040  1.00  0.00     0.050 A 
ATOM     18  C   UNL     1       5.031 -19.790   9.389  1.00  0.00     0.157 A 
BRANCH  16  19
ATOM     19  O   UNL     1       5.998 -20.124  11.587  1.00  0.00    -0.504 OA
ATOM     20  H   UNL     1       6.788 -20.414  12.153  1.00  0.00     0.293 HD
ENDBRANCH  16  19
BRANCH  18  21
ATOM     21  O   UNL     1       3.762 -20.125   9.861  1.00  0.00    -0.504 OA
ATOM     22  H   UNL     1       3.627 -20.629  10.729  1.00  0.00     0.293 HD
ENDBRANCH  18  21
ENDBRANCH   3  13
BRANCH   9  23
ATOM     23  O   UNL     1      12.882 -15.739   6.486  1.00  0.00    -0.507 OA
ATOM     24  H   UNL     1      13.788 -15.300   6.367  1.00  0.00     0.293 HD
ENDBRANCH   9  23
BRANCH   7  25
ATOM     25  O   UNL     1      14.213 -17.580  10.753  1.00  0.00    -0.508 OA
ATOM     26  H   UNL     1      14.342 -16.853  11.447  1.00  0.00     0.293 HD
ENDBRANCH   7  25
TORSDOF 6
ENDMDL
MODEL 2
REMARK VINA RESULT:    -0.870      1.227      6.850
REMARK INTER + INTRA:          -0.800
REMARK INTER:                  -0.697
REMARK INTRA:                  -0.103
REMARK UNBOUND:                 0.248
REMARK SMILES Oc1cc(O)c2c(c1)O[C@@H](c1ccc(O)c(O)c1)[C@H](O)C2
REMARK SMILES IDX 21 1 19 2 10 3 9 4 7 5 8 6 2 7 3 8 4 9 6 10 20 11 11 13
REMARK SMILES IDX 18 14 12 15 16 16 13 17 14 18 17 19 15 21 5 23 1 25
REMARK H PARENT 20 12 17 20 15 22 5 24 1 26
REMARK Flexibility Score: inf
ROOT
ATOM      1  C   UNL     1       7.363 -18.703   6.638  1.00  0.00     0.079 C 
ATOM      2  C   UNL     1       8.869 -18.451   6.831  1.00  0.00     0.164 C 
ATOM      3  C   UNL     1       9.088 -17.500   8.021  1.00  0.00     0.232 C 
ATOM      4  O   UNL     1       8.476 -18.034   9.197  1.00  0.00    -0.482 OA
ATOM      5  C   UNL     1       7.264 -18.731   9.162  1.00  0.00     0.131 A 
ATOM      6  C   UNL     1       6.637 -19.077  10.362  1.00  0.00     0.093 A 
ATOM      7  C   UNL     1       5.422 -19.773  10.348  1.00  0.00     0.122 A 
ATOM      8  C   UNL     1       4.834 -20.121   9.129  1.00  0.00     0.092 A 
ATOM      9  C   UNL     1       5.458 -19.785   7.918  1.00  0.00     0.126 A 
ATOM     10  C   UNL     1       6.688 -19.103   7.930  1.00  0.00     0.039 A 
ENDROOT
BRANCH   2  11
ATOM     11  O   UNL     1       9.409 -17.884   5.665  1.00  0.00    -0.389 OA
ATOM     12  H   UNL     1       8.665 -17.416   5.203  1.00  0.00     0.211 HD
ENDBRANCH   2  11
BRANCH   3  13
ATOM     13  C   UNL     1      10.560 -17.274   8.275  1.00  0.00    -0.001 A 
ATOM     14  C   UNL     1      11.273 -16.329   7.518  1.00  0.00     0.057 A 
ATOM     15  C   UNL     1      11.244 -18.039   9.235  1.00  0.00     0.012 A 
ATOM     16  C   UNL     1      12.646 -16.135   7.729  1.00  0.00     0.157 A 
ATOM     17  C   UNL     1      12.612 -17.847   9.446  1.00  0.00     0.050 A 
ATOM     18  C   UNL     1      13.317 -16.898   8.700  1.00  0.00     0.157 A 
BRANCH  16  19
ATOM     19  O   UNL     1      13.344 -15.192   6.978  1.00  0.00    -0.504 OA
ATOM     20  H   UNL     1      13.265 -14.199   7.166  1.00  0.00     0.293 HD
ENDBRANCH  16  19
BRANCH  18  21
ATOM     21  O   UNL     1      14.681 -16.729   8.935  1.00  0.00    -0.504 OA
ATOM     22  H   UNL     1      15.377 -17.339   8.523  1.00  0.00     0.293 HD
ENDBRANCH  18  21
ENDBRANCH   3  13
BRANCH   9  23
ATOM     23  O   UNL     1       4.856 -20.124   6.706  1.00  0.00    -0.507 OA
ATOM     24  H   UNL     1       4.216 -19.494   6.236  1.00  0.00     0.293 HD
ENDBRANCH   9  23
BRANCH   7  25
ATOM     25  O   UNL     1       4.789 -20.121  11.540  1.00  0.00    -0.508 OA
ATOM     26  H   UNL     1       4.851 -19.534  12.363  1.00  0.00     0.293 HD
ENDBRANCH   7  25
TORSDOF 6
ENDMDL
MODEL 3
REMARK VINA RESULT:    -0.812      1.887      6.988
REMARK INTER + INTRA:          -0.730
REMARK INTER:                  -0.823
REMARK INTRA:                   0.092
REMARK UNBOUND:                 0.248
REMARK SMILES Oc1cc(O)c2c(c1)O[C@@H](c1ccc(O)c(O)c1)[C@H](O)C2
REMARK SMILES IDX 21 1 19 2 10 3 9 4 7 5 8 6 2 7 3 8 4 9 6 10 20 11 11 13
REMARK SMILES IDX 18 14 12 15 16 16 13 17 14 18 17 19 15 21 5 23 1 25
REMARK H PARENT 20 12 17 20 15 22 5 24 1 26
REMARK Flexibility Score: inf
ROOT
ATOM      1  C   UNL     1       7.850 -19.637   8.526  1.00  0.00     0.079 C 
ATOM      2  C   UNL     1       9.288 -19.106   8.660  1.00  0.00     0.164 C 
ATOM      3  C   UNL     1       9.491 -17.913   7.708  1.00  0.00     0.232 C 
ATOM      4  O   UNL     1       8.517 -16.901   7.971  1.00  0.00    -0.482 OA
ATOM      5  C   UNL     1       7.199 -17.203   8.330  1.00  0.00     0.131 A 
ATOM      6  C   UNL     1       6.256 -16.174   8.407  1.00  0.00     0.093 A 
ATOM      7  C   UNL     1       4.932 -16.457   8.763  1.00  0.00     0.122 A 
ATOM      8  C   UNL     1       4.552 -17.773   9.041  1.00  0.00     0.092 A 
ATOM      9  C   UNL     1       5.492 -18.813   8.973  1.00  0.00     0.126 A 
ATOM     10  C   UNL     1       6.828 -18.528   8.635  1.00  0.00     0.039 A 
ENDROOT
BRANCH   2  11
ATOM     11  O   UNL     1      10.201 -20.125   8.345  1.00  0.00    -0.389 OA
ATOM     12  H   UNL     1       9.768 -20.983   8.589  1.00  0.00     0.211 HD
ENDBRANCH   2  11
BRANCH   3  13
ATOM     13  C   UNL     1      10.878 -17.330   7.852  1.00  0.00    -0.001 A 
ATOM     14  C   UNL     1      11.703 -17.720   8.920  1.00  0.00     0.057 A 
ATOM     15  C   UNL     1      11.340 -16.356   6.951  1.00  0.00     0.012 A 
ATOM     16  C   UNL     1      12.980 -17.161   9.076  1.00  0.00     0.157 A 
ATOM     17  C   UNL     1      12.612 -15.798   7.104  1.00  0.00     0.050 A 
ATOM     18  C   UNL     1      13.436 -16.197   8.161  1.00  0.00     0.157 A 
BRANCH  16  19
ATOM     19  O   UNL     1      13.794 -17.559  10.135  1.00  0.00    -0.504 OA
ATOM     20  H   UNL     1      14.277 -18.450  10.128  1.00  0.00     0.293 HD
ENDBRANCH  16  19
BRANCH  18  21
ATOM     21  O   UNL     1      14.701 -15.623   8.288  1.00  0.00    -0.504 OA
ATOM     22  H   UNL     1      15.035 -14.912   7.648  1.00  0.00     0.293 HD
ENDBRANCH  18  21
ENDBRANCH   3  13
BRANCH   9  23
ATOM     23  O   UNL     1       5.099 -20.125   9.238  1.00  0.00    -0.507 OA
ATOM     24  H   UNL     1       5.269 -20.874   8.577  1.00  0.00     0.293 HD
ENDBRANCH   9  23
BRANCH   7  25
ATOM     25  O   UNL     1       3.985 -15.438   8.840  1.00  0.00    -0.508 OA
ATOM     26  H   UNL     1       3.828 -14.800   8.068  1.00  0.00     0.293 HD
ENDBRANCH   7  25
TORSDOF 6
ENDMDL
MODEL 4
REMARK VINA RESULT:     0.338      1.557      2.913
REMARK INTER + INTRA:           0.655
REMARK INTER:                   1.026
REMARK INTRA:                  -0.371
REMARK UNBOUND:                 0.248
REMARK SMILES Oc1cc(O)c2c(c1)O[C@@H](c1ccc(O)c(O)c1)[C@H](O)C2
REMARK SMILES IDX 21 1 19 2 10 3 9 4 7 5 8 6 2 7 3 8 4 9 6 10 20 11 11 13
REMARK SMILES IDX 18 14 12 15 16 16 13 17 14 18 17 19 15 21 5 23 1 25
REMARK H PARENT 20 12 17 20 15 22 5 24 1 26
REMARK Flexibility Score: inf
ROOT
ATOM      1  C   UNL     1      11.954 -18.600   9.519  1.00  0.00     0.079 C 
ATOM      2  C   UNL     1      10.628 -19.179   8.996  1.00  0.00     0.164 C 
ATOM      3  C   UNL     1       9.605 -18.044   8.806  1.00  0.00     0.232 C 
ATOM      4  O   UNL     1      10.136 -17.043   7.935  1.00  0.00    -0.482 OA
ATOM      5  C   UNL     1      11.487 -16.679   7.946  1.00  0.00     0.131 A 
ATOM      6  C   UNL     1      11.907 -15.579   7.193  1.00  0.00     0.093 A 
ATOM      7  C   UNL     1      13.255 -15.198   7.192  1.00  0.00     0.122 A 
ATOM      8  C   UNL     1      14.182 -15.920   7.948  1.00  0.00     0.092 A 
ATOM      9  C   UNL     1      13.773 -17.030   8.703  1.00  0.00     0.126 A 
ATOM     10  C   UNL     1      12.423 -17.427   8.689  1.00  0.00     0.039 A 
ENDROOT
BRANCH   2  11
ATOM     11  O   UNL     1      10.127 -20.120   9.910  1.00  0.00    -0.389 OA
ATOM     12  H   UNL     1       9.430 -19.658  10.444  1.00  0.00     0.211 HD
ENDBRANCH   2  11
BRANCH   3  13
ATOM     13  C   UNL     1       8.306 -18.569   8.240  1.00  0.00    -0.001 A 
ATOM     14  C   UNL     1       7.118 -18.469   8.982  1.00  0.00     0.057 A 
ATOM     15  C   UNL     1       8.280 -19.207   6.988  1.00  0.00     0.012 A 
ATOM     16  C   UNL     1       5.915 -18.982   8.475  1.00  0.00     0.157 A 
ATOM     17  C   UNL     1       7.083 -19.717   6.480  1.00  0.00     0.050 A 
ATOM     18  C   UNL     1       5.899 -19.607   7.216  1.00  0.00     0.157 A 
BRANCH  16  19
ATOM     19  O   UNL     1       4.740 -18.873   9.215  1.00  0.00    -0.504 OA
ATOM     20  H   UNL     1       3.832 -19.049   8.800  1.00  0.00     0.293 HD
ENDBRANCH  16  19
BRANCH  18  21
ATOM     21  O   UNL     1       4.719 -20.125   6.682  1.00  0.00    -0.504 OA
ATOM     22  H   UNL     1       3.846 -19.611   6.709  1.00  0.00     0.293 HD
ENDBRANCH  18  21
ENDBRANCH   3  13
BRANCH   9  23
ATOM     23  O   UNL     1      14.704 -17.735   9.466  1.00  0.00    -0.507 OA
ATOM     24  H   UNL     1      15.116 -17.338  10.302  1.00  0.00     0.293 HD
ENDBRANCH   9  23
BRANCH   7  25
ATOM     25  O   UNL     1      13.681 -14.102   6.445  1.00  0.00    -0.508 OA
ATOM     26  H   UNL     1      14.546 -14.124   5.918  1.00  0.00     0.293 HD
ENDBRANCH   7  25
TORSDOF 6
ENDMDL
