MODEL 1
REMARK VINA RESULT:    -3.307      0.000      0.000
REMARK INTER + INTRA:          -4.024
REMARK INTER:                  -3.887
REMARK INTRA:                  -0.138
REMARK UNBOUND:                -0.138
REMARK SMILES O=C([O-])C=Cc1ccc(O)c(O)c1
REMARK SMILES IDX 6 1 13 2 7 3 11 4 8 5 9 6 5 7 4 8 2 9 1 10 3 11 12 12 10 14
REMARK H PARENT 12 13 10 15
REMARK Flexibility Score: inf
ROOT
ATOM      1  C   UNL     1      -8.392  -4.108 -13.353  1.00  0.00    -0.022 A 
ATOM      2  C   UNL     1      -7.098  -4.598 -13.598  1.00  0.00     0.058 A 
ATOM      3  C   UNL     1      -9.400  -5.014 -12.967  1.00  0.00     0.012 A 
ATOM      4  C   UNL     1      -6.816  -5.964 -13.489  1.00  0.00     0.157 A 
ATOM      5  C   UNL     1      -9.119  -6.378 -12.857  1.00  0.00     0.051 A 
ATOM      6  C   UNL     1      -7.831  -6.860 -13.119  1.00  0.00     0.157 A 
ENDROOT
BRANCH   1   7
ATOM      7  C   UNL     1      -8.633  -2.649 -13.473  1.00  0.00     0.010 C 
ATOM      8  C   UNL     1      -9.506  -1.972 -12.712  1.00  0.00     0.025 C 
BRANCH   8   9
ATOM      9  C   UNL     1      -9.727  -0.524 -12.868  1.00  0.00     0.064 C 
ATOM     10  O   UNL     1      -9.742   0.014 -14.007  1.00  0.00    -0.545 OA
ATOM     11  O   UNL     1      -9.923   0.260 -11.740  1.00  0.00    -0.545 OA
ENDBRANCH   8   9
ENDBRANCH   1   7
BRANCH   4  12
ATOM     12  O   UNL     1      -5.520  -6.411 -13.752  1.00  0.00    -0.504 OA
ATOM     13  H   UNL     1      -5.045  -7.071 -13.148  1.00  0.00     0.293 HD
ENDBRANCH   4  12
BRANCH   6  14
ATOM     14  O   UNL     1      -7.556  -8.222 -13.010  1.00  0.00    -0.504 OA
ATOM     15  H   UNL     1      -7.656  -8.715 -12.130  1.00  0.00     0.293 HD
ENDBRANCH   6  14
TORSDOF 4
ENDMDL
MODEL 2
REMARK VINA RESULT:    -3.148     16.344     16.884
REMARK INTER + INTRA:          -3.838
REMARK INTER:                  -3.708
REMARK INTRA:                  -0.130
REMARK UNBOUND:                -0.138
REMARK SMILES O=C([O-])C=Cc1ccc(O)c(O)c1
REMARK SMILES IDX 6 1 13 2 7 3 11 4 8 5 9 6 5 7 4 8 2 9 1 10 3 11 12 12 10 14
REMARK H PARENT 12 13 10 15
REMARK Flexibility Score: inf
ROOT
ATOM      1  C   UNL     1      -9.623  -5.381   3.233  1.00  0.00    -0.022 A 
ATOM      2  C   UNL     1      -8.717  -6.114   4.017  1.00  0.00     0.058 A 
ATOM      3  C   UNL     1     -10.105  -5.953   2.039  1.00  0.00     0.012 A 
ATOM      4  C   UNL     1      -8.278  -7.380   3.613  1.00  0.00     0.157 A 
ATOM      5  C   UNL     1      -9.669  -7.217   1.634  1.00  0.00     0.051 A 
ATOM      6  C   UNL     1      -8.753  -7.934   2.414  1.00  0.00     0.157 A 
ENDROOT
BRANCH   1   7
ATOM      7  C   UNL     1     -10.063  -4.048   3.714  1.00  0.00     0.010 C 
ATOM      8  C   UNL     1      -9.295  -3.230   4.448  1.00  0.00     0.025 C 
BRANCH   8   9
ATOM      9  C   UNL     1      -9.770  -1.917   4.918  1.00  0.00     0.064 C 
ATOM     10  O   UNL     1     -10.123  -1.743   6.115  1.00  0.00    -0.545 OA
ATOM     11  O   UNL     1      -9.830  -0.855   4.027  1.00  0.00    -0.545 OA
ENDBRANCH   8   9
ENDBRANCH   1   7
BRANCH   4  12
ATOM     12  O   UNL     1      -7.369  -8.070   4.416  1.00  0.00    -0.504 OA
ATOM     13  H   UNL     1      -7.102  -9.028   4.225  1.00  0.00     0.293 HD
ENDBRANCH   4  12
BRANCH   6  14
ATOM     14  O   UNL     1      -8.318  -9.193   2.005  1.00  0.00    -0.504 OA
ATOM     15  H   UNL     1      -8.214  -9.959   2.662  1.00  0.00     0.293 HD
ENDBRANCH   6  14
TORSDOF 4
ENDMDL
MODEL 3
REMARK VINA RESULT:    -3.037      2.149      5.872
REMARK INTER + INTRA:          -3.707
REMARK INTER:                  -3.579
REMARK INTRA:                  -0.128
REMARK UNBOUND:                -0.138
REMARK SMILES O=C([O-])C=Cc1ccc(O)c(O)c1
REMARK SMILES IDX 6 1 13 2 7 3 11 4 8 5 9 6 5 7 4 8 2 9 1 10 3 11 12 12 10 14
REMARK H PARENT 12 13 10 15
REMARK Flexibility Score: inf
ROOT
ATOM      1  C   UNL     1      -7.847  -6.013 -13.004  1.00  0.00    -0.022 A 
ATOM      2  C   UNL     1      -6.621  -5.444 -13.389  1.00  0.00     0.058 A 
ATOM      3  C   UNL     1      -9.004  -5.209 -13.021  1.00  0.00     0.012 A 
ATOM      4  C   UNL     1      -6.541  -4.097 -13.760  1.00  0.00     0.157 A 
ATOM      5  C   UNL     1      -8.925  -3.865 -13.391  1.00  0.00     0.051 A 
ATOM      6  C   UNL     1      -7.697  -3.301 -13.758  1.00  0.00     0.157 A 
ENDROOT
BRANCH   1   7
ATOM      7  C   UNL     1      -7.877  -7.449 -12.631  1.00  0.00     0.010 C 
ATOM      8  C   UNL     1      -8.263  -7.899 -11.429  1.00  0.00     0.025 C 
BRANCH   8   9
ATOM      9  C   UNL     1      -8.270  -9.332 -11.090  1.00  0.00     0.064 C 
ATOM     10  O   UNL     1      -9.242  -9.853 -10.481  1.00  0.00    -0.545 OA
ATOM     11  O   UNL     1      -7.187 -10.122 -11.450  1.00  0.00    -0.545 OA
ENDBRANCH   8   9
ENDBRANCH   1   7
BRANCH   4  12
ATOM     12  O   UNL     1      -5.302  -3.567 -14.125  1.00  0.00    -0.504 OA
ATOM     13  H   UNL     1      -5.141  -3.154 -15.035  1.00  0.00     0.293 HD
ENDBRANCH   4  12
BRANCH   6  14
ATOM     14  O   UNL     1      -7.623  -1.958 -14.124  1.00  0.00    -0.504 OA
ATOM     15  H   UNL     1      -7.911  -1.642 -15.043  1.00  0.00     0.293 HD
ENDBRANCH   6  14
TORSDOF 4
ENDMDL
MODEL 4
REMARK VINA RESULT:    -2.968      2.611      5.936
REMARK INTER + INTRA:          -3.626
REMARK INTER:                  -3.497
REMARK INTRA:                  -0.129
REMARK UNBOUND:                -0.138
REMARK SMILES O=C([O-])C=Cc1ccc(O)c(O)c1
REMARK SMILES IDX 6 1 13 2 7 3 11 4 8 5 9 6 5 7 4 8 2 9 1 10 3 11 12 12 10 14
REMARK H PARENT 12 13 10 15
REMARK Flexibility Score: inf
ROOT
ATOM      1  C   UNL     1      -8.220  -6.572 -12.625  1.00  0.00    -0.022 A 
ATOM      2  C   UNL     1      -8.730  -5.285 -12.382  1.00  0.00     0.058 A 
ATOM      3  C   UNL     1      -7.025  -6.701 -13.359  1.00  0.00     0.012 A 
ATOM      4  C   UNL     1      -8.081  -4.150 -12.880  1.00  0.00     0.157 A 
ATOM      5  C   UNL     1      -6.375  -5.569 -13.857  1.00  0.00     0.051 A 
ATOM      6  C   UNL     1      -6.899  -4.291 -13.624  1.00  0.00     0.157 A 
ENDROOT
BRANCH   1   7
ATOM      7  C   UNL     1      -8.944  -7.740 -12.064  1.00  0.00     0.010 C 
ATOM      8  C   UNL     1      -8.955  -8.054 -10.761  1.00  0.00     0.025 C 
BRANCH   8   9
ATOM      9  C   UNL     1      -9.675  -9.229 -10.241  1.00  0.00     0.064 C 
ATOM     10  O   UNL     1     -10.125 -10.113 -11.018  1.00  0.00    -0.545 OA
ATOM     11  O   UNL     1      -9.862  -9.363  -8.872  1.00  0.00    -0.545 OA
ENDBRANCH   8   9
ENDBRANCH   1   7
BRANCH   4  12
ATOM     12  O   UNL     1      -8.626  -2.891 -12.626  1.00  0.00    -0.504 OA
ATOM     13  H   UNL     1      -8.076  -2.135 -12.235  1.00  0.00     0.293 HD
ENDBRANCH   4  12
BRANCH   6  14
ATOM     14  O   UNL     1      -6.248  -3.165 -14.125  1.00  0.00    -0.504 OA
ATOM     15  H   UNL     1      -5.299  -2.936 -13.853  1.00  0.00     0.293 HD
ENDBRANCH   6  14
TORSDOF 4
ENDMDL
MODEL 5
REMARK VINA RESULT:    -2.887     16.391     16.949
REMARK INTER + INTRA:          -3.531
REMARK INTER:                  -3.395
REMARK INTRA:                  -0.136
REMARK UNBOUND:                -0.138
REMARK SMILES O=C([O-])C=Cc1ccc(O)c(O)c1
REMARK SMILES IDX 6 1 13 2 7 3 11 4 8 5 9 6 5 7 4 8 2 9 1 10 3 11 12 12 10 14
REMARK H PARENT 12 13 10 15
REMARK Flexibility Score: inf
ROOT
ATOM      1  C   UNL     1      -9.480  -5.289   3.638  1.00  0.00    -0.022 A 
ATOM      2  C   UNL     1      -9.815  -5.885   2.411  1.00  0.00     0.058 A 
ATOM      3  C   UNL     1      -8.679  -6.010   4.546  1.00  0.00     0.012 A 
ATOM      4  C   UNL     1      -9.385  -7.180   2.100  1.00  0.00     0.157 A 
ATOM      5  C   UNL     1      -8.248  -7.302   4.238  1.00  0.00     0.051 A 
ATOM      6  C   UNL     1      -8.600  -7.894   3.018  1.00  0.00     0.157 A 
ENDROOT
BRANCH   1   7
ATOM      7  C   UNL     1      -9.954  -3.910   3.911  1.00  0.00     0.010 C 
ATOM      8  C   UNL     1      -9.301  -3.038   4.692  1.00  0.00     0.025 C 
BRANCH   8   9
ATOM      9  C   UNL     1      -9.808  -1.679   4.949  1.00  0.00     0.064 C 
ATOM     10  O   UNL     1      -9.958  -1.252   6.125  1.00  0.00    -0.545 OA
ATOM     11  O   UNL     1     -10.125  -0.856   3.877  1.00  0.00    -0.545 OA
ENDBRANCH   8   9
ENDBRANCH   1   7
BRANCH   4  12
ATOM     12  O   UNL     1      -9.749  -7.739   0.875  1.00  0.00    -0.504 OA
ATOM     13  H   UNL     1     -10.707  -7.990   0.661  1.00  0.00     0.293 HD
ENDBRANCH   4  12
BRANCH   6  14
ATOM     14  O   UNL     1      -8.170  -9.185   2.716  1.00  0.00    -0.504 OA
ATOM     15  H   UNL     1      -8.715 -10.001   2.975  1.00  0.00     0.293 HD
ENDBRANCH   6  14
TORSDOF 4
ENDMDL
MODEL 6
REMARK VINA RESULT:    -2.825      0.972      1.974
REMARK INTER + INTRA:          -3.459
REMARK INTER:                  -3.326
REMARK INTRA:                  -0.132
REMARK UNBOUND:                -0.138
REMARK SMILES O=C([O-])C=Cc1ccc(O)c(O)c1
REMARK SMILES IDX 6 1 13 2 7 3 11 4 8 5 9 6 5 7 4 8 2 9 1 10 3 11 12 12 10 14
REMARK H PARENT 12 13 10 15
REMARK Flexibility Score: inf
ROOT
ATOM      1  C   UNL     1      -8.355  -4.466 -13.232  1.00  0.00    -0.022 A 
ATOM      2  C   UNL     1      -9.343  -5.312 -12.698  1.00  0.00     0.058 A 
ATOM      3  C   UNL     1      -7.130  -5.028 -13.643  1.00  0.00     0.012 A 
ATOM      4  C   UNL     1      -9.110  -6.684 -12.552  1.00  0.00     0.157 A 
ATOM      5  C   UNL     1      -6.897  -6.398 -13.498  1.00  0.00     0.051 A 
ATOM      6  C   UNL     1      -7.881  -7.231 -12.950  1.00  0.00     0.157 A 
ENDROOT
BRANCH   1   7
ATOM      7  C   UNL     1      -8.659  -3.021 -13.375  1.00  0.00     0.010 C 
ATOM      8  C   UNL     1      -9.538  -2.364 -12.605  1.00  0.00     0.025 C 
BRANCH   8   9
ATOM      9  C   UNL     1      -9.822  -0.930 -12.783  1.00  0.00     0.064 C 
ATOM     10  O   UNL     1      -9.916  -0.423 -13.932  1.00  0.00    -0.545 OA
ATOM     11  O   UNL     1      -9.990  -0.125 -11.665  1.00  0.00    -0.545 OA
ENDBRANCH   8   9
ENDBRANCH   1   7
BRANCH   4  12
ATOM     12  O   UNL     1     -10.114  -7.486 -12.007  1.00  0.00    -0.504 OA
ATOM     13  H   UNL     1      -9.943  -8.104 -11.223  1.00  0.00     0.293 HD
ENDBRANCH   4  12
BRANCH   6  14
ATOM     14  O   UNL     1      -7.642  -8.596 -12.805  1.00  0.00    -0.504 OA
ATOM     15  H   UNL     1      -7.736  -9.059 -11.908  1.00  0.00     0.293 HD
ENDBRANCH   6  14
TORSDOF 4
ENDMDL
MODEL 7
REMARK VINA RESULT:    -2.687      4.604      7.288
REMARK INTER + INTRA:          -3.296
REMARK INTER:                  -3.168
REMARK INTRA:                  -0.129
REMARK UNBOUND:                -0.138
REMARK SMILES O=C([O-])C=Cc1ccc(O)c(O)c1
REMARK SMILES IDX 6 1 13 2 7 3 11 4 8 5 9 6 5 7 4 8 2 9 1 10 3 11 12 12 10 14
REMARK H PARENT 12 13 10 15
REMARK Flexibility Score: inf
ROOT
ATOM      1  C   UNL     1      -8.042  -8.818 -10.177  1.00  0.00    -0.022 A 
ATOM      2  C   UNL     1      -8.610  -7.633 -10.673  1.00  0.00     0.058 A 
ATOM      3  C   UNL     1      -7.971  -9.943 -11.023  1.00  0.00     0.012 A 
ATOM      4  C   UNL     1      -9.121  -7.571 -11.974  1.00  0.00     0.157 A 
ATOM      5  C   UNL     1      -8.480  -9.883 -12.322  1.00  0.00     0.051 A 
ATOM      6  C   UNL     1      -9.059  -8.702 -12.803  1.00  0.00     0.157 A 
ENDROOT
BRANCH   1   7
ATOM      7  C   UNL     1      -7.505  -8.824  -8.794  1.00  0.00     0.010 C 
ATOM      8  C   UNL     1      -6.212  -9.016  -8.496  1.00  0.00     0.025 C 
BRANCH   8   9
ATOM      9  C   UNL     1      -5.717  -9.026  -7.109  1.00  0.00     0.064 C 
ATOM     10  O   UNL     1      -5.060  -8.056  -6.644  1.00  0.00    -0.545 OA
ATOM     11  O   UNL     1      -5.980 -10.123  -6.300  1.00  0.00    -0.545 OA
ENDBRANCH   8   9
ENDBRANCH   1   7
BRANCH   4  12
ATOM     12  O   UNL     1      -9.687  -6.378 -12.424  1.00  0.00    -0.504 OA
ATOM     13  H   UNL     1     -10.687  -6.263 -12.531  1.00  0.00     0.293 HD
ENDBRANCH   4  12
BRANCH   6  14
ATOM     14  O   UNL     1      -9.569  -8.648 -14.099  1.00  0.00    -0.504 OA
ATOM     15  H   UNL     1      -9.249  -9.284 -14.822  1.00  0.00     0.293 HD
ENDBRANCH   6  14
TORSDOF 4
ENDMDL
MODEL 8
REMARK VINA RESULT:    -2.673      5.905      7.496
REMARK INTER + INTRA:          -3.280
REMARK INTER:                  -3.152
REMARK INTRA:                  -0.127
REMARK UNBOUND:                -0.138
REMARK SMILES O=C([O-])C=Cc1ccc(O)c(O)c1
REMARK SMILES IDX 6 1 13 2 7 3 11 4 8 5 9 6 5 7 4 8 2 9 1 10 3 11 12 12 10 14
REMARK H PARENT 12 13 10 15
REMARK Flexibility Score: inf
ROOT
ATOM      1  C   UNL     1      -8.088  -9.342  -9.826  1.00  0.00    -0.022 A 
ATOM      2  C   UNL     1      -7.494  -9.779 -11.021  1.00  0.00     0.058 A 
ATOM      3  C   UNL     1      -9.381  -8.785  -9.874  1.00  0.00     0.012 A 
ATOM      4  C   UNL     1      -8.160  -9.643 -12.245  1.00  0.00     0.157 A 
ATOM      5  C   UNL     1     -10.047  -8.649 -11.094  1.00  0.00     0.051 A 
ATOM      6  C   UNL     1      -9.442  -9.073 -12.284  1.00  0.00     0.157 A 
ENDROOT
BRANCH   1   7
ATOM      7  C   UNL     1      -7.342  -9.520  -8.556  1.00  0.00     0.010 C 
ATOM      8  C   UNL     1      -6.354  -8.709  -8.151  1.00  0.00     0.025 C 
BRANCH   8   9
ATOM      9  C   UNL     1      -5.628  -8.923  -6.888  1.00  0.00     0.064 C 
ATOM     10  O   UNL     1      -4.872  -8.034  -6.412  1.00  0.00    -0.545 OA
ATOM     11  O   UNL     1      -5.779 -10.125  -6.210  1.00  0.00    -0.545 OA
ENDBRANCH   8   9
ENDBRANCH   1   7
BRANCH   4  12
ATOM     12  O   UNL     1      -7.530 -10.080 -13.411  1.00  0.00    -0.504 OA
ATOM     13  H   UNL     1      -6.548  -9.910 -13.588  1.00  0.00     0.293 HD
ENDBRANCH   4  12
BRANCH   6  14
ATOM     14  O   UNL     1     -10.109  -8.932 -13.499  1.00  0.00    -0.504 OA
ATOM     15  H   UNL     1     -10.515  -8.047 -13.783  1.00  0.00     0.293 HD
ENDBRANCH   6  14
TORSDOF 4
ENDMDL
MODEL 9
REMARK VINA RESULT:    -2.267      2.254      3.150
REMARK INTER + INTRA:          -2.802
REMARK INTER:                  -2.670
REMARK INTRA:                  -0.132
REMARK UNBOUND:                -0.138
REMARK SMILES O=C([O-])C=Cc1ccc(O)c(O)c1
REMARK SMILES IDX 6 1 13 2 7 3 11 4 8 5 9 6 5 7 4 8 2 9 1 10 3 11 12 12 10 14
REMARK H PARENT 12 13 10 15
REMARK Flexibility Score: inf
ROOT
ATOM      1  C   UNL     1      -8.736  -6.451 -12.387  1.00  0.00    -0.022 A 
ATOM      2  C   UNL     1      -8.862  -6.654 -11.002  1.00  0.00     0.058 A 
ATOM      3  C   UNL     1      -8.254  -7.506 -13.187  1.00  0.00     0.012 A 
ATOM      4  C   UNL     1      -8.493  -7.872 -10.419  1.00  0.00     0.157 A 
ATOM      5  C   UNL     1      -7.886  -8.722 -12.607  1.00  0.00     0.051 A 
ATOM      6  C   UNL     1      -8.000  -8.911 -11.224  1.00  0.00     0.157 A 
ENDROOT
BRANCH   1   7
ATOM      7  C   UNL     1      -9.152  -5.144 -12.953  1.00  0.00     0.010 C 
ATOM      8  C   UNL     1      -9.078  -3.984 -12.285  1.00  0.00     0.025 C 
BRANCH   8   9
ATOM      9  C   UNL     1      -9.510  -2.707 -12.876  1.00  0.00     0.064 C 
ATOM     10  O   UNL     1      -9.600  -2.564 -14.125  1.00  0.00    -0.545 OA
ATOM     11  O   UNL     1      -9.825  -1.642 -12.043  1.00  0.00    -0.545 OA
ENDBRANCH   8   9
ENDBRANCH   1   7
BRANCH   4  12
ATOM     12  O   UNL     1      -8.623  -8.029  -9.039  1.00  0.00    -0.504 OA
ATOM     13  H   UNL     1      -8.309  -8.865  -8.560  1.00  0.00     0.293 HD
ENDBRANCH   4  12
BRANCH   6  14
ATOM     14  O   UNL     1      -7.629 -10.125 -10.649  1.00  0.00    -0.504 OA
ATOM     15  H   UNL     1      -7.846 -10.344  -9.683  1.00  0.00     0.293 HD
ENDBRANCH   6  14
TORSDOF 4
ENDMDL
