MODEL 1
REMARK VINA RESULT:    -5.129      0.000      0.000
REMARK INTER + INTRA:          -5.869
REMARK INTER:                  -5.728
REMARK INTRA:                  -0.141
REMARK UNBOUND:                -0.141
REMARK SMILES COc1cc2ccc(=O)oc2cc1OC
REMARK SMILES IDX 3 1 13 2 12 3 11 4 5 5 4 6 6 7 7 8 8 9 9 10 10 11 2 12 1 13
REMARK SMILES IDX 14 14 15 15
REMARK H PARENT
REMARK Flexibility Score: inf
ROOT
ATOM      1  C   UNL     1      11.791  -2.402  18.827  1.00  0.00     0.161 A 
ATOM      2  C   UNL     1      10.571  -2.030  18.236  1.00  0.00     0.164 A 
ATOM      3  C   UNL     1       9.476  -2.915  18.278  1.00  0.00     0.098 A 
ATOM      4  C   UNL     1       9.594  -4.160  18.903  1.00  0.00     0.142 A 
ATOM      5  C   UNL     1      10.817  -4.533  19.495  1.00  0.00     0.022 A 
ATOM      6  C   UNL     1      11.910  -3.657  19.457  1.00  0.00     0.062 A 
ATOM      7  C   UNL     1      10.905  -5.785  20.113  1.00  0.00     0.019 A 
ATOM      8  C   UNL     1       9.789  -6.622  20.124  1.00  0.00     0.094 A 
ATOM      9  C   UNL     1       8.608  -6.185  19.515  1.00  0.00     0.336 A 
ATOM     10  O   UNL     1       7.590  -6.924  19.514  1.00  0.00    -0.246 OA
ATOM     11  O   UNL     1       8.552  -4.989  18.935  1.00  0.00    -0.423 OA
ENDROOT
BRANCH   1  12
ATOM     12  O   UNL     1      12.861  -1.495  18.768  1.00  0.00    -0.493 OA
ATOM     13  C   UNL     1      13.470  -0.889  19.903  1.00  0.00     0.278 C 
ENDBRANCH   1  12
BRANCH   2  14
ATOM     14  O   UNL     1      10.487  -0.773  17.618  1.00  0.00    -0.493 OA
ATOM     15  C   UNL     1      10.020   0.411  18.256  1.00  0.00     0.278 C 
ENDBRANCH   2  14
TORSDOF 2
ENDMDL
MODEL 2
REMARK VINA RESULT:    -4.906      1.141      2.624
REMARK INTER + INTRA:          -5.620
REMARK INTER:                  -5.454
REMARK INTRA:                  -0.166
REMARK UNBOUND:                -0.141
REMARK SMILES COc1cc2ccc(=O)oc2cc1OC
REMARK SMILES IDX 3 1 13 2 12 3 11 4 5 5 4 6 6 7 7 8 8 9 9 10 10 11 2 12 1 13
REMARK SMILES IDX 14 14 15 15
REMARK H PARENT
REMARK Flexibility Score: inf
ROOT
ATOM      1  C   UNL     1      10.599  -1.182  18.342  1.00  0.00     0.161 A 
ATOM      2  C   UNL     1      11.785  -1.709  18.880  1.00  0.00     0.164 A 
ATOM      3  C   UNL     1      11.814  -3.042  19.336  1.00  0.00     0.098 A 
ATOM      4  C   UNL     1      10.671  -3.842  19.257  1.00  0.00     0.142 A 
ATOM      5  C   UNL     1       9.481  -3.314  18.718  1.00  0.00     0.022 A 
ATOM      6  C   UNL     1       9.446  -1.989  18.263  1.00  0.00     0.062 A 
ATOM      7  C   UNL     1       8.354  -4.140  18.652  1.00  0.00     0.019 A 
ATOM      8  C   UNL     1       8.438  -5.451  19.119  1.00  0.00     0.094 A 
ATOM      9  C   UNL     1       9.653  -5.907  19.642  1.00  0.00     0.336 A 
ATOM     10  O   UNL     1       9.750  -7.087  20.069  1.00  0.00    -0.246 OA
ATOM     11  O   UNL     1      10.709  -5.100  19.693  1.00  0.00    -0.423 OA
ENDROOT
BRANCH   1  12
ATOM     12  O   UNL     1      10.606   0.149  17.896  1.00  0.00    -0.493 OA
ATOM     13  C   UNL     1      10.082   1.250  18.632  1.00  0.00     0.278 C 
ENDBRANCH   1  12
BRANCH   2  14
ATOM     14  O   UNL     1      12.914  -0.878  18.944  1.00  0.00    -0.493 OA
ATOM     15  C   UNL     1      13.374  -0.229  20.125  1.00  0.00     0.278 C 
ENDBRANCH   2  14
TORSDOF 2
ENDMDL
MODEL 3
REMARK VINA RESULT:    -4.660     10.615     12.486
REMARK INTER + INTRA:          -5.346
REMARK INTER:                  -5.633
REMARK INTRA:                   0.287
REMARK UNBOUND:                -0.141
REMARK SMILES COc1cc2ccc(=O)oc2cc1OC
REMARK SMILES IDX 3 1 13 2 12 3 11 4 5 5 4 6 6 7 7 8 8 9 9 10 10 11 2 12 1 13
REMARK SMILES IDX 14 14 15 15
REMARK H PARENT
REMARK Flexibility Score: inf
ROOT
ATOM      1  C   UNL     1       7.574   6.229  11.128  1.00  0.00     0.161 A 
ATOM      2  C   UNL     1       6.470   6.216  10.258  1.00  0.00     0.164 A 
ATOM      3  C   UNL     1       5.992   4.991   9.754  1.00  0.00     0.098 A 
ATOM      4  C   UNL     1       6.607   3.789  10.113  1.00  0.00     0.142 A 
ATOM      5  C   UNL     1       7.714   3.801  10.985  1.00  0.00     0.022 A 
ATOM      6  C   UNL     1       8.194   5.017  11.489  1.00  0.00     0.062 A 
ATOM      7  C   UNL     1       8.309   2.582  11.325  1.00  0.00     0.019 A 
ATOM      8  C   UNL     1       7.795   1.398  10.796  1.00  0.00     0.094 A 
ATOM      9  C   UNL     1       6.694   1.463   9.936  1.00  0.00     0.336 A 
ATOM     10  O   UNL     1       6.214   0.406   9.448  1.00  0.00    -0.246 OA
ATOM     11  O   UNL     1       6.147   2.636   9.629  1.00  0.00    -0.423 OA
ENDROOT
BRANCH   1  12
ATOM     12  O   UNL     1       8.024   7.468  11.612  1.00  0.00    -0.493 OA
ATOM     13  C   UNL     1       8.514   8.525  10.794  1.00  0.00     0.278 C 
ENDBRANCH   1  12
BRANCH   2  14
ATOM     14  O   UNL     1       5.876   7.442   9.919  1.00  0.00    -0.493 OA
ATOM     15  C   UNL     1       5.879   8.007   8.612  1.00  0.00     0.278 C 
ENDBRANCH   2  14
TORSDOF 2
ENDMDL
MODEL 4
REMARK VINA RESULT:    -4.642      1.887      5.008
REMARK INTER + INTRA:          -5.326
REMARK INTER:                  -5.199
REMARK INTRA:                  -0.127
REMARK UNBOUND:                -0.141
REMARK SMILES COc1cc2ccc(=O)oc2cc1OC
REMARK SMILES IDX 3 1 13 2 12 3 11 4 5 5 4 6 6 7 7 8 8 9 9 10 10 11 2 12 1 13
REMARK SMILES IDX 14 14 15 15
REMARK H PARENT
REMARK Flexibility Score: inf
ROOT
ATOM      1  C   UNL     1       9.242  -3.649  18.589  1.00  0.00     0.161 A 
ATOM      2  C   UNL     1       9.439  -4.701  19.499  1.00  0.00     0.164 A 
ATOM      3  C   UNL     1      10.738  -4.996  19.958  1.00  0.00     0.098 A 
ATOM      4  C   UNL     1      11.832  -4.249  19.513  1.00  0.00     0.142 A 
ATOM      5  C   UNL     1      11.635  -3.193  18.600  1.00  0.00     0.022 A 
ATOM      6  C   UNL     1      10.346  -2.896  18.140  1.00  0.00     0.062 A 
ATOM      7  C   UNL     1      12.750  -2.464  18.174  1.00  0.00     0.019 A 
ATOM      8  C   UNL     1      14.014  -2.799  18.659  1.00  0.00     0.094 A 
ATOM      9  C   UNL     1      14.133  -3.859  19.563  1.00  0.00     0.336 A 
ATOM     10  O   UNL     1      15.264  -4.178  20.014  1.00  0.00    -0.246 OA
ATOM     11  O   UNL     1      13.056  -4.537  19.952  1.00  0.00    -0.423 OA
ENDROOT
BRANCH   1  12
ATOM     12  O   UNL     1       7.934  -3.382  18.153  1.00  0.00    -0.493 OA
ATOM     13  C   UNL     1       7.339  -2.089  18.128  1.00  0.00     0.278 C 
ENDBRANCH   1  12
BRANCH   2  14
ATOM     14  O   UNL     1       8.317  -5.430  19.925  1.00  0.00    -0.493 OA
ATOM     15  C   UNL     1       8.000  -6.749  19.493  1.00  0.00     0.278 C 
ENDBRANCH   2  14
TORSDOF 2
ENDMDL
MODEL 5
REMARK VINA RESULT:    -4.381      3.262      4.927
REMARK INTER + INTRA:          -5.034
REMARK INTER:                  -4.890
REMARK INTRA:                  -0.144
REMARK UNBOUND:                -0.141
REMARK SMILES COc1cc2ccc(=O)oc2cc1OC
REMARK SMILES IDX 3 1 13 2 12 3 11 4 5 5 4 6 6 7 7 8 8 9 9 10 10 11 2 12 1 13
REMARK SMILES IDX 14 14 15 15
REMARK H PARENT
REMARK Flexibility Score: inf
ROOT
ATOM      1  C   UNL     1       9.982  -0.675  17.873  1.00  0.00     0.161 A 
ATOM      2  C   UNL     1      10.659   0.414  18.448  1.00  0.00     0.164 A 
ATOM      3  C   UNL     1      11.988   0.258  18.889  1.00  0.00     0.098 A 
ATOM      4  C   UNL     1      12.637  -0.972  18.758  1.00  0.00     0.142 A 
ATOM      5  C   UNL     1      11.959  -2.065  18.181  1.00  0.00     0.022 A 
ATOM      6  C   UNL     1      10.637  -1.915  17.742  1.00  0.00     0.062 A 
ATOM      7  C   UNL     1      12.636  -3.284  18.064  1.00  0.00     0.019 A 
ATOM      8  C   UNL     1      13.951  -3.383  18.518  1.00  0.00     0.094 A 
ATOM      9  C   UNL     1      14.560  -2.256  19.079  1.00  0.00     0.336 A 
ATOM     10  O   UNL     1      15.746  -2.324  19.495  1.00  0.00    -0.246 OA
ATOM     11  O   UNL     1      13.894  -1.109  19.179  1.00  0.00    -0.423 OA
ENDROOT
BRANCH   1  12
ATOM     12  O   UNL     1       8.659  -0.483  17.444  1.00  0.00    -0.493 OA
ATOM     13  C   UNL     1       7.506  -0.806  18.214  1.00  0.00     0.278 C 
ENDBRANCH   1  12
BRANCH   2  14
ATOM     14  O   UNL     1       9.977   1.636  18.564  1.00  0.00    -0.493 OA
ATOM     15  C   UNL     1       9.707   2.297  19.796  1.00  0.00     0.278 C 
ENDBRANCH   2  14
TORSDOF 2
ENDMDL
MODEL 6
REMARK VINA RESULT:    -4.360      3.260      5.550
REMARK INTER + INTRA:          -5.010
REMARK INTER:                  -4.896
REMARK INTRA:                  -0.115
REMARK UNBOUND:                -0.141
REMARK SMILES COc1cc2ccc(=O)oc2cc1OC
REMARK SMILES IDX 3 1 13 2 12 3 11 4 5 5 4 6 6 7 7 8 8 9 9 10 10 11 2 12 1 13
REMARK SMILES IDX 14 14 15 15
REMARK H PARENT
REMARK Flexibility Score: inf
ROOT
ATOM      1  C   UNL     1      13.564  -3.437  18.949  1.00  0.00     0.161 A 
ATOM      2  C   UNL     1      14.318  -2.408  19.538  1.00  0.00     0.164 A 
ATOM      3  C   UNL     1      13.826  -1.088  19.530  1.00  0.00     0.098 A 
ATOM      4  C   UNL     1      12.593  -0.796  18.940  1.00  0.00     0.142 A 
ATOM      5  C   UNL     1      11.836  -1.828  18.350  1.00  0.00     0.022 A 
ATOM      6  C   UNL     1      12.321  -3.142  18.355  1.00  0.00     0.062 A 
ATOM      7  C   UNL     1      10.606  -1.504  17.768  1.00  0.00     0.019 A 
ATOM      8  C   UNL     1      10.167  -0.181  17.788  1.00  0.00     0.094 A 
ATOM      9  C   UNL     1      10.971   0.791  18.391  1.00  0.00     0.336 A 
ATOM     10  O   UNL     1      10.594   1.991  18.420  1.00  0.00    -0.246 OA
ATOM     11  O   UNL     1      12.137   0.455  18.938  1.00  0.00    -0.423 OA
ENDROOT
BRANCH   1  12
ATOM     12  O   UNL     1      14.085  -4.741  18.976  1.00  0.00    -0.493 OA
ATOM     13  C   UNL     1      13.802  -5.703  19.987  1.00  0.00     0.278 C 
ENDBRANCH   1  12
BRANCH   2  14
ATOM     14  O   UNL     1      15.552  -2.737  20.121  1.00  0.00    -0.493 OA
ATOM     15  C   UNL     1      16.813  -2.598  19.475  1.00  0.00     0.278 C 
ENDBRANCH   2  14
TORSDOF 2
ENDMDL
MODEL 7
REMARK VINA RESULT:    -4.298      1.844      4.666
REMARK INTER + INTRA:          -4.941
REMARK INTER:                  -4.830
REMARK INTRA:                  -0.112
REMARK UNBOUND:                -0.141
REMARK SMILES COc1cc2ccc(=O)oc2cc1OC
REMARK SMILES IDX 3 1 13 2 12 3 11 4 5 5 4 6 6 7 7 8 8 9 9 10 10 11 2 12 1 13
REMARK SMILES IDX 14 14 15 15
REMARK H PARENT
REMARK Flexibility Score: inf
ROOT
ATOM      1  C   UNL     1       8.425  -5.081  19.550  1.00  0.00     0.161 A 
ATOM      2  C   UNL     1       8.461  -3.831  18.910  1.00  0.00     0.164 A 
ATOM      3  C   UNL     1       9.699  -3.198  18.681  1.00  0.00     0.098 A 
ATOM      4  C   UNL     1      10.890  -3.805  19.088  1.00  0.00     0.142 A 
ATOM      5  C   UNL     1      10.854  -5.059  19.730  1.00  0.00     0.022 A 
ATOM      6  C   UNL     1       9.626  -5.693  19.960  1.00  0.00     0.062 A 
ATOM      7  C   UNL     1      12.063  -5.642  20.125  1.00  0.00     0.019 A 
ATOM      8  C   UNL     1      13.260  -4.970  19.875  1.00  0.00     0.094 A 
ATOM      9  C   UNL     1      13.219  -3.729  19.233  1.00  0.00     0.336 A 
ATOM     10  O   UNL     1      14.287  -3.106  18.997  1.00  0.00    -0.246 OA
ATOM     11  O   UNL     1      12.055  -3.197  18.868  1.00  0.00    -0.423 OA
ENDROOT
BRANCH   1  12
ATOM     12  O   UNL     1       7.174  -5.683  19.760  1.00  0.00    -0.493 OA
ATOM     13  C   UNL     1       6.985  -7.047  20.125  1.00  0.00     0.278 C 
ENDBRANCH   1  12
BRANCH   2  14
ATOM     14  O   UNL     1       7.246  -3.250  18.514  1.00  0.00    -0.493 OA
ATOM     15  C   UNL     1       6.547  -2.256  19.256  1.00  0.00     0.278 C 
ENDBRANCH   2  14
TORSDOF 2
ENDMDL
MODEL 8
REMARK VINA RESULT:    -4.283      1.902      4.456
REMARK INTER + INTRA:          -4.924
REMARK INTER:                  -4.761
REMARK INTRA:                  -0.164
REMARK UNBOUND:                -0.141
REMARK SMILES COc1cc2ccc(=O)oc2cc1OC
REMARK SMILES IDX 3 1 13 2 12 3 11 4 5 5 4 6 6 7 7 8 8 9 9 10 10 11 2 12 1 13
REMARK SMILES IDX 14 14 15 15
REMARK H PARENT
REMARK Flexibility Score: inf
ROOT
ATOM      1  C   UNL     1       9.312  -3.023  18.459  1.00  0.00     0.161 A 
ATOM      2  C   UNL     1       9.715  -1.781  17.939  1.00  0.00     0.164 A 
ATOM      3  C   UNL     1      11.075  -1.415  17.976  1.00  0.00     0.098 A 
ATOM      4  C   UNL     1      12.025  -2.279  18.528  1.00  0.00     0.142 A 
ATOM      5  C   UNL     1      11.621  -3.524  19.051  1.00  0.00     0.022 A 
ATOM      6  C   UNL     1      10.271  -3.893  19.016  1.00  0.00     0.062 A 
ATOM      7  C   UNL     1      12.596  -4.366  19.597  1.00  0.00     0.019 A 
ATOM      8  C   UNL     1      13.929  -3.953  19.609  1.00  0.00     0.094 A 
ATOM      9  C   UNL     1      14.255  -2.703  19.073  1.00  0.00     0.336 A 
ATOM     10  O   UNL     1      15.451  -2.311  19.074  1.00  0.00    -0.246 OA
ATOM     11  O   UNL     1      13.308  -1.922  18.560  1.00  0.00    -0.423 OA
ENDROOT
BRANCH   1  12
ATOM     12  O   UNL     1       7.949  -3.355  18.405  1.00  0.00    -0.493 OA
ATOM     13  C   UNL     1       7.065  -3.328  19.521  1.00  0.00     0.278 C 
ENDBRANCH   1  12
BRANCH   2  14
ATOM     14  O   UNL     1       8.734  -0.939  17.391  1.00  0.00    -0.493 OA
ATOM     15  C   UNL     1       8.134   0.154  18.078  1.00  0.00     0.278 C 
ENDBRANCH   2  14
TORSDOF 2
ENDMDL
MODEL 9
REMARK VINA RESULT:    -4.206      2.332      4.407
REMARK INTER + INTRA:          -4.839
REMARK INTER:                  -4.681
REMARK INTRA:                  -0.158
REMARK UNBOUND:                -0.141
REMARK SMILES COc1cc2ccc(=O)oc2cc1OC
REMARK SMILES IDX 3 1 13 2 12 3 11 4 5 5 4 6 6 7 7 8 8 9 9 10 10 11 2 12 1 13
REMARK SMILES IDX 14 14 15 15
REMARK H PARENT
REMARK Flexibility Score: inf
ROOT
ATOM      1  C   UNL     1       8.903  -1.280  17.890  1.00  0.00     0.161 A 
ATOM      2  C   UNL     1       8.526  -2.572  18.294  1.00  0.00     0.164 A 
ATOM      3  C   UNL     1       9.514  -3.503  18.672  1.00  0.00     0.098 A 
ATOM      4  C   UNL     1      10.866  -3.149  18.648  1.00  0.00     0.142 A 
ATOM      5  C   UNL     1      11.244  -1.853  18.243  1.00  0.00     0.022 A 
ATOM      6  C   UNL     1      10.266  -0.924  17.866  1.00  0.00     0.062 A 
ATOM      7  C   UNL     1      12.605  -1.529  18.229  1.00  0.00     0.019 A 
ATOM      8  C   UNL     1      13.541  -2.490  18.612  1.00  0.00     0.094 A 
ATOM      9  C   UNL     1      13.092  -3.756  19.002  1.00  0.00     0.336 A 
ATOM     10  O   UNL     1      13.920  -4.637  19.352  1.00  0.00    -0.246 OA
ATOM     11  O   UNL     1      11.791  -4.037  19.006  1.00  0.00    -0.423 OA
ENDROOT
BRANCH   1  12
ATOM     12  O   UNL     1       7.892  -0.378  17.521  1.00  0.00    -0.493 OA
ATOM     13  C   UNL     1       7.535   0.784  18.263  1.00  0.00     0.278 C 
ENDBRANCH   1  12
BRANCH   2  14
ATOM     14  O   UNL     1       7.159  -2.893  18.307  1.00  0.00    -0.493 OA
ATOM     15  C   UNL     1       6.359  -2.970  19.482  1.00  0.00     0.278 C 
ENDBRANCH   2  14
TORSDOF 2
ENDMDL
