MODEL 1
REMARK VINA RESULT:    -6.121      0.000      0.000
REMARK INTER + INTRA:          -7.632
REMARK INTER:                  -7.374
REMARK INTRA:                  -0.258
REMARK UNBOUND:                -0.258
REMARK SMILES O=c1c(O)c(-c2ccc(O)c(O)c2)oc2cc(O)cc(O)c12
REMARK SMILES IDX 5 1 3 2 2 3 1 4 22 5 20 6 19 7 17 8 16 9 15 10 14 11 6 12
REMARK SMILES IDX 7 13 8 14 9 15 13 16 11 17 10 18 12 20 4 22 21 24 18 26
REMARK H PARENT 10 19 12 21 4 23 21 25 18 27
REMARK Flexibility Score: inf
ROOT
ATOM      1  C   UNL     1       6.598  72.093  37.423  1.00  0.00     0.180 A 
ATOM      2  C   UNL     1       7.808  72.584  36.903  1.00  0.00     0.208 A 
ATOM      3  C   UNL     1       8.065  73.963  36.962  1.00  0.00     0.238 A 
ATOM      4  O   UNL     1       9.173  74.390  36.544  1.00  0.00    -0.285 OA
ATOM      5  C   UNL     1       7.103  74.835  37.526  1.00  0.00     0.111 A 
ATOM      6  C   UNL     1       7.241  76.254  37.601  1.00  0.00     0.134 A 
ATOM      7  C   UNL     1       6.285  77.005  38.297  1.00  0.00     0.093 A 
ATOM      8  C   UNL     1       5.163  76.395  38.864  1.00  0.00     0.123 A 
ATOM      9  C   UNL     1       4.990  75.019  38.744  1.00  0.00     0.094 A 
ATOM     10  C   UNL     1       5.945  74.238  38.087  1.00  0.00     0.146 A 
ATOM     11  O   UNL     1       5.745  72.928  38.005  1.00  0.00    -0.452 OA
ENDROOT
BRANCH   1  12
ATOM     12  C   UNL     1       6.246  70.656  37.375  1.00  0.00     0.025 A 
ATOM     13  C   UNL     1       5.867  70.078  36.152  1.00  0.00     0.016 A 
ATOM     14  C   UNL     1       5.551  68.719  36.080  1.00  0.00     0.051 A 
ATOM     15  C   UNL     1       5.622  67.915  37.221  1.00  0.00     0.157 A 
ATOM     16  C   UNL     1       6.336  69.840  38.517  1.00  0.00     0.062 A 
ATOM     17  C   UNL     1       6.020  68.475  38.446  1.00  0.00     0.158 A 
BRANCH  15  18
ATOM     18  O   UNL     1       5.298  66.561  37.118  1.00  0.00    -0.504 OA
ATOM     19  H   UNL     1       5.634  65.876  37.783  1.00  0.00     0.293 HD
ENDBRANCH  15  18
BRANCH  17  20
ATOM     20  O   UNL     1       6.108  67.675  39.584  1.00  0.00    -0.504 OA
ATOM     21  H   UNL     1       6.997  67.323  39.917  1.00  0.00     0.293 HD
ENDBRANCH  17  20
ENDBRANCH   1  12
BRANCH   2  22
ATOM     22  O   UNL     1       8.753  71.702  36.371  1.00  0.00    -0.502 OA
ATOM     23  H   UNL     1       9.186  71.849  35.466  1.00  0.00     0.293 HD
ENDBRANCH   2  22
BRANCH   6  24
ATOM     24  O   UNL     1       8.274  76.971  36.991  1.00  0.00    -0.507 OA
ATOM     25  H   UNL     1       8.179  77.896  36.601  1.00  0.00     0.293 HD
ENDBRANCH   6  24
BRANCH   8  26
ATOM     26  O   UNL     1       4.210  77.151  39.541  1.00  0.00    -0.508 OA
ATOM     27  H   UNL     1       3.224  76.921  39.501  1.00  0.00     0.293 HD
ENDBRANCH   8  26
TORSDOF 6
ENDMDL
MODEL 2
REMARK VINA RESULT:    -5.993      2.382      4.192
REMARK INTER + INTRA:          -7.478
REMARK INTER:                  -7.192
REMARK INTRA:                  -0.286
REMARK UNBOUND:                -0.258
REMARK SMILES O=c1c(O)c(-c2ccc(O)c(O)c2)oc2cc(O)cc(O)c12
REMARK SMILES IDX 5 1 3 2 2 3 1 4 22 5 20 6 19 7 17 8 16 9 15 10 14 11 6 12
REMARK SMILES IDX 7 13 8 14 9 15 13 16 11 17 10 18 12 20 4 22 21 24 18 26
REMARK H PARENT 10 19 12 21 4 23 21 25 18 27
REMARK Flexibility Score: inf
ROOT
ATOM      1  C   UNL     1       5.886  75.005  37.931  1.00  0.00     0.180 A 
ATOM      2  C   UNL     1       5.279  76.092  38.583  1.00  0.00     0.208 A 
ATOM      3  C   UNL     1       5.953  77.322  38.626  1.00  0.00     0.238 A 
ATOM      4  O   UNL     1       5.381  78.307  39.163  1.00  0.00    -0.285 OA
ATOM      5  C   UNL     1       7.232  77.446  38.032  1.00  0.00     0.111 A 
ATOM      6  C   UNL     1       8.023  78.635  38.051  1.00  0.00     0.134 A 
ATOM      7  C   UNL     1       9.216  78.683  37.319  1.00  0.00     0.093 A 
ATOM      8  C   UNL     1       9.678  77.563  36.622  1.00  0.00     0.123 A 
ATOM      9  C   UNL     1       8.943  76.381  36.646  1.00  0.00     0.094 A 
ATOM     10  C   UNL     1       7.731  76.314  37.337  1.00  0.00     0.146 A 
ATOM     11  O   UNL     1       7.056  75.170  37.326  1.00  0.00    -0.452 OA
ENDROOT
BRANCH   1  12
ATOM     12  C   UNL     1       5.249  73.669  37.865  1.00  0.00     0.025 A 
ATOM     13  C   UNL     1       4.245  73.430  36.913  1.00  0.00     0.016 A 
ATOM     14  C   UNL     1       3.645  72.171  36.820  1.00  0.00     0.051 A 
ATOM     15  C   UNL     1       4.047  71.131  37.663  1.00  0.00     0.157 A 
ATOM     16  C   UNL     1       5.665  72.616  38.699  1.00  0.00     0.062 A 
ATOM     17  C   UNL     1       5.066  71.352  38.606  1.00  0.00     0.158 A 
BRANCH  15  18
ATOM     18  O   UNL     1       3.428  69.886  37.549  1.00  0.00    -0.504 OA
ATOM     19  H   UNL     1       3.206  69.477  36.649  1.00  0.00     0.293 HD
ENDBRANCH  15  18
BRANCH  17  20
ATOM     20  O   UNL     1       5.481  70.316  39.440  1.00  0.00    -0.504 OA
ATOM     21  H   UNL     1       6.395  69.889  39.341  1.00  0.00     0.293 HD
ENDBRANCH  17  20
ENDBRANCH   1  12
BRANCH   2  22
ATOM     22  O   UNL     1       4.006  75.953  39.143  1.00  0.00    -0.502 OA
ATOM     23  H   UNL     1       3.291  76.667  39.053  1.00  0.00     0.293 HD
ENDBRANCH   2  22
BRANCH   6  24
ATOM     24  O   UNL     1       7.698  79.776  38.789  1.00  0.00    -0.507 OA
ATOM     25  H   UNL     1       6.801  79.948  39.218  1.00  0.00     0.293 HD
ENDBRANCH   6  24
BRANCH   8  26
ATOM     26  O   UNL     1      10.874  77.615  35.909  1.00  0.00    -0.508 OA
ATOM     27  H   UNL     1      11.136  78.432  35.371  1.00  0.00     0.293 HD
ENDBRANCH   8  26
TORSDOF 6
ENDMDL
MODEL 3
REMARK VINA RESULT:    -5.886      1.838      2.744
REMARK INTER + INTRA:          -7.348
REMARK INTER:                  -7.025
REMARK INTRA:                  -0.323
REMARK UNBOUND:                -0.258
REMARK SMILES O=c1c(O)c(-c2ccc(O)c(O)c2)oc2cc(O)cc(O)c12
REMARK SMILES IDX 5 1 3 2 2 3 1 4 22 5 20 6 19 7 17 8 16 9 15 10 14 11 6 12
REMARK SMILES IDX 7 13 8 14 9 15 13 16 11 17 10 18 12 20 4 22 21 24 18 26
REMARK H PARENT 10 19 12 21 4 23 21 25 18 27
REMARK Flexibility Score: inf
ROOT
ATOM      1  C   UNL     1       6.873  74.773  37.675  1.00  0.00     0.180 A 
ATOM      2  C   UNL     1       7.989  75.439  37.140  1.00  0.00     0.208 A 
ATOM      3  C   UNL     1       8.145  76.813  37.388  1.00  0.00     0.238 A 
ATOM      4  O   UNL     1       9.175  77.392  36.953  1.00  0.00    -0.285 OA
ATOM      5  C   UNL     1       7.176  77.505  38.152  1.00  0.00     0.111 A 
ATOM      6  C   UNL     1       7.213  78.905  38.431  1.00  0.00     0.134 A 
ATOM      7  C   UNL     1       6.271  79.459  39.307  1.00  0.00     0.093 A 
ATOM      8  C   UNL     1       5.255  78.677  39.862  1.00  0.00     0.123 A 
ATOM      9  C   UNL     1       5.176  77.322  39.549  1.00  0.00     0.094 A 
ATOM     10  C   UNL     1       6.123  76.732  38.707  1.00  0.00     0.146 A 
ATOM     11  O   UNL     1       6.016  75.436  38.442  1.00  0.00    -0.452 OA
ENDROOT
BRANCH   1  12
ATOM     12  C   UNL     1       6.627  73.332  37.436  1.00  0.00     0.025 A 
ATOM     13  C   UNL     1       5.907  72.934  36.299  1.00  0.00     0.016 A 
ATOM     14  C   UNL     1       5.682  71.578  36.043  1.00  0.00     0.051 A 
ATOM     15  C   UNL     1       6.183  70.603  36.910  1.00  0.00     0.157 A 
ATOM     16  C   UNL     1       7.148  72.348  38.295  1.00  0.00     0.062 A 
ATOM     17  C   UNL     1       6.924  70.987  38.040  1.00  0.00     0.158 A 
BRANCH  15  18
ATOM     18  O   UNL     1       5.940  69.257  36.630  1.00  0.00    -0.504 OA
ATOM     19  H   UNL     1       6.688  68.609  36.417  1.00  0.00     0.293 HD
ENDBRANCH  15  18
BRANCH  17  20
ATOM     20  O   UNL     1       7.440  70.019  38.899  1.00  0.00    -0.504 OA
ATOM     21  H   UNL     1       7.029  69.845  39.809  1.00  0.00     0.293 HD
ENDBRANCH  17  20
ENDBRANCH   1  12
BRANCH   2  22
ATOM     22  O   UNL     1       8.946  74.731  36.407  1.00  0.00    -0.502 OA
ATOM     23  H   UNL     1       9.016  74.798  35.398  1.00  0.00     0.293 HD
ENDBRANCH   2  22
BRANCH   6  24
ATOM     24  O   UNL     1       8.128  79.791  37.857  1.00  0.00    -0.507 OA
ATOM     25  H   UNL     1       8.383  79.802  36.881  1.00  0.00     0.293 HD
ENDBRANCH   6  24
BRANCH   8  26
ATOM     26  O   UNL     1       4.313  79.240  40.720  1.00  0.00    -0.508 OA
ATOM     27  H   UNL     1       4.233  80.243  40.834  1.00  0.00     0.293 HD
ENDBRANCH   8  26
TORSDOF 6
ENDMDL
MODEL 4
REMARK VINA RESULT:    -5.769      1.829      3.607
REMARK INTER + INTRA:          -7.208
REMARK INTER:                  -6.998
REMARK INTRA:                  -0.210
REMARK UNBOUND:                -0.258
REMARK SMILES O=c1c(O)c(-c2ccc(O)c(O)c2)oc2cc(O)cc(O)c12
REMARK SMILES IDX 5 1 3 2 2 3 1 4 22 5 20 6 19 7 17 8 16 9 15 10 14 11 6 12
REMARK SMILES IDX 7 13 8 14 9 15 13 16 11 17 10 18 12 20 4 22 21 24 18 26
REMARK H PARENT 10 19 12 21 4 23 21 25 18 27
REMARK Flexibility Score: inf
ROOT
ATOM      1  C   UNL     1       6.282  74.202  37.974  1.00  0.00     0.180 A 
ATOM      2  C   UNL     1       5.525  75.114  38.730  1.00  0.00     0.208 A 
ATOM      3  C   UNL     1       5.958  76.446  38.822  1.00  0.00     0.238 A 
ATOM      4  O   UNL     1       5.246  77.270  39.455  1.00  0.00    -0.285 OA
ATOM      5  C   UNL     1       7.149  76.846  38.171  1.00  0.00     0.111 A 
ATOM      6  C   UNL     1       7.702  78.161  38.230  1.00  0.00     0.134 A 
ATOM      7  C   UNL     1       8.814  78.478  37.441  1.00  0.00     0.093 A 
ATOM      8  C   UNL     1       9.433  77.510  36.645  1.00  0.00     0.123 A 
ATOM      9  C   UNL     1       8.936  76.210  36.627  1.00  0.00     0.094 A 
ATOM     10  C   UNL     1       7.805  75.872  37.375  1.00  0.00     0.146 A 
ATOM     11  O   UNL     1       7.359  74.623  37.321  1.00  0.00    -0.452 OA
ENDROOT
BRANCH   1  12
ATOM     12  C   UNL     1       5.904  72.775  37.851  1.00  0.00     0.025 A 
ATOM     13  C   UNL     1       4.784  72.422  37.080  1.00  0.00     0.016 A 
ATOM     14  C   UNL     1       4.422  71.080  36.933  1.00  0.00     0.051 A 
ATOM     15  C   UNL     1       5.179  70.073  37.539  1.00  0.00     0.157 A 
ATOM     16  C   UNL     1       6.674  71.759  38.442  1.00  0.00     0.062 A 
ATOM     17  C   UNL     1       6.313  70.411  38.295  1.00  0.00     0.158 A 
BRANCH  15  18
ATOM     18  O   UNL     1       4.791  68.742  37.377  1.00  0.00    -0.504 OA
ATOM     19  H   UNL     1       4.898  68.057  38.114  1.00  0.00     0.293 HD
ENDBRANCH  15  18
BRANCH  17  20
ATOM     20  O   UNL     1       7.080  69.411  38.889  1.00  0.00    -0.504 OA
ATOM     21  H   UNL     1       8.039  69.240  38.608  1.00  0.00     0.293 HD
ENDBRANCH  17  20
ENDBRANCH   1  12
BRANCH   2  22
ATOM     22  O   UNL     1       4.340  74.701  39.346  1.00  0.00    -0.502 OA
ATOM     23  H   UNL     1       4.091  74.981  40.288  1.00  0.00     0.293 HD
ENDBRANCH   2  22
BRANCH   6  24
ATOM     24  O   UNL     1       7.217  79.175  39.061  1.00  0.00    -0.507 OA
ATOM     25  H   UNL     1       6.827  80.047  38.737  1.00  0.00     0.293 HD
ENDBRANCH   6  24
BRANCH   8  26
ATOM     26  O   UNL     1      10.549  77.831  35.875  1.00  0.00    -0.508 OA
ATOM     27  H   UNL     1      10.998  78.736  35.944  1.00  0.00     0.293 HD
ENDBRANCH   8  26
TORSDOF 6
ENDMDL
MODEL 5
REMARK VINA RESULT:    -5.600      4.418      8.984
REMARK INTER + INTRA:          -7.004
REMARK INTER:                  -6.702
REMARK INTRA:                  -0.302
REMARK UNBOUND:                -0.258
REMARK SMILES O=c1c(O)c(-c2ccc(O)c(O)c2)oc2cc(O)cc(O)c12
REMARK SMILES IDX 5 1 3 2 2 3 1 4 22 5 20 6 19 7 17 8 16 9 15 10 14 11 6 12
REMARK SMILES IDX 7 13 8 14 9 15 13 16 11 17 10 18 12 20 4 22 21 24 18 26
REMARK H PARENT 10 19 12 21 4 23 21 25 18 27
REMARK Flexibility Score: inf
ROOT
ATOM      1  C   UNL     1       8.810  78.782  39.176  1.00  0.00     0.180 A 
ATOM      2  C   UNL     1       9.351  78.221  38.006  1.00  0.00     0.208 A 
ATOM      3  C   UNL     1       8.661  77.177  37.369  1.00  0.00     0.238 A 
ATOM      4  O   UNL     1       9.122  76.716  36.292  1.00  0.00    -0.285 OA
ATOM      5  C   UNL     1       7.448  76.698  37.918  1.00  0.00     0.111 A 
ATOM      6  C   UNL     1       6.685  75.618  37.378  1.00  0.00     0.134 A 
ATOM      7  C   UNL     1       5.434  75.313  37.928  1.00  0.00     0.093 A 
ATOM      8  C   UNL     1       4.948  76.006  39.040  1.00  0.00     0.123 A 
ATOM      9  C   UNL     1       5.711  77.022  39.610  1.00  0.00     0.094 A 
ATOM     10  C   UNL     1       6.947  77.374  39.061  1.00  0.00     0.146 A 
ATOM     11  O   UNL     1       7.638  78.355  39.629  1.00  0.00    -0.452 OA
ENDROOT
BRANCH   1  12
ATOM     12  C   UNL     1       9.492  79.868  39.917  1.00  0.00     0.025 A 
ATOM     13  C   UNL     1       9.008  81.182  39.817  1.00  0.00     0.016 A 
ATOM     14  C   UNL     1       9.623  82.218  40.525  1.00  0.00     0.051 A 
ATOM     15  C   UNL     1      10.719  81.956  41.352  1.00  0.00     0.157 A 
ATOM     16  C   UNL     1      10.582  79.604  40.766  1.00  0.00     0.062 A 
ATOM     17  C   UNL     1      11.200  80.642  41.478  1.00  0.00     0.158 A 
BRANCH  15  18
ATOM     18  O   UNL     1      11.314  83.011  42.044  1.00  0.00    -0.504 OA
ATOM     19  H   UNL     1      11.691  83.822  41.568  1.00  0.00     0.293 HD
ENDBRANCH  15  18
BRANCH  17  20
ATOM     20  O   UNL     1      12.283  80.372  42.312  1.00  0.00    -0.504 OA
ATOM     21  H   UNL     1      12.165  80.251  43.311  1.00  0.00     0.293 HD
ENDBRANCH  17  20
ENDBRANCH   1  12
BRANCH   2  22
ATOM     22  O   UNL     1      10.539  78.726  37.469  1.00  0.00    -0.502 OA
ATOM     23  H   UNL     1      11.061  78.239  36.749  1.00  0.00     0.293 HD
ENDBRANCH   2  22
BRANCH   6  24
ATOM     24  O   UNL     1       7.121  74.803  36.330  1.00  0.00    -0.507 OA
ATOM     25  H   UNL     1       6.692  74.761  35.418  1.00  0.00     0.293 HD
ENDBRANCH   6  24
BRANCH   8  26
ATOM     26  O   UNL     1       3.709  75.687  39.590  1.00  0.00    -0.508 OA
ATOM     27  H   UNL     1       3.125  74.959  39.195  1.00  0.00     0.293 HD
ENDBRANCH   8  26
TORSDOF 6
ENDMDL
MODEL 6
REMARK VINA RESULT:    -5.571      2.638      5.104
REMARK INTER + INTRA:          -6.970
REMARK INTER:                  -6.680
REMARK INTRA:                  -0.290
REMARK UNBOUND:                -0.258
REMARK SMILES O=c1c(O)c(-c2ccc(O)c(O)c2)oc2cc(O)cc(O)c12
REMARK SMILES IDX 5 1 3 2 2 3 1 4 22 5 20 6 19 7 17 8 16 9 15 10 14 11 6 12
REMARK SMILES IDX 7 13 8 14 9 15 13 16 11 17 10 18 12 20 4 22 21 24 18 26
REMARK H PARENT 10 19 12 21 4 23 21 25 18 27
REMARK Flexibility Score: inf
ROOT
ATOM      1  C   UNL     1       6.735  76.135  38.403  1.00  0.00     0.180 A 
ATOM      2  C   UNL     1       5.849  76.721  39.323  1.00  0.00     0.208 A 
ATOM      3  C   UNL     1       6.183  77.958  39.896  1.00  0.00     0.238 A 
ATOM      4  O   UNL     1       5.360  78.503  40.678  1.00  0.00    -0.285 OA
ATOM      5  C   UNL     1       7.404  78.586  39.555  1.00  0.00     0.111 A 
ATOM      6  C   UNL     1       7.862  79.821  40.105  1.00  0.00     0.134 A 
ATOM      7  C   UNL     1       9.025  80.414  39.598  1.00  0.00     0.093 A 
ATOM      8  C   UNL     1       9.781  79.785  38.606  1.00  0.00     0.123 A 
ATOM      9  C   UNL     1       9.374  78.551  38.105  1.00  0.00     0.094 A 
ATOM     10  C   UNL     1       8.199  77.951  38.565  1.00  0.00     0.146 A 
ATOM     11  O   UNL     1       7.842  76.779  38.053  1.00  0.00    -0.452 OA
ENDROOT
BRANCH   1  12
ATOM     12  C   UNL     1       6.465  74.821  37.776  1.00  0.00     0.025 A 
ATOM     13  C   UNL     1       5.598  74.747  36.673  1.00  0.00     0.016 A 
ATOM     14  C   UNL     1       5.345  73.520  36.053  1.00  0.00     0.051 A 
ATOM     15  C   UNL     1       5.964  72.355  36.514  1.00  0.00     0.157 A 
ATOM     16  C   UNL     1       7.101  73.649  38.223  1.00  0.00     0.062 A 
ATOM     17  C   UNL     1       6.850  72.418  37.602  1.00  0.00     0.158 A 
BRANCH  15  18
ATOM     18  O   UNL     1       5.690  71.144  35.876  1.00  0.00    -0.504 OA
ATOM     19  H   UNL     1       5.533  71.086  34.877  1.00  0.00     0.293 HD
ENDBRANCH  15  18
BRANCH  17  20
ATOM     20  O   UNL     1       7.481  71.261  38.056  1.00  0.00    -0.504 OA
ATOM     21  H   UNL     1       8.462  71.257  38.309  1.00  0.00     0.293 HD
ENDBRANCH  17  20
ENDBRANCH   1  12
BRANCH   2  22
ATOM     22  O   UNL     1       4.638  76.093  39.628  1.00  0.00    -0.502 OA
ATOM     23  H   UNL     1       4.554  75.087  39.718  1.00  0.00     0.293 HD
ENDBRANCH   2  22
BRANCH   6  24
ATOM     24  O   UNL     1       7.233  80.486  41.161  1.00  0.00    -0.507 OA
ATOM     25  H   UNL     1       7.644  81.235  41.695  1.00  0.00     0.293 HD
ENDBRANCH   6  24
BRANCH   8  26
ATOM     26  O   UNL     1      10.945  80.374  38.118  1.00  0.00    -0.508 OA
ATOM     27  H   UNL     1      11.564  79.881  37.486  1.00  0.00     0.293 HD
ENDBRANCH   8  26
TORSDOF 6
ENDMDL
MODEL 7
REMARK VINA RESULT:    -5.399      2.504      7.768
REMARK INTER + INTRA:          -6.763
REMARK INTER:                  -6.775
REMARK INTRA:                   0.012
REMARK UNBOUND:                -0.258
REMARK SMILES O=c1c(O)c(-c2ccc(O)c(O)c2)oc2cc(O)cc(O)c12
REMARK SMILES IDX 5 1 3 2 2 3 1 4 22 5 20 6 19 7 17 8 16 9 15 10 14 11 6 12
REMARK SMILES IDX 7 13 8 14 9 15 13 16 11 17 10 18 12 20 4 22 21 24 18 26
REMARK H PARENT 10 19 12 21 4 23 21 25 18 27
REMARK Flexibility Score: inf
ROOT
ATOM      1  C   UNL     1       7.087  76.364  37.927  1.00  0.00     0.180 A 
ATOM      2  C   UNL     1       5.778  76.533  38.410  1.00  0.00     0.208 A 
ATOM      3  C   UNL     1       4.855  75.486  38.256  1.00  0.00     0.238 A 
ATOM      4  O   UNL     1       3.700  75.623  38.739  1.00  0.00    -0.285 OA
ATOM      5  C   UNL     1       5.247  74.292  37.607  1.00  0.00     0.111 A 
ATOM      6  C   UNL     1       4.383  73.182  37.359  1.00  0.00     0.134 A 
ATOM      7  C   UNL     1       4.912  72.001  36.826  1.00  0.00     0.093 A 
ATOM      8  C   UNL     1       6.260  71.911  36.470  1.00  0.00     0.123 A 
ATOM      9  C   UNL     1       7.098  73.008  36.652  1.00  0.00     0.094 A 
ATOM     10  C   UNL     1       6.608  74.189  37.217  1.00  0.00     0.146 A 
ATOM     11  O   UNL     1       7.443  75.207  37.382  1.00  0.00    -0.452 OA
ENDROOT
BRANCH   1  12
ATOM     12  C   UNL     1       8.109  77.431  38.031  1.00  0.00     0.025 A 
ATOM     13  C   UNL     1       8.790  77.850  36.877  1.00  0.00     0.016 A 
ATOM     14  C   UNL     1       9.742  78.870  36.949  1.00  0.00     0.051 A 
ATOM     15  C   UNL     1      10.019  79.495  38.168  1.00  0.00     0.157 A 
ATOM     16  C   UNL     1       8.374  78.076  39.253  1.00  0.00     0.062 A 
ATOM     17  C   UNL     1       9.329  79.100  39.327  1.00  0.00     0.158 A 
BRANCH  15  18
ATOM     18  O   UNL     1      10.977  80.509  38.209  1.00  0.00    -0.504 OA
ATOM     19  H   UNL     1      11.891  80.401  37.788  1.00  0.00     0.293 HD
ENDBRANCH  15  18
BRANCH  17  20
ATOM     20  O   UNL     1       9.589  79.730  40.542  1.00  0.00    -0.504 OA
ATOM     21  H   UNL     1      10.029  80.641  40.584  1.00  0.00     0.293 HD
ENDBRANCH  17  20
ENDBRANCH   1  12
BRANCH   2  22
ATOM     22  O   UNL     1       5.419  77.713  39.068  1.00  0.00    -0.502 OA
ATOM     23  H   UNL     1       6.018  78.155  39.757  1.00  0.00     0.293 HD
ENDBRANCH   2  22
BRANCH   6  24
ATOM     24  O   UNL     1       3.005  73.200  37.592  1.00  0.00    -0.507 OA
ATOM     25  H   UNL     1       2.300  73.127  36.875  1.00  0.00     0.293 HD
ENDBRANCH   6  24
BRANCH   8  26
ATOM     26  O   UNL     1       6.775  70.736  35.926  1.00  0.00    -0.508 OA
ATOM     27  H   UNL     1       6.749  69.861  36.434  1.00  0.00     0.293 HD
ENDBRANCH   8  26
TORSDOF 6
ENDMDL
MODEL 8
REMARK VINA RESULT:    -5.364      6.908     10.574
REMARK INTER + INTRA:          -6.720
REMARK INTER:                  -6.799
REMARK INTRA:                   0.079
REMARK UNBOUND:                -0.258
REMARK SMILES O=c1c(O)c(-c2ccc(O)c(O)c2)oc2cc(O)cc(O)c12
REMARK SMILES IDX 5 1 3 2 2 3 1 4 22 5 20 6 19 7 17 8 16 9 15 10 14 11 6 12
REMARK SMILES IDX 7 13 8 14 9 15 13 16 11 17 10 18 12 20 4 22 21 24 18 26
REMARK H PARENT 10 19 12 21 4 23 21 25 18 27
REMARK Flexibility Score: inf
ROOT
ATOM      1  C   UNL     1       9.857  80.564  40.682  1.00  0.00     0.180 A 
ATOM      2  C   UNL     1      10.324  80.224  39.400  1.00  0.00     0.208 A 
ATOM      3  C   UNL     1       9.445  79.601  38.500  1.00  0.00     0.238 A 
ATOM      4  O   UNL     1       9.853  79.348  37.335  1.00  0.00    -0.285 OA
ATOM      5  C   UNL     1       8.118  79.313  38.896  1.00  0.00     0.111 A 
ATOM      6  C   UNL     1       7.154  78.648  38.078  1.00  0.00     0.134 A 
ATOM      7  C   UNL     1       5.832  78.532  38.525  1.00  0.00     0.093 A 
ATOM      8  C   UNL     1       5.454  78.997  39.786  1.00  0.00     0.123 A 
ATOM      9  C   UNL     1       6.401  79.594  40.616  1.00  0.00     0.094 A 
ATOM     10  C   UNL     1       7.720  79.758  40.183  1.00  0.00     0.146 A 
ATOM     11  O   UNL     1       8.588  80.341  41.001  1.00  0.00    -0.452 OA
ENDROOT
BRANCH   1  12
ATOM     12  C   UNL     1      10.730  81.200  41.695  1.00  0.00     0.025 A 
ATOM     13  C   UNL     1      11.507  82.314  41.336  1.00  0.00     0.016 A 
ATOM     14  C   UNL     1      12.321  82.942  42.282  1.00  0.00     0.051 A 
ATOM     15  C   UNL     1      12.362  82.479  43.600  1.00  0.00     0.157 A 
ATOM     16  C   UNL     1      10.757  80.749  43.026  1.00  0.00     0.062 A 
ATOM     17  C   UNL     1      11.573  81.379  43.977  1.00  0.00     0.158 A 
BRANCH  15  18
ATOM     18  O   UNL     1      13.187  83.125  44.521  1.00  0.00    -0.504 OA
ATOM     19  H   UNL     1      13.884  83.802  44.237  1.00  0.00     0.293 HD
ENDBRANCH  15  18
BRANCH  17  20
ATOM     20  O   UNL     1      11.598  80.922  45.293  1.00  0.00    -0.504 OA
ATOM     21  H   UNL     1      11.272  81.497  46.061  1.00  0.00     0.293 HD
ENDBRANCH  17  20
ENDBRANCH   1  12
BRANCH   2  22
ATOM     22  O   UNL     1      11.632  80.539  39.023  1.00  0.00    -0.502 OA
ATOM     23  H   UNL     1      11.918  81.482  38.787  1.00  0.00     0.293 HD
ENDBRANCH   2  22
BRANCH   6  24
ATOM     24  O   UNL     1       7.449  78.065  36.843  1.00  0.00    -0.507 OA
ATOM     25  H   UNL     1       8.372  77.797  36.539  1.00  0.00     0.293 HD
ENDBRANCH   6  24
BRANCH   8  26
ATOM     26  O   UNL     1       4.140  78.864  40.229  1.00  0.00    -0.508 OA
ATOM     27  H   UNL     1       3.396  78.583  39.602  1.00  0.00     0.293 HD
ENDBRANCH   8  26
TORSDOF 6
ENDMDL
MODEL 9
REMARK VINA RESULT:    -5.342      5.521      8.501
REMARK INTER + INTRA:          -6.694
REMARK INTER:                  -6.471
REMARK INTRA:                  -0.223
REMARK UNBOUND:                -0.258
REMARK SMILES O=c1c(O)c(-c2ccc(O)c(O)c2)oc2cc(O)cc(O)c12
REMARK SMILES IDX 5 1 3 2 2 3 1 4 22 5 20 6 19 7 17 8 16 9 15 10 14 11 6 12
REMARK SMILES IDX 7 13 8 14 9 15 13 16 11 17 10 18 12 20 4 22 21 24 18 26
REMARK H PARENT 10 19 12 21 4 23 21 25 18 27
REMARK Flexibility Score: inf
ROOT
ATOM      1  C   UNL     1       8.525  79.718  39.869  1.00  0.00     0.180 A 
ATOM      2  C   UNL     1       9.830  80.027  39.448  1.00  0.00     0.208 A 
ATOM      3  C   UNL     1      10.585  80.949  40.190  1.00  0.00     0.238 A 
ATOM      4  O   UNL     1      11.772  81.180  39.839  1.00  0.00    -0.285 OA
ATOM      5  C   UNL     1      10.021  81.562  41.334  1.00  0.00     0.111 A 
ATOM      6  C   UNL     1      10.681  82.540  42.138  1.00  0.00     0.134 A 
ATOM      7  C   UNL     1      10.078  82.983  43.321  1.00  0.00     0.093 A 
ATOM      8  C   UNL     1       8.811  82.531  43.696  1.00  0.00     0.123 A 
ATOM      9  C   UNL     1       8.133  81.622  42.888  1.00  0.00     0.094 A 
ATOM     10  C   UNL     1       8.724  81.134  41.720  1.00  0.00     0.146 A 
ATOM     11  O   UNL     1       8.048  80.260  40.984  1.00  0.00    -0.452 OA
ENDROOT
BRANCH   1  12
ATOM     12  C   UNL     1       7.659  78.775  39.125  1.00  0.00     0.025 A 
ATOM     13  C   UNL     1       7.156  79.145  37.867  1.00  0.00     0.016 A 
ATOM     14  C   UNL     1       6.355  78.262  37.139  1.00  0.00     0.051 A 
ATOM     15  C   UNL     1       6.056  76.995  37.647  1.00  0.00     0.157 A 
ATOM     16  C   UNL     1       7.374  77.492  39.625  1.00  0.00     0.062 A 
ATOM     17  C   UNL     1       6.571  76.604  38.894  1.00  0.00     0.158 A 
BRANCH  15  18
ATOM     18  O   UNL     1       5.251  76.136  36.898  1.00  0.00    -0.504 OA
ATOM     19  H   UNL     1       4.446  75.669  37.297  1.00  0.00     0.293 HD
ENDBRANCH  15  18
BRANCH  17  20
ATOM     20  O   UNL     1       6.289  75.336  39.400  1.00  0.00    -0.504 OA
ATOM     21  H   UNL     1       6.424  75.113  40.379  1.00  0.00     0.293 HD
ENDBRANCH  17  20
ENDBRANCH   1  12
BRANCH   2  22
ATOM     22  O   UNL     1      10.374  79.393  38.327  1.00  0.00    -0.502 OA
ATOM     23  H   UNL     1       9.798  78.979  37.603  1.00  0.00     0.293 HD
ENDBRANCH   2  22
BRANCH   6  24
ATOM     24  O   UNL     1      11.906  83.125  41.805  1.00  0.00    -0.507 OA
ATOM     25  H   UNL     1      12.578  83.471  42.473  1.00  0.00     0.293 HD
ENDBRANCH   6  24
BRANCH   8  26
ATOM     26  O   UNL     1       8.211  82.988  44.868  1.00  0.00    -0.508 OA
ATOM     27  H   UNL     1       8.225  83.969  45.123  1.00  0.00     0.293 HD
ENDBRANCH   8  26
TORSDOF 6
ENDMDL
