MODEL 1
REMARK VINA RESULT:    -3.699      0.000      0.000
REMARK INTER + INTRA:          -4.824
REMARK INTER:                  -4.564
REMARK INTRA:                  -0.260
REMARK UNBOUND:                -0.260
REMARK SMILES CCCCCC(=O)[O-]
REMARK SMILES IDX 4 1 5 2 6 3 7 4 8 5 3 6 2 7 1 8
REMARK H PARENT
REMARK Flexibility Score: inf
ROOT
ATOM      1  C   UNL     1      29.165 -12.382  16.335  1.00  0.00     0.006 C 
ENDROOT
BRANCH   1   2
ATOM      2  C   UNL     1      29.132 -11.374  15.177  1.00  0.00     0.053 C 
BRANCH   2   3
ATOM      3  C   UNL     1      27.820 -10.658  15.093  1.00  0.00     0.041 C 
ATOM      4  O   UNL     1      27.532  -9.762  15.931  1.00  0.00    -0.550 OA
ATOM      5  O   UNL     1      26.928 -10.953  14.069  1.00  0.00    -0.550 OA
ENDBRANCH   2   3
ENDBRANCH   1   2
BRANCH   1   6
ATOM      6  C   UNL     1      28.092 -13.487  16.253  1.00  0.00     0.000 C 
BRANCH   6   7
ATOM      7  C   UNL     1      28.300 -14.511  15.122  1.00  0.00    -0.003 C 
ATOM      8  C   UNL     1      27.127 -14.568  14.144  1.00  0.00     0.004 C 
ENDBRANCH   6   7
ENDBRANCH   1   6
TORSDOF 4
ENDMDL
MODEL 2
REMARK VINA RESULT:    -3.681      0.105      1.149
REMARK INTER + INTRA:          -4.803
REMARK INTER:                  -4.550
REMARK INTRA:                  -0.252
REMARK UNBOUND:                -0.260
REMARK SMILES CCCCCC(=O)[O-]
REMARK SMILES IDX 4 1 5 2 6 3 7 4 8 5 3 6 2 7 1 8
REMARK H PARENT
REMARK Flexibility Score: inf
ROOT
ATOM      1  C   UNL     1      29.232 -12.414  16.260  1.00  0.00     0.006 C 
ENDROOT
BRANCH   1   2
ATOM      2  C   UNL     1      29.186 -11.396  15.110  1.00  0.00     0.053 C 
BRANCH   2   3
ATOM      3  C   UNL     1      27.886 -10.654  15.067  1.00  0.00     0.041 C 
ATOM      4  O   UNL     1      27.063 -10.870  14.138  1.00  0.00    -0.550 OA
ATOM      5  O   UNL     1      27.567  -9.750  16.073  1.00  0.00    -0.550 OA
ENDBRANCH   2   3
ENDBRANCH   1   2
BRANCH   1   6
ATOM      6  C   UNL     1      28.121 -13.483  16.213  1.00  0.00     0.000 C 
BRANCH   6   7
ATOM      7  C   UNL     1      28.291 -14.548  15.115  1.00  0.00    -0.003 C 
ATOM      8  C   UNL     1      27.167 -14.523  14.079  1.00  0.00     0.004 C 
ENDBRANCH   6   7
ENDBRANCH   1   6
TORSDOF 4
ENDMDL
MODEL 3
REMARK VINA RESULT:    -3.604      2.368      4.136
REMARK INTER + INTRA:          -4.707
REMARK INTER:                  -4.607
REMARK INTRA:                  -0.100
REMARK UNBOUND:                -0.260
REMARK SMILES CCCCCC(=O)[O-]
REMARK SMILES IDX 4 1 5 2 6 3 7 4 8 5 3 6 2 7 1 8
REMARK H PARENT
REMARK Flexibility Score: inf
ROOT
ATOM      1  C   UNL     1      28.124 -11.901  15.803  1.00  0.00     0.006 C 
ENDROOT
BRANCH   1   2
ATOM      2  C   UNL     1      27.349 -13.227  15.787  1.00  0.00     0.053 C 
BRANCH   2   3
ATOM      3  C   UNL     1      28.013 -14.255  14.924  1.00  0.00     0.041 C 
ATOM      4  O   UNL     1      28.841 -15.062  15.422  1.00  0.00    -0.550 OA
ATOM      5  O   UNL     1      27.691 -14.346  13.575  1.00  0.00    -0.550 OA
ENDBRANCH   2   3
ENDBRANCH   1   2
BRANCH   1   6
ATOM      6  C   UNL     1      27.513 -10.792  14.921  1.00  0.00     0.000 C 
BRANCH   6   7
ATOM      7  C   UNL     1      28.184  -9.413  15.055  1.00  0.00    -0.003 C 
ATOM      8  C   UNL     1      28.677  -9.124  16.472  1.00  0.00     0.004 C 
ENDBRANCH   6   7
ENDBRANCH   1   6
TORSDOF 4
ENDMDL
MODEL 4
REMARK VINA RESULT:    -3.602      1.674      2.138
REMARK INTER + INTRA:          -4.704
REMARK INTER:                  -4.547
REMARK INTRA:                  -0.157
REMARK UNBOUND:                -0.260
REMARK SMILES CCCCCC(=O)[O-]
REMARK SMILES IDX 4 1 5 2 6 3 7 4 8 5 3 6 2 7 1 8
REMARK H PARENT
REMARK Flexibility Score: inf
ROOT
ATOM      1  C   UNL     1      27.881 -11.719  13.867  1.00  0.00     0.006 C 
ENDROOT
BRANCH   1   2
ATOM      2  C   UNL     1      27.448 -10.501  14.697  1.00  0.00     0.053 C 
BRANCH   2   3
ATOM      3  C   UNL     1      28.312 -10.308  15.905  1.00  0.00     0.041 C 
ATOM      4  O   UNL     1      28.254  -9.234  16.561  1.00  0.00    -0.550 OA
ATOM      5  O   UNL     1      29.155 -11.328  16.329  1.00  0.00    -0.550 OA
ENDBRANCH   2   3
ENDBRANCH   1   2
BRANCH   1   6
ATOM      6  C   UNL     1      26.876 -12.889  13.876  1.00  0.00     0.000 C 
BRANCH   6   7
ATOM      7  C   UNL     1      27.510 -14.290  13.813  1.00  0.00    -0.003 C 
ATOM      8  C   UNL     1      28.315 -14.638  15.065  1.00  0.00     0.004 C 
ENDBRANCH   6   7
ENDBRANCH   1   6
TORSDOF 4
ENDMDL
MODEL 5
REMARK VINA RESULT:    -3.564      2.380      3.894
REMARK INTER + INTRA:          -4.657
REMARK INTER:                  -4.445
REMARK INTRA:                  -0.212
REMARK UNBOUND:                -0.260
REMARK SMILES CCCCCC(=O)[O-]
REMARK SMILES IDX 4 1 5 2 6 3 7 4 8 5 3 6 2 7 1 8
REMARK H PARENT
REMARK Flexibility Score: inf
ROOT
ATOM      1  C   UNL     1      26.952 -12.792  14.117  1.00  0.00     0.006 C 
ENDROOT
BRANCH   1   2
ATOM      2  C   UNL     1      27.088 -13.195  15.593  1.00  0.00     0.053 C 
BRANCH   2   3
ATOM      3  C   UNL     1      28.456 -13.712  15.911  1.00  0.00     0.041 C 
ATOM      4  O   UNL     1      29.244 -13.029  16.619  1.00  0.00    -0.550 OA
ATOM      5  O   UNL     1      28.852 -14.964  15.456  1.00  0.00    -0.550 OA
ENDBRANCH   2   3
ENDBRANCH   1   2
BRANCH   1   6
ATOM      6  C   UNL     1      27.421 -11.357  13.800  1.00  0.00     0.000 C 
BRANCH   6   7
ATOM      7  C   UNL     1      27.340 -10.372  14.980  1.00  0.00    -0.003 C 
ATOM      8  C   UNL     1      28.619  -9.557  15.167  1.00  0.00     0.004 C 
ENDBRANCH   6   7
ENDBRANCH   1   6
TORSDOF 4
ENDMDL
MODEL 6
REMARK VINA RESULT:    -3.563      1.681      2.272
REMARK INTER + INTRA:          -4.657
REMARK INTER:                  -4.501
REMARK INTRA:                  -0.156
REMARK UNBOUND:                -0.260
REMARK SMILES CCCCCC(=O)[O-]
REMARK SMILES IDX 4 1 5 2 6 3 7 4 8 5 3 6 2 7 1 8
REMARK H PARENT
REMARK Flexibility Score: inf
ROOT
ATOM      1  C   UNL     1      27.919 -11.738  13.953  1.00  0.00     0.006 C 
ENDROOT
BRANCH   1   2
ATOM      2  C   UNL     1      27.540 -10.487  14.760  1.00  0.00     0.053 C 
BRANCH   2   3
ATOM      3  C   UNL     1      28.448 -10.280  15.933  1.00  0.00     0.041 C 
ATOM      4  O   UNL     1      29.177 -11.221  16.344  1.00  0.00    -0.550 OA
ATOM      5  O   UNL     1      28.514  -9.038  16.552  1.00  0.00    -0.550 OA
ENDBRANCH   2   3
ENDBRANCH   1   2
BRANCH   1   6
ATOM      6  C   UNL     1      26.875 -12.873  14.006  1.00  0.00     0.000 C 
BRANCH   6   7
ATOM      7  C   UNL     1      27.459 -14.296  13.943  1.00  0.00    -0.003 C 
ATOM      8  C   UNL     1      28.373 -14.619  15.124  1.00  0.00     0.004 C 
ENDBRANCH   6   7
ENDBRANCH   1   6
TORSDOF 4
ENDMDL
MODEL 7
REMARK VINA RESULT:    -3.559      2.378      4.237
REMARK INTER + INTRA:          -4.651
REMARK INTER:                  -4.549
REMARK INTRA:                  -0.102
REMARK UNBOUND:                -0.260
REMARK SMILES CCCCCC(=O)[O-]
REMARK SMILES IDX 4 1 5 2 6 3 7 4 8 5 3 6 2 7 1 8
REMARK H PARENT
REMARK Flexibility Score: inf
ROOT
ATOM      1  C   UNL     1      28.060 -11.908  15.816  1.00  0.00     0.006 C 
ENDROOT
BRANCH   1   2
ATOM      2  C   UNL     1      27.209 -13.178  15.670  1.00  0.00     0.053 C 
BRANCH   2   3
ATOM      3  C   UNL     1      27.904 -14.231  14.863  1.00  0.00     0.041 C 
ATOM      4  O   UNL     1      27.648 -14.362  13.636  1.00  0.00    -0.550 OA
ATOM      5  O   UNL     1      28.861 -15.045  15.456  1.00  0.00    -0.550 OA
ENDBRANCH   2   3
ENDBRANCH   1   2
BRANCH   1   6
ATOM      6  C   UNL     1      27.605 -10.728  14.931  1.00  0.00     0.000 C 
BRANCH   6   7
ATOM      7  C   UNL     1      27.980  -9.334  15.466  1.00  0.00    -0.003 C 
ATOM      8  C   UNL     1      29.003  -9.384  16.600  1.00  0.00     0.004 C 
ENDBRANCH   6   7
ENDBRANCH   1   6
TORSDOF 4
ENDMDL
MODEL 8
REMARK VINA RESULT:    -3.294      2.903      3.616
REMARK INTER + INTRA:          -4.325
REMARK INTER:                  -4.101
REMARK INTRA:                  -0.224
REMARK UNBOUND:                -0.260
REMARK SMILES CCCCCC(=O)[O-]
REMARK SMILES IDX 4 1 5 2 6 3 7 4 8 5 3 6 2 7 1 8
REMARK H PARENT
REMARK Flexibility Score: inf
ROOT
ATOM      1  C   UNL     1      27.537 -10.284  15.780  1.00  0.00     0.006 C 
ENDROOT
BRANCH   1   2
ATOM      2  C   UNL     1      28.320  -8.978  15.986  1.00  0.00     0.053 C 
BRANCH   2   3
ATOM      3  C   UNL     1      29.518  -9.173  16.863  1.00  0.00     0.041 C 
ATOM      4  O   UNL     1      30.271 -10.169  16.695  1.00  0.00    -0.550 OA
ATOM      5  O   UNL     1      29.823  -8.238  17.843  1.00  0.00    -0.550 OA
ENDBRANCH   2   3
ENDBRANCH   1   2
BRANCH   1   6
ATOM      6  C   UNL     1      27.467 -10.764  14.316  1.00  0.00     0.000 C 
BRANCH   6   7
ATOM      7  C   UNL     1      28.662 -11.618  13.856  1.00  0.00    -0.003 C 
ATOM      8  C   UNL     1      29.753 -10.799  13.168  1.00  0.00     0.004 C 
ENDBRANCH   6   7
ENDBRANCH   1   6
TORSDOF 4
ENDMDL
MODEL 9
REMARK VINA RESULT:    -3.283      7.891      9.107
REMARK INTER + INTRA:          -4.311
REMARK INTER:                  -4.072
REMARK INTRA:                  -0.238
REMARK UNBOUND:                -0.260
REMARK SMILES CCCCCC(=O)[O-]
REMARK SMILES IDX 4 1 5 2 6 3 7 4 8 5 3 6 2 7 1 8
REMARK H PARENT
REMARK Flexibility Score: inf
ROOT
ATOM      1  C   UNL     1      32.632  -6.009   9.726  1.00  0.00     0.006 C 
ENDROOT
BRANCH   1   2
ATOM      2  C   UNL     1      33.425  -5.396  10.890  1.00  0.00     0.053 C 
BRANCH   2   3
ATOM      3  C   UNL     1      34.490  -6.321  11.393  1.00  0.00     0.041 C 
ATOM      4  O   UNL     1      34.288  -7.024  12.418  1.00  0.00    -0.550 OA
ATOM      5  O   UNL     1      35.695  -6.433  10.709  1.00  0.00    -0.550 OA
ENDBRANCH   2   3
ENDBRANCH   1   2
BRANCH   1   6
ATOM      6  C   UNL     1      31.354  -6.763  10.149  1.00  0.00     0.000 C 
BRANCH   6   7
ATOM      7  C   UNL     1      30.799  -6.374  11.531  1.00  0.00    -0.003 C 
ATOM      8  C   UNL     1      30.756  -7.547  12.509  1.00  0.00     0.004 C 
ENDBRANCH   6   7
ENDBRANCH   1   6
TORSDOF 4
ENDMDL
