MODEL 1
REMARK VINA RESULT:    -6.571      0.000      0.000
REMARK INTER + INTRA:          -7.147
REMARK INTER:                  -7.147
REMARK INTRA:                   0.000
REMARK UNBOUND:                 0.000
REMARK SMILES Cc1cc(O)c2c(c1)C(=O)c1cc(O)cc(O)c1C2=O
REMARK SMILES IDX 1 1 2 2 8 3 7 4 6 5 4 6 3 7 19 8 20 9 18 10 11 11 9 12 10 13
REMARK SMILES IDX 12 14 13 15 15 16 16 17 5 18 17 20 14 22
REMARK H PARENT 5 19 17 21 14 23
REMARK Flexibility Score: inf
ROOT
ATOM      1  C   UNL     1      10.120 -23.607  35.509  1.00  0.00     0.044 C 
ATOM      2  C   UNL     1       8.979 -22.678  35.215  1.00  0.00    -0.047 A 
ATOM      3  C   UNL     1       8.763 -22.219  33.911  1.00  0.00     0.016 A 
ATOM      4  C   UNL     1       7.714 -21.327  33.630  1.00  0.00     0.038 A 
ATOM      5  C   UNL     1       6.868 -20.886  34.673  1.00  0.00     0.076 A 
ATOM      6  C   UNL     1       7.144 -21.289  36.004  1.00  0.00     0.127 A 
ATOM      7  C   UNL     1       8.181 -22.193  36.256  1.00  0.00     0.050 A 
ATOM      8  C   UNL     1       5.683 -20.063  34.316  1.00  0.00     0.201 C 
ATOM      9  O   UNL     1       4.642 -20.123  35.024  1.00  0.00    -0.288 OA
ATOM     10  C   UNL     1       5.661 -19.322  33.028  1.00  0.00     0.076 A 
ATOM     11  C   UNL     1       6.511 -19.763  31.989  1.00  0.00     0.041 A 
ATOM     12  C   UNL     1       7.496 -20.839  32.248  1.00  0.00     0.194 C 
ATOM     13  O   UNL     1       8.168 -21.323  31.295  1.00  0.00    -0.289 OA
ATOM     14  C   UNL     1       6.421 -19.177  30.715  1.00  0.00     0.059 A 
ATOM     15  C   UNL     1       5.506 -18.148  30.471  1.00  0.00     0.120 A 
ATOM     16  C   UNL     1       4.694 -17.683  31.505  1.00  0.00     0.093 A 
ATOM     17  C   UNL     1       4.779 -18.236  32.787  1.00  0.00     0.131 A 
ENDROOT
BRANCH   6  18
ATOM     18  O   UNL     1       6.442 -20.791  37.105  1.00  0.00    -0.507 OA
ATOM     19  H   UNL     1       6.111 -19.838  37.171  1.00  0.00     0.293 HD
ENDBRANCH   6  18
BRANCH  17  20
ATOM     20  O   UNL     1       4.001 -17.657  33.792  1.00  0.00    -0.507 OA
ATOM     21  H   UNL     1       3.150 -18.070  34.148  1.00  0.00     0.293 HD
ENDBRANCH  17  20
BRANCH  15  22
ATOM     22  O   UNL     1       5.404 -17.572  29.206  1.00  0.00    -0.508 OA
ATOM     23  H   UNL     1       5.720 -18.059  28.376  1.00  0.00     0.293 HD
ENDBRANCH  15  22
TORSDOF 3
ENDMDL
MODEL 2
REMARK VINA RESULT:    -6.432      1.928      3.837
REMARK INTER + INTRA:          -6.996
REMARK INTER:                  -6.996
REMARK INTRA:                   0.000
REMARK UNBOUND:                 0.000
REMARK SMILES Cc1cc(O)c2c(c1)C(=O)c1cc(O)cc(O)c1C2=O
REMARK SMILES IDX 1 1 2 2 8 3 7 4 6 5 4 6 3 7 19 8 20 9 18 10 11 11 9 12 10 13
REMARK SMILES IDX 12 14 13 15 15 16 16 17 5 18 17 20 14 22
REMARK H PARENT 5 19 17 21 14 23
REMARK Flexibility Score: inf
ROOT
ATOM      1  C   UNL     1       4.803 -20.235  37.120  1.00  0.00     0.044 C 
ATOM      2  C   UNL     1       5.409 -20.295  35.749  1.00  0.00    -0.047 A 
ATOM      3  C   UNL     1       5.036 -19.365  34.772  1.00  0.00     0.016 A 
ATOM      4  C   UNL     1       5.577 -19.429  33.477  1.00  0.00     0.038 A 
ATOM      5  C   UNL     1       6.506 -20.443  33.154  1.00  0.00     0.076 A 
ATOM      6  C   UNL     1       6.816 -21.433  34.122  1.00  0.00     0.127 A 
ATOM      7  C   UNL     1       6.280 -21.335  35.410  1.00  0.00     0.050 A 
ATOM      8  C   UNL     1       7.167 -20.392  31.824  1.00  0.00     0.201 C 
ATOM      9  O   UNL     1       8.333 -20.849  31.686  1.00  0.00    -0.288 OA
ATOM     10  C   UNL     1       6.532 -19.636  30.713  1.00  0.00     0.076 A 
ATOM     11  C   UNL     1       5.600 -18.626  31.040  1.00  0.00     0.041 A 
ATOM     12  C   UNL     1       5.171 -18.445  32.447  1.00  0.00     0.194 C 
ATOM     13  O   UNL     1       4.439 -17.466  32.763  1.00  0.00    -0.289 OA
ATOM     14  C   UNL     1       5.082 -17.798  30.029  1.00  0.00     0.059 A 
ATOM     15  C   UNL     1       5.470 -17.978  28.698  1.00  0.00     0.120 A 
ATOM     16  C   UNL     1       6.358 -19.001  28.367  1.00  0.00     0.093 A 
ATOM     17  C   UNL     1       6.872 -19.850  29.351  1.00  0.00     0.131 A 
ENDROOT
BRANCH   6  18
ATOM     18  O   UNL     1       7.616 -22.542  33.839  1.00  0.00    -0.507 OA
ATOM     19  H   UNL     1       8.461 -22.495  33.286  1.00  0.00     0.293 HD
ENDBRANCH   6  18
BRANCH  17  20
ATOM     20  O   UNL     1       7.683 -20.907  28.932  1.00  0.00    -0.507 OA
ATOM     21  H   UNL     1       8.297 -21.419  29.549  1.00  0.00     0.293 HD
ENDBRANCH  17  20
BRANCH  15  22
ATOM     22  O   UNL     1       4.968 -17.152  27.694  1.00  0.00    -0.508 OA
ATOM     23  H   UNL     1       4.022 -16.792  27.728  1.00  0.00     0.293 HD
ENDBRANCH  15  22
TORSDOF 3
ENDMDL
MODEL 3
REMARK VINA RESULT:    -5.794      1.762      6.217
REMARK INTER + INTRA:          -6.302
REMARK INTER:                  -6.302
REMARK INTRA:                   0.000
REMARK UNBOUND:                 0.000
REMARK SMILES Cc1cc(O)c2c(c1)C(=O)c1cc(O)cc(O)c1C2=O
REMARK SMILES IDX 1 1 2 2 8 3 7 4 6 5 4 6 3 7 19 8 20 9 18 10 11 11 9 12 10 13
REMARK SMILES IDX 12 14 13 15 15 16 16 17 5 18 17 20 14 22
REMARK H PARENT 5 19 17 21 14 23
REMARK Flexibility Score: inf
ROOT
ATOM      1  C   UNL     1       5.627 -16.298  27.977  1.00  0.00     0.044 C 
ATOM      2  C   UNL     1       5.934 -17.448  28.892  1.00  0.00    -0.047 A 
ATOM      3  C   UNL     1       5.455 -17.449  30.206  1.00  0.00     0.016 A 
ATOM      4  C   UNL     1       5.759 -18.508  31.079  1.00  0.00     0.038 A 
ATOM      5  C   UNL     1       6.558 -19.582  30.627  1.00  0.00     0.076 A 
ATOM      6  C   UNL     1       7.109 -19.534  29.321  1.00  0.00     0.127 A 
ATOM      7  C   UNL     1       6.775 -18.480  28.465  1.00  0.00     0.050 A 
ATOM      8  C   UNL     1       6.735 -20.752  31.527  1.00  0.00     0.201 C 
ATOM      9  O   UNL     1       6.907 -21.900  31.036  1.00  0.00    -0.288 OA
ATOM     10  C   UNL     1       6.522 -20.596  32.989  1.00  0.00     0.076 A 
ATOM     11  C   UNL     1       5.726 -19.518  33.437  1.00  0.00     0.041 A 
ATOM     12  C   UNL     1       5.254 -18.498  32.472  1.00  0.00     0.194 C 
ATOM     13  O   UNL     1       4.441 -17.606  32.842  1.00  0.00    -0.289 OA
ATOM     14  C   UNL     1       5.389 -19.416  34.798  1.00  0.00     0.059 A 
ATOM     15  C   UNL     1       5.848 -20.365  35.715  1.00  0.00     0.120 A 
ATOM     16  C   UNL     1       6.667 -21.407  35.283  1.00  0.00     0.093 A 
ATOM     17  C   UNL     1       7.034 -21.520  33.938  1.00  0.00     0.131 A 
ENDROOT
BRANCH   6  18
ATOM     18  O   UNL     1       8.017 -20.485  28.849  1.00  0.00    -0.507 OA
ATOM     19  H   UNL     1       8.400 -21.224  29.422  1.00  0.00     0.293 HD
ENDBRANCH   6  18
BRANCH  17  20
ATOM     20  O   UNL     1       7.930 -22.536  33.597  1.00  0.00    -0.507 OA
ATOM     21  H   UNL     1       8.417 -23.103  34.276  1.00  0.00     0.293 HD
ENDBRANCH  17  20
BRANCH  15  22
ATOM     22  O   UNL     1       5.505 -20.275  37.063  1.00  0.00    -0.508 OA
ATOM     23  H   UNL     1       5.276 -19.386  37.492  1.00  0.00     0.293 HD
ENDBRANCH  15  22
TORSDOF 3
ENDMDL
MODEL 4
REMARK VINA RESULT:    -5.790      1.982      4.039
REMARK INTER + INTRA:          -6.298
REMARK INTER:                  -6.298
REMARK INTRA:                   0.000
REMARK UNBOUND:                 0.000
REMARK SMILES Cc1cc(O)c2c(c1)C(=O)c1cc(O)cc(O)c1C2=O
REMARK SMILES IDX 1 1 2 2 8 3 7 4 6 5 4 6 3 7 19 8 20 9 18 10 11 11 9 12 10 13
REMARK SMILES IDX 12 14 13 15 15 16 16 17 5 18 17 20 14 22
REMARK H PARENT 5 19 17 21 14 23
REMARK Flexibility Score: inf
ROOT
ATOM      1  C   UNL     1       2.755 -19.974  38.125  1.00  0.00     0.044 C 
ATOM      2  C   UNL     1       3.825 -20.298  37.124  1.00  0.00    -0.047 A 
ATOM      3  C   UNL     1       3.932 -19.556  35.943  1.00  0.00     0.016 A 
ATOM      4  C   UNL     1       4.913 -19.869  34.986  1.00  0.00     0.038 A 
ATOM      5  C   UNL     1       5.800 -20.944  35.216  1.00  0.00     0.076 A 
ATOM      6  C   UNL     1       5.632 -21.745  36.374  1.00  0.00     0.127 A 
ATOM      7  C   UNL     1       4.662 -21.401  37.321  1.00  0.00     0.050 A 
ATOM      8  C   UNL     1       6.915 -21.152  34.255  1.00  0.00     0.201 C 
ATOM      9  O   UNL     1       8.001 -21.651  34.654  1.00  0.00    -0.288 OA
ATOM     10  C   UNL     1       6.816 -20.600  32.879  1.00  0.00     0.076 A 
ATOM     11  C   UNL     1       5.924 -19.527  32.653  1.00  0.00     0.041 A 
ATOM     12  C   UNL     1       5.015 -19.082  33.735  1.00  0.00     0.194 C 
ATOM     13  O   UNL     1       4.309 -18.047  33.580  1.00  0.00    -0.289 OA
ATOM     14  C   UNL     1       5.902 -18.889  31.400  1.00  0.00     0.059 A 
ATOM     15  C   UNL     1       6.744 -19.319  30.371  1.00  0.00     0.120 A 
ATOM     16  C   UNL     1       7.595 -20.403  30.579  1.00  0.00     0.093 A 
ATOM     17  C   UNL     1       7.623 -21.068  31.808  1.00  0.00     0.131 A 
ENDROOT
BRANCH   6  18
ATOM     18  O   UNL     1       6.376 -22.904  36.606  1.00  0.00    -0.507 OA
ATOM     19  H   UNL     1       7.207 -22.928  37.181  1.00  0.00     0.293 HD
ENDBRANCH   6  18
BRANCH  17  20
ATOM     20  O   UNL     1       8.433 -22.201  31.912  1.00  0.00    -0.507 OA
ATOM     21  H   UNL     1       9.185 -22.291  32.580  1.00  0.00     0.293 HD
ENDBRANCH  17  20
BRANCH  15  22
ATOM     22  O   UNL     1       6.734 -18.681  29.132  1.00  0.00    -0.508 OA
ATOM     23  H   UNL     1       7.591 -18.494  28.625  1.00  0.00     0.293 HD
ENDBRANCH  15  22
TORSDOF 3
ENDMDL
MODEL 5
REMARK VINA RESULT:    -5.345     14.544     16.550
REMARK INTER + INTRA:          -5.813
REMARK INTER:                  -5.813
REMARK INTRA:                   0.000
REMARK UNBOUND:                 0.000
REMARK SMILES Cc1cc(O)c2c(c1)C(=O)c1cc(O)cc(O)c1C2=O
REMARK SMILES IDX 1 1 2 2 8 3 7 4 6 5 4 6 3 7 19 8 20 9 18 10 11 11 9 12 10 13
REMARK SMILES IDX 12 14 13 15 15 16 16 17 5 18 17 20 14 22
REMARK H PARENT 5 19 17 21 14 23
REMARK Flexibility Score: inf
ROOT
ATOM      1  C   UNL     1       2.386  -8.070  20.303  1.00  0.00     0.044 C 
ATOM      2  C   UNL     1       2.205  -9.549  20.484  1.00  0.00    -0.047 A 
ATOM      3  C   UNL     1       0.962 -10.141  20.239  1.00  0.00     0.016 A 
ATOM      4  C   UNL     1       0.775 -11.521  20.432  1.00  0.00     0.038 A 
ATOM      5  C   UNL     1       1.851 -12.319  20.880  1.00  0.00     0.076 A 
ATOM      6  C   UNL     1       3.084 -11.699  21.208  1.00  0.00     0.127 A 
ATOM      7  C   UNL     1       3.251 -10.328  20.987  1.00  0.00     0.050 A 
ATOM      8  C   UNL     1       1.659 -13.792  20.931  1.00  0.00     0.201 C 
ATOM      9  O   UNL     1       2.643 -14.559  20.754  1.00  0.00    -0.288 OA
ATOM     10  C   UNL     1       0.285 -14.355  21.001  1.00  0.00     0.076 A 
ATOM     11  C   UNL     1      -0.789 -13.551  20.555  1.00  0.00     0.041 A 
ATOM     12  C   UNL     1      -0.547 -12.139  20.177  1.00  0.00     0.194 C 
ATOM     13  O   UNL     1      -1.474 -11.456  19.660  1.00  0.00    -0.289 OA
ATOM     14  C   UNL     1      -2.083 -14.095  20.477  1.00  0.00     0.059 A 
ATOM     15  C   UNL     1      -2.319 -15.421  20.851  1.00  0.00     0.120 A 
ATOM     16  C   UNL     1      -1.269 -16.203  21.329  1.00  0.00     0.093 A 
ATOM     17  C   UNL     1       0.024 -15.681  21.436  1.00  0.00     0.131 A 
ENDROOT
BRANCH   6  18
ATOM     18  O   UNL     1       4.149 -12.395  21.784  1.00  0.00    -0.507 OA
ATOM     19  H   UNL     1       4.043 -13.271  22.277  1.00  0.00     0.293 HD
ENDBRANCH   6  18
BRANCH  17  20
ATOM     20  O   UNL     1       1.003 -16.495  22.009  1.00  0.00    -0.507 OA
ATOM     21  H   UNL     1       1.060 -17.492  21.858  1.00  0.00     0.293 HD
ENDBRANCH  17  20
BRANCH  15  22
ATOM     22  O   UNL     1      -3.598 -15.967  20.763  1.00  0.00    -0.508 OA
ATOM     23  H   UNL     1      -4.406 -15.393  20.556  1.00  0.00     0.293 HD
ENDBRANCH  15  22
TORSDOF 3
ENDMDL
MODEL 6
REMARK VINA RESULT:    -5.338     14.448     16.642
REMARK INTER + INTRA:          -5.806
REMARK INTER:                  -5.806
REMARK INTRA:                   0.000
REMARK UNBOUND:                 0.000
REMARK SMILES Cc1cc(O)c2c(c1)C(=O)c1cc(O)cc(O)c1C2=O
REMARK SMILES IDX 1 1 2 2 8 3 7 4 6 5 4 6 3 7 19 8 20 9 18 10 11 11 9 12 10 13
REMARK SMILES IDX 12 14 13 15 15 16 16 17 5 18 17 20 14 22
REMARK H PARENT 5 19 17 21 14 23
REMARK Flexibility Score: inf
ROOT
ATOM      1  C   UNL     1       3.607 -14.628  19.604  1.00  0.00     0.044 C 
ATOM      2  C   UNL     1       2.222 -14.395  20.132  1.00  0.00    -0.047 A 
ATOM      3  C   UNL     1       1.549 -13.203  19.842  1.00  0.00     0.016 A 
ATOM      4  C   UNL     1       0.263 -12.963  20.355  1.00  0.00     0.038 A 
ATOM      5  C   UNL     1      -0.359 -13.933  21.173  1.00  0.00     0.076 A 
ATOM      6  C   UNL     1       0.362 -15.100  21.533  1.00  0.00     0.127 A 
ATOM      7  C   UNL     1       1.632 -15.326  20.993  1.00  0.00     0.050 A 
ATOM      8  C   UNL     1      -1.772 -13.711  21.575  1.00  0.00     0.201 C 
ATOM      9  O   UNL     1      -2.529 -14.698  21.776  1.00  0.00    -0.288 OA
ATOM     10  C   UNL     1      -2.338 -12.337  21.554  1.00  0.00     0.076 A 
ATOM     11  C   UNL     1      -1.711 -11.369  20.737  1.00  0.00     0.041 A 
ATOM     12  C   UNL     1      -0.440 -11.695  20.048  1.00  0.00     0.194 C 
ATOM     13  O   UNL     1       0.056 -10.883  19.220  1.00  0.00    -0.289 OA
ATOM     14  C   UNL     1      -2.295 -10.100  20.583  1.00  0.00     0.059 A 
ATOM     15  C   UNL     1      -3.483  -9.781  21.245  1.00  0.00     0.120 A 
ATOM     16  C   UNL     1      -4.082 -10.720  22.085  1.00  0.00     0.093 A 
ATOM     17  C   UNL     1      -3.512 -11.983  22.270  1.00  0.00     0.131 A 
ENDROOT
BRANCH   6  18
ATOM     18  O   UNL     1      -0.126 -16.039  22.445  1.00  0.00    -0.507 OA
ATOM     19  H   UNL     1       0.357 -16.295  23.295  1.00  0.00     0.293 HD
ENDBRANCH   6  18
BRANCH  17  20
ATOM     20  O   UNL     1      -4.118 -12.835  23.195  1.00  0.00    -0.507 OA
ATOM     21  H   UNL     1      -3.662 -13.645  23.592  1.00  0.00     0.293 HD
ENDBRANCH  17  20
BRANCH  15  22
ATOM     22  O   UNL     1      -4.072  -8.528  21.086  1.00  0.00    -0.508 OA
ATOM     23  H   UNL     1      -4.176  -7.889  21.865  1.00  0.00     0.293 HD
ENDBRANCH  15  22
TORSDOF 3
ENDMDL
MODEL 7
REMARK VINA RESULT:    -5.268     13.903     16.523
REMARK INTER + INTRA:          -5.730
REMARK INTER:                  -5.730
REMARK INTRA:                   0.000
REMARK UNBOUND:                 0.000
REMARK SMILES Cc1cc(O)c2c(c1)C(=O)c1cc(O)cc(O)c1C2=O
REMARK SMILES IDX 1 1 2 2 8 3 7 4 6 5 4 6 3 7 19 8 20 9 18 10 11 11 9 12 10 13
REMARK SMILES IDX 12 14 13 15 15 16 16 17 5 18 17 20 14 22
REMARK H PARENT 5 19 17 21 14 23
REMARK Flexibility Score: inf
ROOT
ATOM      1  C   UNL     1       0.016 -17.988  22.452  1.00  0.00     0.044 C 
ATOM      2  C   UNL     1       0.122 -16.580  21.942  1.00  0.00    -0.047 A 
ATOM      3  C   UNL     1      -0.895 -15.656  22.209  1.00  0.00     0.016 A 
ATOM      4  C   UNL     1      -0.819 -14.344  21.712  1.00  0.00     0.038 A 
ATOM      5  C   UNL     1       0.294 -13.950  20.935  1.00  0.00     0.076 A 
ATOM      6  C   UNL     1       1.278 -14.914  20.598  1.00  0.00     0.127 A 
ATOM      7  C   UNL     1       1.191 -16.208  21.120  1.00  0.00     0.050 A 
ATOM      8  C   UNL     1       0.413 -12.519  20.553  1.00  0.00     0.201 C 
ATOM      9  O   UNL     1       1.552 -12.005  20.396  1.00  0.00    -0.288 OA
ATOM     10  C   UNL     1      -0.797 -11.655  20.544  1.00  0.00     0.076 A 
ATOM     11  C   UNL     1      -1.908 -12.054  21.320  1.00  0.00     0.041 A 
ATOM     12  C   UNL     1      -1.903 -13.374  21.994  1.00  0.00     0.194 C 
ATOM     13  O   UNL     1      -2.834 -13.681  22.788  1.00  0.00    -0.289 OA
ATOM     14  C   UNL     1      -3.016 -11.199  21.446  1.00  0.00     0.059 A 
ATOM     15  C   UNL     1      -3.034  -9.961  20.796  1.00  0.00     0.120 A 
ATOM     16  C   UNL     1      -1.956  -9.583  19.997  1.00  0.00     0.093 A 
ATOM     17  C   UNL     1      -0.850 -10.424  19.838  1.00  0.00     0.131 A 
ENDROOT
BRANCH   6  18
ATOM     18  O   UNL     1       2.333 -14.642  19.723  1.00  0.00    -0.507 OA
ATOM     19  H   UNL     1       2.239 -14.068  18.897  1.00  0.00     0.293 HD
ENDBRANCH   6  18
BRANCH  17  20
ATOM     20  O   UNL     1       0.148 -10.017  18.951  1.00  0.00    -0.507 OA
ATOM     21  H   UNL     1      -0.024  -9.790  17.982  1.00  0.00     0.293 HD
ENDBRANCH  17  20
BRANCH  15  22
ATOM     22  O   UNL     1      -4.125  -9.105  20.928  1.00  0.00    -0.508 OA
ATOM     23  H   UNL     1      -4.057  -8.121  20.697  1.00  0.00     0.293 HD
ENDBRANCH  15  22
TORSDOF 3
ENDMDL
MODEL 8
REMARK VINA RESULT:    -5.223     14.543     17.372
REMARK INTER + INTRA:          -5.681
REMARK INTER:                  -5.681
REMARK INTRA:                   0.000
REMARK UNBOUND:                 0.000
REMARK SMILES Cc1cc(O)c2c(c1)C(=O)c1cc(O)cc(O)c1C2=O
REMARK SMILES IDX 1 1 2 2 8 3 7 4 6 5 4 6 3 7 19 8 20 9 18 10 11 11 9 12 10 13
REMARK SMILES IDX 12 14 13 15 15 16 16 17 5 18 17 20 14 22
REMARK H PARENT 5 19 17 21 14 23
REMARK Flexibility Score: inf
ROOT
ATOM      1  C   UNL     1       2.265  -8.441  19.337  1.00  0.00     0.044 C 
ATOM      2  C   UNL     1       1.150  -9.375  19.703  1.00  0.00    -0.047 A 
ATOM      3  C   UNL     1       1.432 -10.613  20.290  1.00  0.00     0.016 A 
ATOM      4  C   UNL     1       0.396 -11.507  20.611  1.00  0.00     0.038 A 
ATOM      5  C   UNL     1      -0.944 -11.156  20.339  1.00  0.00     0.076 A 
ATOM      6  C   UNL     1      -1.217  -9.936  19.667  1.00  0.00     0.127 A 
ATOM      7  C   UNL     1      -0.172  -9.055  19.376  1.00  0.00     0.050 A 
ATOM      8  C   UNL     1      -2.020 -12.058  20.826  1.00  0.00     0.201 C 
ATOM      9  O   UNL     1      -3.145 -11.583  21.134  1.00  0.00    -0.288 OA
ATOM     10  C   UNL     1      -1.710 -13.480  21.125  1.00  0.00     0.076 A 
ATOM     11  C   UNL     1      -0.367 -13.829  21.394  1.00  0.00     0.041 A 
ATOM     12  C   UNL     1       0.705 -12.820  21.226  1.00  0.00     0.194 C 
ATOM     13  O   UNL     1       1.885 -13.087  21.585  1.00  0.00    -0.289 OA
ATOM     14  C   UNL     1      -0.054 -15.132  21.815  1.00  0.00     0.059 A 
ATOM     15  C   UNL     1      -1.059 -16.093  21.955  1.00  0.00     0.120 A 
ATOM     16  C   UNL     1      -2.380 -15.764  21.652  1.00  0.00     0.093 A 
ATOM     17  C   UNL     1      -2.715 -14.480  21.212  1.00  0.00     0.131 A 
ENDROOT
BRANCH   6  18
ATOM     18  O   UNL     1      -2.499  -9.580  19.240  1.00  0.00    -0.507 OA
ATOM     19  H   UNL     1      -3.346  -9.953  19.646  1.00  0.00     0.293 HD
ENDBRANCH   6  18
BRANCH  17  20
ATOM     20  O   UNL     1      -4.042 -14.251  20.840  1.00  0.00    -0.507 OA
ATOM     21  H   UNL     1      -4.780 -14.049  21.499  1.00  0.00     0.293 HD
ENDBRANCH  17  20
BRANCH  15  22
ATOM     22  O   UNL     1      -0.755 -17.383  22.384  1.00  0.00    -0.508 OA
ATOM     23  H   UNL     1      -0.026 -17.556  23.066  1.00  0.00     0.293 HD
ENDBRANCH  15  22
TORSDOF 3
ENDMDL
MODEL 9
REMARK VINA RESULT:    -5.206     15.136     16.090
REMARK INTER + INTRA:          -5.662
REMARK INTER:                  -5.662
REMARK INTRA:                   0.000
REMARK UNBOUND:                 0.000
REMARK SMILES Cc1cc(O)c2c(c1)C(=O)c1cc(O)cc(O)c1C2=O
REMARK SMILES IDX 1 1 2 2 8 3 7 4 6 5 4 6 3 7 19 8 20 9 18 10 11 11 9 12 10 13
REMARK SMILES IDX 12 14 13 15 15 16 16 17 5 18 17 20 14 22
REMARK H PARENT 5 19 17 21 14 23
REMARK Flexibility Score: inf
ROOT
ATOM      1  C   UNL     1      -3.420 -13.117  22.763  1.00  0.00     0.044 C 
ATOM      2  C   UNL     1      -2.363 -13.961  22.114  1.00  0.00    -0.047 A 
ATOM      3  C   UNL     1      -1.152 -13.387  21.711  1.00  0.00     0.016 A 
ATOM      4  C   UNL     1      -0.167 -14.164  21.077  1.00  0.00     0.038 A 
ATOM      5  C   UNL     1      -0.399 -15.537  20.842  1.00  0.00     0.076 A 
ATOM      6  C   UNL     1      -1.660 -16.093  21.176  1.00  0.00     0.127 A 
ATOM      7  C   UNL     1      -2.616 -15.306  21.825  1.00  0.00     0.050 A 
ATOM      8  C   UNL     1       0.720 -16.357  20.306  1.00  0.00     0.201 C 
ATOM      9  O   UNL     1       0.798 -17.579  20.600  1.00  0.00    -0.288 OA
ATOM     10  C   UNL     1       1.838 -15.696  19.585  1.00  0.00     0.076 A 
ATOM     11  C   UNL     1       2.064 -14.321  19.820  1.00  0.00     0.041 A 
ATOM     12  C   UNL     1       1.110 -13.546  20.647  1.00  0.00     0.194 C 
ATOM     13  O   UNL     1       1.372 -12.353  20.964  1.00  0.00    -0.289 OA
ATOM     14  C   UNL     1       3.193 -13.693  19.265  1.00  0.00     0.059 A 
ATOM     15  C   UNL     1       4.085 -14.415  18.468  1.00  0.00     0.120 A 
ATOM     16  C   UNL     1       3.843 -15.762  18.200  1.00  0.00     0.093 A 
ATOM     17  C   UNL     1       2.717 -16.405  18.724  1.00  0.00     0.131 A 
ENDROOT
BRANCH   6  18
ATOM     18  O   UNL     1      -2.017 -17.405  20.852  1.00  0.00    -0.507 OA
ATOM     19  H   UNL     1      -2.944 -17.782  20.994  1.00  0.00     0.293 HD
ENDBRANCH   6  18
BRANCH  17  20
ATOM     20  O   UNL     1       2.493 -17.728  18.339  1.00  0.00    -0.507 OA
ATOM     21  H   UNL     1       1.826 -17.998  17.629  1.00  0.00     0.293 HD
ENDBRANCH  17  20
BRANCH  15  22
ATOM     22  O   UNL     1       5.212 -13.799  17.925  1.00  0.00    -0.508 OA
ATOM     23  H   UNL     1       6.010 -14.338  17.611  1.00  0.00     0.293 HD
ENDBRANCH  15  22
TORSDOF 3
ENDMDL
