MODEL 1
REMARK VINA RESULT:    -4.297      0.000      0.000
REMARK INTER + INTRA:         -12.392
REMARK INTER:                 -10.828
REMARK INTRA:                  -1.564
REMARK UNBOUND:                -1.564
REMARK SMILES CCCCCCCCCCCCCCCCCCCCCCCCCCCC(=O)[O-]
REMARK SMILES IDX 15 1 16 2 17 3 18 4 19 5 20 6 21 7 22 8 23 9 24 10 25 11
REMARK SMILES IDX 26 12 27 13 28 14 29 15 30 16 14 17 13 18 12 19 11 20 10 21
REMARK SMILES IDX 9 22 8 23 7 24 6 25 5 26 4 27 3 28 2 29 1 30
REMARK H PARENT
REMARK Flexibility Score: inf
ROOT
ATOM      1  C   UNL     1      48.067   5.202  16.030  1.00  0.00     0.000 C 
ENDROOT
BRANCH   1   2
ATOM      2  C   UNL     1      46.969   5.999  16.752  1.00  0.00     0.000 C 
BRANCH   2   3
ATOM      3  C   UNL     1      46.123   6.859  15.794  1.00  0.00     0.000 C 
BRANCH   3   4
ATOM      4  C   UNL     1      44.640   6.898  16.195  1.00  0.00     0.000 C 
BRANCH   4   5
ATOM      5  C   UNL     1      44.169   8.315  16.568  1.00  0.00     0.000 C 
BRANCH   5   6
ATOM      6  C   UNL     1      45.185   9.401  16.183  1.00  0.00     0.000 C 
BRANCH   6   7
ATOM      7  C   UNL     1      45.046  10.671  17.038  1.00  0.00     0.000 C 
BRANCH   7   8
ATOM      8  C   UNL     1      44.718  10.321  18.494  1.00  0.00     0.000 C 
BRANCH   8   9
ATOM      9  C   UNL     1      45.985   9.905  19.259  1.00  0.00     0.000 C 
BRANCH   9  10
ATOM     10  C   UNL     1      46.097   8.383  19.452  1.00  0.00     0.000 C 
BRANCH  10  11
ATOM     11  C   UNL     1      45.976   7.905  20.911  1.00  0.00     0.000 C 
BRANCH  11  12
ATOM     12  C   UNL     1      46.489   8.938  21.925  1.00  0.00     0.006 C 
BRANCH  12  13
ATOM     13  C   UNL     1      46.502   8.353  23.342  1.00  0.00     0.053 C 
BRANCH  13  14
ATOM     14  C   UNL     1      45.544   9.085  24.228  1.00  0.00     0.041 C 
ATOM     15  O   UNL     1      45.148  10.240  23.917  1.00  0.00    -0.550 OA
ATOM     16  O   UNL     1      45.076   8.486  25.392  1.00  0.00    -0.550 OA
ENDBRANCH  13  14
ENDBRANCH  12  13
ENDBRANCH  11  12
ENDBRANCH  10  11
ENDBRANCH   9  10
ENDBRANCH   8   9
ENDBRANCH   7   8
ENDBRANCH   6   7
ENDBRANCH   5   6
ENDBRANCH   4   5
ENDBRANCH   3   4
ENDBRANCH   2   3
ENDBRANCH   1   2
BRANCH   1  17
ATOM     17  C   UNL     1      47.852   5.010  14.515  1.00  0.00     0.000 C 
BRANCH  17  18
ATOM     18  C   UNL     1      47.661   3.539  14.082  1.00  0.00     0.000 C 
BRANCH  18  19
ATOM     19  C   UNL     1      46.183   3.175  13.875  1.00  0.00     0.000 C 
BRANCH  19  20
ATOM     20  C   UNL     1      45.973   1.654  13.892  1.00  0.00     0.000 C 
BRANCH  20  21
ATOM     21  C   UNL     1      44.529   1.258  14.246  1.00  0.00     0.000 C 
BRANCH  21  22
ATOM     22  C   UNL     1      44.240  -0.256  14.210  1.00  0.00    -0.000 C 
BRANCH  22  23
ATOM     23  C   UNL     1      45.483  -1.159  14.300  1.00  0.00    -0.000 C 
BRANCH  23  24
ATOM     24  C   UNL     1      45.136  -2.609  14.678  1.00  0.00    -0.000 C 
BRANCH  24  25
ATOM     25  C   UNL     1      46.254  -3.285  15.490  1.00  0.00    -0.000 C 
BRANCH  25  26
ATOM     26  C   UNL     1      47.541  -2.442  15.525  1.00  0.00    -0.000 C 
BRANCH  26  27
ATOM     27  C   UNL     1      48.598  -3.003  16.492  1.00  0.00    -0.000 C 
BRANCH  27  28
ATOM     28  C   UNL     1      48.124  -4.180  17.364  1.00  0.00    -0.000 C 
BRANCH  28  29
ATOM     29  C   UNL     1      48.131  -5.520  16.615  1.00  0.00    -0.003 C 
ATOM     30  C   UNL     1      49.439  -6.273  16.846  1.00  0.00     0.004 C 
ENDBRANCH  28  29
ENDBRANCH  27  28
ENDBRANCH  26  27
ENDBRANCH  25  26
ENDBRANCH  24  25
ENDBRANCH  23  24
ENDBRANCH  22  23
ENDBRANCH  21  22
ENDBRANCH  20  21
ENDBRANCH  19  20
ENDBRANCH  18  19
ENDBRANCH  17  18
ENDBRANCH   1  17
TORSDOF 26
ENDMDL
MODEL 2
REMARK VINA RESULT:    -4.183      5.059      7.594
REMARK INTER + INTRA:         -12.106
REMARK INTER:                  -9.961
REMARK INTRA:                  -2.145
REMARK UNBOUND:                -1.564
REMARK SMILES CCCCCCCCCCCCCCCCCCCCCCCCCCCC(=O)[O-]
REMARK SMILES IDX 15 1 16 2 17 3 18 4 19 5 20 6 21 7 22 8 23 9 24 10 25 11
REMARK SMILES IDX 26 12 27 13 28 14 29 15 30 16 14 17 13 18 12 19 11 20 10 21
REMARK SMILES IDX 9 22 8 23 7 24 6 25 5 26 4 27 3 28 2 29 1 30
REMARK H PARENT
REMARK Flexibility Score: inf
ROOT
ATOM      1  C   UNL     1      47.033   6.160  20.510  1.00  0.00     0.000 C 
ENDROOT
BRANCH   1   2
ATOM      2  C   UNL     1      47.746   6.237  21.870  1.00  0.00     0.000 C 
BRANCH   2   3
ATOM      3  C   UNL     1      47.317   7.459  22.705  1.00  0.00     0.000 C 
BRANCH   3   4
ATOM      4  C   UNL     1      48.486   8.417  22.986  1.00  0.00     0.000 C 
BRANCH   4   5
ATOM      5  C   UNL     1      48.099   9.892  22.779  1.00  0.00     0.000 C 
BRANCH   5   6
ATOM      6  C   UNL     1      47.080  10.391  23.814  1.00  0.00     0.000 C 
BRANCH   6   7
ATOM      7  C   UNL     1      45.890  11.120  23.170  1.00  0.00     0.000 C 
BRANCH   7   8
ATOM      8  C   UNL     1      45.683  10.661  21.722  1.00  0.00     0.000 C 
BRANCH   8   9
ATOM      9  C   UNL     1      44.228  10.222  21.487  1.00  0.00     0.000 C 
BRANCH   9  10
ATOM     10  C   UNL     1      43.956   8.776  21.939  1.00  0.00     0.000 C 
BRANCH  10  11
ATOM     11  C   UNL     1      43.858   8.582  23.463  1.00  0.00     0.000 C 
BRANCH  11  12
ATOM     12  C   UNL     1      42.759   9.440  24.107  1.00  0.00     0.006 C 
BRANCH  12  13
ATOM     13  C   UNL     1      42.836   9.370  25.636  1.00  0.00     0.053 C 
BRANCH  13  14
ATOM     14  C   UNL     1      44.254   9.472  26.102  1.00  0.00     0.041 C 
ATOM     15  O   UNL     1      44.963   8.435  26.207  1.00  0.00    -0.550 OA
ATOM     16  O   UNL     1      44.799  10.713  26.409  1.00  0.00    -0.550 OA
ENDBRANCH  13  14
ENDBRANCH  12  13
ENDBRANCH  11  12
ENDBRANCH  10  11
ENDBRANCH   9  10
ENDBRANCH   8   9
ENDBRANCH   7   8
ENDBRANCH   6   7
ENDBRANCH   5   6
ENDBRANCH   4   5
ENDBRANCH   3   4
ENDBRANCH   2   3
ENDBRANCH   1   2
BRANCH   1  17
ATOM     17  C   UNL     1      46.667   7.521  19.882  1.00  0.00     0.000 C 
BRANCH  17  18
ATOM     18  C   UNL     1      45.939   7.417  18.523  1.00  0.00     0.000 C 
BRANCH  18  19
ATOM     19  C   UNL     1      45.030   8.625  18.251  1.00  0.00     0.000 C 
BRANCH  19  20
ATOM     20  C   UNL     1      45.852   9.895  17.984  1.00  0.00     0.000 C 
BRANCH  20  21
ATOM     21  C   UNL     1      46.526   9.884  16.600  1.00  0.00     0.000 C 
BRANCH  21  22
ATOM     22  C   UNL     1      45.596  10.229  15.419  1.00  0.00    -0.000 C 
BRANCH  22  23
ATOM     23  C   UNL     1      46.046   9.680  14.054  1.00  0.00    -0.000 C 
BRANCH  23  24
ATOM     24  C   UNL     1      45.717   8.188  13.879  1.00  0.00    -0.000 C 
BRANCH  24  25
ATOM     25  C   UNL     1      44.558   7.734  14.782  1.00  0.00    -0.000 C 
BRANCH  25  26
ATOM     26  C   UNL     1      44.114   6.292  14.480  1.00  0.00    -0.000 C 
BRANCH  26  27
ATOM     27  C   UNL     1      45.279   5.287  14.514  1.00  0.00    -0.000 C 
BRANCH  27  28
ATOM     28  C   UNL     1      46.660   5.880  14.179  1.00  0.00    -0.000 C 
BRANCH  28  29
ATOM     29  C   UNL     1      47.800   5.227  14.975  1.00  0.00    -0.003 C 
ATOM     30  C   UNL     1      47.562   5.349  16.478  1.00  0.00     0.004 C 
ENDBRANCH  28  29
ENDBRANCH  27  28
ENDBRANCH  26  27
ENDBRANCH  25  26
ENDBRANCH  24  25
ENDBRANCH  23  24
ENDBRANCH  22  23
ENDBRANCH  21  22
ENDBRANCH  20  21
ENDBRANCH  19  20
ENDBRANCH  18  19
ENDBRANCH  17  18
ENDBRANCH   1  17
TORSDOF 26
ENDMDL
MODEL 3
REMARK VINA RESULT:    -4.138      1.498      2.167
REMARK INTER + INTRA:         -11.993
REMARK INTER:                 -10.478
REMARK INTRA:                  -1.514
REMARK UNBOUND:                -1.564
REMARK SMILES CCCCCCCCCCCCCCCCCCCCCCCCCCCC(=O)[O-]
REMARK SMILES IDX 15 1 16 2 17 3 18 4 19 5 20 6 21 7 22 8 23 9 24 10 25 11
REMARK SMILES IDX 26 12 27 13 28 14 29 15 30 16 14 17 13 18 12 19 11 20 10 21
REMARK SMILES IDX 9 22 8 23 7 24 6 25 5 26 4 27 3 28 2 29 1 30
REMARK H PARENT
REMARK Flexibility Score: inf
ROOT
ATOM      1  C   UNL     1      47.656   4.337  14.666  1.00  0.00     0.000 C 
ENDROOT
BRANCH   1   2
ATOM      2  C   UNL     1      46.716   5.506  14.327  1.00  0.00     0.000 C 
BRANCH   2   3
ATOM      3  C   UNL     1      46.307   6.325  15.566  1.00  0.00     0.000 C 
BRANCH   3   4
ATOM      4  C   UNL     1      46.904   7.741  15.557  1.00  0.00     0.000 C 
BRANCH   4   5
ATOM      5  C   UNL     1      45.944   8.789  16.147  1.00  0.00     0.000 C 
BRANCH   5   6
ATOM      6  C   UNL     1      44.572   8.200  16.510  1.00  0.00     0.000 C 
BRANCH   6   7
ATOM      7  C   UNL     1      44.155   8.518  17.955  1.00  0.00     0.000 C 
BRANCH   7   8
ATOM      8  C   UNL     1      43.427   9.864  18.034  1.00  0.00     0.000 C 
BRANCH   8   9
ATOM      9  C   UNL     1      43.771  10.599  19.339  1.00  0.00     0.000 C 
BRANCH   9  10
ATOM     10  C   UNL     1      44.961   9.972  20.086  1.00  0.00     0.000 C 
BRANCH  10  11
ATOM     11  C   UNL     1      44.801   9.901  21.616  1.00  0.00     0.000 C 
BRANCH  11  12
ATOM     12  C   UNL     1      45.073   8.501  22.184  1.00  0.00     0.006 C 
BRANCH  12  13
ATOM     13  C   UNL     1      46.199   7.806  21.411  1.00  0.00     0.053 C 
BRANCH  13  14
ATOM     14  C   UNL     1      47.445   7.735  22.236  1.00  0.00     0.041 C 
ATOM     15  O   UNL     1      48.247   6.773  22.093  1.00  0.00    -0.550 OA
ATOM     16  O   UNL     1      47.730   8.738  23.156  1.00  0.00    -0.550 OA
ENDBRANCH  13  14
ENDBRANCH  12  13
ENDBRANCH  11  12
ENDBRANCH  10  11
ENDBRANCH   9  10
ENDBRANCH   8   9
ENDBRANCH   7   8
ENDBRANCH   6   7
ENDBRANCH   5   6
ENDBRANCH   4   5
ENDBRANCH   3   4
ENDBRANCH   2   3
ENDBRANCH   1   2
BRANCH   1  17
ATOM     17  C   UNL     1      47.400   3.037  13.875  1.00  0.00     0.000 C 
BRANCH  17  18
ATOM     18  C   UNL     1      45.925   2.576  13.875  1.00  0.00     0.000 C 
BRANCH  18  19
ATOM     19  C   UNL     1      45.779   1.078  14.182  1.00  0.00     0.000 C 
BRANCH  19  20
ATOM     20  C   UNL     1      44.303   0.674  14.309  1.00  0.00     0.000 C 
BRANCH  20  21
ATOM     21  C   UNL     1      44.048  -0.783  13.886  1.00  0.00     0.000 C 
BRANCH  21  22
ATOM     22  C   UNL     1      44.081  -1.811  15.036  1.00  0.00    -0.000 C 
BRANCH  22  23
ATOM     23  C   UNL     1      45.023  -3.008  14.813  1.00  0.00    -0.000 C 
BRANCH  23  24
ATOM     24  C   UNL     1      46.475  -2.578  14.551  1.00  0.00    -0.000 C 
BRANCH  24  25
ATOM     25  C   UNL     1      47.004  -1.614  15.628  1.00  0.00    -0.000 C 
BRANCH  25  26
ATOM     26  C   UNL     1      46.897  -2.207  17.043  1.00  0.00    -0.000 C 
BRANCH  26  27
ATOM     27  C   UNL     1      47.424  -3.650  17.129  1.00  0.00    -0.000 C 
BRANCH  27  28
ATOM     28  C   UNL     1      48.826  -3.868  16.532  1.00  0.00    -0.000 C 
BRANCH  28  29
ATOM     29  C   UNL     1      49.316  -5.317  16.669  1.00  0.00    -0.003 C 
ATOM     30  C   UNL     1      48.149  -6.271  16.918  1.00  0.00     0.004 C 
ENDBRANCH  28  29
ENDBRANCH  27  28
ENDBRANCH  26  27
ENDBRANCH  25  26
ENDBRANCH  24  25
ENDBRANCH  23  24
ENDBRANCH  22  23
ENDBRANCH  21  22
ENDBRANCH  20  21
ENDBRANCH  19  20
ENDBRANCH  18  19
ENDBRANCH  17  18
ENDBRANCH   1  17
TORSDOF 26
ENDMDL
MODEL 4
REMARK VINA RESULT:    -3.974      4.722      7.553
REMARK INTER + INTRA:         -11.578
REMARK INTER:                  -8.125
REMARK INTRA:                  -3.454
REMARK UNBOUND:                -1.564
REMARK SMILES CCCCCCCCCCCCCCCCCCCCCCCCCCCC(=O)[O-]
REMARK SMILES IDX 15 1 16 2 17 3 18 4 19 5 20 6 21 7 22 8 23 9 24 10 25 11
REMARK SMILES IDX 26 12 27 13 28 14 29 15 30 16 14 17 13 18 12 19 11 20 10 21
REMARK SMILES IDX 9 22 8 23 7 24 6 25 5 26 4 27 3 28 2 29 1 30
REMARK H PARENT
REMARK Flexibility Score: inf
ROOT
ATOM      1  C   UNL     1      44.651   8.883  19.900  1.00  0.00     0.000 C 
ENDROOT
BRANCH   1   2
ATOM      2  C   UNL     1      44.800  10.198  20.683  1.00  0.00     0.000 C 
BRANCH   2   3
ATOM      3  C   UNL     1      43.445  10.831  21.056  1.00  0.00     0.000 C 
BRANCH   3   4
ATOM      4  C   UNL     1      43.272  10.992  22.574  1.00  0.00     0.000 C 
BRANCH   4   5
ATOM      5  C   UNL     1      43.308   9.644  23.316  1.00  0.00     0.000 C 
BRANCH   5   6
ATOM      6  C   UNL     1      42.789   9.745  24.759  1.00  0.00     0.000 C 
BRANCH   6   7
ATOM      7  C   UNL     1      43.923   9.743  25.797  1.00  0.00     0.000 C 
BRANCH   7   8
ATOM      8  C   UNL     1      44.612  11.110  25.862  1.00  0.00     0.000 C 
BRANCH   8   9
ATOM      9  C   UNL     1      46.115  10.983  25.566  1.00  0.00     0.000 C 
BRANCH   9  10
ATOM     10  C   UNL     1      46.445  11.114  24.068  1.00  0.00     0.000 C 
BRANCH  10  11
ATOM     11  C   UNL     1      47.590  10.211  23.577  1.00  0.00     0.000 C 
BRANCH  11  12
ATOM     12  C   UNL     1      47.130   8.783  23.247  1.00  0.00     0.006 C 
BRANCH  12  13
ATOM     13  C   UNL     1      47.646   8.346  21.872  1.00  0.00     0.053 C 
BRANCH  13  14
ATOM     14  C   UNL     1      47.630   6.855  21.748  1.00  0.00     0.041 C 
ATOM     15  O   UNL     1      48.381   6.150  22.474  1.00  0.00    -0.550 OA
ATOM     16  O   UNL     1      46.776   6.240  20.839  1.00  0.00    -0.550 OA
ENDBRANCH  13  14
ENDBRANCH  12  13
ENDBRANCH  11  12
ENDBRANCH  10  11
ENDBRANCH   9  10
ENDBRANCH   8   9
ENDBRANCH   7   8
ENDBRANCH   6   7
ENDBRANCH   5   6
ENDBRANCH   4   5
ENDBRANCH   3   4
ENDBRANCH   2   3
ENDBRANCH   1   2
BRANCH   1  17
ATOM     17  C   UNL     1      44.557   9.038  18.367  1.00  0.00     0.000 C 
BRANCH  17  18
ATOM     18  C   UNL     1      45.837   9.595  17.707  1.00  0.00     0.000 C 
BRANCH  18  19
ATOM     19  C   UNL     1      45.530  10.600  16.586  1.00  0.00     0.000 C 
BRANCH  19  20
ATOM     20  C   UNL     1      46.422  10.360  15.359  1.00  0.00     0.000 C 
BRANCH  20  21
ATOM     21  C   UNL     1      46.296   8.930  14.805  1.00  0.00     0.000 C 
BRANCH  21  22
ATOM     22  C   UNL     1      44.987   8.637  14.046  1.00  0.00    -0.000 C 
BRANCH  22  23
ATOM     23  C   UNL     1      44.041   7.640  14.738  1.00  0.00    -0.000 C 
BRANCH  23  24
ATOM     24  C   UNL     1      43.807   6.369  13.905  1.00  0.00    -0.000 C 
BRANCH  24  25
ATOM     25  C   UNL     1      44.318   5.103  14.614  1.00  0.00    -0.000 C 
BRANCH  25  26
ATOM     26  C   UNL     1      45.504   4.460  13.875  1.00  0.00    -0.000 C 
BRANCH  26  27
ATOM     27  C   UNL     1      46.852   5.116  14.221  1.00  0.00    -0.000 C 
BRANCH  27  28
ATOM     28  C   UNL     1      47.715   4.338  15.231  1.00  0.00    -0.000 C 
BRANCH  28  29
ATOM     29  C   UNL     1      48.037   5.150  16.493  1.00  0.00    -0.003 C 
ATOM     30  C   UNL     1      47.006   6.254  16.716  1.00  0.00     0.004 C 
ENDBRANCH  28  29
ENDBRANCH  27  28
ENDBRANCH  26  27
ENDBRANCH  25  26
ENDBRANCH  24  25
ENDBRANCH  23  24
ENDBRANCH  22  23
ENDBRANCH  21  22
ENDBRANCH  20  21
ENDBRANCH  19  20
ENDBRANCH  18  19
ENDBRANCH  17  18
ENDBRANCH   1  17
TORSDOF 26
ENDMDL
MODEL 5
REMARK VINA RESULT:    -3.842      4.461     11.680
REMARK INTER + INTRA:         -11.246
REMARK INTER:                  -8.766
REMARK INTRA:                  -2.479
REMARK UNBOUND:                -1.564
REMARK SMILES CCCCCCCCCCCCCCCCCCCCCCCCCCCC(=O)[O-]
REMARK SMILES IDX 15 1 16 2 17 3 18 4 19 5 20 6 21 7 22 8 23 9 24 10 25 11
REMARK SMILES IDX 26 12 27 13 28 14 29 15 30 16 14 17 13 18 12 19 11 20 10 21
REMARK SMILES IDX 9 22 8 23 7 24 6 25 5 26 4 27 3 28 2 29 1 30
REMARK H PARENT
REMARK Flexibility Score: inf
ROOT
ATOM      1  C   UNL     1      47.145   6.247  16.766  1.00  0.00     0.000 C 
ENDROOT
BRANCH   1   2
ATOM      2  C   UNL     1      47.767   5.315  15.713  1.00  0.00     0.000 C 
BRANCH   2   3
ATOM      3  C   UNL     1      46.765   4.886  14.624  1.00  0.00     0.000 C 
BRANCH   3   4
ATOM      4  C   UNL     1      47.212   3.616  13.883  1.00  0.00     0.000 C 
BRANCH   4   5
ATOM      5  C   UNL     1      46.459   2.362  14.359  1.00  0.00     0.000 C 
BRANCH   5   6
ATOM      6  C   UNL     1      45.001   2.323  13.875  1.00  0.00     0.000 C 
BRANCH   6   7
ATOM      7  C   UNL     1      44.374   0.926  13.996  1.00  0.00     0.000 C 
BRANCH   7   8
ATOM      8  C   UNL     1      45.436  -0.127  14.333  1.00  0.00     0.000 C 
BRANCH   8   9
ATOM      9  C   UNL     1      44.782  -1.459  14.734  1.00  0.00     0.000 C 
BRANCH   9  10
ATOM     10  C   UNL     1      45.651  -2.290  15.694  1.00  0.00     0.000 C 
BRANCH  10  11
ATOM     11  C   UNL     1      46.855  -1.539  16.291  1.00  0.00     0.000 C 
BRANCH  11  12
ATOM     12  C   UNL     1      47.795  -2.452  17.093  1.00  0.00     0.006 C 
BRANCH  12  13
ATOM     13  C   UNL     1      48.609  -3.354  16.160  1.00  0.00     0.053 C 
BRANCH  13  14
ATOM     14  C   UNL     1      48.495  -4.788  16.573  1.00  0.00     0.041 C 
ATOM     15  O   UNL     1      49.495  -5.551  16.496  1.00  0.00    -0.550 OA
ATOM     16  O   UNL     1      47.288  -5.280  17.055  1.00  0.00    -0.550 OA
ENDBRANCH  13  14
ENDBRANCH  12  13
ENDBRANCH  11  12
ENDBRANCH  10  11
ENDBRANCH   9  10
ENDBRANCH   8   9
ENDBRANCH   7   8
ENDBRANCH   6   7
ENDBRANCH   5   6
ENDBRANCH   4   5
ENDBRANCH   3   4
ENDBRANCH   2   3
ENDBRANCH   1   2
BRANCH   1  17
ATOM     17  C   UNL     1      45.915   7.047  16.290  1.00  0.00     0.000 C 
BRANCH  17  18
ATOM     18  C   UNL     1      44.878   7.335  17.398  1.00  0.00     0.000 C 
BRANCH  18  19
ATOM     19  C   UNL     1      43.841   8.386  16.973  1.00  0.00     0.000 C 
BRANCH  19  20
ATOM     20  C   UNL     1      44.511   9.598  16.310  1.00  0.00     0.000 C 
BRANCH  20  21
ATOM     21  C   UNL     1      44.664  10.790  17.271  1.00  0.00     0.000 C 
BRANCH  21  22
ATOM     22  C   UNL     1      45.882  10.717  18.212  1.00  0.00    -0.000 C 
BRANCH  22  23
ATOM     23  C   UNL     1      45.587  11.041  19.688  1.00  0.00    -0.000 C 
BRANCH  23  24
ATOM     24  C   UNL     1      44.366  10.279  20.228  1.00  0.00    -0.000 C 
BRANCH  24  25
ATOM     25  C   UNL     1      44.699   8.821  20.589  1.00  0.00    -0.000 C 
BRANCH  25  26
ATOM     26  C   UNL     1      44.172   8.429  21.980  1.00  0.00    -0.000 C 
BRANCH  26  27
ATOM     27  C   UNL     1      45.231   8.577  23.086  1.00  0.00    -0.000 C 
BRANCH  27  28
ATOM     28  C   UNL     1      46.676   8.754  22.585  1.00  0.00    -0.000 C 
BRANCH  28  29
ATOM     29  C   UNL     1      47.329  10.049  23.088  1.00  0.00    -0.003 C 
ATOM     30  C   UNL     1      46.387  10.818  24.012  1.00  0.00     0.004 C 
ENDBRANCH  28  29
ENDBRANCH  27  28
ENDBRANCH  26  27
ENDBRANCH  25  26
ENDBRANCH  24  25
ENDBRANCH  23  24
ENDBRANCH  22  23
ENDBRANCH  21  22
ENDBRANCH  20  21
ENDBRANCH  19  20
ENDBRANCH  18  19
ENDBRANCH  17  18
ENDBRANCH   1  17
TORSDOF 26
ENDMDL
MODEL 6
REMARK VINA RESULT:    -3.628      3.240      6.510
REMARK INTER + INTRA:         -10.708
REMARK INTER:                  -8.735
REMARK INTRA:                  -1.973
REMARK UNBOUND:                -1.564
REMARK SMILES CCCCCCCCCCCCCCCCCCCCCCCCCCCC(=O)[O-]
REMARK SMILES IDX 15 1 16 2 17 3 18 4 19 5 20 6 21 7 22 8 23 9 24 10 25 11
REMARK SMILES IDX 26 12 27 13 28 14 29 15 30 16 14 17 13 18 12 19 11 20 10 21
REMARK SMILES IDX 9 22 8 23 7 24 6 25 5 26 4 27 3 28 2 29 1 30
REMARK H PARENT
REMARK Flexibility Score: inf
ROOT
ATOM      1  C   UNL     1      46.994   7.877  22.034  1.00  0.00     0.000 C 
ENDROOT
BRANCH   1   2
ATOM      2  C   UNL     1      46.164   8.004  23.322  1.00  0.00     0.000 C 
BRANCH   2   3
ATOM      3  C   UNL     1      44.944   8.931  23.161  1.00  0.00     0.000 C 
BRANCH   3   4
ATOM      4  C   UNL     1      45.339  10.415  23.098  1.00  0.00     0.000 C 
BRANCH   4   5
ATOM      5  C   UNL     1      44.897  11.086  21.786  1.00  0.00     0.000 C 
BRANCH   5   6
ATOM      6  C   UNL     1      44.285  10.093  20.786  1.00  0.00     0.000 C 
BRANCH   6   7
ATOM      7  C   UNL     1      43.624  10.791  19.587  1.00  0.00     0.000 C 
BRANCH   7   8
ATOM      8  C   UNL     1      43.866  10.007  18.292  1.00  0.00     0.000 C 
BRANCH   8   9
ATOM      9  C   UNL     1      45.312  10.185  17.803  1.00  0.00     0.000 C 
BRANCH   9  10
ATOM     10  C   UNL     1      45.400  10.559  16.312  1.00  0.00     0.000 C 
BRANCH  10  11
ATOM     11  C   UNL     1      46.211   9.577  15.446  1.00  0.00     0.000 C 
BRANCH  11  12
ATOM     12  C   UNL     1      45.340   8.793  14.453  1.00  0.00     0.006 C 
BRANCH  12  13
ATOM     13  C   UNL     1      44.016   8.374  15.099  1.00  0.00     0.053 C 
BRANCH  13  14
ATOM     14  C   UNL     1      43.683   6.955  14.757  1.00  0.00     0.041 C 
ATOM     15  O   UNL     1      42.790   6.701  13.905  1.00  0.00    -0.550 OA
ATOM     16  O   UNL     1      44.368   5.912  15.370  1.00  0.00    -0.550 OA
ENDBRANCH  13  14
ENDBRANCH  12  13
ENDBRANCH  11  12
ENDBRANCH  10  11
ENDBRANCH   9  10
ENDBRANCH   8   9
ENDBRANCH   7   8
ENDBRANCH   6   7
ENDBRANCH   5   6
ENDBRANCH   4   5
ENDBRANCH   3   4
ENDBRANCH   2   3
ENDBRANCH   1   2
BRANCH   1  17
ATOM     17  C   UNL     1      46.173   7.739  20.735  1.00  0.00     0.000 C 
BRANCH  17  18
ATOM     18  C   UNL     1      46.942   7.084  19.566  1.00  0.00     0.000 C 
BRANCH  18  19
ATOM     19  C   UNL     1      46.047   6.831  18.342  1.00  0.00     0.000 C 
BRANCH  19  20
ATOM     20  C   UNL     1      46.860   6.858  17.040  1.00  0.00     0.000 C 
BRANCH  20  21
ATOM     21  C   UNL     1      47.515   5.502  16.721  1.00  0.00     0.000 C 
BRANCH  21  22
ATOM     22  C   UNL     1      48.230   5.427  15.358  1.00  0.00    -0.000 C 
BRANCH  22  23
ATOM     23  C   UNL     1      47.390   4.832  14.213  1.00  0.00    -0.000 C 
BRANCH  23  24
ATOM     24  C   UNL     1      47.710   3.351  13.951  1.00  0.00    -0.000 C 
BRANCH  24  25
ATOM     25  C   UNL     1      46.750   2.405  14.692  1.00  0.00    -0.000 C 
BRANCH  25  26
ATOM     26  C   UNL     1      46.437   1.138  13.877  1.00  0.00    -0.000 C 
BRANCH  26  27
ATOM     27  C   UNL     1      45.830   0.011  14.732  1.00  0.00    -0.000 C 
BRANCH  27  28
ATOM     28  C   UNL     1      46.364  -1.400  14.423  1.00  0.00    -0.000 C 
BRANCH  28  29
ATOM     29  C   UNL     1      45.438  -2.514  14.931  1.00  0.00    -0.003 C 
ATOM     30  C   UNL     1      44.072  -1.957  15.328  1.00  0.00     0.004 C 
ENDBRANCH  28  29
ENDBRANCH  27  28
ENDBRANCH  26  27
ENDBRANCH  25  26
ENDBRANCH  24  25
ENDBRANCH  23  24
ENDBRANCH  22  23
ENDBRANCH  21  22
ENDBRANCH  20  21
ENDBRANCH  19  20
ENDBRANCH  18  19
ENDBRANCH  17  18
ENDBRANCH   1  17
TORSDOF 26
ENDMDL
MODEL 7
REMARK VINA RESULT:    -3.604      1.502      3.090
REMARK INTER + INTRA:         -10.646
REMARK INTER:                  -9.547
REMARK INTRA:                  -1.099
REMARK UNBOUND:                -1.564
REMARK SMILES CCCCCCCCCCCCCCCCCCCCCCCCCCCC(=O)[O-]
REMARK SMILES IDX 15 1 16 2 17 3 18 4 19 5 20 6 21 7 22 8 23 9 24 10 25 11
REMARK SMILES IDX 26 12 27 13 28 14 29 15 30 16 14 17 13 18 12 19 11 20 10 21
REMARK SMILES IDX 9 22 8 23 7 24 6 25 5 26 4 27 3 28 2 29 1 30
REMARK H PARENT
REMARK Flexibility Score: inf
ROOT
ATOM      1  C   UNL     1      45.287   2.488  13.879  1.00  0.00     0.000 C 
ENDROOT
BRANCH   1   2
ATOM      2  C   UNL     1      45.491   4.011  13.875  1.00  0.00     0.000 C 
BRANCH   2   3
ATOM      3  C   UNL     1      46.670   4.461  14.760  1.00  0.00     0.000 C 
BRANCH   3   4
ATOM      4  C   UNL     1      46.568   5.940  15.166  1.00  0.00     0.000 C 
BRANCH   4   5
ATOM      5  C   UNL     1      46.285   6.860  13.965  1.00  0.00     0.000 C 
BRANCH   5   6
ATOM      6  C   UNL     1      45.185   7.893  14.254  1.00  0.00     0.000 C 
BRANCH   6   7
ATOM      7  C   UNL     1      45.718   9.138  14.980  1.00  0.00     0.000 C 
BRANCH   7   8
ATOM      8  C   UNL     1      44.929   9.404  16.268  1.00  0.00     0.000 C 
BRANCH   8   9
ATOM      9  C   UNL     1      44.574   8.087  16.976  1.00  0.00     0.000 C 
BRANCH   9  10
ATOM     10  C   UNL     1      45.036   8.051  18.444  1.00  0.00     0.000 C 
BRANCH  10  11
ATOM     11  C   UNL     1      44.498   9.197  19.320  1.00  0.00     0.000 C 
BRANCH  11  12
ATOM     12  C   UNL     1      45.592   9.879  20.156  1.00  0.00     0.006 C 
BRANCH  12  13
ATOM     13  C   UNL     1      45.292   9.757  21.653  1.00  0.00     0.053 C 
BRANCH  13  14
ATOM     14  C   UNL     1      46.083   8.644  22.265  1.00  0.00     0.041 C 
ATOM     15  O   UNL     1      46.682   7.814  21.531  1.00  0.00    -0.550 OA
ATOM     16  O   UNL     1      46.171   8.531  23.648  1.00  0.00    -0.550 OA
ENDBRANCH  13  14
ENDBRANCH  12  13
ENDBRANCH  11  12
ENDBRANCH  10  11
ENDBRANCH   9  10
ENDBRANCH   8   9
ENDBRANCH   7   8
ENDBRANCH   6   7
ENDBRANCH   5   6
ENDBRANCH   4   5
ENDBRANCH   3   4
ENDBRANCH   2   3
ENDBRANCH   1   2
BRANCH   1  17
ATOM     17  C   UNL     1      46.583   1.650  13.879  1.00  0.00     0.000 C 
BRANCH  17  18
ATOM     18  C   UNL     1      46.384   0.174  14.288  1.00  0.00     0.000 C 
BRANCH  18  19
ATOM     19  C   UNL     1      44.972  -0.339  13.966  1.00  0.00     0.000 C 
BRANCH  19  20
ATOM     20  C   UNL     1      44.426  -1.221  15.099  1.00  0.00     0.000 C 
BRANCH  20  21
ATOM     21  C   UNL     1      44.434  -2.718  14.742  1.00  0.00     0.000 C 
BRANCH  21  22
ATOM     22  C   UNL     1      45.835  -3.346  14.598  1.00  0.00    -0.000 C 
BRANCH  22  23
ATOM     23  C   UNL     1      46.947  -2.652  15.404  1.00  0.00    -0.000 C 
BRANCH  23  24
ATOM     24  C   UNL     1      47.050  -3.178  16.845  1.00  0.00    -0.000 C 
BRANCH  24  25
ATOM     25  C   UNL     1      48.495  -3.536  17.235  1.00  0.00    -0.000 C 
BRANCH  25  26
ATOM     26  C   UNL     1      49.057  -4.691  16.389  1.00  0.00    -0.000 C 
BRANCH  26  27
ATOM     27  C   UNL     1      48.810  -6.072  17.021  1.00  0.00    -0.000 C 
BRANCH  27  28
ATOM     28  C   UNL     1      49.698  -7.206  16.477  1.00  0.00    -0.000 C 
BRANCH  28  29
ATOM     29  C   UNL     1      51.178  -7.036  16.848  1.00  0.00    -0.003 C 
ATOM     30  C   UNL     1      51.700  -8.259  17.601  1.00  0.00     0.004 C 
ENDBRANCH  28  29
ENDBRANCH  27  28
ENDBRANCH  26  27
ENDBRANCH  25  26
ENDBRANCH  24  25
ENDBRANCH  23  24
ENDBRANCH  22  23
ENDBRANCH  21  22
ENDBRANCH  20  21
ENDBRANCH  19  20
ENDBRANCH  18  19
ENDBRANCH  17  18
ENDBRANCH   1  17
TORSDOF 26
ENDMDL
MODEL 8
REMARK VINA RESULT:    -3.602      5.208      8.355
REMARK INTER + INTRA:         -10.641
REMARK INTER:                  -8.531
REMARK INTRA:                  -2.110
REMARK UNBOUND:                -1.564
REMARK SMILES CCCCCCCCCCCCCCCCCCCCCCCCCCCC(=O)[O-]
REMARK SMILES IDX 15 1 16 2 17 3 18 4 19 5 20 6 21 7 22 8 23 9 24 10 25 11
REMARK SMILES IDX 26 12 27 13 28 14 29 15 30 16 14 17 13 18 12 19 11 20 10 21
REMARK SMILES IDX 9 22 8 23 7 24 6 25 5 26 4 27 3 28 2 29 1 30
REMARK H PARENT
REMARK Flexibility Score: inf
ROOT
ATOM      1  C   UNL     1      46.884   6.469  21.609  1.00  0.00     0.000 C 
ENDROOT
BRANCH   1   2
ATOM      2  C   UNL     1      48.270   6.978  22.039  1.00  0.00     0.000 C 
BRANCH   2   3
ATOM      3  C   UNL     1      48.248   8.438  22.531  1.00  0.00     0.000 C 
BRANCH   3   4
ATOM      4  C   UNL     1      46.941   8.792  23.258  1.00  0.00     0.000 C 
BRANCH   4   5
ATOM      5  C   UNL     1      46.796  10.304  23.503  1.00  0.00     0.000 C 
BRANCH   5   6
ATOM      6  C   UNL     1      46.758  11.117  22.201  1.00  0.00     0.000 C 
BRANCH   6   7
ATOM      7  C   UNL     1      46.045  10.375  21.059  1.00  0.00     0.000 C 
BRANCH   7   8
ATOM      8  C   UNL     1      44.572  10.792  20.968  1.00  0.00     0.000 C 
BRANCH   8   9
ATOM      9  C   UNL     1      44.004  11.111  22.360  1.00  0.00     0.000 C 
BRANCH   9  10
ATOM     10  C   UNL     1      43.300   9.908  23.012  1.00  0.00     0.000 C 
BRANCH  10  11
ATOM     11  C   UNL     1      42.965  10.084  24.504  1.00  0.00     0.000 C 
BRANCH  11  12
ATOM     12  C   UNL     1      43.857  11.121  25.202  1.00  0.00     0.006 C 
BRANCH  12  13
ATOM     13  C   UNL     1      44.965  10.435  26.008  1.00  0.00     0.053 C 
BRANCH  13  14
ATOM     14  C   UNL     1      44.600   9.017  26.312  1.00  0.00     0.041 C 
ATOM     15  O   UNL     1      45.126   8.074  25.663  1.00  0.00    -0.550 OA
ATOM     16  O   UNL     1      43.688   8.733  27.322  1.00  0.00    -0.550 OA
ENDBRANCH  13  14
ENDBRANCH  12  13
ENDBRANCH  11  12
ENDBRANCH  10  11
ENDBRANCH   9  10
ENDBRANCH   8   9
ENDBRANCH   7   8
ENDBRANCH   6   7
ENDBRANCH   5   6
ENDBRANCH   4   5
ENDBRANCH   3   4
ENDBRANCH   2   3
ENDBRANCH   1   2
BRANCH   1  17
ATOM     17  C   UNL     1      46.710   6.237  20.094  1.00  0.00     0.000 C 
BRANCH  17  18
ATOM     18  C   UNL     1      46.416   7.520  19.285  1.00  0.00     0.000 C 
BRANCH  18  19
ATOM     19  C   UNL     1      47.034   7.481  17.878  1.00  0.00     0.000 C 
BRANCH  19  20
ATOM     20  C   UNL     1      47.110   6.044  17.341  1.00  0.00     0.000 C 
BRANCH  20  21
ATOM     21  C   UNL     1      47.013   5.980  15.806  1.00  0.00     0.000 C 
BRANCH  21  22
ATOM     22  C   UNL     1      45.757   5.270  15.261  1.00  0.00    -0.000 C 
BRANCH  22  23
ATOM     23  C   UNL     1      44.803   6.165  14.450  1.00  0.00    -0.000 C 
BRANCH  23  24
ATOM     24  C   UNL     1      45.502   7.408  13.876  1.00  0.00    -0.000 C 
BRANCH  24  25
ATOM     25  C   UNL     1      45.325   8.645  14.773  1.00  0.00    -0.000 C 
BRANCH  25  26
ATOM     26  C   UNL     1      46.117   9.859  14.256  1.00  0.00    -0.000 C 
BRANCH  26  27
ATOM     27  C   UNL     1      46.193  11.005  15.280  1.00  0.00    -0.000 C 
BRANCH  27  28
ATOM     28  C   UNL     1      46.143  10.565  16.754  1.00  0.00    -0.000 C 
BRANCH  28  29
ATOM     29  C   UNL     1      44.895  11.077  17.488  1.00  0.00    -0.003 C 
ATOM     30  C   UNL     1      43.790  10.024  17.496  1.00  0.00     0.004 C 
ENDBRANCH  28  29
ENDBRANCH  27  28
ENDBRANCH  26  27
ENDBRANCH  25  26
ENDBRANCH  24  25
ENDBRANCH  23  24
ENDBRANCH  22  23
ENDBRANCH  21  22
ENDBRANCH  20  21
ENDBRANCH  19  20
ENDBRANCH  18  19
ENDBRANCH  17  18
ENDBRANCH   1  17
TORSDOF 26
ENDMDL
MODEL 9
REMARK VINA RESULT:    -3.489      4.945      8.053
REMARK INTER + INTRA:         -10.356
REMARK INTER:                  -8.196
REMARK INTRA:                  -2.160
REMARK UNBOUND:                -1.564
REMARK SMILES CCCCCCCCCCCCCCCCCCCCCCCCCCCC(=O)[O-]
REMARK SMILES IDX 15 1 16 2 17 3 18 4 19 5 20 6 21 7 22 8 23 9 24 10 25 11
REMARK SMILES IDX 26 12 27 13 28 14 29 15 30 16 14 17 13 18 12 19 11 20 10 21
REMARK SMILES IDX 9 22 8 23 7 24 6 25 5 26 4 27 3 28 2 29 1 30
REMARK H PARENT
REMARK Flexibility Score: inf
ROOT
ATOM      1  C   UNL     1      43.750   9.789  20.951  1.00  0.00     0.000 C 
ENDROOT
BRANCH   1   2
ATOM      2  C   UNL     1      44.546   8.539  21.362  1.00  0.00     0.000 C 
BRANCH   2   3
ATOM      3  C   UNL     1      45.281   7.880  20.180  1.00  0.00     0.000 C 
BRANCH   3   4
ATOM      4  C   UNL     1      46.798   7.789  20.410  1.00  0.00     0.000 C 
BRANCH   4   5
ATOM      5  C   UNL     1      47.151   7.101  21.740  1.00  0.00     0.000 C 
BRANCH   5   6
ATOM      6  C   UNL     1      46.994   8.032  22.952  1.00  0.00     0.000 C 
BRANCH   6   7
ATOM      7  C   UNL     1      48.112   9.083  23.039  1.00  0.00     0.000 C 
BRANCH   7   8
ATOM      8  C   UNL     1      47.557  10.496  22.827  1.00  0.00     0.000 C 
BRANCH   8   9
ATOM      9  C   UNL     1      46.302  10.728  23.683  1.00  0.00     0.000 C 
BRANCH   9  10
ATOM     10  C   UNL     1      46.629  11.125  25.133  1.00  0.00     0.000 C 
BRANCH  10  11
ATOM     11  C   UNL     1      45.639  10.597  26.188  1.00  0.00     0.000 C 
BRANCH  11  12
ATOM     12  C   UNL     1      44.179  10.959  25.875  1.00  0.00     0.006 C 
BRANCH  12  13
ATOM     13  C   UNL     1      43.427   9.751  25.305  1.00  0.00     0.053 C 
BRANCH  13  14
ATOM     14  C   UNL     1      42.168  10.183  24.622  1.00  0.00     0.041 C 
ATOM     15  O   UNL     1      42.220  10.927  23.606  1.00  0.00    -0.550 OA
ATOM     16  O   UNL     1      40.934   9.755  25.100  1.00  0.00    -0.550 OA
ENDBRANCH  13  14
ENDBRANCH  12  13
ENDBRANCH  11  12
ENDBRANCH  10  11
ENDBRANCH   9  10
ENDBRANCH   8   9
ENDBRANCH   7   8
ENDBRANCH   6   7
ENDBRANCH   5   6
ENDBRANCH   4   5
ENDBRANCH   3   4
ENDBRANCH   2   3
ENDBRANCH   1   2
BRANCH   1  17
ATOM     17  C   UNL     1      44.574  11.089  20.851  1.00  0.00     0.000 C 
BRANCH  17  18
ATOM     18  C   UNL     1      45.686  11.055  19.779  1.00  0.00     0.000 C 
BRANCH  18  19
ATOM     19  C   UNL     1      45.136  10.775  18.372  1.00  0.00     0.000 C 
BRANCH  19  20
ATOM     20  C   UNL     1      46.245  10.850  17.313  1.00  0.00     0.000 C 
BRANCH  20  21
ATOM     21  C   UNL     1      45.703  10.734  15.877  1.00  0.00     0.000 C 
BRANCH  21  22
ATOM     22  C   UNL     1      46.766  10.438  14.800  1.00  0.00    -0.000 C 
BRANCH  22  23
ATOM     23  C   UNL     1      46.547   9.137  14.008  1.00  0.00    -0.000 C 
BRANCH  23  24
ATOM     24  C   UNL     1      45.072   8.704  13.976  1.00  0.00    -0.000 C 
BRANCH  24  25
ATOM     25  C   UNL     1      44.748   7.647  15.046  1.00  0.00    -0.000 C 
BRANCH  25  26
ATOM     26  C   UNL     1      44.154   6.365  14.438  1.00  0.00    -0.000 C 
BRANCH  26  27
ATOM     27  C   UNL     1      45.076   5.144  14.597  1.00  0.00    -0.000 C 
BRANCH  27  28
ATOM     28  C   UNL     1      46.534   5.366  14.156  1.00  0.00    -0.000 C 
BRANCH  28  29
ATOM     29  C   UNL     1      47.554   4.884  15.197  1.00  0.00    -0.003 C 
ATOM     30  C   UNL     1      47.504   5.746  16.457  1.00  0.00     0.004 C 
ENDBRANCH  28  29
ENDBRANCH  27  28
ENDBRANCH  26  27
ENDBRANCH  25  26
ENDBRANCH  24  25
ENDBRANCH  23  24
ENDBRANCH  22  23
ENDBRANCH  21  22
ENDBRANCH  20  21
ENDBRANCH  19  20
ENDBRANCH  18  19
ENDBRANCH  17  18
ENDBRANCH   1  17
TORSDOF 26
ENDMDL
