MODEL 1
REMARK VINA RESULT:    -3.045      0.000      0.000
REMARK INTER + INTRA:          -5.105
REMARK INTER:                  -4.469
REMARK INTRA:                  -0.635
REMARK UNBOUND:                -0.635
REMARK SMILES C=C1C=C[C@H](C(C)C)CCC(C)=CCC1
REMARK SMILES IDX 3 1 4 2 5 3 9 4 10 5 11 6 12 7 13 8 6 10 7 11 8 12 2 13 1 14
REMARK SMILES IDX 15 15 14 16
REMARK H PARENT
REMARK Flexibility Score: 70.00
ROOT
ATOM      1  C   UNL     1      13.769   3.396  19.101  1.00  0.00    -0.001 C 
ATOM      2  C   UNL     1      12.738   4.105  18.598  1.00  0.00    -0.023 C 
ENDROOT
BRANCH   2   3
ATOM      3  C   UNL     1      12.757   5.361  17.727  1.00  0.00     0.014 C 
BRANCH   3   4
ATOM      4  C   UNL     1      13.164   5.155  16.250  1.00  0.00     0.012 C 
BRANCH   4   5
ATOM      5  C   UNL     1      14.625   5.566  16.003  1.00  0.00     0.031 C 
BRANCH   5   6
ATOM      6  C   UNL     1      15.039   6.838  16.719  1.00  0.00    -0.077 C 
ATOM      7  C   UNL     1      14.477   8.151  16.227  1.00  0.00     0.039 C 
ATOM      8  C   UNL     1      15.789   6.869  17.850  1.00  0.00    -0.028 CG0
ATOM      9  G   UNL     1      16.597   5.740  18.457  1.00  0.00     0.000 G0
ENDBRANCH   5   6
ENDBRANCH   4   5
ENDBRANCH   3   4
BRANCH   3  10
ATOM     10  C   UNL     1      11.473   6.230  17.877  1.00  0.00    -0.010 C 
ATOM     11  C   UNL     1      10.996   6.769  16.519  1.00  0.00     0.008 C 
ATOM     12  C   UNL     1      11.626   7.388  18.870  1.00  0.00     0.008 C 
ENDBRANCH   3  10
ENDBRANCH   2   3
BRANCH   1  13
ATOM     13  C   UNL     1      15.208   3.657  18.898  1.00  0.00    -0.055 C 
ATOM     14  C   UNL     1      15.986   2.665  18.454  1.00  0.00     0.012 C 
BRANCH  13  15
ATOM     15  C   UNL     1      15.851   4.881  19.519  1.00  0.00     0.039 C 
BRANCH  15  16
ATOM     16  C   UNL     1      16.598   5.747  18.479  1.00  0.00     0.032 CG0
ATOM     17  G   UNL     1      15.786   6.851  17.832  1.00  0.00     0.000 G0
ENDBRANCH  15  16
ENDBRANCH  13  15
ENDBRANCH   1  13
TORSDOF 1
ENDMDL
MODEL 2
REMARK VINA RESULT:    -3.022      1.577      2.516
REMARK INTER + INTRA:          -5.070
REMARK INTER:                  -4.544
REMARK INTRA:                  -0.527
REMARK UNBOUND:                -0.635
REMARK SMILES C=C1C=C[C@H](C(C)C)CCC(C)=CCC1
REMARK SMILES IDX 3 1 4 2 5 3 9 4 10 5 11 6 12 7 13 8 6 10 7 11 8 12 2 13 1 14
REMARK SMILES IDX 15 15 14 16
REMARK H PARENT
REMARK Flexibility Score: 70.00
ROOT
ATOM      1  C   UNL     1      13.446   4.113  19.304  1.00  0.00    -0.001 C 
ATOM      2  C   UNL     1      12.446   4.917  19.717  1.00  0.00    -0.023 C 
ENDROOT
BRANCH   2   3
ATOM      3  C   UNL     1      11.907   6.200  19.083  1.00  0.00     0.014 C 
BRANCH   3   4
ATOM      4  C   UNL     1      10.875   6.012  17.948  1.00  0.00     0.012 C 
BRANCH   4   5
ATOM      5  C   UNL     1      11.555   5.948  16.570  1.00  0.00     0.031 C 
BRANCH   5   6
ATOM      6  C   UNL     1      12.359   7.186  16.220  1.00  0.00    -0.077 C 
ATOM      7  C   UNL     1      11.613   8.466  15.927  1.00  0.00     0.039 C 
ATOM      8  C   UNL     1      13.715   7.255  16.268  1.00  0.00    -0.028 CG0
ATOM      9  G   UNL     1      14.698   6.107  16.375  1.00  0.00     0.000 G0
ENDBRANCH   5   6
ENDBRANCH   4   5
ENDBRANCH   3   4
BRANCH   3  10
ATOM     10  C   UNL     1      11.455   7.259  20.132  1.00  0.00    -0.010 C 
ATOM     11  C   UNL     1      11.795   8.686  19.673  1.00  0.00     0.008 C 
ATOM     12  C   UNL     1      12.022   7.016  21.536  1.00  0.00     0.008 C 
ENDBRANCH   3  10
ENDBRANCH   2   3
BRANCH   1  13
ATOM     13  C   UNL     1      14.265   4.269  18.086  1.00  0.00    -0.055 C 
ATOM     14  C   UNL     1      14.632   3.175  17.412  1.00  0.00     0.012 C 
BRANCH  13  15
ATOM     15  C   UNL     1      14.977   5.580  17.815  1.00  0.00     0.039 C 
BRANCH  15  16
ATOM     16  C   UNL     1      14.726   6.103  16.383  1.00  0.00     0.032 CG0
ATOM     17  G   UNL     1      13.729   7.238  16.259  1.00  0.00     0.000 G0
ENDBRANCH  15  16
ENDBRANCH  13  15
ENDBRANCH   1  13
TORSDOF 1
ENDMDL
MODEL 3
REMARK VINA RESULT:    -2.925      1.864      4.837
REMARK INTER + INTRA:          -4.928
REMARK INTER:                  -4.383
REMARK INTRA:                  -0.545
REMARK UNBOUND:                -0.635
REMARK SMILES C=C1C=C[C@H](C(C)C)CCC(C)=CCC1
REMARK SMILES IDX 3 1 4 2 5 3 9 4 10 5 11 6 12 7 13 8 6 10 7 11 8 12 2 13 1 14
REMARK SMILES IDX 15 15 14 16
REMARK H PARENT
REMARK Flexibility Score: 70.00
ROOT
ATOM      1  C   UNL     1      13.529   7.540  16.187  1.00  0.00    -0.001 C 
ATOM      2  C   UNL     1      14.604   6.735  16.299  1.00  0.00    -0.023 C 
ENDROOT
BRANCH   2   3
ATOM      3  C   UNL     1      14.865   5.598  17.287  1.00  0.00     0.014 C 
BRANCH   3   4
ATOM      4  C   UNL     1      14.235   4.232  16.931  1.00  0.00     0.012 C 
BRANCH   4   5
ATOM      5  C   UNL     1      12.966   3.961  17.755  1.00  0.00     0.031 C 
BRANCH   5   6
ATOM      6  C   UNL     1      13.112   4.270  19.233  1.00  0.00    -0.077 C 
ATOM      7  C   UNL     1      13.903   3.311  20.090  1.00  0.00     0.039 C 
ATOM      8  C   UNL     1      12.679   5.415  19.821  1.00  0.00    -0.028 CG0
ATOM      9  G   UNL     1      11.737   6.453  19.245  1.00  0.00     0.000 G0
ENDBRANCH   5   6
ENDBRANCH   4   5
ENDBRANCH   3   4
BRANCH   3  10
ATOM     10  C   UNL     1      16.362   5.476  17.700  1.00  0.00    -0.010 C 
ATOM     11  C   UNL     1      17.268   6.314  16.783  1.00  0.00     0.008 C 
ATOM     12  C   UNL     1      16.871   4.031  17.753  1.00  0.00     0.008 C 
ENDBRANCH   3  10
ENDBRANCH   2   3
BRANCH   1  13
ATOM     13  C   UNL     1      12.297   7.496  16.999  1.00  0.00    -0.055 C 
ATOM     14  C   UNL     1      11.117   7.651  16.389  1.00  0.00     0.012 C 
BRANCH  13  15
ATOM     15  C   UNL     1      12.377   7.643  18.506  1.00  0.00     0.039 C 
BRANCH  15  16
ATOM     16  C   UNL     1      11.723   6.457  19.250  1.00  0.00     0.032 CG0
ATOM     17  G   UNL     1      12.677   5.433  19.831  1.00  0.00     0.000 G0
ENDBRANCH  15  16
ENDBRANCH  13  15
ENDBRANCH   1  13
TORSDOF 1
ENDMDL
MODEL 4
REMARK VINA RESULT:    -2.820      1.974      4.153
REMARK INTER + INTRA:          -4.775
REMARK INTER:                  -4.107
REMARK INTRA:                  -0.668
REMARK UNBOUND:                -0.635
REMARK SMILES C=C1C=C[C@H](C(C)C)CCC(C)=CCC1
REMARK SMILES IDX 3 1 4 2 5 3 9 4 10 5 11 6 12 7 13 8 6 10 7 11 8 12 2 13 1 14
REMARK SMILES IDX 15 15 14 16
REMARK H PARENT
REMARK Flexibility Score: 70.00
ROOT
ATOM      1  C   UNL     1      15.606   4.980  20.039  1.00  0.00    -0.001 C 
ATOM      2  C   UNL     1      16.317   5.367  18.962  1.00  0.00    -0.023 C 
ENDROOT
BRANCH   2   3
ATOM      3  C   UNL     1      16.271   4.841  17.527  1.00  0.00     0.014 C 
BRANCH   3   4
ATOM      4  C   UNL     1      15.775   5.839  16.455  1.00  0.00     0.012 C 
BRANCH   4   5
ATOM      5  C   UNL     1      14.414   5.419  15.876  1.00  0.00     0.031 C 
BRANCH   5   6
ATOM      6  C   UNL     1      13.224   6.051  16.575  1.00  0.00    -0.077 C 
ATOM      7  C   UNL     1      12.764   7.413  16.113  1.00  0.00     0.039 C 
ATOM      8  C   UNL     1      12.467   5.424  17.511  1.00  0.00    -0.028 CG0
ATOM      9  G   UNL     1      12.788   4.146  18.259  1.00  0.00     0.000 G0
ENDBRANCH   5   6
ENDBRANCH   4   5
ENDBRANCH   3   4
BRANCH   3  10
ATOM     10  C   UNL     1      17.576   4.106  17.101  1.00  0.00    -0.010 C 
ATOM     11  C   UNL     1      18.381   3.635  18.323  1.00  0.00     0.008 C 
ATOM     12  C   UNL     1      18.474   4.933  16.174  1.00  0.00     0.008 C 
ENDBRANCH   3  10
ENDBRANCH   2   3
BRANCH   1  13
ATOM     13  C   UNL     1      14.557   3.941  20.083  1.00  0.00    -0.055 C 
ATOM     14  C   UNL     1      14.923   2.656  20.072  1.00  0.00     0.012 C 
BRANCH  13  15
ATOM     15  C   UNL     1      13.118   4.303  19.776  1.00  0.00     0.039 C 
BRANCH  15  16
ATOM     16  C   UNL     1      12.772   4.133  18.280  1.00  0.00     0.032 CG0
ATOM     17  G   UNL     1      12.471   5.409  17.520  1.00  0.00     0.000 G0
ENDBRANCH  15  16
ENDBRANCH  13  15
ENDBRANCH   1  13
TORSDOF 1
ENDMDL
MODEL 5
REMARK VINA RESULT:    -2.819      2.589      4.780
REMARK INTER + INTRA:          -4.773
REMARK INTER:                  -4.096
REMARK INTRA:                  -0.676
REMARK UNBOUND:                -0.635
REMARK SMILES C=C1C=C[C@H](C(C)C)CCC(C)=CCC1
REMARK SMILES IDX 3 1 4 2 5 3 9 4 10 5 11 6 12 7 13 8 6 10 7 11 8 12 2 13 1 14
REMARK SMILES IDX 15 15 14 16
REMARK H PARENT
REMARK Flexibility Score: 70.00
ROOT
ATOM      1  C   UNL     1      13.629   6.371  21.635  1.00  0.00    -0.001 C 
ATOM      2  C   UNL     1      14.060   5.159  21.231  1.00  0.00    -0.023 C 
ENDROOT
BRANCH   2   3
ATOM      3  C   UNL     1      13.270   4.001  20.622  1.00  0.00     0.014 C 
BRANCH   3   4
ATOM      4  C   UNL     1      13.499   3.743  19.115  1.00  0.00     0.012 C 
BRANCH   4   5
ATOM      5  C   UNL     1      12.415   4.413  18.255  1.00  0.00     0.031 C 
BRANCH   5   6
ATOM      6  C   UNL     1      12.813   5.771  17.706  1.00  0.00    -0.077 C 
ATOM      7  C   UNL     1      13.851   5.822  16.610  1.00  0.00     0.039 C 
ATOM      8  C   UNL     1      12.214   6.940  18.049  1.00  0.00    -0.028 CG0
ATOM      9  G   UNL     1      11.276   7.194  19.211  1.00  0.00     0.000 G0
ENDBRANCH   5   6
ENDBRANCH   4   5
ENDBRANCH   3   4
BRANCH   3  10
ATOM     10  C   UNL     1      13.343   2.697  21.470  1.00  0.00    -0.010 C 
ATOM     11  C   UNL     1      12.378   2.747  22.665  1.00  0.00     0.008 C 
ATOM     12  C   UNL     1      14.757   2.358  21.957  1.00  0.00     0.008 C 
ENDBRANCH   3  10
ENDBRANCH   2   3
BRANCH   1  13
ATOM     13  C   UNL     1      12.251   6.895  21.555  1.00  0.00    -0.055 C 
ATOM     14  C   UNL     1      11.283   6.265  22.229  1.00  0.00     0.012 C 
BRANCH  13  15
ATOM     15  C   UNL     1      11.875   7.876  20.463  1.00  0.00     0.039 C 
BRANCH  15  16
ATOM     16  C   UNL     1      11.273   7.177  19.223  1.00  0.00     0.032 CG0
ATOM     17  G   UNL     1      12.220   6.964  18.059  1.00  0.00     0.000 G0
ENDBRANCH  15  16
ENDBRANCH  13  15
ENDBRANCH   1  13
TORSDOF 1
ENDMDL
MODEL 6
REMARK VINA RESULT:    -2.717      1.945      2.941
REMARK INTER + INTRA:          -4.623
REMARK INTER:                  -4.263
REMARK INTRA:                  -0.359
REMARK UNBOUND:                -0.635
REMARK SMILES C=C1C=C[C@H](C(C)C)CCC(C)=CCC1
REMARK SMILES IDX 3 1 4 2 5 3 9 4 10 5 11 6 12 7 13 8 6 10 7 11 8 12 2 13 1 14
REMARK SMILES IDX 15 15 14 16
REMARK H PARENT
REMARK Flexibility Score: 70.00
ROOT
ATOM      1  C   UNL     1      12.517   4.970  21.863  1.00  0.00    -0.001 C 
ATOM      2  C   UNL     1      11.937   6.007  21.225  1.00  0.00    -0.023 C 
ENDROOT
BRANCH   2   3
ATOM      3  C   UNL     1      12.015   6.406  19.752  1.00  0.00     0.014 C 
BRANCH   3   4
ATOM      4  C   UNL     1      11.088   5.630  18.789  1.00  0.00     0.012 C 
BRANCH   4   5
ATOM      5  C   UNL     1      11.889   4.733  17.831  1.00  0.00     0.031 C 
BRANCH   5   6
ATOM      6  C   UNL     1      13.244   5.297  17.445  1.00  0.00    -0.077 C 
ATOM      7  C   UNL     1      13.300   6.343  16.356  1.00  0.00     0.039 C 
ATOM      8  C   UNL     1      14.402   5.014  18.093  1.00  0.00    -0.028 CG0
ATOM      9  G   UNL     1      14.656   3.905  19.094  1.00  0.00     0.000 G0
ENDBRANCH   5   6
ENDBRANCH   4   5
ENDBRANCH   3   4
BRANCH   3  10
ATOM     10  C   UNL     1      11.951   7.947  19.530  1.00  0.00    -0.010 C 
ATOM     11  C   UNL     1      11.461   8.677  20.791  1.00  0.00     0.008 C 
ATOM     12  C   UNL     1      11.098   8.361  18.326  1.00  0.00     0.008 C 
ENDBRANCH   3  10
ENDBRANCH   2   3
BRANCH   1  13
ATOM     13  C   UNL     1      13.370   3.924  21.263  1.00  0.00    -0.055 C 
ATOM     14  C   UNL     1      13.170   2.650  21.615  1.00  0.00     0.012 C 
BRANCH  13  15
ATOM     15  C   UNL     1      14.661   4.306  20.566  1.00  0.00     0.039 C 
BRANCH  15  16
ATOM     16  C   UNL     1      14.669   3.899  19.075  1.00  0.00     0.032 CG0
ATOM     17  G   UNL     1      14.415   5.015  18.083  1.00  0.00     0.000 G0
ENDBRANCH  15  16
ENDBRANCH  13  15
ENDBRANCH   1  13
TORSDOF 1
ENDMDL
MODEL 7
REMARK VINA RESULT:    -2.705      2.563      3.622
REMARK INTER + INTRA:          -4.605
REMARK INTER:                  -4.116
REMARK INTRA:                  -0.489
REMARK UNBOUND:                -0.635
REMARK SMILES C=C1C=C[C@H](C(C)C)CCC(C)=CCC1
REMARK SMILES IDX 3 1 4 2 5 3 9 4 10 5 11 6 12 7 13 8 6 10 7 11 8 12 2 13 1 14
REMARK SMILES IDX 15 15 14 16
REMARK H PARENT
REMARK Flexibility Score: 70.00
ROOT
ATOM      1  C   UNL     1      13.858   3.464  18.291  1.00  0.00    -0.001 C 
ATOM      2  C   UNL     1      13.080   4.489  17.886  1.00  0.00    -0.023 C 
ENDROOT
BRANCH   2   3
ATOM      3  C   UNL     1      12.566   5.690  18.680  1.00  0.00     0.014 C 
BRANCH   3   4
ATOM      4  C   UNL     1      13.609   6.782  19.008  1.00  0.00     0.012 C 
BRANCH   4   5
ATOM      5  C   UNL     1      13.956   6.802  20.506  1.00  0.00     0.031 C 
BRANCH   5   6
ATOM      6  C   UNL     1      12.812   6.382  21.410  1.00  0.00    -0.077 C 
ATOM      7  C   UNL     1      11.706   7.376  21.675  1.00  0.00     0.039 C 
ATOM      8  C   UNL     1      12.651   5.128  21.906  1.00  0.00    -0.028 CG0
ATOM      9  G   UNL     1      13.667   4.004  21.929  1.00  0.00     0.000 G0
ENDBRANCH   5   6
ENDBRANCH   4   5
ENDBRANCH   3   4
BRANCH   3  10
ATOM     10  C   UNL     1      11.242   6.280  18.109  1.00  0.00    -0.010 C 
ATOM     11  C   UNL     1      10.875   5.638  16.761  1.00  0.00     0.008 C 
ATOM     12  C   UNL     1      11.257   7.806  17.971  1.00  0.00     0.008 C 
ENDBRANCH   3  10
ENDBRANCH   2   3
BRANCH   1  13
ATOM     13  C   UNL     1      14.439   3.269  19.633  1.00  0.00    -0.055 C 
ATOM     14  C   UNL     1      15.755   3.057  19.741  1.00  0.00     0.012 C 
BRANCH  13  15
ATOM     15  C   UNL     1      13.539   2.946  20.809  1.00  0.00     0.039 C 
BRANCH  15  16
ATOM     16  C   UNL     1      13.648   3.992  21.941  1.00  0.00     0.032 CG0
ATOM     17  G   UNL     1      12.637   5.120  21.900  1.00  0.00     0.000 G0
ENDBRANCH  15  16
ENDBRANCH  13  15
ENDBRANCH   1  13
TORSDOF 1
ENDMDL
MODEL 8
REMARK VINA RESULT:    -2.677      1.352      2.039
REMARK INTER + INTRA:          -4.564
REMARK INTER:                  -3.863
REMARK INTRA:                  -0.701
REMARK UNBOUND:                -0.635
REMARK SMILES C=C1C=C[C@H](C(C)C)CCC(C)=CCC1
REMARK SMILES IDX 3 1 4 2 5 3 9 4 10 5 11 6 12 7 13 8 6 10 7 11 8 12 2 13 1 14
REMARK SMILES IDX 15 15 14 16
REMARK H PARENT
REMARK Flexibility Score: 70.00
ROOT
ATOM      1  C   UNL     1      13.481   3.563  19.994  1.00  0.00    -0.001 C 
ATOM      2  C   UNL     1      12.991   3.879  18.778  1.00  0.00    -0.023 C 
ENDROOT
BRANCH   2   3
ATOM      3  C   UNL     1      13.066   5.201  18.015  1.00  0.00     0.014 C 
BRANCH   3   4
ATOM      4  C   UNL     1      14.023   5.229  16.800  1.00  0.00     0.012 C 
BRANCH   4   5
ATOM      5  C   UNL     1      15.183   6.215  17.016  1.00  0.00     0.031 C 
BRANCH   5   6
ATOM      6  C   UNL     1      16.492   5.553  17.402  1.00  0.00    -0.077 C 
ATOM      7  C   UNL     1      17.397   5.058  16.298  1.00  0.00     0.039 C 
ATOM      8  C   UNL     1      16.966   5.479  18.672  1.00  0.00    -0.028 CG0
ATOM      9  G   UNL     1      16.211   5.746  19.959  1.00  0.00     0.000 G0
ENDBRANCH   5   6
ENDBRANCH   4   5
ENDBRANCH   3   4
BRANCH   3  10
ATOM     10  C   UNL     1      11.666   5.800  17.687  1.00  0.00    -0.010 C 
ATOM     11  C   UNL     1      11.529   6.126  16.191  1.00  0.00     0.008 C 
ATOM     12  C   UNL     1      11.314   7.036  18.522  1.00  0.00     0.008 C 
ENDBRANCH   3  10
ENDBRANCH   2   3
BRANCH   1  13
ATOM     13  C   UNL     1      14.255   4.441  20.894  1.00  0.00    -0.055 C 
ATOM     14  C   UNL     1      13.611   5.391  21.579  1.00  0.00     0.012 C 
BRANCH  13  15
ATOM     15  C   UNL     1      15.764   4.514  20.768  1.00  0.00     0.039 C 
BRANCH  15  16
ATOM     16  C   UNL     1      16.231   5.749  19.965  1.00  0.00     0.032 CG0
ATOM     17  G   UNL     1      16.972   5.459  18.675  1.00  0.00     0.000 G0
ENDBRANCH  15  16
ENDBRANCH  13  15
ENDBRANCH   1  13
TORSDOF 1
ENDMDL
MODEL 9
REMARK VINA RESULT:    -2.638      2.018      5.261
REMARK INTER + INTRA:          -4.507
REMARK INTER:                  -4.017
REMARK INTRA:                  -0.490
REMARK UNBOUND:                -0.635
REMARK SMILES C=C1C=C[C@H](C(C)C)CCC(C)=CCC1
REMARK SMILES IDX 3 1 4 2 5 3 9 4 10 5 11 6 12 7 13 8 6 10 7 11 8 12 2 13 1 14
REMARK SMILES IDX 15 15 14 16
REMARK H PARENT
REMARK Flexibility Score: 70.00
ROOT
ATOM      1  C   UNL     1      15.459   5.311  15.876  1.00  0.00    -0.001 C 
ATOM      2  C   UNL     1      16.477   4.663  16.477  1.00  0.00    -0.023 C 
ENDROOT
BRANCH   2   3
ATOM      3  C   UNL     1      17.144   4.941  17.824  1.00  0.00     0.014 C 
BRANCH   3   4
ATOM      4  C   UNL     1      16.537   4.211  19.044  1.00  0.00     0.012 C 
BRANCH   4   5
ATOM      5  C   UNL     1      15.444   3.214  18.622  1.00  0.00     0.031 C 
BRANCH   5   6
ATOM      6  C   UNL     1      14.092   3.474  19.259  1.00  0.00    -0.077 C 
ATOM      7  C   UNL     1      13.851   2.962  20.659  1.00  0.00     0.039 C 
ATOM      8  C   UNL     1      13.119   4.241  18.702  1.00  0.00    -0.028 CG0
ATOM      9  G   UNL     1      13.035   4.735  17.273  1.00  0.00     0.000 G0
ENDBRANCH   5   6
ENDBRANCH   4   5
ENDBRANCH   3   4
BRANCH   3  10
ATOM     10  C   UNL     1      18.697   4.831  17.774  1.00  0.00    -0.010 C 
ATOM     11  C   UNL     1      19.350   6.195  17.499  1.00  0.00     0.008 C 
ATOM     12  C   UNL     1      19.208   3.798  16.763  1.00  0.00     0.008 C 
ENDBRANCH   3  10
ENDBRANCH   2   3
BRANCH   1  13
ATOM     13  C   UNL     1      14.703   6.463  16.408  1.00  0.00    -0.055 C 
ATOM     14  C   UNL     1      15.342   7.622  16.593  1.00  0.00     0.012 C 
BRANCH  13  15
ATOM     15  C   UNL     1      13.357   6.246  17.069  1.00  0.00     0.039 C 
BRANCH  15  16
ATOM     16  C   UNL     1      13.031   4.748  17.269  1.00  0.00     0.032 CG0
ATOM     17  G   UNL     1      13.102   4.239  18.694  1.00  0.00     0.000 G0
ENDBRANCH  15  16
ENDBRANCH  13  15
ENDBRANCH   1  13
TORSDOF 1
ENDMDL
