MODEL 1
REMARK VINA RESULT:    -7.002      0.000      0.000
REMARK INTER + INTRA:          -8.705
REMARK INTER:                  -8.640
REMARK INTRA:                  -0.065
REMARK UNBOUND:                -0.065
REMARK SMILES O=c1c(O)c(-c2cc(O)c(O)c(O)c2)oc2cc(O)cc(O)c12
REMARK SMILES IDX 5 1 3 2 2 3 1 4 23 5 21 6 20 7 18 8 17 9 16 10 15 11 6 12
REMARK SMILES IDX 7 13 8 14 14 15 10 16 12 17 9 18 11 20 13 22 4 24 22 26
REMARK SMILES IDX 19 28
REMARK H PARENT 9 19 11 21 13 23 4 25 22 27 19 29
REMARK Flexibility Score: inf
ROOT
ATOM      1  C   UNL     1       7.490  11.105 -22.324  1.00  0.00     0.180 A 
ATOM      2  C   UNL     1       7.208  10.345 -23.471  1.00  0.00     0.208 A 
ATOM      3  C   UNL     1       5.978   9.672 -23.558  1.00  0.00     0.238 A 
ATOM      4  O   UNL     1       5.703   9.056 -24.621  1.00  0.00    -0.285 OA
ATOM      5  C   UNL     1       5.070   9.721 -22.474  1.00  0.00     0.111 A 
ATOM      6  C   UNL     1       3.815   9.041 -22.435  1.00  0.00     0.134 A 
ATOM      7  C   UNL     1       2.950   9.249 -21.352  1.00  0.00     0.093 A 
ATOM      8  C   UNL     1       3.323  10.061 -20.278  1.00  0.00     0.123 A 
ATOM      9  C   UNL     1       4.567  10.684 -20.282  1.00  0.00     0.094 A 
ATOM     10  C   UNL     1       5.436  10.528 -21.365  1.00  0.00     0.146 A 
ATOM     11  O   UNL     1       6.603  11.158 -21.335  1.00  0.00    -0.452 OA
ENDROOT
BRANCH   1  12
ATOM     12  C   UNL     1       8.757  11.853 -22.164  1.00  0.00     0.029 A 
ATOM     13  C   UNL     1       9.214  12.738 -23.156  1.00  0.00     0.062 A 
ATOM     14  C   UNL     1      10.404  13.455 -22.977  1.00  0.00     0.162 A 
ATOM     15  C   UNL     1       9.489  11.724 -20.975  1.00  0.00     0.062 A 
ATOM     16  C   UNL     1      11.145  13.301 -21.792  1.00  0.00     0.200 A 
ATOM     17  C   UNL     1      10.679  12.434 -20.788  1.00  0.00     0.162 A 
BRANCH  14  18
ATOM     18  O   UNL     1      10.853  14.324 -23.971  1.00  0.00    -0.504 OA
ATOM     19  H   UNL     1      10.292  15.108 -24.283  1.00  0.00     0.293 HD
ENDBRANCH  14  18
BRANCH  16  20
ATOM     20  O   UNL     1      12.334  14.004 -21.599  1.00  0.00    -0.502 OA
ATOM     21  H   UNL     1      12.504  14.562 -20.771  1.00  0.00     0.293 HD
ENDBRANCH  16  20
BRANCH  17  22
ATOM     22  O   UNL     1      11.387  12.266 -19.598  1.00  0.00    -0.504 OA
ATOM     23  H   UNL     1      11.190  12.817 -18.771  1.00  0.00     0.293 HD
ENDBRANCH  17  22
ENDBRANCH   1  12
BRANCH   2  24
ATOM     24  O   UNL     1       8.150  10.248 -24.499  1.00  0.00    -0.502 OA
ATOM     25  H   UNL     1       8.425   9.361 -24.903  1.00  0.00     0.293 HD
ENDBRANCH   2  24
BRANCH   6  26
ATOM     26  O   UNL     1       3.381   8.139 -23.411  1.00  0.00    -0.507 OA
ATOM     27  H   UNL     1       3.521   7.141 -23.379  1.00  0.00     0.293 HD
ENDBRANCH   6  26
BRANCH   8  28
ATOM     28  O   UNL     1       2.463  10.248 -19.197  1.00  0.00    -0.508 OA
ATOM     29  H   UNL     1       2.797  10.611 -18.312  1.00  0.00     0.293 HD
ENDBRANCH   8  28
TORSDOF 7
ENDMDL
MODEL 2
REMARK VINA RESULT:    -6.965      2.671      6.455
REMARK INTER + INTRA:          -8.659
REMARK INTER:                  -8.359
REMARK INTRA:                  -0.300
REMARK UNBOUND:                -0.065
REMARK SMILES O=c1c(O)c(-c2cc(O)c(O)c(O)c2)oc2cc(O)cc(O)c12
REMARK SMILES IDX 5 1 3 2 2 3 1 4 23 5 21 6 20 7 18 8 17 9 16 10 15 11 6 12
REMARK SMILES IDX 7 13 8 14 14 15 10 16 12 17 9 18 11 20 13 22 4 24 22 26
REMARK SMILES IDX 19 28
REMARK H PARENT 9 19 11 21 13 23 4 25 22 27 19 29
REMARK Flexibility Score: inf
ROOT
ATOM      1  C   UNL     1       5.119  10.177 -22.838  1.00  0.00     0.180 A 
ATOM      2  C   UNL     1       4.775   9.065 -23.625  1.00  0.00     0.208 A 
ATOM      3  C   UNL     1       5.642   8.665 -24.655  1.00  0.00     0.238 A 
ATOM      4  O   UNL     1       5.364   7.625 -25.306  1.00  0.00    -0.285 OA
ATOM      5  C   UNL     1       6.813   9.414 -24.921  1.00  0.00     0.111 A 
ATOM      6  C   UNL     1       7.741   9.128 -25.968  1.00  0.00     0.134 A 
ATOM      7  C   UNL     1       8.921   9.875 -26.069  1.00  0.00     0.093 A 
ATOM      8  C   UNL     1       9.176  10.940 -25.202  1.00  0.00     0.123 A 
ATOM      9  C   UNL     1       8.252  11.263 -24.213  1.00  0.00     0.094 A 
ATOM     10  C   UNL     1       7.084  10.511 -24.061  1.00  0.00     0.146 A 
ATOM     11  O   UNL     1       6.241  10.841 -23.091  1.00  0.00    -0.452 OA
ENDROOT
BRANCH   1  12
ATOM     12  C   UNL     1       4.263  10.651 -21.726  1.00  0.00     0.029 A 
ATOM     13  C   UNL     1       3.433  11.776 -21.871  1.00  0.00     0.062 A 
ATOM     14  C   UNL     1       2.612  12.195 -20.816  1.00  0.00     0.162 A 
ATOM     15  C   UNL     1       4.234   9.931 -20.523  1.00  0.00     0.062 A 
ATOM     16  C   UNL     1       2.607  11.483 -19.605  1.00  0.00     0.200 A 
ATOM     17  C   UNL     1       3.419  10.344 -19.464  1.00  0.00     0.162 A 
BRANCH  14  18
ATOM     18  O   UNL     1       1.798  13.317 -20.968  1.00  0.00    -0.504 OA
ATOM     19  H   UNL     1       2.125  14.247 -20.730  1.00  0.00     0.293 HD
ENDBRANCH  14  18
BRANCH  16  20
ATOM     20  O   UNL     1       1.799  11.889 -18.542  1.00  0.00    -0.502 OA
ATOM     21  H   UNL     1       2.172  12.062 -17.616  1.00  0.00     0.293 HD
ENDBRANCH  16  20
BRANCH  17  22
ATOM     22  O   UNL     1       3.430   9.610 -18.277  1.00  0.00    -0.504 OA
ATOM     23  H   UNL     1       4.282   9.227 -17.888  1.00  0.00     0.293 HD
ENDBRANCH  17  22
ENDBRANCH   1  12
BRANCH   2  24
ATOM     24  O   UNL     1       3.577   8.384 -23.395  1.00  0.00    -0.502 OA
ATOM     25  H   UNL     1       3.467   7.714 -22.644  1.00  0.00     0.293 HD
ENDBRANCH   2  24
BRANCH   6  26
ATOM     26  O   UNL     1       7.543   8.144 -26.943  1.00  0.00    -0.507 OA
ATOM     27  H   UNL     1       7.705   7.158 -26.809  1.00  0.00     0.293 HD
ENDBRANCH   6  26
BRANCH   8  28
ATOM     28  O   UNL     1      10.345  11.689 -25.322  1.00  0.00    -0.508 OA
ATOM     29  H   UNL     1      10.693  12.254 -24.555  1.00  0.00     0.293 HD
ENDBRANCH   8  28
TORSDOF 7
ENDMDL
MODEL 3
REMARK VINA RESULT:    -6.928      0.072      1.755
REMARK INTER + INTRA:          -8.613
REMARK INTER:                  -8.636
REMARK INTRA:                   0.023
REMARK UNBOUND:                -0.065
REMARK SMILES O=c1c(O)c(-c2cc(O)c(O)c(O)c2)oc2cc(O)cc(O)c12
REMARK SMILES IDX 5 1 3 2 2 3 1 4 23 5 21 6 20 7 18 8 17 9 16 10 15 11 6 12
REMARK SMILES IDX 7 13 8 14 14 15 10 16 12 17 9 18 11 20 13 22 4 24 22 26
REMARK SMILES IDX 19 28
REMARK H PARENT 9 19 11 21 13 23 4 25 22 27 19 29
REMARK Flexibility Score: inf
ROOT
ATOM      1  C   UNL     1       7.501  11.107 -22.265  1.00  0.00     0.180 A 
ATOM      2  C   UNL     1       7.245  10.346 -23.418  1.00  0.00     0.208 A 
ATOM      3  C   UNL     1       6.027   9.656 -23.523  1.00  0.00     0.238 A 
ATOM      4  O   UNL     1       5.774   9.039 -24.590  1.00  0.00    -0.285 OA
ATOM      5  C   UNL     1       5.103   9.690 -22.451  1.00  0.00     0.111 A 
ATOM      6  C   UNL     1       3.857   8.992 -22.430  1.00  0.00     0.134 A 
ATOM      7  C   UNL     1       2.976   9.185 -21.358  1.00  0.00     0.093 A 
ATOM      8  C   UNL     1       3.322   9.999 -20.278  1.00  0.00     0.123 A 
ATOM      9  C   UNL     1       4.558  10.640 -20.263  1.00  0.00     0.094 A 
ATOM     10  C   UNL     1       5.443  10.499 -21.335  1.00  0.00     0.146 A 
ATOM     11  O   UNL     1       6.601  11.145 -21.288  1.00  0.00    -0.452 OA
ENDROOT
BRANCH   1  12
ATOM     12  C   UNL     1       8.755  11.873 -22.086  1.00  0.00     0.029 A 
ATOM     13  C   UNL     1       9.530  11.746 -20.920  1.00  0.00     0.062 A 
ATOM     14  C   UNL     1      10.727  12.460 -20.780  1.00  0.00     0.162 A 
ATOM     15  C   UNL     1       9.214  12.697 -23.124  1.00  0.00     0.062 A 
ATOM     16  C   UNL     1      11.168  13.302 -21.814  1.00  0.00     0.200 A 
ATOM     17  C   UNL     1      10.407  13.415 -22.991  1.00  0.00     0.162 A 
BRANCH  14  18
ATOM     18  O   UNL     1      11.484  12.332 -19.615  1.00  0.00    -0.504 OA
ATOM     19  H   UNL     1      11.202  12.774 -18.748  1.00  0.00     0.293 HD
ENDBRANCH  14  18
BRANCH  16  20
ATOM     20  O   UNL     1      12.355  14.024 -21.689  1.00  0.00    -0.502 OA
ATOM     21  H   UNL     1      12.821  14.439 -22.486  1.00  0.00     0.293 HD
ENDBRANCH  16  20
BRANCH  17  22
ATOM     22  O   UNL     1      10.821  14.236 -24.040  1.00  0.00    -0.504 OA
ATOM     23  H   UNL     1      10.901  15.240 -23.940  1.00  0.00     0.293 HD
ENDBRANCH  17  22
ENDBRANCH   1  12
BRANCH   2  24
ATOM     24  O   UNL     1       8.202  10.265 -24.432  1.00  0.00    -0.502 OA
ATOM     25  H   UNL     1       8.507  11.074 -24.960  1.00  0.00     0.293 HD
ENDBRANCH   2  24
BRANCH   6  26
ATOM     26  O   UNL     1       3.450   8.086 -23.414  1.00  0.00    -0.507 OA
ATOM     27  H   UNL     1       3.436   8.277 -24.404  1.00  0.00     0.293 HD
ENDBRANCH   6  26
BRANCH   8  28
ATOM     28  O   UNL     1       2.445  10.171 -19.208  1.00  0.00    -0.508 OA
ATOM     29  H   UNL     1       2.770  10.149 -18.248  1.00  0.00     0.293 HD
ENDBRANCH   8  28
TORSDOF 7
ENDMDL
MODEL 4
REMARK VINA RESULT:    -6.786      1.521      7.077
REMARK INTER + INTRA:          -8.438
REMARK INTER:                  -8.103
REMARK INTRA:                  -0.335
REMARK UNBOUND:                -0.065
REMARK SMILES O=c1c(O)c(-c2cc(O)c(O)c(O)c2)oc2cc(O)cc(O)c12
REMARK SMILES IDX 5 1 3 2 2 3 1 4 23 5 21 6 20 7 18 8 17 9 16 10 15 11 6 12
REMARK SMILES IDX 7 13 8 14 14 15 10 16 12 17 9 18 11 20 13 22 4 24 22 26
REMARK SMILES IDX 19 28
REMARK H PARENT 9 19 11 21 13 23 4 25 22 27 19 29
REMARK Flexibility Score: inf
ROOT
ATOM      1  C   UNL     1       8.141  11.816 -22.488  1.00  0.00     0.180 A 
ATOM      2  C   UNL     1       8.468  12.452 -23.697  1.00  0.00     0.208 A 
ATOM      3  C   UNL     1       9.713  13.092 -23.816  1.00  0.00     0.238 A 
ATOM      4  O   UNL     1      10.029  13.594 -24.926  1.00  0.00    -0.285 OA
ATOM      5  C   UNL     1      10.591  13.136 -22.706  1.00  0.00     0.111 A 
ATOM      6  C   UNL     1      11.857  13.796 -22.698  1.00  0.00     0.134 A 
ATOM      7  C   UNL     1      12.688  13.682 -21.576  1.00  0.00     0.093 A 
ATOM      8  C   UNL     1      12.271  12.989 -20.438  1.00  0.00     0.123 A 
ATOM      9  C   UNL     1      11.015  12.389 -20.415  1.00  0.00     0.094 A 
ATOM     10  C   UNL     1      10.179  12.451 -21.533  1.00  0.00     0.146 A 
ATOM     11  O   UNL     1       8.999  11.847 -21.475  1.00  0.00    -0.452 OA
ENDROOT
BRANCH   1  12
ATOM     12  C   UNL     1       6.855  11.109 -22.292  1.00  0.00     0.029 A 
ATOM     13  C   UNL     1       5.762  11.739 -21.671  1.00  0.00     0.062 A 
ATOM     14  C   UNL     1       4.545  11.062 -21.516  1.00  0.00     0.162 A 
ATOM     15  C   UNL     1       6.701   9.806 -22.787  1.00  0.00     0.062 A 
ATOM     16  C   UNL     1       4.407   9.747 -21.992  1.00  0.00     0.200 A 
ATOM     17  C   UNL     1       5.491   9.122 -22.633  1.00  0.00     0.162 A 
BRANCH  14  18
ATOM     18  O   UNL     1       3.470  11.693 -20.891  1.00  0.00    -0.504 OA
ATOM     19  H   UNL     1       2.517  11.556 -21.207  1.00  0.00     0.293 HD
ENDBRANCH  14  18
BRANCH  16  20
ATOM     20  O   UNL     1       3.204   9.057 -21.842  1.00  0.00    -0.502 OA
ATOM     21  H   UNL     1       3.144   8.050 -21.928  1.00  0.00     0.293 HD
ENDBRANCH  16  20
BRANCH  17  22
ATOM     22  O   UNL     1       5.383   7.821 -23.125  1.00  0.00    -0.504 OA
ATOM     23  H   UNL     1       6.193   7.237 -23.289  1.00  0.00     0.293 HD
ENDBRANCH  17  22
ENDBRANCH   1  12
BRANCH   2  24
ATOM     24  O   UNL     1       7.557  12.462 -24.756  1.00  0.00    -0.502 OA
ATOM     25  H   UNL     1       7.596  11.792 -25.515  1.00  0.00     0.293 HD
ENDBRANCH   2  24
BRANCH   6  26
ATOM     26  O   UNL     1      12.335  14.588 -23.747  1.00  0.00    -0.507 OA
ATOM     27  H   UNL     1      11.795  15.283 -24.237  1.00  0.00     0.293 HD
ENDBRANCH   6  26
BRANCH   8  28
ATOM     28  O   UNL     1      13.097  12.896 -19.319  1.00  0.00    -0.508 OA
ATOM     29  H   UNL     1      14.029  12.503 -19.380  1.00  0.00     0.293 HD
ENDBRANCH   8  28
TORSDOF 7
ENDMDL
MODEL 5
REMARK VINA RESULT:    -6.780      2.697      6.457
REMARK INTER + INTRA:          -8.431
REMARK INTER:                  -8.087
REMARK INTRA:                  -0.344
REMARK UNBOUND:                -0.065
REMARK SMILES O=c1c(O)c(-c2cc(O)c(O)c(O)c2)oc2cc(O)cc(O)c12
REMARK SMILES IDX 5 1 3 2 2 3 1 4 23 5 21 6 20 7 18 8 17 9 16 10 15 11 6 12
REMARK SMILES IDX 7 13 8 14 14 15 10 16 12 17 9 18 11 20 13 22 4 24 22 26
REMARK SMILES IDX 19 28
REMARK H PARENT 9 19 11 21 13 23 4 25 22 27 19 29
REMARK Flexibility Score: inf
ROOT
ATOM      1  C   UNL     1       5.467  10.701 -22.569  1.00  0.00     0.180 A 
ATOM      2  C   UNL     1       6.642  11.461 -22.695  1.00  0.00     0.208 A 
ATOM      3  C   UNL     1       7.545  11.153 -23.726  1.00  0.00     0.238 A 
ATOM      4  O   UNL     1       8.557  11.886 -23.879  1.00  0.00    -0.285 OA
ATOM      5  C   UNL     1       7.290  10.055 -24.582  1.00  0.00     0.111 A 
ATOM      6  C   UNL     1       8.158   9.624 -25.631  1.00  0.00     0.134 A 
ATOM      7  C   UNL     1       7.751   8.589 -26.483  1.00  0.00     0.093 A 
ATOM      8  C   UNL     1       6.538   7.926 -26.283  1.00  0.00     0.123 A 
ATOM      9  C   UNL     1       5.710   8.302 -25.229  1.00  0.00     0.094 A 
ATOM     10  C   UNL     1       6.070   9.357 -24.386  1.00  0.00     0.146 A 
ATOM     11  O   UNL     1       5.240   9.695 -23.407  1.00  0.00    -0.452 OA
ENDROOT
BRANCH   1  12
ATOM     12  C   UNL     1       4.462  10.972 -21.517  1.00  0.00     0.029 A 
ATOM     13  C   UNL     1       3.514  12.001 -21.659  1.00  0.00     0.062 A 
ATOM     14  C   UNL     1       2.554  12.227 -20.664  1.00  0.00     0.162 A 
ATOM     15  C   UNL     1       4.412  10.151 -20.381  1.00  0.00     0.062 A 
ATOM     16  C   UNL     1       2.527  11.415 -19.517  1.00  0.00     0.200 A 
ATOM     17  C   UNL     1       3.459  10.371 -19.382  1.00  0.00     0.162 A 
BRANCH  14  18
ATOM     18  O   UNL     1       1.625  13.256 -20.811  1.00  0.00    -0.504 OA
ATOM     19  H   UNL     1       1.890  14.230 -20.721  1.00  0.00     0.293 HD
ENDBRANCH  14  18
BRANCH  16  20
ATOM     20  O   UNL     1       1.581  11.630 -18.514  1.00  0.00    -0.502 OA
ATOM     21  H   UNL     1       1.298  10.898 -17.873  1.00  0.00     0.293 HD
ENDBRANCH  16  20
BRANCH  17  22
ATOM     22  O   UNL     1       3.452   9.542 -18.260  1.00  0.00    -0.504 OA
ATOM     23  H   UNL     1       2.644   8.989 -18.003  1.00  0.00     0.293 HD
ENDBRANCH  17  22
ENDBRANCH   1  12
BRANCH   2  24
ATOM     24  O   UNL     1       6.912  12.493 -21.794  1.00  0.00    -0.502 OA
ATOM     25  H   UNL     1       7.661  13.159 -21.937  1.00  0.00     0.293 HD
ENDBRANCH   2  24
BRANCH   6  26
ATOM     26  O   UNL     1       9.430  10.157 -25.864  1.00  0.00    -0.507 OA
ATOM     27  H   UNL     1      10.252   9.615 -26.079  1.00  0.00     0.293 HD
ENDBRANCH   6  26
BRANCH   8  28
ATOM     28  O   UNL     1       6.149   6.886 -27.125  1.00  0.00    -0.508 OA
ATOM     29  H   UNL     1       6.609   5.983 -27.099  1.00  0.00     0.293 HD
ENDBRANCH   8  28
TORSDOF 7
ENDMDL
MODEL 6
REMARK VINA RESULT:    -6.669      1.917      6.574
REMARK INTER + INTRA:          -8.294
REMARK INTER:                  -7.937
REMARK INTRA:                  -0.357
REMARK UNBOUND:                -0.065
REMARK SMILES O=c1c(O)c(-c2cc(O)c(O)c(O)c2)oc2cc(O)cc(O)c12
REMARK SMILES IDX 5 1 3 2 2 3 1 4 23 5 21 6 20 7 18 8 17 9 16 10 15 11 6 12
REMARK SMILES IDX 7 13 8 14 14 15 10 16 12 17 9 18 11 20 13 22 4 24 22 26
REMARK SMILES IDX 19 28
REMARK H PARENT 9 19 11 21 13 23 4 25 22 27 19 29
REMARK Flexibility Score: inf
ROOT
ATOM      1  C   UNL     1       5.705  10.841 -22.905  1.00  0.00     0.180 A 
ATOM      2  C   UNL     1       5.490  10.183 -24.128  1.00  0.00     0.208 A 
ATOM      3  C   UNL     1       6.509  10.193 -25.095  1.00  0.00     0.238 A 
ATOM      4  O   UNL     1       6.338   9.538 -26.156  1.00  0.00    -0.285 OA
ATOM      5  C   UNL     1       7.705  10.908 -24.851  1.00  0.00     0.111 A 
ATOM      6  C   UNL     1       8.786  11.024 -25.777  1.00  0.00     0.134 A 
ATOM      7  C   UNL     1       9.966  11.668 -25.385  1.00  0.00     0.093 A 
ATOM      8  C   UNL     1      10.081  12.256 -24.123  1.00  0.00     0.123 A 
ATOM      9  C   UNL     1       9.012  12.197 -23.233  1.00  0.00     0.094 A 
ATOM     10  C   UNL     1       7.836  11.527 -23.580  1.00  0.00     0.146 A 
ATOM     11  O   UNL     1       6.852  11.477 -22.692  1.00  0.00    -0.452 OA
ENDROOT
BRANCH   1  12
ATOM     12  C   UNL     1       4.686  10.863 -21.832  1.00  0.00     0.029 A 
ATOM     13  C   UNL     1       3.693  11.857 -21.786  1.00  0.00     0.062 A 
ATOM     14  C   UNL     1       2.722  11.848 -20.776  1.00  0.00     0.162 A 
ATOM     15  C   UNL     1       4.671   9.839 -20.873  1.00  0.00     0.062 A 
ATOM     16  C   UNL     1       2.729  10.832 -19.805  1.00  0.00     0.200 A 
ATOM     17  C   UNL     1       3.707   9.824 -19.860  1.00  0.00     0.162 A 
BRANCH  14  18
ATOM     18  O   UNL     1       1.746  12.844 -20.736  1.00  0.00    -0.504 OA
ATOM     19  H   UNL     1       1.812  13.626 -20.096  1.00  0.00     0.293 HD
ENDBRANCH  14  18
BRANCH  16  20
ATOM     20  O   UNL     1       1.772  10.811 -18.790  1.00  0.00    -0.502 OA
ATOM     21  H   UNL     1       2.025  10.799 -17.809  1.00  0.00     0.293 HD
ENDBRANCH  16  20
BRANCH  17  22
ATOM     22  O   UNL     1       3.735   8.797 -18.916  1.00  0.00    -0.504 OA
ATOM     23  H   UNL     1       4.386   8.024 -18.979  1.00  0.00     0.293 HD
ENDBRANCH  17  22
ENDBRANCH   1  12
BRANCH   2  24
ATOM     24  O   UNL     1       4.272   9.546 -24.380  1.00  0.00    -0.502 OA
ATOM     25  H   UNL     1       4.216   8.600 -24.736  1.00  0.00     0.293 HD
ENDBRANCH   2  24
BRANCH   6  26
ATOM     26  O   UNL     1       8.744  10.550 -27.093  1.00  0.00    -0.507 OA
ATOM     27  H   UNL     1       9.531  10.525 -27.722  1.00  0.00     0.293 HD
ENDBRANCH   6  26
BRANCH   8  28
ATOM     28  O   UNL     1      11.253  12.911 -23.748  1.00  0.00    -0.508 OA
ATOM     29  H   UNL     1      11.728  12.689 -22.881  1.00  0.00     0.293 HD
ENDBRANCH   8  28
TORSDOF 7
ENDMDL
MODEL 7
REMARK VINA RESULT:    -6.633      1.264      7.341
REMARK INTER + INTRA:          -8.250
REMARK INTER:                  -8.037
REMARK INTRA:                  -0.212
REMARK UNBOUND:                -0.065
REMARK SMILES O=c1c(O)c(-c2cc(O)c(O)c(O)c2)oc2cc(O)cc(O)c12
REMARK SMILES IDX 5 1 3 2 2 3 1 4 23 5 21 6 20 7 18 8 17 9 16 10 15 11 6 12
REMARK SMILES IDX 7 13 8 14 14 15 10 16 12 17 9 18 11 20 13 22 4 24 22 26
REMARK SMILES IDX 19 28
REMARK H PARENT 9 19 11 21 13 23 4 25 22 27 19 29
REMARK Flexibility Score: inf
ROOT
ATOM      1  C   UNL     1       7.474  11.025 -22.312  1.00  0.00     0.180 A 
ATOM      2  C   UNL     1       8.248  10.926 -21.144  1.00  0.00     0.208 A 
ATOM      3  C   UNL     1       9.404  11.715 -21.024  1.00  0.00     0.238 A 
ATOM      4  O   UNL     1      10.050  11.676 -19.944  1.00  0.00    -0.285 OA
ATOM      5  C   UNL     1       9.802  12.550 -22.095  1.00  0.00     0.111 A 
ATOM      6  C   UNL     1      10.979  13.359 -22.100  1.00  0.00     0.134 A 
ATOM      7  C   UNL     1      11.215  14.227 -23.173  1.00  0.00     0.093 A 
ATOM      8  C   UNL     1      10.352  14.269 -24.271  1.00  0.00     0.123 A 
ATOM      9  C   UNL     1       9.231  13.444 -24.300  1.00  0.00     0.094 A 
ATOM     10  C   UNL     1       8.946  12.595 -23.227  1.00  0.00     0.146 A 
ATOM     11  O   UNL     1       7.856  11.842 -23.288  1.00  0.00    -0.452 OA
ENDROOT
BRANCH   1  12
ATOM     12  C   UNL     1       6.236  10.237 -22.507  1.00  0.00     0.029 A 
ATOM     13  C   UNL     1       5.111  10.427 -21.687  1.00  0.00     0.062 A 
ATOM     14  C   UNL     1       3.939   9.689 -21.902  1.00  0.00     0.162 A 
ATOM     15  C   UNL     1       6.159   9.324 -23.569  1.00  0.00     0.062 A 
ATOM     16  C   UNL     1       3.880   8.758 -22.953  1.00  0.00     0.200 A 
ATOM     17  C   UNL     1       4.995   8.581 -23.790  1.00  0.00     0.162 A 
BRANCH  14  18
ATOM     18  O   UNL     1       2.832   9.879 -21.076  1.00  0.00    -0.504 OA
ATOM     19  H   UNL     1       2.926  10.254 -20.139  1.00  0.00     0.293 HD
ENDBRANCH  14  18
BRANCH  16  20
ATOM     20  O   UNL     1       2.723   8.011 -23.178  1.00  0.00    -0.502 OA
ATOM     21  H   UNL     1       2.548   7.538 -24.057  1.00  0.00     0.293 HD
ENDBRANCH  16  20
BRANCH  17  22
ATOM     22  O   UNL     1       4.964   7.672 -24.847  1.00  0.00    -0.504 OA
ATOM     23  H   UNL     1       5.787   7.160 -25.143  1.00  0.00     0.293 HD
ENDBRANCH  17  22
ENDBRANCH   1  12
BRANCH   2  24
ATOM     24  O   UNL     1       7.879  10.039 -20.129  1.00  0.00    -0.502 OA
ATOM     25  H   UNL     1       6.941  10.007 -19.749  1.00  0.00     0.293 HD
ENDBRANCH   2  24
BRANCH   6  26
ATOM     26  O   UNL     1      11.953  13.331 -21.097  1.00  0.00    -0.507 OA
ATOM     27  H   UNL     1      12.350  12.493 -20.701  1.00  0.00     0.293 HD
ENDBRANCH   6  26
BRANCH   8  28
ATOM     28  O   UNL     1      10.604  15.123 -25.342  1.00  0.00    -0.508 OA
ATOM     29  H   UNL     1      11.008  14.782 -26.207  1.00  0.00     0.293 HD
ENDBRANCH   8  28
TORSDOF 7
ENDMDL
MODEL 8
REMARK VINA RESULT:    -6.625      1.666      6.928
REMARK INTER + INTRA:          -8.239
REMARK INTER:                  -8.093
REMARK INTRA:                  -0.147
REMARK UNBOUND:                -0.065
REMARK SMILES O=c1c(O)c(-c2cc(O)c(O)c(O)c2)oc2cc(O)cc(O)c12
REMARK SMILES IDX 5 1 3 2 2 3 1 4 23 5 21 6 20 7 18 8 17 9 16 10 15 11 6 12
REMARK SMILES IDX 7 13 8 14 14 15 10 16 12 17 9 18 11 20 13 22 4 24 22 26
REMARK SMILES IDX 19 28
REMARK H PARENT 9 19 11 21 13 23 4 25 22 27 19 29
REMARK Flexibility Score: inf
ROOT
ATOM      1  C   UNL     1       6.489  11.542 -21.914  1.00  0.00     0.180 A 
ATOM      2  C   UNL     1       6.560  11.739 -23.303  1.00  0.00     0.208 A 
ATOM      3  C   UNL     1       7.791  12.094 -23.879  1.00  0.00     0.238 A 
ATOM      4  O   UNL     1       7.863  12.195 -25.132  1.00  0.00    -0.285 OA
ATOM      5  C   UNL     1       8.921  12.304 -23.053  1.00  0.00     0.111 A 
ATOM      6  C   UNL     1      10.207  12.711 -23.524  1.00  0.00     0.134 A 
ATOM      7  C   UNL     1      11.279  12.783 -22.626  1.00  0.00     0.093 A 
ATOM      8  C   UNL     1      11.098  12.528 -21.264  1.00  0.00     0.123 A 
ATOM      9  C   UNL     1       9.836  12.185 -20.787  1.00  0.00     0.094 A 
ATOM     10  C   UNL     1       8.755  12.066 -21.664  1.00  0.00     0.146 A 
ATOM     11  O   UNL     1       7.575  11.716 -21.168  1.00  0.00    -0.452 OA
ENDROOT
BRANCH   1  12
ATOM     12  C   UNL     1       5.232  11.153 -21.236  1.00  0.00     0.029 A 
ATOM     13  C   UNL     1       5.141   9.966 -20.489  1.00  0.00     0.062 A 
ATOM     14  C   UNL     1       3.950   9.626 -19.834  1.00  0.00     0.162 A 
ATOM     15  C   UNL     1       4.125  12.014 -21.287  1.00  0.00     0.062 A 
ATOM     16  C   UNL     1       2.838  10.482 -19.911  1.00  0.00     0.200 A 
ATOM     17  C   UNL     1       2.932  11.681 -20.639  1.00  0.00     0.162 A 
BRANCH  14  18
ATOM     18  O   UNL     1       3.868   8.442 -19.103  1.00  0.00    -0.504 OA
ATOM     19  H   UNL     1       4.290   7.582 -19.435  1.00  0.00     0.293 HD
ENDBRANCH  14  18
BRANCH  16  20
ATOM     20  O   UNL     1       1.643  10.157 -19.269  1.00  0.00    -0.502 OA
ATOM     21  H   UNL     1       0.766  10.073 -19.769  1.00  0.00     0.293 HD
ENDBRANCH  16  20
BRANCH  17  22
ATOM     22  O   UNL     1       1.849  12.556 -20.727  1.00  0.00    -0.504 OA
ATOM     23  H   UNL     1       0.903  12.268 -20.510  1.00  0.00     0.293 HD
ENDBRANCH  17  22
ENDBRANCH   1  12
BRANCH   2  24
ATOM     24  O   UNL     1       5.416  11.601 -24.093  1.00  0.00    -0.502 OA
ATOM     25  H   UNL     1       4.509  11.374 -23.702  1.00  0.00     0.293 HD
ENDBRANCH   2  24
BRANCH   6  26
ATOM     26  O   UNL     1      10.478  13.075 -24.846  1.00  0.00    -0.507 OA
ATOM     27  H   UNL     1      11.397  13.256 -25.218  1.00  0.00     0.293 HD
ENDBRANCH   6  26
BRANCH   8  28
ATOM     28  O   UNL     1      12.168  12.620 -20.375  1.00  0.00    -0.508 OA
ATOM     29  H   UNL     1      12.394  11.864 -19.739  1.00  0.00     0.293 HD
ENDBRANCH   8  28
TORSDOF 7
ENDMDL
