MODEL 1
REMARK VINA RESULT:    -4.026      0.000      0.000
REMARK INTER + INTRA:          -6.945
REMARK INTER:                  -5.438
REMARK INTRA:                  -1.507
REMARK UNBOUND:                -1.507
REMARK SMILES C=CC(C)=CCC=C(C)CCC=C(C)C
REMARK SMILES IDX 8 1 7 2 9 3 10 4 11 5 12 6 14 7 13 8 15 9 6 10 5 11 3 12
REMARK SMILES IDX 4 13 2 14 1 15
REMARK H PARENT
REMARK Flexibility Score: inf
ROOT
ATOM      1  C   UNL     1      13.362   3.931  18.381  1.00  0.00    -0.077 C 
ATOM      2  C   UNL     1      12.366   4.447  17.624  1.00  0.00    -0.024 C 
ATOM      3  C   UNL     1      13.279   3.889  19.888  1.00  0.00     0.039 C 
ENDROOT
BRANCH   1   4
ATOM      4  C   UNL     1      14.600   3.390  17.699  1.00  0.00     0.034 C 
BRANCH   4   5
ATOM      5  C   UNL     1      14.898   4.172  16.415  1.00  0.00     0.032 C 
BRANCH   5   6
ATOM      6  C   UNL     1      15.937   5.236  16.667  1.00  0.00    -0.028 C 
ATOM      7  C   UNL     1      14.333   7.121  16.285  1.00  0.00     0.039 C 
ATOM      8  C   UNL     1      15.692   6.565  16.637  1.00  0.00    -0.080 C 
ATOM      9  C   UNL     1      16.824   7.510  16.949  1.00  0.00     0.039 C 
ENDBRANCH   5   6
ENDBRANCH   4   5
ENDBRANCH   1   4
BRANCH   2  10
ATOM     10  C   UNL     1      11.089   5.035  18.174  1.00  0.00     0.055 C 
BRANCH  10  11
ATOM     11  C   UNL     1      10.916   6.475  17.767  1.00  0.00    -0.020 C 
ATOM     12  C   UNL     1      11.210   7.539  18.540  1.00  0.00    -0.055 C 
ATOM     13  C   UNL     1      11.732   7.388  19.952  1.00  0.00     0.044 C 
BRANCH  12  14
ATOM     14  C   UNL     1      10.926   8.892  17.992  1.00  0.00    -0.005 C 
ATOM     15  C   UNL     1      11.088   9.217  16.709  1.00  0.00     0.009 C 
ENDBRANCH  12  14
ENDBRANCH  10  11
ENDBRANCH   2  10
TORSDOF 6
ENDMDL
MODEL 2
REMARK VINA RESULT:    -3.995      1.578      4.282
REMARK INTER + INTRA:          -6.903
REMARK INTER:                  -5.008
REMARK INTRA:                  -1.894
REMARK UNBOUND:                -1.507
REMARK SMILES C=CC(C)=CCC=C(C)CCC=C(C)C
REMARK SMILES IDX 8 1 7 2 9 3 10 4 11 5 12 6 14 7 13 8 15 9 6 10 5 11 3 12
REMARK SMILES IDX 4 13 2 14 1 15
REMARK H PARENT
REMARK Flexibility Score: inf
ROOT
ATOM      1  C   UNL     1      11.726   5.584  18.447  1.00  0.00    -0.077 C 
ATOM      2  C   UNL     1      12.324   4.370  18.401  1.00  0.00    -0.024 C 
ATOM      3  C   UNL     1      11.780   6.454  19.680  1.00  0.00     0.039 C 
ENDROOT
BRANCH   1   4
ATOM      4  C   UNL     1      10.972   6.078  17.232  1.00  0.00     0.034 C 
BRANCH   4   5
ATOM      5  C   UNL     1      11.903   6.182  16.019  1.00  0.00     0.032 C 
BRANCH   5   6
ATOM      6  C   UNL     1      13.096   7.049  16.336  1.00  0.00    -0.028 C 
ATOM      7  C   UNL     1      14.749   5.224  15.875  1.00  0.00     0.039 C 
ATOM      8  C   UNL     1      14.381   6.640  16.252  1.00  0.00    -0.080 C 
ATOM      9  C   UNL     1      15.472   7.632  16.563  1.00  0.00     0.039 C 
ENDBRANCH   5   6
ENDBRANCH   4   5
ENDBRANCH   1   4
BRANCH   2  10
ATOM     10  C   UNL     1      13.090   3.750  19.545  1.00  0.00     0.055 C 
BRANCH  10  11
ATOM     11  C   UNL     1      14.512   3.438  19.160  1.00  0.00    -0.020 C 
ATOM     12  C   UNL     1      15.562   4.265  19.339  1.00  0.00    -0.055 C 
ATOM     13  C   UNL     1      15.405   5.646  19.935  1.00  0.00     0.044 C 
BRANCH  12  14
ATOM     14  C   UNL     1      16.891   3.810  18.851  1.00  0.00    -0.005 C 
ATOM     15  C   UNL     1      17.610   4.471  17.942  1.00  0.00     0.009 C 
ENDBRANCH  12  14
ENDBRANCH  10  11
ENDBRANCH   2  10
TORSDOF 6
ENDMDL
MODEL 3
REMARK VINA RESULT:    -3.980      2.206      4.734
REMARK INTER + INTRA:          -6.883
REMARK INTER:                  -6.021
REMARK INTRA:                  -0.862
REMARK UNBOUND:                -1.507
REMARK SMILES C=CC(C)=CCC=C(C)CCC=C(C)C
REMARK SMILES IDX 8 1 7 2 9 3 10 4 11 5 12 6 14 7 13 8 15 9 6 10 5 11 3 12
REMARK SMILES IDX 4 13 2 14 1 15
REMARK H PARENT
REMARK Flexibility Score: inf
ROOT
ATOM      1  C   UNL     1      13.961   3.754  18.545  1.00  0.00    -0.077 C 
ATOM      2  C   UNL     1      12.706   4.091  18.923  1.00  0.00    -0.024 C 
ATOM      3  C   UNL     1      14.372   3.709  17.092  1.00  0.00     0.039 C 
ENDROOT
BRANCH   1   4
ATOM      4  C   UNL     1      14.979   3.400  19.607  1.00  0.00     0.034 C 
BRANCH   4   5
ATOM      5  C   UNL     1      14.305   3.243  20.974  1.00  0.00     0.032 C 
BRANCH   5   6
ATOM      6  C   UNL     1      14.332   1.802  21.420  1.00  0.00    -0.028 C 
ATOM      7  C   UNL     1      12.349   2.062  22.928  1.00  0.00     0.039 C 
ATOM      8  C   UNL     1      13.445   1.251  22.278  1.00  0.00    -0.080 C 
ATOM      9  C   UNL     1      13.575  -0.215  22.601  1.00  0.00     0.039 C 
ENDBRANCH   5   6
ENDBRANCH   4   5
ENDBRANCH   1   4
BRANCH   2  10
ATOM     10  C   UNL     1      11.591   4.447  17.968  1.00  0.00     0.055 C 
BRANCH  10  11
ATOM     11  C   UNL     1      11.150   5.877  18.133  1.00  0.00    -0.020 C 
ATOM     12  C   UNL     1      11.331   6.853  17.219  1.00  0.00    -0.055 C 
ATOM     13  C   UNL     1      12.044   6.605  15.909  1.00  0.00     0.044 C 
BRANCH  12  14
ATOM     14  C   UNL     1      10.876   8.223  17.572  1.00  0.00    -0.005 C 
ATOM     15  C   UNL     1      11.123   9.299  16.825  1.00  0.00     0.009 C 
ENDBRANCH  12  14
ENDBRANCH  10  11
ENDBRANCH   2  10
TORSDOF 6
ENDMDL
MODEL 4
REMARK VINA RESULT:    -3.961      1.203      4.109
REMARK INTER + INTRA:          -6.857
REMARK INTER:                  -5.103
REMARK INTRA:                  -1.754
REMARK UNBOUND:                -1.507
REMARK SMILES C=CC(C)=CCC=C(C)CCC=C(C)C
REMARK SMILES IDX 8 1 7 2 9 3 10 4 11 5 12 6 14 7 13 8 15 9 6 10 5 11 3 12
REMARK SMILES IDX 4 13 2 14 1 15
REMARK H PARENT
REMARK Flexibility Score: inf
ROOT
ATOM      1  C   UNL     1      11.408   7.410  17.000  1.00  0.00    -0.077 C 
ATOM      2  C   UNL     1      11.436   6.081  16.743  1.00  0.00    -0.024 C 
ATOM      3  C   UNL     1      11.008   7.953  18.351  1.00  0.00     0.039 C 
ENDROOT
BRANCH   1   4
ATOM      4  C   UNL     1      11.775   8.379  15.898  1.00  0.00     0.034 C 
BRANCH   4   5
ATOM      5  C   UNL     1      13.205   8.899  16.084  1.00  0.00     0.032 C 
BRANCH   5   6
ATOM      6  C   UNL     1      14.207   7.789  15.877  1.00  0.00    -0.028 C 
ATOM      7  C   UNL     1      14.812   7.664  18.304  1.00  0.00     0.039 C 
ATOM      8  C   UNL     1      14.918   7.208  16.868  1.00  0.00    -0.080 C 
ATOM      9  C   UNL     1      15.855   6.082  16.514  1.00  0.00     0.039 C 
ENDBRANCH   5   6
ENDBRANCH   4   5
ENDBRANCH   1   4
BRANCH   2  10
ATOM     10  C   UNL     1      11.077   5.009  17.743  1.00  0.00     0.055 C 
BRANCH  10  11
ATOM     11  C   UNL     1      12.264   4.152  18.095  1.00  0.00    -0.020 C 
ATOM     12  C   UNL     1      12.998   4.270  19.221  1.00  0.00    -0.055 C 
ATOM     13  C   UNL     1      12.709   5.329  20.261  1.00  0.00     0.044 C 
BRANCH  12  14
ATOM     14  C   UNL     1      14.170   3.370  19.379  1.00  0.00    -0.005 C 
ATOM     15  C   UNL     1      14.932   2.964  18.363  1.00  0.00     0.009 C 
ENDBRANCH  12  14
ENDBRANCH  10  11
ENDBRANCH   2  10
TORSDOF 6
ENDMDL
MODEL 5
REMARK VINA RESULT:    -3.861      1.343      3.870
REMARK INTER + INTRA:          -6.722
REMARK INTER:                  -4.946
REMARK INTRA:                  -1.776
REMARK UNBOUND:                -1.507
REMARK SMILES C=CC(C)=CCC=C(C)CCC=C(C)C
REMARK SMILES IDX 8 1 7 2 9 3 10 4 11 5 12 6 14 7 13 8 15 9 6 10 5 11 3 12
REMARK SMILES IDX 4 13 2 14 1 15
REMARK H PARENT
REMARK Flexibility Score: inf
ROOT
ATOM      1  C   UNL     1      14.296   6.640  16.585  1.00  0.00    -0.077 C 
ATOM      2  C   UNL     1      14.803   7.123  17.743  1.00  0.00    -0.024 C 
ATOM      3  C   UNL     1      13.024   7.188  15.982  1.00  0.00     0.039 C 
ENDROOT
BRANCH   1   4
ATOM      4  C   UNL     1      15.017   5.513  15.880  1.00  0.00     0.034 C 
BRANCH   4   5
ATOM      5  C   UNL     1      14.320   4.173  16.144  1.00  0.00     0.032 C 
BRANCH   5   6
ATOM      6  C   UNL     1      14.518   3.741  17.576  1.00  0.00    -0.028 C 
ATOM      7  C   UNL     1      12.164   4.283  18.235  1.00  0.00     0.039 C 
ATOM      8  C   UNL     1      13.552   3.762  18.520  1.00  0.00    -0.080 C 
ATOM      9  C   UNL     1      13.889   3.262  19.902  1.00  0.00     0.039 C 
ENDBRANCH   5   6
ENDBRANCH   4   5
ENDBRANCH   1   4
BRANCH   2  10
ATOM     10  C   UNL     1      14.177   8.230  18.557  1.00  0.00     0.055 C 
BRANCH  10  11
ATOM     11  C   UNL     1      13.595   7.714  19.847  1.00  0.00    -0.020 C 
ATOM     12  C   UNL     1      12.279   7.545  20.090  1.00  0.00    -0.055 C 
ATOM     13  C   UNL     1      11.221   7.895  19.067  1.00  0.00     0.044 C 
BRANCH  12  14
ATOM     14  C   UNL     1      11.882   7.073  21.442  1.00  0.00    -0.005 C 
ATOM     15  C   UNL     1      11.949   5.798  21.829  1.00  0.00     0.009 C 
ENDBRANCH  12  14
ENDBRANCH  10  11
ENDBRANCH   2  10
TORSDOF 6
ENDMDL
MODEL 6
REMARK VINA RESULT:    -3.823      1.443      5.094
REMARK INTER + INTRA:          -6.671
REMARK INTER:                  -5.133
REMARK INTRA:                  -1.538
REMARK UNBOUND:                -1.507
REMARK SMILES C=CC(C)=CCC=C(C)CCC=C(C)C
REMARK SMILES IDX 8 1 7 2 9 3 10 4 11 5 12 6 14 7 13 8 15 9 6 10 5 11 3 12
REMARK SMILES IDX 4 13 2 14 1 15
REMARK H PARENT
REMARK Flexibility Score: inf
ROOT
ATOM      1  C   UNL     1      13.315   5.739  16.347  1.00  0.00    -0.077 C 
ATOM      2  C   UNL     1      13.224   4.512  16.912  1.00  0.00    -0.024 C 
ATOM      3  C   UNL     1      14.639   6.447  16.186  1.00  0.00     0.039 C 
ENDROOT
BRANCH   1   4
ATOM      4  C   UNL     1      12.053   6.426  15.875  1.00  0.00     0.034 C 
BRANCH   4   5
ATOM      5  C   UNL     1      10.956   6.340  16.942  1.00  0.00     0.032 C 
BRANCH   5   6
ATOM      6  C   UNL     1      10.996   7.547  17.847  1.00  0.00    -0.028 C 
ATOM      7  C   UNL     1      11.771   6.233  19.833  1.00  0.00     0.039 C 
ATOM      8  C   UNL     1      11.384   7.519  19.141  1.00  0.00    -0.080 C 
ATOM      9  C   UNL     1      11.409   8.814  19.911  1.00  0.00     0.039 C 
ENDBRANCH   5   6
ENDBRANCH   4   5
ENDBRANCH   1   4
BRANCH   2  10
ATOM     10  C   UNL     1      14.399   3.724  17.441  1.00  0.00     0.055 C 
BRANCH  10  11
ATOM     11  C   UNL     1      14.140   3.202  18.830  1.00  0.00    -0.020 C 
ATOM     12  C   UNL     1      14.524   3.811  19.970  1.00  0.00    -0.055 C 
ATOM     13  C   UNL     1      15.304   5.106  19.967  1.00  0.00     0.044 C 
BRANCH  12  14
ATOM     14  C   UNL     1      14.227   3.123  21.254  1.00  0.00    -0.005 C 
ATOM     15  C   UNL     1      13.022   3.116  21.827  1.00  0.00     0.009 C 
ENDBRANCH  12  14
ENDBRANCH  10  11
ENDBRANCH   2  10
TORSDOF 6
ENDMDL
MODEL 7
REMARK VINA RESULT:    -3.808      1.647      5.355
REMARK INTER + INTRA:          -6.650
REMARK INTER:                  -4.839
REMARK INTRA:                  -1.811
REMARK UNBOUND:                -1.507
REMARK SMILES C=CC(C)=CCC=C(C)CCC=C(C)C
REMARK SMILES IDX 8 1 7 2 9 3 10 4 11 5 12 6 14 7 13 8 15 9 6 10 5 11 3 12
REMARK SMILES IDX 4 13 2 14 1 15
REMARK H PARENT
REMARK Flexibility Score: inf
ROOT
ATOM      1  C   UNL     1      12.882   6.579  16.087  1.00  0.00    -0.077 C 
ATOM      2  C   UNL     1      13.658   5.490  15.875  1.00  0.00    -0.024 C 
ATOM      3  C   UNL     1      13.475   7.944  16.341  1.00  0.00     0.039 C 
ENDROOT
BRANCH   1   4
ATOM      4  C   UNL     1      11.378   6.422  16.079  1.00  0.00     0.034 C 
BRANCH   4   5
ATOM      5  C   UNL     1      10.925   5.469  17.192  1.00  0.00     0.032 C 
BRANCH   5   6
ATOM      6  C   UNL     1      11.253   6.040  18.549  1.00  0.00    -0.028 C 
ATOM      7  C   UNL     1      12.765   4.140  19.163  1.00  0.00     0.039 C 
ATOM      8  C   UNL     1      12.097   5.467  19.435  1.00  0.00    -0.080 C 
ATOM      9  C   UNL     1      12.357   6.176  20.740  1.00  0.00     0.039 C 
ENDBRANCH   5   6
ENDBRANCH   4   5
ENDBRANCH   1   4
BRANCH   2  10
ATOM     10  C   UNL     1      15.168   5.502  15.875  1.00  0.00     0.055 C 
BRANCH  10  11
ATOM     11  C   UNL     1      15.735   4.569  16.913  1.00  0.00    -0.020 C 
ATOM     12  C   UNL     1      16.080   4.924  18.167  1.00  0.00    -0.055 C 
ATOM     13  C   UNL     1      15.957   6.348  18.662  1.00  0.00     0.044 C 
BRANCH  12  14
ATOM     14  C   UNL     1      16.673   3.879  19.042  1.00  0.00    -0.005 C 
ATOM     15  C   UNL     1      16.539   2.570  18.824  1.00  0.00     0.009 C 
ENDBRANCH  12  14
ENDBRANCH  10  11
ENDBRANCH   2  10
TORSDOF 6
ENDMDL
MODEL 8
REMARK VINA RESULT:    -2.918      2.058      4.857
REMARK INTER + INTRA:          -5.449
REMARK INTER:                  -4.297
REMARK INTRA:                  -1.152
REMARK UNBOUND:                -1.507
REMARK SMILES C=CC(C)=CCC=C(C)CCC=C(C)C
REMARK SMILES IDX 8 1 7 2 9 3 10 4 11 5 12 6 14 7 13 8 15 9 6 10 5 11 3 12
REMARK SMILES IDX 4 13 2 14 1 15
REMARK H PARENT
REMARK Flexibility Score: inf
ROOT
ATOM      1  C   UNL     1      11.936   5.568  18.949  1.00  0.00    -0.077 C 
ATOM      2  C   UNL     1      12.710   4.458  18.985  1.00  0.00    -0.024 C 
ATOM      3  C   UNL     1      12.010   6.627  20.022  1.00  0.00     0.039 C 
ENDROOT
BRANCH   1   4
ATOM      4  C   UNL     1      10.959   5.746  17.807  1.00  0.00     0.034 C 
BRANCH   4   5
ATOM      5  C   UNL     1      11.700   5.841  16.468  1.00  0.00     0.032 C 
BRANCH   5   6
ATOM      6  C   UNL     1      12.701   6.970  16.491  1.00  0.00    -0.028 C 
ATOM      7  C   UNL     1      14.626   5.491  15.875  1.00  0.00     0.039 C 
ATOM      8  C   UNL     1      14.014   6.833  16.203  1.00  0.00    -0.080 C 
ATOM      9  C   UNL     1      14.887   8.061  16.230  1.00  0.00     0.039 C 
ENDBRANCH   5   6
ENDBRANCH   4   5
ENDBRANCH   1   4
BRANCH   2  10
ATOM     10  C   UNL     1      13.709   4.146  20.073  1.00  0.00     0.055 C 
BRANCH  10  11
ATOM     11  C   UNL     1      13.258   2.994  20.932  1.00  0.00    -0.020 C 
ATOM     12  C   UNL     1      12.746   3.108  22.174  1.00  0.00    -0.055 C 
ATOM     13  C   UNL     1      12.595   4.446  22.862  1.00  0.00     0.044 C 
BRANCH  12  14
ATOM     14  C   UNL     1      12.401   1.855  22.896  1.00  0.00    -0.005 C 
ATOM     15  C   UNL     1      13.177   0.771  22.908  1.00  0.00     0.009 C 
ENDBRANCH  12  14
ENDBRANCH  10  11
ENDBRANCH   2  10
TORSDOF 6
ENDMDL
