MODEL 1
REMARK VINA RESULT:    -4.925      0.000      0.000
REMARK INTER + INTRA:          -5.732
REMARK INTER:                  -5.501
REMARK INTRA:                  -0.231
REMARK UNBOUND:                -0.231
REMARK SMILES O=C([O-])c1ccccc1C(=O)[O-]
REMARK SMILES IDX 4 1 9 2 5 3 8 4 6 5 7 6 2 7 1 8 3 9 10 10 11 11 12 12
REMARK H PARENT
REMARK Flexibility Score: inf
ROOT
ATOM      1  C   UNL     1      12.979  28.683  -4.334  1.00  0.00     0.006 A 
ATOM      2  C   UNL     1      13.252  28.622  -5.730  1.00  0.00     0.006 A 
ATOM      3  C   UNL     1      11.728  28.243  -3.863  1.00  0.00     0.010 A 
ATOM      4  C   UNL     1      12.243  28.184  -6.606  1.00  0.00     0.010 A 
ATOM      5  C   UNL     1      10.750  27.791  -4.748  1.00  0.00     0.001 A 
ATOM      6  C   UNL     1      11.002  27.772  -6.118  1.00  0.00     0.001 A 
ENDROOT
BRANCH   1   7
ATOM      7  C   UNL     1      13.930  29.261  -3.357  1.00  0.00     0.072 C 
ATOM      8  O   UNL     1      13.890  30.491  -3.087  1.00  0.00    -0.545 OA
ATOM      9  O   UNL     1      14.917  28.474  -2.776  1.00  0.00    -0.545 OA
ENDBRANCH   1   7
BRANCH   2  10
ATOM     10  C   UNL     1      14.582  28.934  -6.305  1.00  0.00     0.072 C 
ATOM     11  O   UNL     1      14.817  30.065  -6.806  1.00  0.00    -0.545 OA
ATOM     12  O   UNL     1      15.607  27.998  -6.236  1.00  0.00    -0.545 OA
ENDBRANCH   2  10
TORSDOF 2
ENDMDL
MODEL 2
REMARK VINA RESULT:    -4.921      0.092      2.868
REMARK INTER + INTRA:          -5.727
REMARK INTER:                  -5.509
REMARK INTRA:                  -0.218
REMARK UNBOUND:                -0.231
REMARK SMILES O=C([O-])c1ccccc1C(=O)[O-]
REMARK SMILES IDX 4 1 9 2 5 3 8 4 6 5 7 6 2 7 1 8 3 9 10 10 11 11 12 12
REMARK H PARENT
REMARK Flexibility Score: inf
ROOT
ATOM      1  C   UNL     1      13.223  28.649  -5.704  1.00  0.00     0.006 A 
ATOM      2  C   UNL     1      12.934  28.694  -4.311  1.00  0.00     0.006 A 
ATOM      3  C   UNL     1      12.227  28.209  -6.595  1.00  0.00     0.010 A 
ATOM      4  C   UNL     1      11.683  28.238  -3.857  1.00  0.00     0.010 A 
ATOM      5  C   UNL     1      10.986  27.782  -6.125  1.00  0.00     0.001 A 
ATOM      6  C   UNL     1      10.717  27.785  -4.758  1.00  0.00     0.001 A 
ENDROOT
BRANCH   1   7
ATOM      7  C   UNL     1      14.559  28.976  -6.254  1.00  0.00     0.072 C 
ATOM      8  O   UNL     1      14.760  30.091  -6.808  1.00  0.00    -0.545 OA
ATOM      9  O   UNL     1      15.587  28.041  -6.228  1.00  0.00    -0.545 OA
ENDBRANCH   1   7
BRANCH   2  10
ATOM     10  C   UNL     1      13.866  29.268  -3.312  1.00  0.00     0.072 C 
ATOM     11  O   UNL     1      13.856  30.501  -3.056  1.00  0.00    -0.545 OA
ATOM     12  O   UNL     1      14.719  28.435  -2.596  1.00  0.00    -0.545 OA
ENDBRANCH   2  10
TORSDOF 2
ENDMDL
MODEL 3
REMARK VINA RESULT:    -4.466      1.827      3.591
REMARK INTER + INTRA:          -5.219
REMARK INTER:                  -5.011
REMARK INTRA:                  -0.208
REMARK UNBOUND:                -0.231
REMARK SMILES O=C([O-])c1ccccc1C(=O)[O-]
REMARK SMILES IDX 4 1 9 2 5 3 8 4 6 5 7 6 2 7 1 8 3 9 10 10 11 11 12 12
REMARK H PARENT
REMARK Flexibility Score: inf
ROOT
ATOM      1  C   UNL     1      13.855  28.905  -4.843  1.00  0.00     0.006 A 
ATOM      2  C   UNL     1      12.434  28.828  -4.836  1.00  0.00     0.006 A 
ATOM      3  C   UNL     1      14.536  29.083  -3.625  1.00  0.00     0.010 A 
ATOM      4  C   UNL     1      11.745  28.996  -3.622  1.00  0.00     0.010 A 
ATOM      5  C   UNL     1      13.833  29.225  -2.428  1.00  0.00     0.001 A 
ATOM      6  C   UNL     1      12.440  29.193  -2.427  1.00  0.00     0.001 A 
ENDROOT
BRANCH   1   7
ATOM      7  C   UNL     1      14.652  28.880  -6.091  1.00  0.00     0.072 C 
ATOM      8  O   UNL     1      15.362  27.876  -6.369  1.00  0.00    -0.545 OA
ATOM      9  O   UNL     1      14.681  29.982  -6.938  1.00  0.00    -0.545 OA
ENDBRANCH   1   7
BRANCH   2  10
ATOM     10  C   UNL     1      11.639  28.508  -6.045  1.00  0.00     0.072 C 
ATOM     11  O   UNL     1      11.388  27.312  -6.352  1.00  0.00    -0.545 OA
ATOM     12  O   UNL     1      11.103  29.531  -6.818  1.00  0.00    -0.545 OA
ENDBRANCH   2  10
TORSDOF 2
ENDMDL
MODEL 4
REMARK VINA RESULT:    -4.409      1.875      3.237
REMARK INTER + INTRA:          -5.155
REMARK INTER:                  -4.943
REMARK INTRA:                  -0.212
REMARK UNBOUND:                -0.231
REMARK SMILES O=C([O-])c1ccccc1C(=O)[O-]
REMARK SMILES IDX 4 1 9 2 5 3 8 4 6 5 7 6 2 7 1 8 3 9 10 10 11 11 12 12
REMARK H PARENT
REMARK Flexibility Score: inf
ROOT
ATOM      1  C   UNL     1      12.311  28.938  -4.838  1.00  0.00     0.006 A 
ATOM      2  C   UNL     1      13.732  29.012  -4.806  1.00  0.00     0.006 A 
ATOM      3  C   UNL     1      11.589  29.157  -3.651  1.00  0.00     0.010 A 
ATOM      4  C   UNL     1      14.378  29.238  -3.577  1.00  0.00     0.010 A 
ATOM      5  C   UNL     1      12.249  29.403  -2.447  1.00  0.00     0.001 A 
ATOM      6  C   UNL     1      13.641  29.432  -2.407  1.00  0.00     0.001 A 
ENDROOT
BRANCH   1   7
ATOM      7  C   UNL     1      11.557  28.566  -6.057  1.00  0.00     0.072 C 
ATOM      8  O   UNL     1      11.114  29.461  -6.826  1.00  0.00    -0.545 OA
ATOM      9  O   UNL     1      11.270  27.234  -6.336  1.00  0.00    -0.545 OA
ENDBRANCH   1   7
BRANCH   2  10
ATOM     10  C   UNL     1      14.571  28.931  -6.025  1.00  0.00     0.072 C 
ATOM     11  O   UNL     1      15.194  27.874  -6.309  1.00  0.00    -0.545 OA
ATOM     12  O   UNL     1      14.624  30.004  -6.907  1.00  0.00    -0.545 OA
ENDBRANCH   2  10
TORSDOF 2
ENDMDL
MODEL 5
REMARK VINA RESULT:    -4.219      1.521      3.212
REMARK INTER + INTRA:          -4.943
REMARK INTER:                  -4.777
REMARK INTRA:                  -0.166
REMARK UNBOUND:                -0.231
REMARK SMILES O=C([O-])c1ccccc1C(=O)[O-]
REMARK SMILES IDX 4 1 9 2 5 3 8 4 6 5 7 6 2 7 1 8 3 9 10 10 11 11 12 12
REMARK H PARENT
REMARK Flexibility Score: inf
ROOT
ATOM      1  C   UNL     1      13.284  29.426  -5.156  1.00  0.00     0.006 A 
ATOM      2  C   UNL     1      12.253  29.139  -4.219  1.00  0.00     0.006 A 
ATOM      3  C   UNL     1      13.216  28.860  -6.442  1.00  0.00     0.010 A 
ATOM      4  C   UNL     1      11.228  28.246  -4.580  1.00  0.00     0.010 A 
ATOM      5  C   UNL     1      12.178  27.995  -6.787  1.00  0.00     0.001 A 
ATOM      6  C   UNL     1      11.192  27.679  -5.855  1.00  0.00     0.001 A 
ENDROOT
BRANCH   1   7
ATOM      7  C   UNL     1      14.472  30.242  -4.814  1.00  0.00     0.072 C 
ATOM      8  O   UNL     1      14.603  31.401  -5.291  1.00  0.00    -0.545 OA
ATOM      9  O   UNL     1      15.487  29.720  -4.020  1.00  0.00    -0.545 OA
ENDBRANCH   1   7
BRANCH   2  10
ATOM     10  C   UNL     1      12.166  29.793  -2.891  1.00  0.00     0.072 C 
ATOM     11  O   UNL     1      12.877  29.397  -1.931  1.00  0.00    -0.545 OA
ATOM     12  O   UNL     1      11.343  30.898  -2.712  1.00  0.00    -0.545 OA
ENDBRANCH   2  10
TORSDOF 2
ENDMDL
MODEL 6
REMARK VINA RESULT:    -4.190      2.389      4.231
REMARK INTER + INTRA:          -4.910
REMARK INTER:                  -4.710
REMARK INTRA:                  -0.200
REMARK UNBOUND:                -0.231
REMARK SMILES O=C([O-])c1ccccc1C(=O)[O-]
REMARK SMILES IDX 4 1 9 2 5 3 8 4 6 5 7 6 2 7 1 8 3 9 10 10 11 11 12 12
REMARK H PARENT
REMARK Flexibility Score: inf
ROOT
ATOM      1  C   UNL     1      13.401  29.168  -4.929  1.00  0.00     0.006 A 
ATOM      2  C   UNL     1      13.035  29.220  -3.554  1.00  0.00     0.006 A 
ATOM      3  C   UNL     1      14.601  28.529  -5.292  1.00  0.00     0.010 A 
ATOM      4  C   UNL     1      13.912  28.689  -2.592  1.00  0.00     0.010 A 
ATOM      5  C   UNL     1      15.445  27.990  -4.323  1.00  0.00     0.001 A 
ATOM      6  C   UNL     1      15.108  28.079  -2.974  1.00  0.00     0.001 A 
ENDROOT
BRANCH   1   7
ATOM      7  C   UNL     1      12.608  29.824  -5.994  1.00  0.00     0.072 C 
ATOM      8  O   UNL     1      12.789  31.043  -6.259  1.00  0.00    -0.545 OA
ATOM      9  O   UNL     1      11.612  29.127  -6.668  1.00  0.00    -0.545 OA
ENDBRANCH   1   7
BRANCH   2  10
ATOM     10  C   UNL     1      11.731  29.749  -3.087  1.00  0.00     0.072 C 
ATOM     11  O   UNL     1      11.661  30.858  -2.495  1.00  0.00    -0.545 OA
ATOM     12  O   UNL     1      10.559  29.053  -3.361  1.00  0.00    -0.545 OA
ENDBRANCH   2  10
TORSDOF 2
ENDMDL
MODEL 7
REMARK VINA RESULT:    -4.185      2.298      3.296
REMARK INTER + INTRA:          -4.905
REMARK INTER:                  -4.720
REMARK INTRA:                  -0.185
REMARK UNBOUND:                -0.231
REMARK SMILES O=C([O-])c1ccccc1C(=O)[O-]
REMARK SMILES IDX 4 1 9 2 5 3 8 4 6 5 7 6 2 7 1 8 3 9 10 10 11 11 12 12
REMARK H PARENT
REMARK Flexibility Score: inf
ROOT
ATOM      1  C   UNL     1      14.506  30.675  -4.043  1.00  0.00     0.006 A 
ATOM      2  C   UNL     1      14.193  29.287  -4.080  1.00  0.00     0.006 A 
ATOM      3  C   UNL     1      13.783  31.515  -3.176  1.00  0.00     0.010 A 
ATOM      4  C   UNL     1      13.128  28.804  -3.298  1.00  0.00     0.010 A 
ATOM      5  C   UNL     1      12.746  31.011  -2.393  1.00  0.00     0.001 A 
ATOM      6  C   UNL     1      12.411  29.661  -2.461  1.00  0.00     0.001 A 
ENDROOT
BRANCH   1   7
ATOM      7  C   UNL     1      15.515  31.291  -4.935  1.00  0.00     0.072 C 
ATOM      8  O   UNL     1      15.179  31.717  -6.072  1.00  0.00    -0.545 OA
ATOM      9  O   UNL     1      16.852  31.351  -4.559  1.00  0.00    -0.545 OA
ENDBRANCH   1   7
BRANCH   2  10
ATOM     10  C   UNL     1      14.984  28.303  -4.856  1.00  0.00     0.072 C 
ATOM     11  O   UNL     1      15.751  27.491  -4.274  1.00  0.00    -0.545 OA
ATOM     12  O   UNL     1      14.834  28.221  -6.235  1.00  0.00    -0.545 OA
ENDBRANCH   2  10
TORSDOF 2
ENDMDL
MODEL 8
REMARK VINA RESULT:    -4.165      2.622      3.465
REMARK INTER + INTRA:          -4.882
REMARK INTER:                  -4.829
REMARK INTRA:                  -0.053
REMARK UNBOUND:                -0.231
REMARK SMILES O=C([O-])c1ccccc1C(=O)[O-]
REMARK SMILES IDX 4 1 9 2 5 3 8 4 6 5 7 6 2 7 1 8 3 9 10 10 11 11 12 12
REMARK H PARENT
REMARK Flexibility Score: inf
ROOT
ATOM      1  C   UNL     1      14.248  29.620  -3.533  1.00  0.00     0.006 A 
ATOM      2  C   UNL     1      14.684  30.923  -3.905  1.00  0.00     0.006 A 
ATOM      3  C   UNL     1      13.118  29.487  -2.707  1.00  0.00     0.010 A 
ATOM      4  C   UNL     1      14.012  32.043  -3.384  1.00  0.00     0.010 A 
ATOM      5  C   UNL     1      12.452  30.611  -2.220  1.00  0.00     0.001 A 
ATOM      6  C   UNL     1      12.905  31.888  -2.548  1.00  0.00     0.001 A 
ENDROOT
BRANCH   1   7
ATOM      7  C   UNL     1      14.980  28.391  -3.920  1.00  0.00     0.072 C 
ATOM      8  O   UNL     1      15.490  27.653  -3.036  1.00  0.00    -0.545 OA
ATOM      9  O   UNL     1      15.169  28.070  -5.260  1.00  0.00    -0.545 OA
ENDBRANCH   1   7
BRANCH   2  10
ATOM     10  C   UNL     1      15.777  31.161  -4.877  1.00  0.00     0.072 C 
ATOM     11  O   UNL     1      15.528  31.304  -6.103  1.00  0.00    -0.545 OA
ATOM     12  O   UNL     1      17.087  31.295  -4.432  1.00  0.00    -0.545 OA
ENDBRANCH   2  10
TORSDOF 2
ENDMDL
MODEL 9
REMARK VINA RESULT:    -4.117      2.371      3.217
REMARK INTER + INTRA:          -4.829
REMARK INTER:                  -4.617
REMARK INTRA:                  -0.211
REMARK UNBOUND:                -0.231
REMARK SMILES O=C([O-])c1ccccc1C(=O)[O-]
REMARK SMILES IDX 4 1 9 2 5 3 8 4 6 5 7 6 2 7 1 8 3 9 10 10 11 11 12 12
REMARK H PARENT
REMARK Flexibility Score: inf
ROOT
ATOM      1  C   UNL     1      13.347  29.051  -3.856  1.00  0.00     0.006 A 
ATOM      2  C   UNL     1      13.394  29.280  -5.260  1.00  0.00     0.006 A 
ATOM      3  C   UNL     1      14.409  28.365  -3.240  1.00  0.00     0.010 A 
ATOM      4  C   UNL     1      14.468  28.759  -6.003  1.00  0.00     0.010 A 
ATOM      5  C   UNL     1      15.477  27.876  -3.993  1.00  0.00     0.001 A 
ATOM      6  C   UNL     1      15.501  28.062  -5.374  1.00  0.00     0.001 A 
ENDROOT
BRANCH   1   7
ATOM      7  C   UNL     1      12.188  29.440  -3.020  1.00  0.00     0.072 C 
ATOM      8  O   UNL     1      11.133  28.751  -3.039  1.00  0.00    -0.545 OA
ATOM      9  O   UNL     1      12.223  30.601  -2.256  1.00  0.00    -0.545 OA
ENDBRANCH   1   7
BRANCH   2  10
ATOM     10  C   UNL     1      12.394  30.107  -5.975  1.00  0.00     0.072 C 
ATOM     11  O   UNL     1      11.377  29.579  -6.499  1.00  0.00    -0.545 OA
ATOM     12  O   UNL     1      12.535  31.489  -6.017  1.00  0.00    -0.545 OA
ENDBRANCH   2  10
TORSDOF 2
ENDMDL
