MODEL 1
REMARK VINA RESULT:    -4.761      0.000      0.000
REMARK INTER + INTRA:          -5.716
REMARK INTER:                  -5.735
REMARK INTRA:                   0.018
REMARK UNBOUND:                 0.018
REMARK SMILES CC[C@@H](C)[C@H]([NH3+])C(=O)[O-]
REMARK SMILES IDX 3 1 4 2 5 3 6 4 7 8 8 9 9 10 2 11 1 12
REMARK H PARENT 6 5 6 6 6 7
REMARK Flexibility Score: inf
ROOT
ATOM      1  C   UNL     1     165.951 166.101 164.011  1.00  0.00     0.050 C 
ATOM      2  C   UNL     1     167.125 165.621 163.133  1.00  0.00     0.014 C 
ENDROOT
BRANCH   1   3
ATOM      3  C   UNL     1     166.038 165.642 165.502  1.00  0.00     0.230 C 
BRANCH   3   4
ATOM      4  N   UNL     1     166.763 164.375 165.681  1.00  0.00    -0.350 N 
ATOM      5  H   UNL     1     167.620 164.369 165.080  1.00  0.00     0.345 HD
ATOM      6  H   UNL     1     167.053 164.238 166.675  1.00  0.00     0.345 HD
ATOM      7  H   UNL     1     166.168 163.577 165.367  1.00  0.00     0.345 HD
ENDBRANCH   3   4
BRANCH   3   8
ATOM      8  C   UNL     1     164.670 165.574 166.133  1.00  0.00     0.099 C 
ATOM      9  O   UNL     1     164.125 166.608 166.604  1.00  0.00    -0.544 OA
ATOM     10  O   UNL     1     164.021 164.350 166.244  1.00  0.00    -0.544 OA
ENDBRANCH   3   8
ENDBRANCH   1   3
BRANCH   1  11
ATOM     11  C   UNL     1     165.656 167.620 163.853  1.00  0.00     0.006 C 
ATOM     12  C   UNL     1     165.061 168.042 162.504  1.00  0.00     0.004 C 
ENDBRANCH   1  11
TORSDOF 4
ENDMDL
MODEL 2
REMARK VINA RESULT:    -4.728      1.449      1.539
REMARK INTER + INTRA:          -5.677
REMARK INTER:                  -5.569
REMARK INTRA:                  -0.109
REMARK UNBOUND:                 0.018
REMARK SMILES CC[C@@H](C)[C@H]([NH3+])C(=O)[O-]
REMARK SMILES IDX 3 1 4 2 5 3 6 4 7 8 8 9 9 10 2 11 1 12
REMARK H PARENT 6 5 6 6 6 7
REMARK Flexibility Score: inf
ROOT
ATOM      1  C   UNL     1     165.312 166.111 164.467  1.00  0.00     0.050 C 
ATOM      2  C   UNL     1     166.693 165.427 164.439  1.00  0.00     0.014 C 
ENDROOT
BRANCH   1   3
ATOM      3  C   UNL     1     164.750 166.358 165.904  1.00  0.00     0.230 C 
BRANCH   3   4
ATOM      4  N   UNL     1     165.774 166.268 166.955  1.00  0.00    -0.350 N 
ATOM      5  H   UNL     1     166.718 166.460 166.547  1.00  0.00     0.345 HD
ATOM      6  H   UNL     1     165.597 166.956 167.721  1.00  0.00     0.345 HD
ATOM      7  H   UNL     1     165.803 165.299 167.342  1.00  0.00     0.345 HD
ENDBRANCH   3   4
BRANCH   3   8
ATOM      8  C   UNL     1     163.590 165.440 166.202  1.00  0.00     0.099 C 
ATOM      9  O   UNL     1     162.669 165.270 165.358  1.00  0.00    -0.544 OA
ATOM     10  O   UNL     1     163.507 164.812 167.439  1.00  0.00    -0.544 OA
ENDBRANCH   3   8
ENDBRANCH   1   3
BRANCH   1  11
ATOM     11  C   UNL     1     165.238 167.369 163.555  1.00  0.00     0.006 C 
ATOM     12  C   UNL     1     164.105 167.373 162.521  1.00  0.00     0.004 C 
ENDBRANCH   1  11
TORSDOF 4
ENDMDL
MODEL 3
REMARK VINA RESULT:    -4.472      1.448      2.180
REMARK INTER + INTRA:          -5.369
REMARK INTER:                  -5.262
REMARK INTRA:                  -0.107
REMARK UNBOUND:                 0.018
REMARK SMILES CC[C@@H](C)[C@H]([NH3+])C(=O)[O-]
REMARK SMILES IDX 3 1 4 2 5 3 6 4 7 8 8 9 9 10 2 11 1 12
REMARK H PARENT 6 5 6 6 6 7
REMARK Flexibility Score: inf
ROOT
ATOM      1  C   UNL     1     165.700 167.370 163.720  1.00  0.00     0.050 C 
ATOM      2  C   UNL     1     164.232 166.980 163.451  1.00  0.00     0.014 C 
ENDROOT
BRANCH   1   3
ATOM      3  C   UNL     1     166.581 166.203 164.271  1.00  0.00     0.230 C 
BRANCH   3   4
ATOM      4  N   UNL     1     166.873 165.168 163.267  1.00  0.00    -0.350 N 
ATOM      5  H   UNL     1     167.275 165.611 162.409  1.00  0.00     0.345 HD
ATOM      6  H   UNL     1     167.556 164.466 163.630  1.00  0.00     0.345 HD
ATOM      7  H   UNL     1     165.989 164.694 162.977  1.00  0.00     0.345 HD
ENDBRANCH   3   4
BRANCH   3   8
ATOM      8  C   UNL     1     165.970 165.595 165.509  1.00  0.00     0.099 C 
ATOM      9  O   UNL     1     165.721 164.361 165.567  1.00  0.00    -0.544 OA
ATOM     10  O   UNL     1     165.631 166.411 166.582  1.00  0.00    -0.544 OA
ENDBRANCH   3   8
ENDBRANCH   1   3
BRANCH   1  11
ATOM     11  C   UNL     1     166.356 168.125 162.529  1.00  0.00     0.006 C 
ATOM     12  C   UNL     1     165.557 168.118 161.220  1.00  0.00     0.004 C 
ENDBRANCH   1  11
TORSDOF 4
ENDMDL
MODEL 4
REMARK VINA RESULT:    -4.471      3.359      4.199
REMARK INTER + INTRA:          -5.367
REMARK INTER:                  -5.395
REMARK INTRA:                   0.028
REMARK UNBOUND:                 0.018
REMARK SMILES CC[C@@H](C)[C@H]([NH3+])C(=O)[O-]
REMARK SMILES IDX 3 1 4 2 5 3 6 4 7 8 8 9 9 10 2 11 1 12
REMARK H PARENT 6 5 6 6 6 7
REMARK Flexibility Score: inf
ROOT
ATOM      1  C   UNL     1     165.193 166.909 164.303  1.00  0.00     0.050 C 
ATOM      2  C   UNL     1     166.233 165.771 164.355  1.00  0.00     0.014 C 
ENDROOT
BRANCH   1   3
ATOM      3  C   UNL     1     164.923 167.463 162.867  1.00  0.00     0.230 C 
BRANCH   3   4
ATOM      4  N   UNL     1     163.676 166.960 162.272  1.00  0.00    -0.350 N 
ATOM      5  H   UNL     1     163.160 167.748 161.815  1.00  0.00     0.345 HD
ATOM      6  H   UNL     1     163.864 166.225 161.554  1.00  0.00     0.345 HD
ATOM      7  H   UNL     1     163.052 166.582 163.019  1.00  0.00     0.345 HD
ENDBRANCH   3   4
BRANCH   3   8
ATOM      8  C   UNL     1     166.098 167.208 161.955  1.00  0.00     0.099 C 
ATOM      9  O   UNL     1     167.125 167.936 162.006  1.00  0.00    -0.544 OA
ATOM     10  O   UNL     1     166.029 166.190 161.011  1.00  0.00    -0.544 OA
ENDBRANCH   3   8
ENDBRANCH   1   3
BRANCH   1  11
ATOM     11  C   UNL     1     163.891 166.578 165.087  1.00  0.00     0.006 C 
ATOM     12  C   UNL     1     164.086 165.810 166.401  1.00  0.00     0.004 C 
ENDBRANCH   1  11
TORSDOF 4
ENDMDL
MODEL 5
REMARK VINA RESULT:    -4.406      2.268      2.781
REMARK INTER + INTRA:          -5.289
REMARK INTER:                  -5.310
REMARK INTRA:                   0.021
REMARK UNBOUND:                 0.018
REMARK SMILES CC[C@@H](C)[C@H]([NH3+])C(=O)[O-]
REMARK SMILES IDX 3 1 4 2 5 3 6 4 7 8 8 9 9 10 2 11 1 12
REMARK H PARENT 6 5 6 6 6 7
REMARK Flexibility Score: inf
ROOT
ATOM      1  C   UNL     1     163.348 166.586 164.747  1.00  0.00     0.050 C 
ATOM      2  C   UNL     1     161.940 166.488 164.126  1.00  0.00     0.014 C 
ENDROOT
BRANCH   1   3
ATOM      3  C   UNL     1     163.762 165.339 165.592  1.00  0.00     0.230 C 
BRANCH   3   4
ATOM      4  N   UNL     1     162.897 165.111 166.760  1.00  0.00    -0.350 N 
ATOM      5  H   UNL     1     163.075 164.157 167.151  1.00  0.00     0.345 HD
ATOM      6  H   UNL     1     163.072 165.817 167.509  1.00  0.00     0.345 HD
ATOM      7  H   UNL     1     161.894 165.136 166.469  1.00  0.00     0.345 HD
ENDBRANCH   3   4
BRANCH   3   8
ATOM      8  C   UNL     1     165.212 165.414 166.003  1.00  0.00     0.099 C 
ATOM      9  O   UNL     1     165.646 166.396 166.663  1.00  0.00    -0.544 OA
ATOM     10  O   UNL     1     166.094 164.416 165.606  1.00  0.00    -0.544 OA
ENDBRANCH   3   8
ENDBRANCH   1   3
BRANCH   1  11
ATOM     11  C   UNL     1     164.435 167.021 163.723  1.00  0.00     0.006 C 
ATOM     12  C   UNL     1     163.990 167.044 162.255  1.00  0.00     0.004 C 
ENDBRANCH   1  11
TORSDOF 4
ENDMDL
MODEL 6
REMARK VINA RESULT:    -4.379     21.434     22.121
REMARK INTER + INTRA:          -5.256
REMARK INTER:                  -5.274
REMARK INTRA:                   0.018
REMARK UNBOUND:                 0.018
REMARK SMILES CC[C@@H](C)[C@H]([NH3+])C(=O)[O-]
REMARK SMILES IDX 3 1 4 2 5 3 6 4 7 8 8 9 9 10 2 11 1 12
REMARK H PARENT 6 5 6 6 6 7
REMARK Flexibility Score: inf
ROOT
ATOM      1  C   UNL     1     148.919 166.286 149.029  1.00  0.00     0.050 C 
ATOM      2  C   UNL     1     148.395 164.876 149.370  1.00  0.00     0.014 C 
ENDROOT
BRANCH   1   3
ATOM      3  C   UNL     1     149.339 167.129 150.276  1.00  0.00     0.230 C 
BRANCH   3   4
ATOM      4  N   UNL     1     150.730 166.900 150.695  1.00  0.00    -0.350 N 
ATOM      5  H   UNL     1     151.255 167.805 150.687  1.00  0.00     0.345 HD
ATOM      6  H   UNL     1     150.777 166.496 151.657  1.00  0.00     0.345 HD
ATOM      7  H   UNL     1     151.207 166.267 150.015  1.00  0.00     0.345 HD
ENDBRANCH   3   4
BRANCH   3   8
ATOM      8  C   UNL     1     148.386 166.914 151.426  1.00  0.00     0.099 C 
ATOM      9  O   UNL     1     147.220 167.391 151.396  1.00  0.00    -0.544 OA
ATOM     10  O   UNL     1     148.814 166.227 152.556  1.00  0.00    -0.544 OA
ENDBRANCH   3   8
ENDBRANCH   1   3
BRANCH   1  11
ATOM     11  C   UNL     1     149.992 166.280 147.903  1.00  0.00     0.006 C 
ATOM     12  C   UNL     1     150.915 165.055 147.875  1.00  0.00     0.004 C 
ENDBRANCH   1  11
TORSDOF 4
ENDMDL
MODEL 7
REMARK VINA RESULT:    -4.275      2.552      3.469
REMARK INTER + INTRA:          -5.131
REMARK INTER:                  -5.023
REMARK INTRA:                  -0.108
REMARK UNBOUND:                 0.018
REMARK SMILES CC[C@@H](C)[C@H]([NH3+])C(=O)[O-]
REMARK SMILES IDX 3 1 4 2 5 3 6 4 7 8 8 9 9 10 2 11 1 12
REMARK H PARENT 6 5 6 6 6 7
REMARK Flexibility Score: inf
ROOT
ATOM      1  C   UNL     1     164.305 166.506 163.787  1.00  0.00     0.050 C 
ATOM      2  C   UNL     1     163.761 167.247 162.548  1.00  0.00     0.014 C 
ENDROOT
BRANCH   1   3
ATOM      3  C   UNL     1     165.796 166.830 164.122  1.00  0.00     0.230 C 
BRANCH   3   4
ATOM      4  N   UNL     1     166.404 167.802 163.201  1.00  0.00    -0.350 N 
ATOM      5  H   UNL     1     166.105 167.594 162.220  1.00  0.00     0.345 HD
ATOM      6  H   UNL     1     166.123 168.779 163.435  1.00  0.00     0.345 HD
ATOM      7  H   UNL     1     167.444 167.711 163.224  1.00  0.00     0.345 HD
ENDBRANCH   3   4
BRANCH   3   8
ATOM      8  C   UNL     1     166.624 165.571 164.202  1.00  0.00     0.099 C 
ATOM      9  O   UNL     1     166.894 164.909 163.164  1.00  0.00    -0.544 OA
ATOM     10  O   UNL     1     167.054 165.106 165.439  1.00  0.00    -0.544 OA
ENDBRANCH   3   8
ENDBRANCH   1   3
BRANCH   1  11
ATOM     11  C   UNL     1     163.362 166.610 165.019  1.00  0.00     0.006 C 
ATOM     12  C   UNL     1     163.447 165.449 166.019  1.00  0.00     0.004 C 
ENDBRANCH   1  11
TORSDOF 4
ENDMDL
MODEL 8
REMARK VINA RESULT:    -4.220      2.490      2.835
REMARK INTER + INTRA:          -5.065
REMARK INTER:                  -5.007
REMARK INTRA:                  -0.058
REMARK UNBOUND:                 0.018
REMARK SMILES CC[C@@H](C)[C@H]([NH3+])C(=O)[O-]
REMARK SMILES IDX 3 1 4 2 5 3 6 4 7 8 8 9 9 10 2 11 1 12
REMARK H PARENT 6 5 6 6 6 7
REMARK Flexibility Score: inf
ROOT
ATOM      1  C   UNL     1     163.339 166.362 163.902  1.00  0.00     0.050 C 
ATOM      2  C   UNL     1     163.841 167.101 162.644  1.00  0.00     0.014 C 
ENDROOT
BRANCH   1   3
ATOM      3  C   UNL     1     164.187 166.637 165.185  1.00  0.00     0.230 C 
BRANCH   3   4
ATOM      4  N   UNL     1     165.543 167.126 164.895  1.00  0.00    -0.350 N 
ATOM      5  H   UNL     1     165.508 168.141 164.644  1.00  0.00     0.345 HD
ATOM      6  H   UNL     1     166.176 167.009 165.718  1.00  0.00     0.345 HD
ATOM      7  H   UNL     1     165.934 166.624 164.067  1.00  0.00     0.345 HD
ENDBRANCH   3   4
BRANCH   3   8
ATOM      8  C   UNL     1     164.231 165.424 166.081  1.00  0.00     0.099 C 
ATOM      9  O   UNL     1     163.430 165.306 167.047  1.00  0.00    -0.544 OA
ATOM     10  O   UNL     1     165.198 164.448 165.873  1.00  0.00    -0.544 OA
ENDBRANCH   3   8
ENDBRANCH   1   3
BRANCH   1  11
ATOM     11  C   UNL     1     161.809 166.522 164.131  1.00  0.00     0.006 C 
ATOM     12  C   UNL     1     160.998 166.959 162.904  1.00  0.00     0.004 C 
ENDBRANCH   1  11
TORSDOF 4
ENDMDL
