MODEL 1
REMARK VINA RESULT:    -4.828      0.000      0.000
REMARK INTER + INTRA:          -6.011
REMARK INTER:                  -5.816
REMARK INTRA:                  -0.194
REMARK UNBOUND:                -0.194
REMARK SMILES NC(=O)C[C@H]([NH3+])C(=O)[O-]
REMARK SMILES IDX 4 1 5 2 6 3 7 7 8 8 9 9 2 10 3 11 1 12
REMARK H PARENT 6 4 6 5 6 6 1 13 1 14
REMARK Flexibility Score: inf
ROOT
ATOM      1  C   UNL     1     -20.663  69.259  -0.746  1.00  0.00     0.171 C 
ENDROOT
BRANCH   1   2
ATOM      2  C   UNL     1     -19.246  68.737  -0.421  1.00  0.00     0.237 C 
BRANCH   2   3
ATOM      3  N   UNL     1     -18.251  69.229  -1.383  1.00  0.00    -0.350 N 
ATOM      4  H   UNL     1     -18.710  69.396  -2.309  1.00  0.00     0.345 HD
ATOM      5  H   UNL     1     -17.501  68.511  -1.516  1.00  0.00     0.345 HD
ATOM      6  H   UNL     1     -17.815  70.121  -1.057  1.00  0.00     0.345 HD
ENDBRANCH   2   3
BRANCH   2   7
ATOM      7  C   UNL     1     -19.220  67.233  -0.331  1.00  0.00     0.100 C 
ATOM      8  O   UNL     1     -18.959  66.673   0.767  1.00  0.00    -0.544 OA
ATOM      9  O   UNL     1     -19.534  66.451  -1.437  1.00  0.00    -0.544 OA
ENDBRANCH   2   7
ENDBRANCH   1   2
BRANCH   1  10
ATOM     10  C   UNL     1     -21.696  68.840   0.261  1.00  0.00     0.223 C 
ATOM     11  O   UNL     1     -21.641  69.286   1.439  1.00  0.00    -0.275 OA
ATOM     12  N   UNL     1     -22.753  67.956  -0.110  1.00  0.00    -0.369 N 
ATOM     13  H   UNL     1     -22.816  67.578  -1.081  1.00  0.00     0.159 HD
ATOM     14  H   UNL     1     -23.477  67.677   0.589  1.00  0.00     0.159 HD
ENDBRANCH   1  10
TORSDOF 4
ENDMDL
MODEL 2
REMARK VINA RESULT:    -4.759      1.129      3.764
REMARK INTER + INTRA:          -5.927
REMARK INTER:                  -5.738
REMARK INTRA:                  -0.189
REMARK UNBOUND:                -0.194
REMARK SMILES NC(=O)C[C@H]([NH3+])C(=O)[O-]
REMARK SMILES IDX 4 1 5 2 6 3 7 7 8 8 9 9 2 10 3 11 1 12
REMARK H PARENT 6 4 6 5 6 6 1 13 1 14
REMARK Flexibility Score: inf
ROOT
ATOM      1  C   UNL     1     -20.437  67.588  -0.833  1.00  0.00     0.171 C 
ENDROOT
BRANCH   1   2
ATOM      2  C   UNL     1     -21.534  68.121   0.114  1.00  0.00     0.237 C 
BRANCH   2   3
ATOM      3  N   UNL     1     -22.879  67.901  -0.433  1.00  0.00    -0.350 N 
ATOM      4  H   UNL     1     -23.224  66.955  -0.147  1.00  0.00     0.345 HD
ATOM      5  H   UNL     1     -22.847  67.934  -1.478  1.00  0.00     0.345 HD
ATOM      6  H   UNL     1     -23.552  68.623  -0.089  1.00  0.00     0.345 HD
ENDBRANCH   2   3
BRANCH   2   7
ATOM      7  C   UNL     1     -21.313  69.574   0.451  1.00  0.00     0.100 C 
ATOM      8  O   UNL     1     -21.785  70.050   1.516  1.00  0.00    -0.544 OA
ATOM      9  O   UNL     1     -20.547  70.385  -0.379  1.00  0.00    -0.544 OA
ENDBRANCH   2   7
ENDBRANCH   1   2
BRANCH   1  10
ATOM     10  C   UNL     1     -19.079  67.520  -0.192  1.00  0.00     0.223 C 
ATOM     11  O   UNL     1     -18.859  66.683   0.724  1.00  0.00    -0.275 OA
ATOM     12  N   UNL     1     -18.029  68.384  -0.626  1.00  0.00    -0.369 N 
ATOM     13  H   UNL     1     -18.191  69.082  -1.385  1.00  0.00     0.159 HD
ATOM     14  H   UNL     1     -17.083  68.325  -0.188  1.00  0.00     0.159 HD
ENDBRANCH   1  10
TORSDOF 4
ENDMDL
MODEL 3
REMARK VINA RESULT:    -4.742      1.914      2.116
REMARK INTER + INTRA:          -5.907
REMARK INTER:                  -5.558
REMARK INTRA:                  -0.349
REMARK UNBOUND:                -0.194
REMARK SMILES NC(=O)C[C@H]([NH3+])C(=O)[O-]
REMARK SMILES IDX 4 1 5 2 6 3 7 7 8 8 9 9 2 10 3 11 1 12
REMARK H PARENT 6 4 6 5 6 6 1 13 1 14
REMARK Flexibility Score: inf
ROOT
ATOM      1  C   UNL     1     -20.896  69.344  -0.012  1.00  0.00     0.171 C 
ENDROOT
BRANCH   1   2
ATOM      2  C   UNL     1     -20.078  68.662  -1.130  1.00  0.00     0.237 C 
BRANCH   2   3
ATOM      3  N   UNL     1     -20.469  67.258  -1.311  1.00  0.00    -0.350 N 
ATOM      4  H   UNL     1     -19.640  66.699  -1.619  1.00  0.00     0.345 HD
ATOM      5  H   UNL     1     -21.204  67.187  -2.052  1.00  0.00     0.345 HD
ATOM      6  H   UNL     1     -20.840  66.849  -0.423  1.00  0.00     0.345 HD
ENDBRANCH   2   3
BRANCH   2   7
ATOM      7  C   UNL     1     -18.596  68.787  -0.883  1.00  0.00     0.100 C 
ATOM      8  O   UNL     1     -18.004  69.867  -1.145  1.00  0.00    -0.544 OA
ATOM      9  O   UNL     1     -17.881  67.738  -0.317  1.00  0.00    -0.544 OA
ENDBRANCH   2   7
ENDBRANCH   1   2
BRANCH   1  10
ATOM     10  C   UNL     1     -21.393  68.384   1.032  1.00  0.00     0.223 C 
ATOM     11  O   UNL     1     -20.569  67.785   1.776  1.00  0.00    -0.275 OA
ATOM     12  N   UNL     1     -22.792  68.159   1.204  1.00  0.00    -0.369 N 
ATOM     13  H   UNL     1     -23.488  68.647   0.599  1.00  0.00     0.159 HD
ATOM     14  H   UNL     1     -23.133  67.501   1.939  1.00  0.00     0.159 HD
ENDBRANCH   1  10
TORSDOF 4
ENDMDL
MODEL 4
REMARK VINA RESULT:    -4.702      1.792      3.613
REMARK INTER + INTRA:          -5.859
REMARK INTER:                  -5.595
REMARK INTRA:                  -0.264
REMARK UNBOUND:                -0.194
REMARK SMILES NC(=O)C[C@H]([NH3+])C(=O)[O-]
REMARK SMILES IDX 4 1 5 2 6 3 7 7 8 8 9 9 2 10 3 11 1 12
REMARK H PARENT 6 4 6 5 6 6 1 13 1 14
REMARK Flexibility Score: inf
ROOT
ATOM      1  C   UNL     1     -19.883  69.107  -0.620  1.00  0.00     0.171 C 
ENDROOT
BRANCH   1   2
ATOM      2  C   UNL     1     -20.650  67.786  -0.394  1.00  0.00     0.237 C 
BRANCH   2   3
ATOM      3  N   UNL     1     -20.543  66.889  -1.553  1.00  0.00    -0.350 N 
ATOM      4  H   UNL     1     -19.575  66.493  -1.602  1.00  0.00     0.345 HD
ATOM      5  H   UNL     1     -20.720  67.425  -2.434  1.00  0.00     0.345 HD
ATOM      6  H   UNL     1     -21.227  66.102  -1.489  1.00  0.00     0.345 HD
ENDBRANCH   2   3
BRANCH   2   7
ATOM      7  C   UNL     1     -22.091  68.040  -0.033  1.00  0.00     0.100 C 
ATOM      8  O   UNL     1     -22.377  68.871   0.869  1.00  0.00    -0.544 OA
ATOM      9  O   UNL     1     -23.117  67.403  -0.724  1.00  0.00    -0.544 OA
ENDBRANCH   2   7
ENDBRANCH   1   2
BRANCH   1  10
ATOM     10  C   UNL     1     -18.400  68.916  -0.771  1.00  0.00     0.223 C 
ATOM     11  O   UNL     1     -17.856  67.864  -0.338  1.00  0.00    -0.275 OA
ATOM     12  N   UNL     1     -17.604  69.908  -1.418  1.00  0.00    -0.369 N 
ATOM     13  H   UNL     1     -18.037  70.784  -1.785  1.00  0.00     0.159 HD
ATOM     14  H   UNL     1     -16.576  69.766  -1.533  1.00  0.00     0.159 HD
ENDBRANCH   1  10
TORSDOF 4
ENDMDL
MODEL 5
REMARK VINA RESULT:    -4.669      1.715      3.507
REMARK INTER + INTRA:          -5.819
REMARK INTER:                  -5.554
REMARK INTRA:                  -0.265
REMARK UNBOUND:                -0.194
REMARK SMILES NC(=O)C[C@H]([NH3+])C(=O)[O-]
REMARK SMILES IDX 4 1 5 2 6 3 7 7 8 8 9 9 2 10 3 11 1 12
REMARK H PARENT 6 4 6 5 6 6 1 13 1 14
REMARK Flexibility Score: inf
ROOT
ATOM      1  C   UNL     1     -20.038  67.617  -1.180  1.00  0.00     0.171 C 
ENDROOT
BRANCH   1   2
ATOM      2  C   UNL     1     -21.120  68.652  -0.804  1.00  0.00     0.237 C 
BRANCH   2   3
ATOM      3  N   UNL     1     -20.563  69.761  -0.017  1.00  0.00    -0.350 N 
ATOM      4  H   UNL     1     -19.868  69.388   0.672  1.00  0.00     0.345 HD
ATOM      5  H   UNL     1     -21.327  70.237   0.516  1.00  0.00     0.345 HD
ATOM      6  H   UNL     1     -20.088  70.461  -0.630  1.00  0.00     0.345 HD
ENDBRANCH   2   3
BRANCH   2   7
ATOM      7  C   UNL     1     -22.277  68.004  -0.088  1.00  0.00     0.100 C 
ATOM      8  O   UNL     1     -23.124  67.335  -0.738  1.00  0.00    -0.544 OA
ATOM      9  O   UNL     1     -22.394  68.090   1.295  1.00  0.00    -0.544 OA
ENDBRANCH   2   7
ENDBRANCH   1   2
BRANCH   1  10
ATOM     10  C   UNL     1     -18.934  67.514  -0.165  1.00  0.00     0.223 C 
ATOM     11  O   UNL     1     -19.142  66.924   0.930  1.00  0.00    -0.275 OA
ATOM     12  N   UNL     1     -17.645  68.063  -0.437  1.00  0.00    -0.369 N 
ATOM     13  H   UNL     1     -17.454  68.553  -1.338  1.00  0.00     0.159 HD
ATOM     14  H   UNL     1     -16.877  67.978   0.266  1.00  0.00     0.159 HD
ENDBRANCH   1  10
TORSDOF 4
ENDMDL
MODEL 6
REMARK VINA RESULT:    -4.611      2.138      2.193
REMARK INTER + INTRA:          -5.749
REMARK INTER:                  -5.384
REMARK INTRA:                  -0.365
REMARK UNBOUND:                -0.194
REMARK SMILES NC(=O)C[C@H]([NH3+])C(=O)[O-]
REMARK SMILES IDX 4 1 5 2 6 3 7 7 8 8 9 9 2 10 3 11 1 12
REMARK H PARENT 6 4 6 5 6 6 1 13 1 14
REMARK Flexibility Score: inf
ROOT
ATOM      1  C   UNL     1     -21.014  69.150  -0.712  1.00  0.00     0.171 C 
ENDROOT
BRANCH   1   2
ATOM      2  C   UNL     1     -19.904  68.388  -1.468  1.00  0.00     0.237 C 
BRANCH   2   3
ATOM      3  N   UNL     1     -20.170  66.944  -1.516  1.00  0.00    -0.350 N 
ATOM      4  H   UNL     1     -19.718  66.532  -2.366  1.00  0.00     0.345 HD
ATOM      5  H   UNL     1     -21.201  66.775  -1.581  1.00  0.00     0.345 HD
ATOM      6  H   UNL     1     -19.798  66.460  -0.667  1.00  0.00     0.345 HD
ENDBRANCH   2   3
BRANCH   2   7
ATOM      7  C   UNL     1     -18.544  68.671  -0.882  1.00  0.00     0.100 C 
ATOM      8  O   UNL     1     -17.938  67.775  -0.237  1.00  0.00    -0.544 OA
ATOM      9  O   UNL     1     -17.924  69.898  -1.091  1.00  0.00    -0.544 OA
ENDBRANCH   2   7
ENDBRANCH   1   2
BRANCH   1  10
ATOM     10  C   UNL     1     -21.719  68.309   0.315  1.00  0.00     0.223 C 
ATOM     11  O   UNL     1     -22.715  67.613  -0.020  1.00  0.00    -0.275 OA
ATOM     12  N   UNL     1     -21.257  68.275   1.666  1.00  0.00    -0.369 N 
ATOM     13  H   UNL     1     -20.432  68.843   1.961  1.00  0.00     0.159 HD
ATOM     14  H   UNL     1     -21.741  67.680   2.374  1.00  0.00     0.159 HD
ENDBRANCH   1  10
TORSDOF 4
ENDMDL
MODEL 7
REMARK VINA RESULT:    -4.313      1.636      2.860
REMARK INTER + INTRA:          -5.390
REMARK INTER:                  -5.307
REMARK INTRA:                  -0.083
REMARK UNBOUND:                -0.194
REMARK SMILES NC(=O)C[C@H]([NH3+])C(=O)[O-]
REMARK SMILES IDX 4 1 5 2 6 3 7 7 8 8 9 9 2 10 3 11 1 12
REMARK H PARENT 6 4 6 5 6 6 1 13 1 14
REMARK Flexibility Score: inf
ROOT
ATOM      1  C   UNL     1     -21.696  69.086   1.078  1.00  0.00     0.171 C 
ENDROOT
BRANCH   1   2
ATOM      2  C   UNL     1     -21.766  68.381  -0.295  1.00  0.00     0.237 C 
BRANCH   2   3
ATOM      3  N   UNL     1     -23.008  67.611  -0.449  1.00  0.00    -0.350 N 
ATOM      4  H   UNL     1     -22.819  66.751  -1.014  1.00  0.00     0.345 HD
ATOM      5  H   UNL     1     -23.720  68.185  -0.955  1.00  0.00     0.345 HD
ATOM      6  H   UNL     1     -23.396  67.327   0.480  1.00  0.00     0.345 HD
ENDBRANCH   2   3
BRANCH   2   7
ATOM      7  C   UNL     1     -20.555  67.515  -0.532  1.00  0.00     0.100 C 
ATOM      8  O   UNL     1     -20.422  66.907  -1.626  1.00  0.00    -0.544 OA
ATOM      9  O   UNL     1     -19.552  67.421   0.427  1.00  0.00    -0.544 OA
ENDBRANCH   2   7
ENDBRANCH   1   2
BRANCH   1  10
ATOM     10  C   UNL     1     -21.263  70.522   0.987  1.00  0.00     0.223 C 
ATOM     11  O   UNL     1     -21.613  71.340   1.881  1.00  0.00    -0.275 OA
ATOM     12  N   UNL     1     -20.442  70.965  -0.093  1.00  0.00    -0.369 N 
ATOM     13  H   UNL     1     -20.141  70.303  -0.840  1.00  0.00     0.159 HD
ATOM     14  H   UNL     1     -20.132  71.962  -0.146  1.00  0.00     0.159 HD
ENDBRANCH   1  10
TORSDOF 4
ENDMDL
MODEL 8
REMARK VINA RESULT:    -3.938      2.273      2.695
REMARK INTER + INTRA:          -4.939
REMARK INTER:                  -4.904
REMARK INTRA:                  -0.035
REMARK UNBOUND:                -0.194
REMARK SMILES NC(=O)C[C@H]([NH3+])C(=O)[O-]
REMARK SMILES IDX 4 1 5 2 6 3 7 7 8 8 9 9 2 10 3 11 1 12
REMARK H PARENT 6 4 6 5 6 6 1 13 1 14
REMARK Flexibility Score: inf
ROOT
ATOM      1  C   UNL     1     -21.352  68.892   1.384  1.00  0.00     0.171 C 
ENDROOT
BRANCH   1   2
ATOM      2  C   UNL     1     -20.596  67.886   0.489  1.00  0.00     0.237 C 
BRANCH   2   3
ATOM      3  N   UNL     1     -19.290  68.408   0.066  1.00  0.00    -0.350 N 
ATOM      4  H   UNL     1     -19.033  69.233   0.657  1.00  0.00     0.345 HD
ATOM      5  H   UNL     1     -19.340  68.722  -0.930  1.00  0.00     0.345 HD
ATOM      6  H   UNL     1     -18.543  67.682   0.157  1.00  0.00     0.345 HD
ENDBRANCH   2   3
BRANCH   2   7
ATOM      7  C   UNL     1     -21.428  67.471  -0.698  1.00  0.00     0.100 C 
ATOM      8  O   UNL     1     -20.873  66.957  -1.705  1.00  0.00    -0.544 OA
ATOM      9  O   UNL     1     -22.812  67.602  -0.674  1.00  0.00    -0.544 OA
ENDBRANCH   2   7
ENDBRANCH   1   2
BRANCH   1  10
ATOM     10  C   UNL     1     -21.197  70.319   0.937  1.00  0.00     0.223 C 
ATOM     11  O   UNL     1     -20.877  70.571  -0.257  1.00  0.00    -0.275 OA
ATOM     12  N   UNL     1     -21.428  71.393   1.848  1.00  0.00    -0.369 N 
ATOM     13  H   UNL     1     -21.695  71.204   2.838  1.00  0.00     0.159 HD
ATOM     14  H   UNL     1     -21.332  72.383   1.530  1.00  0.00     0.159 HD
ENDBRANCH   1  10
TORSDOF 4
ENDMDL
MODEL 9
REMARK VINA RESULT:    -3.853      1.844      2.049
REMARK INTER + INTRA:          -4.836
REMARK INTER:                  -4.836
REMARK INTRA:                  -0.000
REMARK UNBOUND:                -0.194
REMARK SMILES NC(=O)C[C@H]([NH3+])C(=O)[O-]
REMARK SMILES IDX 4 1 5 2 6 3 7 7 8 8 9 9 2 10 3 11 1 12
REMARK H PARENT 6 4 6 5 6 6 1 13 1 14
REMARK Flexibility Score: inf
ROOT
ATOM      1  C   UNL     1     -19.966  67.560   0.974  1.00  0.00     0.171 C 
ENDROOT
BRANCH   1   2
ATOM      2  C   UNL     1     -19.045  67.203  -0.213  1.00  0.00     0.237 C 
BRANCH   2   3
ATOM      3  N   UNL     1     -17.809  67.996  -0.201  1.00  0.00    -0.350 N 
ATOM      4  H   UNL     1     -17.214  67.731  -1.020  1.00  0.00     0.345 HD
ATOM      5  H   UNL     1     -17.269  67.799   0.672  1.00  0.00     0.345 HD
ATOM      6  H   UNL     1     -18.015  69.020  -0.252  1.00  0.00     0.345 HD
ENDBRANCH   2   3
BRANCH   2   7
ATOM      7  C   UNL     1     -19.767  67.336  -1.530  1.00  0.00     0.100 C 
ATOM      8  O   UNL     1     -19.667  68.401  -2.195  1.00  0.00    -0.544 OA
ATOM      9  O   UNL     1     -20.501  66.275  -2.047  1.00  0.00    -0.544 OA
ENDBRANCH   2   7
ENDBRANCH   1   2
BRANCH   1  10
ATOM     10  C   UNL     1     -21.123  68.437   0.586  1.00  0.00     0.223 C 
ATOM     11  O   UNL     1     -22.289  67.958   0.549  1.00  0.00    -0.275 OA
ATOM     12  N   UNL     1     -20.917  69.815   0.277  1.00  0.00    -0.369 N 
ATOM     13  H   UNL     1     -19.960  70.230   0.304  1.00  0.00     0.159 HD
ATOM     14  H   UNL     1     -21.725  70.425   0.020  1.00  0.00     0.159 HD
ENDBRANCH   1  10
TORSDOF 4
ENDMDL
