MODEL 1
REMARK VINA RESULT:    -4.023      0.000      0.000
REMARK INTER + INTRA:          -7.358
REMARK INTER:                  -6.140
REMARK INTRA:                  -1.218
REMARK UNBOUND:                -1.218
REMARK SMILES CCCCCCCCCC=CC(=O)[O-]
REMARK SMILES IDX 7 1 8 2 9 3 10 4 11 5 12 6 13 7 14 8 6 9 5 10 4 11 3 12 2 13
REMARK SMILES IDX 1 14
REMARK H PARENT
REMARK Flexibility Score: inf
ROOT
ATOM      1  C   UNL     1       4.717  18.691   4.318  1.00  0.00     0.000 C 
ENDROOT
BRANCH   1   2
ATOM      2  C   UNL     1       4.701  19.213   2.872  1.00  0.00     0.004 C 
BRANCH   2   3
ATOM      3  C   UNL     1       3.698  18.461   1.984  1.00  0.00     0.027 C 
BRANCH   3   4
ATOM      4  C   UNL     1       4.365  17.337   1.244  1.00  0.00    -0.025 C 
ATOM      5  C   UNL     1       3.653  16.388   0.628  1.00  0.00     0.020 C 
BRANCH   5   6
ATOM      6  C   UNL     1       4.292  15.275  -0.090  1.00  0.00     0.064 C 
ATOM      7  O   UNL     1       3.776  14.129  -0.044  1.00  0.00    -0.545 OA
ATOM      8  O   UNL     1       5.460  15.469  -0.819  1.00  0.00    -0.545 OA
ENDBRANCH   5   6
ENDBRANCH   3   4
ENDBRANCH   2   3
ENDBRANCH   1   2
BRANCH   1   9
ATOM      9  C   UNL     1       5.843  17.672   4.564  1.00  0.00     0.000 C 
BRANCH   9  10
ATOM     10  C   UNL     1       5.310  16.293   4.984  1.00  0.00     0.000 C 
BRANCH  10  11
ATOM     11  C   UNL     1       5.667  15.189   3.974  1.00  0.00    -0.000 C 
BRANCH  11  12
ATOM     12  C   UNL     1       4.422  14.405   3.506  1.00  0.00    -0.000 C 
BRANCH  12  13
ATOM     13  C   UNL     1       3.154  14.725   4.316  1.00  0.00    -0.003 C 
ATOM     14  C   UNL     1       2.775  13.617   5.295  1.00  0.00     0.004 C 
ENDBRANCH  12  13
ENDBRANCH  11  12
ENDBRANCH  10  11
ENDBRANCH   9  10
ENDBRANCH   1   9
TORSDOF 9
ENDMDL
MODEL 2
REMARK VINA RESULT:    -4.017      9.125     11.014
REMARK INTER + INTRA:          -7.349
REMARK INTER:                  -6.790
REMARK INTRA:                  -0.559
REMARK UNBOUND:                -1.218
REMARK SMILES CCCCCCCCCC=CC(=O)[O-]
REMARK SMILES IDX 7 1 8 2 9 3 10 4 11 5 12 6 13 7 14 8 6 9 5 10 4 11 3 12 2 13
REMARK SMILES IDX 1 14
REMARK H PARENT
REMARK Flexibility Score: inf
ROOT
ATOM      1  C   UNL     1       9.741  10.456  -3.908  1.00  0.00     0.000 C 
ENDROOT
BRANCH   1   2
ATOM      2  C   UNL     1       9.702  11.936  -3.496  1.00  0.00     0.004 C 
BRANCH   2   3
ATOM      3  C   UNL     1       9.687  12.124  -1.972  1.00  0.00     0.027 C 
BRANCH   3   4
ATOM      4  C   UNL     1      10.777  13.057  -1.529  1.00  0.00    -0.025 C 
ATOM      5  C   UNL     1      11.906  12.599  -0.979  1.00  0.00     0.020 C 
BRANCH   5   6
ATOM      6  C   UNL     1      12.977  13.500  -0.529  1.00  0.00     0.064 C 
ATOM      7  O   UNL     1      13.343  14.449  -1.269  1.00  0.00    -0.545 OA
ATOM      8  O   UNL     1      13.594  13.320   0.705  1.00  0.00    -0.545 OA
ENDBRANCH   5   6
ENDBRANCH   3   4
ENDBRANCH   2   3
ENDBRANCH   1   2
BRANCH   1   9
ATOM      9  C   UNL     1      10.853   9.673  -3.188  1.00  0.00     0.000 C 
BRANCH   9  10
ATOM     10  C   UNL     1      10.319   8.444  -2.437  1.00  0.00     0.000 C 
BRANCH  10  11
ATOM     11  C   UNL     1       9.708   7.393  -3.381  1.00  0.00    -0.000 C 
BRANCH  11  12
ATOM     12  C   UNL     1       8.778   6.412  -2.635  1.00  0.00    -0.000 C 
BRANCH  12  13
ATOM     13  C   UNL     1       8.561   5.085  -3.381  1.00  0.00    -0.003 C 
ATOM     14  C   UNL     1       9.521   3.984  -2.934  1.00  0.00     0.004 C 
ENDBRANCH  12  13
ENDBRANCH  11  12
ENDBRANCH  10  11
ENDBRANCH   9  10
ENDBRANCH   1   9
TORSDOF 9
ENDMDL
MODEL 3
REMARK VINA RESULT:    -3.972      1.223      2.162
REMARK INTER + INTRA:          -7.279
REMARK INTER:                  -6.034
REMARK INTRA:                  -1.245
REMARK UNBOUND:                -1.218
REMARK SMILES CCCCCCCCCC=CC(=O)[O-]
REMARK SMILES IDX 7 1 8 2 9 3 10 4 11 5 12 6 13 7 14 8 6 9 5 10 4 11 3 12 2 13
REMARK SMILES IDX 1 14
REMARK H PARENT
REMARK Flexibility Score: inf
ROOT
ATOM      1  C   UNL     1       3.161  19.796   3.547  1.00  0.00     0.000 C 
ENDROOT
BRANCH   1   2
ATOM      2  C   UNL     1       3.798  19.894   2.152  1.00  0.00     0.004 C 
BRANCH   2   3
ATOM      3  C   UNL     1       3.110  18.983   1.124  1.00  0.00     0.027 C 
BRANCH   3   4
ATOM      4  C   UNL     1       3.936  17.761   0.842  1.00  0.00    -0.025 C 
ATOM      5  C   UNL     1       3.371  16.608   0.471  1.00  0.00     0.020 C 
BRANCH   5   6
ATOM      6  C   UNL     1       4.166  15.399   0.204  1.00  0.00     0.064 C 
ATOM      7  O   UNL     1       5.223  15.488  -0.472  1.00  0.00    -0.545 OA
ATOM      8  O   UNL     1       3.767  14.159   0.688  1.00  0.00    -0.545 OA
ENDBRANCH   5   6
ENDBRANCH   3   4
ENDBRANCH   2   3
ENDBRANCH   1   2
BRANCH   1   9
ATOM      9  C   UNL     1       4.202  19.559   4.655  1.00  0.00     0.000 C 
BRANCH   9  10
ATOM     10  C   UNL     1       5.468  18.859   4.136  1.00  0.00     0.000 C 
BRANCH  10  11
ATOM     11  C   UNL     1       5.611  17.423   4.671  1.00  0.00    -0.000 C 
BRANCH  11  12
ATOM     12  C   UNL     1       4.564  16.468   4.059  1.00  0.00    -0.000 C 
BRANCH  12  13
ATOM     13  C   UNL     1       5.049  15.012   3.953  1.00  0.00    -0.003 C 
ATOM     14  C   UNL     1       6.307  14.861   3.101  1.00  0.00     0.004 C 
ENDBRANCH  12  13
ENDBRANCH  11  12
ENDBRANCH  10  11
ENDBRANCH   9  10
ENDBRANCH   1   9
TORSDOF 9
ENDMDL
MODEL 4
REMARK VINA RESULT:    -3.940      9.596     11.050
REMARK INTER + INTRA:          -7.230
REMARK INTER:                  -6.205
REMARK INTRA:                  -1.026
REMARK UNBOUND:                -1.218
REMARK SMILES CCCCCCCCCC=CC(=O)[O-]
REMARK SMILES IDX 7 1 8 2 9 3 10 4 11 5 12 6 13 7 14 8 6 9 5 10 4 11 3 12 2 13
REMARK SMILES IDX 1 14
REMARK H PARENT
REMARK Flexibility Score: inf
ROOT
ATOM      1  C   UNL     1      10.087  11.975  -4.705  1.00  0.00     0.000 C 
ENDROOT
BRANCH   1   2
ATOM      2  C   UNL     1       9.695  10.888  -3.692  1.00  0.00     0.004 C 
BRANCH   2   3
ATOM      3  C   UNL     1      10.833   9.892  -3.424  1.00  0.00     0.027 C 
BRANCH   3   4
ATOM      4  C   UNL     1      10.318   8.642  -2.771  1.00  0.00    -0.025 C 
ATOM      5  C   UNL     1       9.682   7.699  -3.473  1.00  0.00     0.020 C 
BRANCH   5   6
ATOM      6  C   UNL     1       9.160   6.476  -2.845  1.00  0.00     0.064 C 
ATOM      7  O   UNL     1       8.663   6.534  -1.691  1.00  0.00    -0.545 OA
ATOM      8  O   UNL     1       9.209   5.254  -3.507  1.00  0.00    -0.545 OA
ENDBRANCH   5   6
ENDBRANCH   3   4
ENDBRANCH   2   3
ENDBRANCH   1   2
BRANCH   1   9
ATOM      9  C   UNL     1      10.266  13.355  -4.049  1.00  0.00     0.000 C 
BRANCH   9  10
ATOM     10  C   UNL     1      11.616  14.003  -4.399  1.00  0.00     0.000 C 
BRANCH  10  11
ATOM     11  C   UNL     1      12.690  13.747  -3.327  1.00  0.00    -0.000 C 
BRANCH  11  12
ATOM     12  C   UNL     1      12.072  13.351  -1.968  1.00  0.00    -0.000 C 
BRANCH  12  13
ATOM     13  C   UNL     1      12.755  12.139  -1.314  1.00  0.00    -0.003 C 
ATOM     14  C   UNL     1      11.912  11.501  -0.212  1.00  0.00     0.004 C 
ENDBRANCH  12  13
ENDBRANCH  11  12
ENDBRANCH  10  11
ENDBRANCH   9  10
ENDBRANCH   1   9
TORSDOF 9
ENDMDL
MODEL 5
REMARK VINA RESULT:    -3.938      1.185      1.538
REMARK INTER + INTRA:          -7.229
REMARK INTER:                  -5.963
REMARK INTRA:                  -1.265
REMARK UNBOUND:                -1.218
REMARK SMILES CCCCCCCCCC=CC(=O)[O-]
REMARK SMILES IDX 7 1 8 2 9 3 10 4 11 5 12 6 13 7 14 8 6 9 5 10 4 11 3 12 2 13
REMARK SMILES IDX 1 14
REMARK H PARENT
REMARK Flexibility Score: inf
ROOT
ATOM      1  C   UNL     1       4.673  17.733   4.531  1.00  0.00     0.000 C 
ENDROOT
BRANCH   1   2
ATOM      2  C   UNL     1       5.128  19.105   4.011  1.00  0.00     0.004 C 
BRANCH   2   3
ATOM      3  C   UNL     1       4.500  19.460   2.654  1.00  0.00     0.027 C 
BRANCH   3   4
ATOM      4  C   UNL     1       3.646  18.337   2.141  1.00  0.00    -0.025 C 
ATOM      5  C   UNL     1       3.897  17.751   0.966  1.00  0.00     0.020 C 
BRANCH   5   6
ATOM      6  C   UNL     1       3.061  16.658   0.444  1.00  0.00     0.064 C 
ATOM      7  O   UNL     1       1.834  16.853   0.250  1.00  0.00    -0.545 OA
ATOM      8  O   UNL     1       3.607  15.411   0.163  1.00  0.00    -0.545 OA
ENDBRANCH   5   6
ENDBRANCH   3   4
ENDBRANCH   2   3
ENDBRANCH   1   2
BRANCH   1   9
ATOM      9  C   UNL     1       5.790  16.987   5.281  1.00  0.00     0.000 C 
BRANCH   9  10
ATOM     10  C   UNL     1       6.427  15.873   4.435  1.00  0.00     0.000 C 
BRANCH  10  11
ATOM     11  C   UNL     1       5.626  15.569   3.157  1.00  0.00    -0.000 C 
BRANCH  11  12
ATOM     12  C   UNL     1       4.869  14.226   3.250  1.00  0.00    -0.000 C 
BRANCH  12  13
ATOM     13  C   UNL     1       3.371  14.386   3.560  1.00  0.00    -0.003 C 
ATOM     14  C   UNL     1       3.000  13.924   4.967  1.00  0.00     0.004 C 
ENDBRANCH  12  13
ENDBRANCH  11  12
ENDBRANCH  10  11
ENDBRANCH   9  10
ENDBRANCH   1   9
TORSDOF 9
ENDMDL
MODEL 6
REMARK VINA RESULT:    -3.924      9.032     11.038
REMARK INTER + INTRA:          -7.207
REMARK INTER:                  -5.927
REMARK INTRA:                  -1.280
REMARK UNBOUND:                -1.218
REMARK SMILES CCCCCCCCCC=CC(=O)[O-]
REMARK SMILES IDX 7 1 8 2 9 3 10 4 11 5 12 6 13 7 14 8 6 9 5 10 4 11 3 12 2 13
REMARK SMILES IDX 1 14
REMARK H PARENT
REMARK Flexibility Score: inf
ROOT
ATOM      1  C   UNL     1      11.354  14.354  -4.994  1.00  0.00     0.000 C 
ENDROOT
BRANCH   1   2
ATOM      2  C   UNL     1      12.162  13.232  -5.663  1.00  0.00     0.004 C 
BRANCH   2   3
ATOM      3  C   UNL     1      13.355  12.774  -4.810  1.00  0.00     0.027 C 
BRANCH   3   4
ATOM      4  C   UNL     1      13.769  13.842  -3.839  1.00  0.00    -0.025 C 
ATOM      5  C   UNL     1      14.150  13.541  -2.593  1.00  0.00     0.020 C 
BRANCH   5   6
ATOM      6  C   UNL     1      14.546  14.577  -1.627  1.00  0.00     0.064 C 
ATOM      7  O   UNL     1      13.678  15.089  -0.875  1.00  0.00    -0.545 OA
ATOM      8  O   UNL     1      15.867  15.000  -1.532  1.00  0.00    -0.545 OA
ENDBRANCH   5   6
ENDBRANCH   3   4
ENDBRANCH   2   3
ENDBRANCH   1   2
BRANCH   1   9
ATOM      9  C   UNL     1      10.020  13.854  -4.412  1.00  0.00     0.000 C 
BRANCH   9  10
ATOM     10  C   UNL     1      10.113  13.538  -2.911  1.00  0.00     0.000 C 
BRANCH  10  11
ATOM     11  C   UNL     1       9.440  12.203  -2.545  1.00  0.00    -0.000 C 
BRANCH  11  12
ATOM     12  C   UNL     1       9.243  11.295  -3.777  1.00  0.00    -0.000 C 
BRANCH  12  13
ATOM     13  C   UNL     1       9.961   9.939  -3.663  1.00  0.00    -0.003 C 
ATOM     14  C   UNL     1      11.392  10.064  -3.146  1.00  0.00     0.004 C 
ENDBRANCH  12  13
ENDBRANCH  11  12
ENDBRANCH  10  11
ENDBRANCH   9  10
ENDBRANCH   1   9
TORSDOF 9
ENDMDL
MODEL 7
REMARK VINA RESULT:    -3.889      8.863     10.784
REMARK INTER + INTRA:          -7.153
REMARK INTER:                  -5.490
REMARK INTRA:                  -1.663
REMARK UNBOUND:                -1.218
REMARK SMILES CCCCCCCCCC=CC(=O)[O-]
REMARK SMILES IDX 7 1 8 2 9 3 10 4 11 5 12 6 13 7 14 8 6 9 5 10 4 11 3 12 2 13
REMARK SMILES IDX 1 14
REMARK H PARENT
REMARK Flexibility Score: inf
ROOT
ATOM      1  C   UNL     1      12.304  13.959  -4.525  1.00  0.00     0.000 C 
ENDROOT
BRANCH   1   2
ATOM      2  C   UNL     1      12.740  12.657  -5.217  1.00  0.00     0.004 C 
BRANCH   2   3
ATOM      3  C   UNL     1      13.358  11.647  -4.238  1.00  0.00     0.027 C 
BRANCH   3   4
ATOM      4  C   UNL     1      13.347  12.178  -2.833  1.00  0.00    -0.025 C 
ATOM      5  C   UNL     1      13.010  11.402  -1.797  1.00  0.00     0.020 C 
BRANCH   5   6
ATOM      6  C   UNL     1      12.982  11.911  -0.417  1.00  0.00     0.064 C 
ATOM      7  O   UNL     1      12.071  11.537   0.364  1.00  0.00    -0.545 OA
ATOM      8  O   UNL     1      13.950  12.800   0.037  1.00  0.00    -0.545 OA
ENDBRANCH   5   6
ENDBRANCH   3   4
ENDBRANCH   2   3
ENDBRANCH   1   2
BRANCH   1   9
ATOM      9  C   UNL     1      10.945  14.471  -5.035  1.00  0.00     0.000 C 
BRANCH   9  10
ATOM     10  C   UNL     1       9.758  13.742  -4.385  1.00  0.00     0.000 C 
BRANCH  10  11
ATOM     11  C   UNL     1       9.962  13.508  -2.878  1.00  0.00    -0.000 C 
BRANCH  11  12
ATOM     12  C   UNL     1       9.485  12.107  -2.438  1.00  0.00    -0.000 C 
BRANCH  12  13
ATOM     13  C   UNL     1       9.274  11.134  -3.610  1.00  0.00    -0.003 C 
ATOM     14  C   UNL     1      10.051   9.829  -3.450  1.00  0.00     0.004 C 
ENDBRANCH  12  13
ENDBRANCH  11  12
ENDBRANCH  10  11
ENDBRANCH   9  10
ENDBRANCH   1   9
TORSDOF 9
ENDMDL
MODEL 8
REMARK VINA RESULT:    -3.816      9.113     11.161
REMARK INTER + INTRA:          -7.042
REMARK INTER:                  -5.502
REMARK INTRA:                  -1.540
REMARK UNBOUND:                -1.218
REMARK SMILES CCCCCCCCCC=CC(=O)[O-]
REMARK SMILES IDX 7 1 8 2 9 3 10 4 11 5 12 6 13 7 14 8 6 9 5 10 4 11 3 12 2 13
REMARK SMILES IDX 1 14
REMARK H PARENT
REMARK Flexibility Score: inf
ROOT
ATOM      1  C   UNL     1       9.352  11.483  -3.363  1.00  0.00     0.000 C 
ENDROOT
BRANCH   1   2
ATOM      2  C   UNL     1       9.836  12.018  -2.006  1.00  0.00     0.004 C 
BRANCH   2   3
ATOM      3  C   UNL     1      10.872  11.097  -1.344  1.00  0.00     0.027 C 
BRANCH   3   4
ATOM      4  C   UNL     1      12.148  11.835  -1.054  1.00  0.00    -0.025 C 
ATOM      5  C   UNL     1      12.161  13.160  -0.878  1.00  0.00     0.020 C 
BRANCH   5   6
ATOM      6  C   UNL     1      13.404  13.898  -0.606  1.00  0.00     0.064 C 
ATOM      7  O   UNL     1      13.797  14.773  -1.419  1.00  0.00    -0.545 OA
ATOM      8  O   UNL     1      14.153  13.643   0.538  1.00  0.00    -0.545 OA
ENDBRANCH   5   6
ENDBRANCH   3   4
ENDBRANCH   2   3
ENDBRANCH   1   2
BRANCH   1   9
ATOM      9  C   UNL     1       9.963  12.248  -4.550  1.00  0.00     0.000 C 
BRANCH   9  10
ATOM     10  C   UNL     1      10.415  13.667  -4.168  1.00  0.00     0.000 C 
BRANCH  10  11
ATOM     11  C   UNL     1      11.911  13.904  -4.438  1.00  0.00    -0.000 C 
BRANCH  11  12
ATOM     12  C   UNL     1      12.641  12.606  -4.847  1.00  0.00    -0.000 C 
BRANCH  12  13
ATOM     13  C   UNL     1      14.008  12.430  -4.164  1.00  0.00    -0.003 C 
ATOM     14  C   UNL     1      15.054  13.426  -4.655  1.00  0.00     0.004 C 
ENDBRANCH  12  13
ENDBRANCH  11  12
ENDBRANCH  10  11
ENDBRANCH   9  10
ENDBRANCH   1   9
TORSDOF 9
ENDMDL
MODEL 9
REMARK VINA RESULT:    -3.798      2.886      4.731
REMARK INTER + INTRA:          -7.015
REMARK INTER:                  -5.460
REMARK INTRA:                  -1.555
REMARK UNBOUND:                -1.218
REMARK SMILES CCCCCCCCCC=CC(=O)[O-]
REMARK SMILES IDX 7 1 8 2 9 3 10 4 11 5 12 6 13 7 14 8 6 9 5 10 4 11 3 12 2 13
REMARK SMILES IDX 1 14
REMARK H PARENT
REMARK Flexibility Score: inf
ROOT
ATOM      1  C   UNL     1       4.195  15.554   4.834  1.00  0.00     0.000 C 
ENDROOT
BRANCH   1   2
ATOM      2  C   UNL     1       5.668  15.871   4.532  1.00  0.00     0.004 C 
BRANCH   2   3
ATOM      3  C   UNL     1       6.013  17.351   4.765  1.00  0.00     0.027 C 
BRANCH   3   4
ATOM      4  C   UNL     1       4.819  18.230   4.525  1.00  0.00    -0.025 C 
ATOM      5  C   UNL     1       4.925  19.381   3.853  1.00  0.00     0.020 C 
BRANCH   5   6
ATOM      6  C   UNL     1       3.768  20.259   3.621  1.00  0.00     0.064 C 
ATOM      7  O   UNL     1       3.954  21.475   3.361  1.00  0.00    -0.545 OA
ATOM      8  O   UNL     1       2.470  19.764   3.685  1.00  0.00    -0.545 OA
ENDBRANCH   5   6
ENDBRANCH   3   4
ENDBRANCH   2   3
ENDBRANCH   1   2
BRANCH   1   9
ATOM      9  C   UNL     1       3.665  14.374   4.001  1.00  0.00     0.000 C 
BRANCH   9  10
ATOM     10  C   UNL     1       4.607  13.993   2.848  1.00  0.00     0.000 C 
BRANCH  10  11
ATOM     11  C   UNL     1       4.094  14.477   1.481  1.00  0.00    -0.000 C 
BRANCH  11  12
ATOM     12  C   UNL     1       5.024  15.538   0.854  1.00  0.00    -0.000 C 
BRANCH  12  13
ATOM     13  C   UNL     1       4.515  16.979   1.027  1.00  0.00    -0.003 C 
ATOM     14  C   UNL     1       3.037  17.050   1.403  1.00  0.00     0.004 C 
ENDBRANCH  12  13
ENDBRANCH  11  12
ENDBRANCH  10  11
ENDBRANCH   9  10
ENDBRANCH   1   9
TORSDOF 9
ENDMDL
