MODEL 1
REMARK VINA RESULT:    -4.465      0.000      0.000
REMARK INTER + INTRA:          -6.679
REMARK INTER:                  -6.292
REMARK INTRA:                  -0.387
REMARK UNBOUND:                -0.387
REMARK SMILES CCCCCCCCC(=O)[O-]
REMARK SMILES IDX 6 1 7 2 8 3 9 4 10 5 11 6 5 7 4 8 3 9 2 10 1 11
REMARK H PARENT
REMARK Flexibility Score: inf
ROOT
ATOM      1  C   UNL     1      -7.588 -20.019  -6.239  1.00  0.00     0.000 C 
ENDROOT
BRANCH   1   2
ATOM      2  C   UNL     1      -8.861 -19.395  -5.653  1.00  0.00     0.006 C 
BRANCH   2   3
ATOM      3  C   UNL     1      -9.733 -18.788  -6.756  1.00  0.00     0.053 C 
BRANCH   3   4
ATOM      4  C   UNL     1     -10.471 -19.863  -7.491  1.00  0.00     0.041 C 
ATOM      5  O   UNL     1     -10.515 -19.854  -8.749  1.00  0.00    -0.550 OA
ATOM      6  O   UNL     1     -11.151 -20.847  -6.785  1.00  0.00    -0.550 OA
ENDBRANCH   3   4
ENDBRANCH   2   3
ENDBRANCH   1   2
BRANCH   1   7
ATOM      7  C   UNL     1      -6.694 -20.588  -5.126  1.00  0.00     0.000 C 
BRANCH   7   8
ATOM      8  C   UNL     1      -7.068 -20.056  -3.733  1.00  0.00    -0.000 C 
BRANCH   8   9
ATOM      9  C   UNL     1      -6.650 -21.014  -2.604  1.00  0.00    -0.000 C 
BRANCH   9  10
ATOM     10  C   UNL     1      -5.744 -22.151  -3.101  1.00  0.00    -0.003 C 
ATOM     11  C   UNL     1      -4.418 -22.229  -2.344  1.00  0.00     0.004 C 
ENDBRANCH   9  10
ENDBRANCH   8   9
ENDBRANCH   7   8
ENDBRANCH   1   7
TORSDOF 7
ENDMDL
MODEL 2
REMARK VINA RESULT:    -4.457     13.209     14.287
REMARK INTER + INTRA:          -6.668
REMARK INTER:                  -6.350
REMARK INTRA:                  -0.318
REMARK UNBOUND:                -0.387
REMARK SMILES CCCCCCCCC(=O)[O-]
REMARK SMILES IDX 6 1 7 2 8 3 9 4 10 5 11 6 5 7 4 8 3 9 2 10 1 11
REMARK H PARENT
REMARK Flexibility Score: inf
ROOT
ATOM      1  C   UNL     1       1.663 -19.906 -14.179  1.00  0.00     0.000 C 
ENDROOT
BRANCH   1   2
ATOM      2  C   UNL     1       3.023 -20.251 -13.560  1.00  0.00     0.006 C 
BRANCH   2   3
ATOM      3  C   UNL     1       2.852 -20.908 -12.188  1.00  0.00     0.053 C 
BRANCH   3   4
ATOM      4  C   UNL     1       4.140 -21.521 -11.737  1.00  0.00     0.041 C 
ATOM      5  O   UNL     1       5.189 -21.364 -12.417  1.00  0.00    -0.550 OA
ATOM      6  O   UNL     1       4.173 -22.307 -10.592  1.00  0.00    -0.550 OA
ENDBRANCH   3   4
ENDBRANCH   2   3
ENDBRANCH   1   2
BRANCH   1   7
ATOM      7  C   UNL     1       0.732 -21.128 -14.175  1.00  0.00     0.000 C 
BRANCH   7   8
ATOM      8  C   UNL     1       0.159 -21.443 -15.567  1.00  0.00    -0.000 C 
BRANCH   8   9
ATOM      9  C   UNL     1       0.694 -22.767 -16.141  1.00  0.00    -0.000 C 
BRANCH   9  10
ATOM     10  C   UNL     1      -0.218 -23.960 -15.816  1.00  0.00    -0.003 C 
ATOM     11  C   UNL     1       0.381 -24.896 -14.765  1.00  0.00     0.004 C 
ENDBRANCH   9  10
ENDBRANCH   8   9
ENDBRANCH   7   8
ENDBRANCH   1   7
TORSDOF 7
ENDMDL
MODEL 3
REMARK VINA RESULT:    -4.435     13.265     14.460
REMARK INTER + INTRA:          -6.637
REMARK INTER:                  -6.254
REMARK INTRA:                  -0.383
REMARK UNBOUND:                -0.387
REMARK SMILES CCCCCCCCC(=O)[O-]
REMARK SMILES IDX 6 1 7 2 8 3 9 4 10 5 11 6 5 7 4 8 3 9 2 10 1 11
REMARK H PARENT
REMARK Flexibility Score: inf
ROOT
ATOM      1  C   UNL     1       2.085 -21.100 -14.258  1.00  0.00     0.000 C 
ENDROOT
BRANCH   1   2
ATOM      2  C   UNL     1       3.045 -20.131 -13.555  1.00  0.00     0.006 C 
BRANCH   2   3
ATOM      3  C   UNL     1       3.116 -20.420 -12.054  1.00  0.00     0.053 C 
BRANCH   3   4
ATOM      4  C   UNL     1       4.224 -21.382 -11.757  1.00  0.00     0.041 C 
ATOM      5  O   UNL     1       4.123 -22.187 -10.794  1.00  0.00    -0.550 OA
ATOM      6  O   UNL     1       5.388 -21.356 -12.514  1.00  0.00    -0.550 OA
ENDBRANCH   3   4
ENDBRANCH   2   3
ENDBRANCH   1   2
BRANCH   1   7
ATOM      7  C   UNL     1       0.825 -20.368 -14.744  1.00  0.00     0.000 C 
BRANCH   7   8
ATOM      8  C   UNL     1      -0.259 -21.330 -15.258  1.00  0.00    -0.000 C 
BRANCH   8   9
ATOM      9  C   UNL     1       0.192 -22.122 -16.498  1.00  0.00    -0.000 C 
BRANCH   9  10
ATOM     10  C   UNL     1      -0.276 -23.585 -16.463  1.00  0.00    -0.003 C 
ATOM     11  C   UNL     1       0.221 -24.338 -15.228  1.00  0.00     0.004 C 
ENDBRANCH   9  10
ENDBRANCH   8   9
ENDBRANCH   7   8
ENDBRANCH   1   7
TORSDOF 7
ENDMDL
MODEL 4
REMARK VINA RESULT:    -3.894     13.034     14.296
REMARK INTER + INTRA:          -5.874
REMARK INTER:                  -5.498
REMARK INTRA:                  -0.377
REMARK UNBOUND:                -0.387
REMARK SMILES CCCCCCCCC(=O)[O-]
REMARK SMILES IDX 6 1 7 2 8 3 9 4 10 5 11 6 5 7 4 8 3 9 2 10 1 11
REMARK H PARENT
REMARK Flexibility Score: inf
ROOT
ATOM      1  C   UNL     1       1.125 -20.130 -13.165  1.00  0.00     0.000 C 
ENDROOT
BRANCH   1   2
ATOM      2  C   UNL     1       2.426 -20.939 -13.102  1.00  0.00     0.006 C 
BRANCH   2   3
ATOM      3  C   UNL     1       3.637 -20.020 -12.921  1.00  0.00     0.053 C 
BRANCH   3   4
ATOM      4  C   UNL     1       4.732 -20.734 -12.195  1.00  0.00     0.041 C 
ATOM      5  O   UNL     1       5.927 -20.356 -12.320  1.00  0.00    -0.550 OA
ATOM      6  O   UNL     1       4.441 -21.849 -11.419  1.00  0.00    -0.550 OA
ENDBRANCH   3   4
ENDBRANCH   2   3
ENDBRANCH   1   2
BRANCH   1   7
ATOM      7  C   UNL     1       0.006 -20.941 -13.837  1.00  0.00     0.000 C 
BRANCH   7   8
ATOM      8  C   UNL     1       0.208 -22.459 -13.702  1.00  0.00    -0.000 C 
BRANCH   8   9
ATOM      9  C   UNL     1      -0.518 -23.252 -14.801  1.00  0.00    -0.000 C 
BRANCH   9  10
ATOM     10  C   UNL     1       0.402 -23.598 -15.983  1.00  0.00    -0.003 C 
ATOM     11  C   UNL     1       0.214 -22.660 -17.175  1.00  0.00     0.004 C 
ENDBRANCH   9  10
ENDBRANCH   8   9
ENDBRANCH   7   8
ENDBRANCH   1   7
TORSDOF 7
ENDMDL
MODEL 5
REMARK VINA RESULT:    -3.818      1.807      2.399
REMARK INTER + INTRA:          -5.768
REMARK INTER:                  -5.263
REMARK INTRA:                  -0.504
REMARK UNBOUND:                -0.387
REMARK SMILES CCCCCCCCC(=O)[O-]
REMARK SMILES IDX 6 1 7 2 8 3 9 4 10 5 11 6 5 7 4 8 3 9 2 10 1 11
REMARK H PARENT
REMARK Flexibility Score: inf
ROOT
ATOM      1  C   UNL     1      -6.692 -22.132  -7.158  1.00  0.00     0.000 C 
ENDROOT
BRANCH   1   2
ATOM      2  C   UNL     1      -7.624 -21.082  -6.541  1.00  0.00     0.006 C 
BRANCH   2   3
ATOM      3  C   UNL     1      -8.550 -20.479  -7.601  1.00  0.00     0.053 C 
BRANCH   3   4
ATOM      4  C   UNL     1      -9.876 -21.171  -7.593  1.00  0.00     0.041 C 
ATOM      5  O   UNL     1     -10.040 -22.232  -8.252  1.00  0.00    -0.550 OA
ATOM      6  O   UNL     1     -10.945 -20.618  -6.900  1.00  0.00    -0.550 OA
ENDBRANCH   3   4
ENDBRANCH   2   3
ENDBRANCH   1   2
BRANCH   1   7
ATOM      7  C   UNL     1      -6.700 -23.428  -6.333  1.00  0.00     0.000 C 
BRANCH   7   8
ATOM      8  C   UNL     1      -5.638 -23.431  -5.221  1.00  0.00    -0.000 C 
BRANCH   8   9
ATOM      9  C   UNL     1      -6.255 -23.392  -3.813  1.00  0.00    -0.000 C 
BRANCH   9  10
ATOM     10  C   UNL     1      -5.662 -22.273  -2.941  1.00  0.00    -0.003 C 
ATOM     11  C   UNL     1      -6.545 -21.026  -2.894  1.00  0.00     0.004 C 
ENDBRANCH   9  10
ENDBRANCH   8   9
ENDBRANCH   7   8
ENDBRANCH   1   7
TORSDOF 7
ENDMDL
MODEL 6
REMARK VINA RESULT:    -3.815     12.561     13.345
REMARK INTER + INTRA:          -5.763
REMARK INTER:                  -5.359
REMARK INTRA:                  -0.405
REMARK UNBOUND:                -0.387
REMARK SMILES CCCCCCCCC(=O)[O-]
REMARK SMILES IDX 6 1 7 2 8 3 9 4 10 5 11 6 5 7 4 8 3 9 2 10 1 11
REMARK H PARENT
REMARK Flexibility Score: inf
ROOT
ATOM      1  C   UNL     1       1.284 -19.982 -13.946  1.00  0.00     0.000 C 
ENDROOT
BRANCH   1   2
ATOM      2  C   UNL     1       0.322 -20.727 -14.879  1.00  0.00     0.006 C 
BRANCH   2   3
ATOM      3  C   UNL     1       0.169 -22.190 -14.455  1.00  0.00     0.053 C 
BRANCH   3   4
ATOM      4  C   UNL     1       0.444 -23.101 -15.609  1.00  0.00     0.041 C 
ATOM      5  O   UNL     1       1.150 -22.705 -16.575  1.00  0.00    -0.550 OA
ATOM      6  O   UNL     1      -0.118 -24.371 -15.643  1.00  0.00    -0.550 OA
ENDBRANCH   3   4
ENDBRANCH   2   3
ENDBRANCH   1   2
BRANCH   1   7
ATOM      7  C   UNL     1       2.686 -20.608 -13.987  1.00  0.00     0.000 C 
BRANCH   7   8
ATOM      8  C   UNL     1       3.668 -19.935 -13.014  1.00  0.00    -0.000 C 
BRANCH   8   9
ATOM      9  C   UNL     1       4.549 -20.951 -12.266  1.00  0.00    -0.000 C 
BRANCH   9  10
ATOM     10  C   UNL     1       3.727 -21.911 -11.392  1.00  0.00    -0.003 C 
ATOM     11  C   UNL     1       3.542 -21.402  -9.962  1.00  0.00     0.004 C 
ENDBRANCH   9  10
ENDBRANCH   8   9
ENDBRANCH   7   8
ENDBRANCH   1   7
TORSDOF 7
ENDMDL
MODEL 7
REMARK VINA RESULT:    -3.790      8.288      9.933
REMARK INTER + INTRA:          -5.728
REMARK INTER:                  -5.486
REMARK INTRA:                  -0.241
REMARK UNBOUND:                -0.387
REMARK SMILES CCCCCCCCC(=O)[O-]
REMARK SMILES IDX 6 1 7 2 8 3 9 4 10 5 11 6 5 7 4 8 3 9 2 10 1 11
REMARK H PARENT
REMARK Flexibility Score: inf
ROOT
ATOM      1  C   UNL     1      -6.465 -16.077 -13.842  1.00  0.00     0.000 C 
ENDROOT
BRANCH   1   2
ATOM      2  C   UNL     1      -6.481 -15.653 -15.316  1.00  0.00     0.006 C 
BRANCH   2   3
ATOM      3  C   UNL     1      -6.899 -16.817 -16.218  1.00  0.00     0.053 C 
BRANCH   3   4
ATOM      4  C   UNL     1      -7.688 -16.316 -17.386  1.00  0.00     0.041 C 
ATOM      5  O   UNL     1      -7.552 -16.849 -18.519  1.00  0.00    -0.550 OA
ATOM      6  O   UNL     1      -8.539 -15.228 -17.236  1.00  0.00    -0.550 OA
ENDBRANCH   3   4
ENDBRANCH   2   3
ENDBRANCH   1   2
BRANCH   1   7
ATOM      7  C   UNL     1      -6.723 -14.874 -12.922  1.00  0.00     0.000 C 
BRANCH   7   8
ATOM      8  C   UNL     1      -7.098 -15.291 -11.490  1.00  0.00    -0.000 C 
BRANCH   8   9
ATOM      9  C   UNL     1      -6.762 -16.763 -11.195  1.00  0.00    -0.000 C 
BRANCH   9  10
ATOM     10  C   UNL     1      -7.827 -17.446 -10.322  1.00  0.00    -0.003 C 
ATOM     11  C   UNL     1      -7.242 -18.073  -9.056  1.00  0.00     0.004 C 
ENDBRANCH   9  10
ENDBRANCH   8   9
ENDBRANCH   7   8
ENDBRANCH   1   7
TORSDOF 7
ENDMDL
MODEL 8
REMARK VINA RESULT:    -3.783      9.877     11.560
REMARK INTER + INTRA:          -5.719
REMARK INTER:                  -5.067
REMARK INTRA:                  -0.651
REMARK UNBOUND:                -0.387
REMARK SMILES CCCCCCCCC(=O)[O-]
REMARK SMILES IDX 6 1 7 2 8 3 9 4 10 5 11 6 5 7 4 8 3 9 2 10 1 11
REMARK H PARENT
REMARK Flexibility Score: inf
ROOT
ATOM      1  C   UNL     1      -5.046 -18.229 -16.055  1.00  0.00     0.000 C 
ENDROOT
BRANCH   1   2
ATOM      2  C   UNL     1      -5.814 -17.417 -17.106  1.00  0.00     0.006 C 
BRANCH   2   3
ATOM      3  C   UNL     1      -7.141 -16.903 -16.542  1.00  0.00     0.053 C 
BRANCH   3   4
ATOM      4  C   UNL     1      -7.934 -16.221 -17.611  1.00  0.00     0.041 C 
ATOM      5  O   UNL     1      -8.698 -15.263 -17.320  1.00  0.00    -0.550 OA
ATOM      6  O   UNL     1      -7.870 -16.676 -18.922  1.00  0.00    -0.550 OA
ENDBRANCH   3   4
ENDBRANCH   2   3
ENDBRANCH   1   2
BRANCH   1   7
ATOM      7  C   UNL     1      -4.932 -19.703 -16.474  1.00  0.00     0.000 C 
BRANCH   7   8
ATOM      8  C   UNL     1      -5.474 -20.668 -15.407  1.00  0.00    -0.000 C 
BRANCH   8   9
ATOM      9  C   UNL     1      -6.052 -19.935 -14.184  1.00  0.00    -0.000 C 
BRANCH   9  10
ATOM     10  C   UNL     1      -7.539 -20.250 -13.957  1.00  0.00    -0.003 C 
ATOM     11  C   UNL     1      -8.336 -20.325 -15.260  1.00  0.00     0.004 C 
ENDBRANCH   9  10
ENDBRANCH   8   9
ENDBRANCH   7   8
ENDBRANCH   1   7
TORSDOF 7
ENDMDL
MODEL 9
REMARK VINA RESULT:    -3.750     12.085     13.618
REMARK INTER + INTRA:          -5.671
REMARK INTER:                  -5.080
REMARK INTRA:                  -0.591
REMARK UNBOUND:                -0.387
REMARK SMILES CCCCCCCCC(=O)[O-]
REMARK SMILES IDX 6 1 7 2 8 3 9 4 10 5 11 6 5 7 4 8 3 9 2 10 1 11
REMARK H PARENT
REMARK Flexibility Score: inf
ROOT
ATOM      1  C   UNL     1       3.544 -22.758  -2.341  1.00  0.00     0.000 C 
ENDROOT
BRANCH   1   2
ATOM      2  C   UNL     1       3.529 -23.634  -3.600  1.00  0.00     0.006 C 
BRANCH   2   3
ATOM      3  C   UNL     1       4.844 -24.404  -3.750  1.00  0.00     0.053 C 
BRANCH   3   4
ATOM      4  C   UNL     1       5.590 -23.934  -4.958  1.00  0.00     0.041 C 
ATOM      5  O   UNL     1       6.846 -24.020  -5.000  1.00  0.00    -0.550 OA
ATOM      6  O   UNL     1       4.904 -23.356  -6.019  1.00  0.00    -0.550 OA
ENDBRANCH   3   4
ENDBRANCH   2   3
ENDBRANCH   1   2
BRANCH   1   7
ATOM      7  C   UNL     1       2.295 -23.009  -1.483  1.00  0.00     0.000 C 
BRANCH   7   8
ATOM      8  C   UNL     1       2.633 -23.312  -0.014  1.00  0.00    -0.000 C 
BRANCH   8   9
ATOM      9  C   UNL     1       4.137 -23.185   0.285  1.00  0.00    -0.000 C 
BRANCH   9  10
ATOM     10  C   UNL     1       4.699 -24.417   1.011  1.00  0.00    -0.003 C 
ATOM     11  C   UNL     1       5.094 -25.541   0.053  1.00  0.00     0.004 C 
ENDBRANCH   9  10
ENDBRANCH   8   9
ENDBRANCH   7   8
ENDBRANCH   1   7
TORSDOF 7
ENDMDL
