MODEL 1
REMARK VINA RESULT:    -3.056      0.000      0.000
REMARK INTER + INTRA:          -6.654
REMARK INTER:                  -5.379
REMARK INTRA:                  -1.275
REMARK UNBOUND:                -1.275
REMARK SMILES CCCCCCCCCCCCCCC(=O)[O-]
REMARK SMILES IDX 9 1 10 2 11 3 12 4 13 5 14 6 15 7 16 8 17 9 8 10 7 11 6 12
REMARK SMILES IDX 5 13 4 14 3 15 2 16 1 17
REMARK H PARENT
REMARK Flexibility Score: inf
ROOT
ATOM      1  C   UNL     1       7.028 -21.849  12.606  1.00  0.00     0.000 C 
ENDROOT
BRANCH   1   2
ATOM      2  C   UNL     1       7.502 -23.124  11.886  1.00  0.00     0.000 C 
BRANCH   2   3
ATOM      3  C   UNL     1       7.802 -22.883  10.397  1.00  0.00     0.000 C 
BRANCH   3   4
ATOM      4  C   UNL     1       9.124 -22.128  10.176  1.00  0.00     0.000 C 
BRANCH   4   5
ATOM      5  C   UNL     1       8.911 -20.623   9.944  1.00  0.00     0.006 C 
BRANCH   5   6
ATOM      6  C   UNL     1       7.638 -20.320   9.145  1.00  0.00     0.053 C 
BRANCH   6   7
ATOM      7  C   UNL     1       6.865 -19.216   9.793  1.00  0.00     0.041 C 
ATOM      8  O   UNL     1       7.046 -18.945  11.010  1.00  0.00    -0.550 OA
ATOM      9  O   UNL     1       5.982 -18.450   9.042  1.00  0.00    -0.550 OA
ENDBRANCH   6   7
ENDBRANCH   5   6
ENDBRANCH   4   5
ENDBRANCH   3   4
ENDBRANCH   2   3
ENDBRANCH   1   2
BRANCH   1  10
ATOM     10  C   UNL     1       8.121 -21.229  13.492  1.00  0.00     0.000 C 
BRANCH  10  11
ATOM     11  C   UNL     1       9.062 -22.281  14.099  1.00  0.00    -0.000 C 
BRANCH  11  12
ATOM     12  C   UNL     1       8.868 -22.380  15.617  1.00  0.00    -0.000 C 
BRANCH  12  13
ATOM     13  C   UNL     1       7.826 -21.364  16.106  1.00  0.00    -0.000 C 
BRANCH  13  14
ATOM     14  C   UNL     1       7.333 -21.662  17.532  1.00  0.00    -0.000 C 
BRANCH  14  15
ATOM     15  C   UNL     1       5.825 -21.966  17.585  1.00  0.00    -0.000 C 
BRANCH  15  16
ATOM     16  C   UNL     1       5.273 -22.440  16.232  1.00  0.00    -0.003 C 
ATOM     17  C   UNL     1       3.759 -22.652  16.253  1.00  0.00     0.004 C 
ENDBRANCH  15  16
ENDBRANCH  14  15
ENDBRANCH  13  14
ENDBRANCH  12  13
ENDBRANCH  11  12
ENDBRANCH  10  11
ENDBRANCH   1  10
TORSDOF 13
ENDMDL
MODEL 2
REMARK VINA RESULT:    -2.842      0.942      2.000
REMARK INTER + INTRA:          -6.277
REMARK INTER:                  -5.294
REMARK INTRA:                  -0.983
REMARK UNBOUND:                -1.275
REMARK SMILES CCCCCCCCCCCCCCC(=O)[O-]
REMARK SMILES IDX 9 1 10 2 11 3 12 4 13 5 14 6 15 7 16 8 17 9 8 10 7 11 6 12
REMARK SMILES IDX 5 13 4 14 3 15 2 16 1 17
REMARK H PARENT
REMARK Flexibility Score: inf
ROOT
ATOM      1  C   UNL     1       8.715 -21.033  13.803  1.00  0.00     0.000 C 
ENDROOT
BRANCH   1   2
ATOM      2  C   UNL     1       7.565 -21.793  13.120  1.00  0.00     0.000 C 
BRANCH   2   3
ATOM      3  C   UNL     1       7.992 -22.437  11.789  1.00  0.00     0.000 C 
BRANCH   3   4
ATOM      4  C   UNL     1       6.827 -22.557  10.792  1.00  0.00     0.000 C 
BRANCH   4   5
ATOM      5  C   UNL     1       7.124 -21.863   9.452  1.00  0.00     0.006 C 
BRANCH   5   6
ATOM      6  C   UNL     1       7.908 -20.556   9.623  1.00  0.00     0.053 C 
BRANCH   6   7
ATOM      7  C   UNL     1       6.986 -19.437   9.987  1.00  0.00     0.041 C 
ATOM      8  O   UNL     1       7.013 -18.945  11.146  1.00  0.00    -0.550 OA
ATOM      9  O   UNL     1       6.133 -18.899   9.032  1.00  0.00    -0.550 OA
ENDBRANCH   6   7
ENDBRANCH   5   6
ENDBRANCH   4   5
ENDBRANCH   3   4
ENDBRANCH   2   3
ENDBRANCH   1   2
BRANCH   1  10
ATOM     10  C   UNL     1       8.380 -20.628  15.248  1.00  0.00     0.000 C 
BRANCH  10  11
ATOM     11  C   UNL     1       8.110 -21.837  16.156  1.00  0.00    -0.000 C 
BRANCH  11  12
ATOM     12  C   UNL     1       7.275 -21.432  17.376  1.00  0.00    -0.000 C 
BRANCH  12  13
ATOM     13  C   UNL     1       6.078 -22.376  17.562  1.00  0.00    -0.000 C 
BRANCH  13  14
ATOM     14  C   UNL     1       4.805 -21.861  16.870  1.00  0.00    -0.000 C 
BRANCH  14  15
ATOM     15  C   UNL     1       4.157 -22.921  15.961  1.00  0.00    -0.000 C 
BRANCH  15  16
ATOM     16  C   UNL     1       2.639 -22.729  15.825  1.00  0.00    -0.003 C 
ATOM     17  C   UNL     1       2.125 -21.516  16.601  1.00  0.00     0.004 C 
ENDBRANCH  15  16
ENDBRANCH  14  15
ENDBRANCH  13  14
ENDBRANCH  12  13
ENDBRANCH  11  12
ENDBRANCH  10  11
ENDBRANCH   1  10
TORSDOF 13
ENDMDL
MODEL 3
REMARK VINA RESULT:    -2.341     14.995     17.409
REMARK INTER + INTRA:          -5.395
REMARK INTER:                  -4.438
REMARK INTRA:                  -0.957
REMARK UNBOUND:                -1.275
REMARK SMILES CCCCCCCCCCCCCCC(=O)[O-]
REMARK SMILES IDX 9 1 10 2 11 3 12 4 13 5 14 6 15 7 16 8 17 9 8 10 7 11 6 12
REMARK SMILES IDX 5 13 4 14 3 15 2 16 1 17
REMARK H PARENT
REMARK Flexibility Score: inf
ROOT
ATOM      1  C   UNL     1      -6.693 -21.972  17.916  1.00  0.00     0.000 C 
ENDROOT
BRANCH   1   2
ATOM      2  C   UNL     1      -6.264 -22.438  16.514  1.00  0.00     0.000 C 
BRANCH   2   3
ATOM      3  C   UNL     1      -7.402 -22.334  15.484  1.00  0.00     0.000 C 
BRANCH   3   4
ATOM      4  C   UNL     1      -8.225 -21.045  15.643  1.00  0.00     0.000 C 
BRANCH   4   5
ATOM      5  C   UNL     1      -8.922 -20.625  14.338  1.00  0.00     0.006 C 
BRANCH   5   6
ATOM      6  C   UNL     1     -10.437 -20.459  14.501  1.00  0.00     0.053 C 
BRANCH   6   7
ATOM      7  C   UNL     1     -10.806 -20.426  15.950  1.00  0.00     0.041 C 
ATOM      8  O   UNL     1     -10.876 -19.327  16.561  1.00  0.00    -0.550 OA
ATOM      9  O   UNL     1     -11.125 -21.603  16.614  1.00  0.00    -0.550 OA
ENDBRANCH   6   7
ENDBRANCH   5   6
ENDBRANCH   4   5
ENDBRANCH   3   4
ENDBRANCH   2   3
ENDBRANCH   1   2
BRANCH   1  10
ATOM     10  C   UNL     1      -7.334 -23.097  18.744  1.00  0.00     0.000 C 
BRANCH  10  11
ATOM     11  C   UNL     1      -8.869 -23.038  18.740  1.00  0.00    -0.000 C 
BRANCH  11  12
ATOM     12  C   UNL     1      -9.372 -21.772  19.444  1.00  0.00    -0.000 C 
BRANCH  12  13
ATOM     13  C   UNL     1     -10.761 -21.999  20.059  1.00  0.00    -0.000 C 
BRANCH  13  14
ATOM     14  C   UNL     1     -11.019 -21.105  21.282  1.00  0.00    -0.000 C 
BRANCH  14  15
ATOM     15  C   UNL     1      -9.726 -20.488  21.846  1.00  0.00    -0.000 C 
BRANCH  15  16
ATOM     16  C   UNL     1      -9.244 -21.196  23.121  1.00  0.00    -0.003 C 
ATOM     17  C   UNL     1      -8.016 -22.075  22.880  1.00  0.00     0.004 C 
ENDBRANCH  15  16
ENDBRANCH  14  15
ENDBRANCH  13  14
ENDBRANCH  12  13
ENDBRANCH  11  12
ENDBRANCH  10  11
ENDBRANCH   1  10
TORSDOF 13
ENDMDL
MODEL 4
REMARK VINA RESULT:    -1.819     12.889     16.537
REMARK INTER + INTRA:          -4.477
REMARK INTER:                  -3.731
REMARK INTRA:                  -0.745
REMARK UNBOUND:                -1.275
REMARK SMILES CCCCCCCCCCCCCCC(=O)[O-]
REMARK SMILES IDX 9 1 10 2 11 3 12 4 13 5 14 6 15 7 16 8 17 9 8 10 7 11 6 12
REMARK SMILES IDX 5 13 4 14 3 15 2 16 1 17
REMARK H PARENT
REMARK Flexibility Score: inf
ROOT
ATOM      1  C   UNL     1      -8.180 -20.791  15.341  1.00  0.00     0.000 C 
ENDROOT
BRANCH   1   2
ATOM      2  C   UNL     1      -9.462 -20.542  14.529  1.00  0.00     0.000 C 
BRANCH   2   3
ATOM      3  C   UNL     1     -10.737 -20.704  15.374  1.00  0.00     0.000 C 
BRANCH   3   4
ATOM      4  C   UNL     1     -10.826 -19.671  16.511  1.00  0.00     0.000 C 
BRANCH   4   5
ATOM      5  C   UNL     1     -11.125 -20.318  17.873  1.00  0.00     0.006 C 
BRANCH   5   6
ATOM      6  C   UNL     1     -10.076 -19.972  18.937  1.00  0.00     0.053 C 
BRANCH   6   7
ATOM      7  C   UNL     1     -10.676 -19.111  20.002  1.00  0.00     0.041 C 
ATOM      8  O   UNL     1     -11.061 -17.943  19.730  1.00  0.00    -0.550 OA
ATOM      9  O   UNL     1     -10.859 -19.614  21.283  1.00  0.00    -0.550 OA
ENDBRANCH   6   7
ENDBRANCH   5   6
ENDBRANCH   4   5
ENDBRANCH   3   4
ENDBRANCH   2   3
ENDBRANCH   1   2
BRANCH   1  10
ATOM     10  C   UNL     1      -8.250 -22.080  16.177  1.00  0.00     0.000 C 
BRANCH  10  11
ATOM     11  C   UNL     1      -7.041 -23.001  15.952  1.00  0.00    -0.000 C 
BRANCH  11  12
ATOM     12  C   UNL     1      -5.989 -22.804  17.050  1.00  0.00    -0.000 C 
BRANCH  12  13
ATOM     13  C   UNL     1      -4.787 -22.006  16.522  1.00  0.00    -0.000 C 
BRANCH  13  14
ATOM     14  C   UNL     1      -3.600 -22.907  16.143  1.00  0.00    -0.000 C 
BRANCH  14  15
ATOM     15  C   UNL     1      -2.252 -22.165  16.203  1.00  0.00    -0.000 C 
BRANCH  15  16
ATOM     16  C   UNL     1      -1.055 -23.125  16.255  1.00  0.00    -0.003 C 
ATOM     17  C   UNL     1       0.280 -22.418  16.016  1.00  0.00     0.004 C 
ENDBRANCH  15  16
ENDBRANCH  14  15
ENDBRANCH  13  14
ENDBRANCH  12  13
ENDBRANCH  11  12
ENDBRANCH  10  11
ENDBRANCH   1  10
TORSDOF 13
ENDMDL
MODEL 5
REMARK VINA RESULT:    -1.714     14.497     17.485
REMARK INTER + INTRA:          -4.292
REMARK INTER:                  -2.950
REMARK INTRA:                  -1.342
REMARK UNBOUND:                -1.275
REMARK SMILES CCCCCCCCCCCCCCC(=O)[O-]
REMARK SMILES IDX 9 1 10 2 11 3 12 4 13 5 14 6 15 7 16 8 17 9 8 10 7 11 6 12
REMARK SMILES IDX 5 13 4 14 3 15 2 16 1 17
REMARK H PARENT
REMARK Flexibility Score: inf
ROOT
ATOM      1  C   UNL     1      -5.372 -22.048  16.378  1.00  0.00     0.000 C 
ENDROOT
BRANCH   1   2
ATOM      2  C   UNL     1      -5.323 -22.989  17.595  1.00  0.00     0.000 C 
BRANCH   2   3
ATOM      3  C   UNL     1      -6.687 -23.125  18.291  1.00  0.00     0.000 C 
BRANCH   3   4
ATOM      4  C   UNL     1      -6.571 -23.108  19.825  1.00  0.00     0.000 C 
BRANCH   4   5
ATOM      5  C   UNL     1      -7.943 -23.083  20.520  1.00  0.00     0.006 C 
BRANCH   5   6
ATOM      6  C   UNL     1      -7.832 -22.970  22.045  1.00  0.00     0.053 C 
BRANCH   6   7
ATOM      7  C   UNL     1      -8.890 -22.057  22.579  1.00  0.00     0.041 C 
ATOM      8  O   UNL     1      -8.569 -21.043  23.254  1.00  0.00    -0.550 OA
ATOM      9  O   UNL     1     -10.227 -22.295  22.288  1.00  0.00    -0.550 OA
ENDBRANCH   6   7
ENDBRANCH   5   6
ENDBRANCH   4   5
ENDBRANCH   3   4
ENDBRANCH   2   3
ENDBRANCH   1   2
BRANCH   1  10
ATOM     10  C   UNL     1      -6.795 -21.873  15.823  1.00  0.00     0.000 C 
BRANCH  10  11
ATOM     11  C   UNL     1      -7.014 -20.500  15.171  1.00  0.00    -0.000 C 
BRANCH  11  12
ATOM     12  C   UNL     1      -8.347 -20.456  14.416  1.00  0.00    -0.000 C 
BRANCH  12  13
ATOM     13  C   UNL     1      -9.470 -21.100  15.244  1.00  0.00    -0.000 C 
BRANCH  13  14
ATOM     14  C   UNL     1     -10.406 -20.060  15.880  1.00  0.00    -0.000 C 
BRANCH  14  15
ATOM     15  C   UNL     1     -11.016 -20.548  17.207  1.00  0.00    -0.000 C 
BRANCH  15  16
ATOM     16  C   UNL     1      -9.957 -21.102  18.172  1.00  0.00    -0.003 C 
ATOM     17  C   UNL     1      -9.735 -20.199  19.386  1.00  0.00     0.004 C 
ENDBRANCH  15  16
ENDBRANCH  14  15
ENDBRANCH  13  14
ENDBRANCH  12  13
ENDBRANCH  11  12
ENDBRANCH  10  11
ENDBRANCH   1  10
TORSDOF 13
ENDMDL
MODEL 6
REMARK VINA RESULT:    -1.703     11.668     15.223
REMARK INTER + INTRA:          -4.272
REMARK INTER:                  -3.631
REMARK INTRA:                  -0.641
REMARK UNBOUND:                -1.275
REMARK SMILES CCCCCCCCCCCCCCC(=O)[O-]
REMARK SMILES IDX 9 1 10 2 11 3 12 4 13 5 14 6 15 7 16 8 17 9 8 10 7 11 6 12
REMARK SMILES IDX 5 13 4 14 3 15 2 16 1 17
REMARK H PARENT
REMARK Flexibility Score: inf
ROOT
ATOM      1  C   UNL     1      -6.684 -21.780  16.048  1.00  0.00     0.000 C 
ENDROOT
BRANCH   1   2
ATOM      2  C   UNL     1      -8.192 -21.881  15.756  1.00  0.00     0.000 C 
BRANCH   2   3
ATOM      3  C   UNL     1      -8.658 -20.861  14.703  1.00  0.00     0.000 C 
BRANCH   3   4
ATOM      4  C   UNL     1      -9.889 -20.061  15.162  1.00  0.00     0.000 C 
BRANCH   4   5
ATOM      5  C   UNL     1     -10.751 -20.833  16.174  1.00  0.00     0.006 C 
BRANCH   5   6
ATOM      6  C   UNL     1     -11.116 -19.994  17.404  1.00  0.00     0.053 C 
BRANCH   6   7
ATOM      7  C   UNL     1     -10.305 -20.418  18.586  1.00  0.00     0.041 C 
ATOM      8  O   UNL     1      -9.951 -19.571  19.449  1.00  0.00    -0.550 OA
ATOM      9  O   UNL     1      -9.982 -21.757  18.765  1.00  0.00    -0.550 OA
ENDBRANCH   6   7
ENDBRANCH   5   6
ENDBRANCH   4   5
ENDBRANCH   3   4
ENDBRANCH   2   3
ENDBRANCH   1   2
BRANCH   1  10
ATOM     10  C   UNL     1      -6.298 -22.419  17.391  1.00  0.00     0.000 C 
BRANCH  10  11
ATOM     11  C   UNL     1      -4.916 -23.090  17.355  1.00  0.00    -0.000 C 
BRANCH  11  12
ATOM     12  C   UNL     1      -4.044 -22.492  16.245  1.00  0.00    -0.000 C 
BRANCH  12  13
ATOM     13  C   UNL     1      -2.644 -23.125  16.244  1.00  0.00    -0.000 C 
BRANCH  13  14
ATOM     14  C   UNL     1      -1.542 -22.121  15.870  1.00  0.00    -0.000 C 
BRANCH  14  15
ATOM     15  C   UNL     1      -0.177 -22.488  16.481  1.00  0.00    -0.000 C 
BRANCH  15  16
ATOM     16  C   UNL     1       0.889 -22.772  15.412  1.00  0.00    -0.003 C 
ATOM     17  C   UNL     1       2.305 -22.450  15.891  1.00  0.00     0.004 C 
ENDBRANCH  15  16
ENDBRANCH  14  15
ENDBRANCH  13  14
ENDBRANCH  12  13
ENDBRANCH  11  12
ENDBRANCH  10  11
ENDBRANCH   1  10
TORSDOF 13
ENDMDL
MODEL 7
REMARK VINA RESULT:    -1.695     14.166     17.571
REMARK INTER + INTRA:          -4.259
REMARK INTER:                  -3.946
REMARK INTRA:                  -0.312
REMARK UNBOUND:                -1.275
REMARK SMILES CCCCCCCCCCCCCCC(=O)[O-]
REMARK SMILES IDX 9 1 10 2 11 3 12 4 13 5 14 6 15 7 16 8 17 9 8 10 7 11 6 12
REMARK SMILES IDX 5 13 4 14 3 15 2 16 1 17
REMARK H PARENT
REMARK Flexibility Score: inf
ROOT
ATOM      1  C   UNL     1     -10.256 -22.319  17.379  1.00  0.00     0.000 C 
ENDROOT
BRANCH   1   2
ATOM      2  C   UNL     1     -10.780 -20.911  17.049  1.00  0.00     0.000 C 
BRANCH   2   3
ATOM      3  C   UNL     1     -10.580 -20.539  15.570  1.00  0.00     0.000 C 
BRANCH   3   4
ATOM      4  C   UNL     1      -9.104 -20.284  15.220  1.00  0.00     0.000 C 
BRANCH   4   5
ATOM      5  C   UNL     1      -8.232 -21.540  15.388  1.00  0.00     0.006 C 
BRANCH   5   6
ATOM      6  C   UNL     1      -6.734 -21.219  15.442  1.00  0.00     0.053 C 
BRANCH   6   7
ATOM      7  C   UNL     1      -6.066 -22.022  16.512  1.00  0.00     0.041 C 
ATOM      8  O   UNL     1      -4.876 -22.409  16.365  1.00  0.00    -0.550 OA
ATOM      9  O   UNL     1      -6.736 -22.299  17.696  1.00  0.00    -0.550 OA
ENDBRANCH   6   7
ENDBRANCH   5   6
ENDBRANCH   4   5
ENDBRANCH   3   4
ENDBRANCH   2   3
ENDBRANCH   1   2
BRANCH   1  10
ATOM     10  C   UNL     1     -10.777 -22.843  18.727  1.00  0.00     0.000 C 
BRANCH  10  11
ATOM     11  C   UNL     1      -9.651 -23.109  19.737  1.00  0.00    -0.000 C 
BRANCH  11  12
ATOM     12  C   UNL     1     -10.190 -23.118  21.172  1.00  0.00    -0.000 C 
BRANCH  12  13
ATOM     13  C   UNL     1      -9.082 -22.773  22.179  1.00  0.00    -0.000 C 
BRANCH  13  14
ATOM     14  C   UNL     1      -9.563 -21.821  23.285  1.00  0.00    -0.000 C 
BRANCH  14  15
ATOM     15  C   UNL     1      -9.665 -20.361  22.805  1.00  0.00    -0.000 C 
BRANCH  15  16
ATOM     16  C   UNL     1     -10.856 -20.134  21.862  1.00  0.00    -0.003 C 
ATOM     17  C   UNL     1     -10.438 -19.558  20.510  1.00  0.00     0.004 C 
ENDBRANCH  15  16
ENDBRANCH  14  15
ENDBRANCH  13  14
ENDBRANCH  12  13
ENDBRANCH  11  12
ENDBRANCH  10  11
ENDBRANCH   1  10
TORSDOF 13
ENDMDL
MODEL 8
REMARK VINA RESULT:    -1.428      6.277      9.316
REMARK INTER + INTRA:          -3.788
REMARK INTER:                  -3.151
REMARK INTRA:                  -0.636
REMARK UNBOUND:                -1.275
REMARK SMILES CCCCCCCCCCCCCCC(=O)[O-]
REMARK SMILES IDX 9 1 10 2 11 3 12 4 13 5 14 6 15 7 16 8 17 9 8 10 7 11 6 12
REMARK SMILES IDX 5 13 4 14 3 15 2 16 1 17
REMARK H PARENT
REMARK Flexibility Score: inf
ROOT
ATOM      1  C   UNL     1       2.237 -22.354  16.065  1.00  0.00     0.000 C 
ENDROOT
BRANCH   1   2
ATOM      2  C   UNL     1       0.952 -23.065  15.607  1.00  0.00     0.000 C 
BRANCH   2   3
ATOM      3  C   UNL     1      -0.312 -22.474  16.255  1.00  0.00     0.000 C 
BRANCH   3   4
ATOM      4  C   UNL     1      -1.606 -23.059  15.664  1.00  0.00     0.000 C 
BRANCH   4   5
ATOM      5  C   UNL     1      -2.853 -22.253  16.063  1.00  0.00     0.006 C 
BRANCH   5   6
ATOM      6  C   UNL     1      -3.946 -23.125  16.694  1.00  0.00     0.053 C 
BRANCH   6   7
ATOM      7  C   UNL     1      -5.248 -22.390  16.723  1.00  0.00     0.041 C 
ATOM      8  O   UNL     1      -5.577 -21.643  15.764  1.00  0.00    -0.550 OA
ATOM      9  O   UNL     1      -6.125 -22.570  17.785  1.00  0.00    -0.550 OA
ENDBRANCH   6   7
ENDBRANCH   5   6
ENDBRANCH   4   5
ENDBRANCH   3   4
ENDBRANCH   2   3
ENDBRANCH   1   2
BRANCH   1  10
ATOM     10  C   UNL     1       3.491 -22.875  15.343  1.00  0.00     0.000 C 
BRANCH  10  11
ATOM     11  C   UNL     1       4.707 -22.994  16.275  1.00  0.00    -0.000 C 
BRANCH  11  12
ATOM     12  C   UNL     1       4.945 -21.686  17.037  1.00  0.00    -0.000 C 
BRANCH  12  13
ATOM     13  C   UNL     1       6.429 -21.523  17.400  1.00  0.00    -0.000 C 
BRANCH  13  14
ATOM     14  C   UNL     1       7.261 -22.771  17.063  1.00  0.00    -0.000 C 
BRANCH  14  15
ATOM     15  C   UNL     1       8.444 -22.458  16.128  1.00  0.00    -0.000 C 
BRANCH  15  16
ATOM     16  C   UNL     1       8.318 -21.081  15.461  1.00  0.00    -0.003 C 
ATOM     17  C   UNL     1       8.480 -21.143  13.942  1.00  0.00     0.004 C 
ENDBRANCH  15  16
ENDBRANCH  14  15
ENDBRANCH  13  14
ENDBRANCH  12  13
ENDBRANCH  11  12
ENDBRANCH  10  11
ENDBRANCH   1  10
TORSDOF 13
ENDMDL
