MODEL 1
REMARK VINA RESULT:    -4.570      0.000      0.000
REMARK INTER + INTRA:          -6.526
REMARK INTER:                  -5.639
REMARK INTRA:                  -0.886
REMARK UNBOUND:                -0.886
REMARK SMILES CC(C)=CCC[C@H](C)c1ccc(C)cc1
REMARK SMILES IDX 6 1 7 2 8 3 9 4 13 5 12 6 11 7 14 8 10 9 15 10 5 11 4 12
REMARK SMILES IDX 2 13 1 14 3 15
REMARK H PARENT
REMARK Flexibility Score: inf
ROOT
ATOM      1  C   UNL     1     -44.883  27.633  -1.364  1.00  0.00     0.012 C 
ENDROOT
BRANCH   1   2
ATOM      2  C   UNL     1     -44.517  28.943  -2.097  1.00  0.00     0.016 C 
ATOM      3  C   UNL     1     -45.655  29.974  -2.052  1.00  0.00     0.013 C 
BRANCH   2   4
ATOM      4  C   UNL     1     -44.123  28.652  -3.535  1.00  0.00    -0.045 A 
ATOM      5  C   UNL     1     -42.944  27.833  -7.609  1.00  0.00     0.044 C 
ATOM      6  C   UNL     1     -43.379  28.130  -6.204  1.00  0.00    -0.051 A 
ATOM      7  C   UNL     1     -44.103  27.177  -5.472  1.00  0.00     0.004 A 
ATOM      8  C   UNL     1     -43.007  29.333  -5.588  1.00  0.00     0.004 A 
ATOM      9  C   UNL     1     -44.477  27.437  -4.151  1.00  0.00     0.004 A 
ATOM     10  C   UNL     1     -43.381  29.595  -4.266  1.00  0.00     0.004 A 
ENDBRANCH   2   4
ENDBRANCH   1   2
BRANCH   1  11
ATOM     11  C   UNL     1     -43.749  27.124  -0.460  1.00  0.00     0.028 C 
BRANCH  11  12
ATOM     12  C   UNL     1     -42.805  28.246  -0.107  1.00  0.00    -0.028 C 
ATOM     13  C   UNL     1     -42.862  28.959   1.040  1.00  0.00    -0.080 C 
ATOM     14  C   UNL     1     -41.876  30.082   1.238  1.00  0.00     0.039 C 
ATOM     15  C   UNL     1     -43.868  28.652   2.125  1.00  0.00     0.039 C 
ENDBRANCH  11  12
ENDBRANCH   1  11
TORSDOF 4
ENDMDL
MODEL 2
REMARK VINA RESULT:    -4.550      1.174      1.342
REMARK INTER + INTRA:          -6.501
REMARK INTER:                  -5.686
REMARK INTRA:                  -0.814
REMARK UNBOUND:                -0.886
REMARK SMILES CC(C)=CCC[C@H](C)c1ccc(C)cc1
REMARK SMILES IDX 6 1 7 2 8 3 9 4 13 5 12 6 11 7 14 8 10 9 15 10 5 11 4 12
REMARK SMILES IDX 2 13 1 14 3 15
REMARK H PARENT
REMARK Flexibility Score: inf
ROOT
ATOM      1  C   UNL     1     -44.978  27.596  -1.886  1.00  0.00     0.012 C 
ENDROOT
BRANCH   1   2
ATOM      2  C   UNL     1     -44.477  28.713  -2.828  1.00  0.00     0.016 C 
ATOM      3  C   UNL     1     -45.235  30.034  -2.622  1.00  0.00     0.013 C 
BRANCH   2   4
ATOM      4  C   UNL     1     -44.574  28.266  -4.276  1.00  0.00    -0.045 A 
ATOM      5  C   UNL     1     -44.823  26.944  -8.381  1.00  0.00     0.044 C 
ATOM      6  C   UNL     1     -44.733  27.432  -6.965  1.00  0.00    -0.051 A 
ATOM      7  C   UNL     1     -45.896  27.786  -6.264  1.00  0.00     0.004 A 
ATOM      8  C   UNL     1     -43.495  27.473  -6.308  1.00  0.00     0.004 A 
ATOM      9  C   UNL     1     -45.817  28.205  -4.933  1.00  0.00     0.004 A 
ATOM     10  C   UNL     1     -43.415  27.892  -4.977  1.00  0.00     0.004 A 
ENDBRANCH   2   4
ENDBRANCH   1   2
BRANCH   1  11
ATOM     11  C   UNL     1     -43.836  26.914  -1.116  1.00  0.00     0.028 C 
BRANCH  11  12
ATOM     12  C   UNL     1     -42.899  27.942  -0.532  1.00  0.00    -0.028 C 
ATOM     13  C   UNL     1     -43.059  28.521   0.679  1.00  0.00    -0.080 C 
ATOM     14  C   UNL     1     -42.063  29.564   1.113  1.00  0.00     0.039 C 
ATOM     15  C   UNL     1     -44.190  28.139   1.605  1.00  0.00     0.039 C 
ENDBRANCH  11  12
ENDBRANCH   1  11
TORSDOF 4
ENDMDL
MODEL 3
REMARK VINA RESULT:    -4.477      2.089      6.447
REMARK INTER + INTRA:          -6.410
REMARK INTER:                  -5.546
REMARK INTRA:                  -0.864
REMARK UNBOUND:                -0.886
REMARK SMILES CC(C)=CCC[C@H](C)c1ccc(C)cc1
REMARK SMILES IDX 6 1 7 2 8 3 9 4 13 5 12 6 11 7 14 8 10 9 15 10 5 11 4 12
REMARK SMILES IDX 2 13 1 14 3 15
REMARK H PARENT
REMARK Flexibility Score: inf
ROOT
ATOM      1  C   UNL     1     -43.304  27.720  -6.858  1.00  0.00     0.012 C 
ENDROOT
BRANCH   1   2
ATOM      2  C   UNL     1     -43.657  28.979  -6.036  1.00  0.00     0.016 C 
ATOM      3  C   UNL     1     -42.656  30.123  -6.261  1.00  0.00     0.013 C 
BRANCH   2   4
ATOM      4  C   UNL     1     -43.748  28.637  -4.559  1.00  0.00    -0.045 A 
ATOM      5  C   UNL     1     -43.987  27.610  -0.370  1.00  0.00     0.044 C 
ATOM      6  C   UNL     1     -43.928  27.985  -1.821  1.00  0.00    -0.051 A 
ATOM      7  C   UNL     1     -43.131  29.060  -2.242  1.00  0.00     0.004 A 
ATOM      8  C   UNL     1     -44.614  27.222  -2.777  1.00  0.00     0.004 A 
ATOM      9  C   UNL     1     -43.045  29.387  -3.597  1.00  0.00     0.004 A 
ATOM     10  C   UNL     1     -44.529  27.549  -4.134  1.00  0.00     0.004 A 
ENDBRANCH   2   4
ENDBRANCH   1   2
BRANCH   1  11
ATOM     11  C   UNL     1     -44.466  27.249  -7.748  1.00  0.00     0.028 C 
BRANCH  11  12
ATOM     12  C   UNL     1     -45.208  28.429  -8.324  1.00  0.00    -0.028 C 
ATOM     13  C   UNL     1     -46.416  28.855  -7.892  1.00  0.00    -0.080 C 
ATOM     14  C   UNL     1     -47.057  30.025  -8.593  1.00  0.00     0.039 C 
ATOM     15  C   UNL     1     -47.125  28.206  -6.727  1.00  0.00     0.039 C 
ENDBRANCH  11  12
ENDBRANCH   1  11
TORSDOF 4
ENDMDL
MODEL 4
REMARK VINA RESULT:    -4.417      1.508      6.485
REMARK INTER + INTRA:          -6.337
REMARK INTER:                  -5.622
REMARK INTRA:                  -0.715
REMARK UNBOUND:                -0.886
REMARK SMILES CC(C)=CCC[C@H](C)c1ccc(C)cc1
REMARK SMILES IDX 6 1 7 2 8 3 9 4 13 5 12 6 11 7 14 8 10 9 15 10 5 11 4 12
REMARK SMILES IDX 2 13 1 14 3 15
REMARK H PARENT
REMARK Flexibility Score: inf
ROOT
ATOM      1  C   UNL     1     -44.494  27.048  -4.343  1.00  0.00     0.012 C 
ENDROOT
BRANCH   1   2
ATOM      2  C   UNL     1     -44.393  28.351  -3.519  1.00  0.00     0.016 C 
ATOM      3  C   UNL     1     -43.044  29.061  -3.713  1.00  0.00     0.013 C 
BRANCH   2   4
ATOM      4  C   UNL     1     -44.635  28.066  -2.047  1.00  0.00    -0.045 A 
ATOM      5  C   UNL     1     -45.348  27.203   2.125  1.00  0.00     0.044 C 
ATOM      6  C   UNL     1     -45.105  27.533   0.682  1.00  0.00    -0.051 A 
ATOM      7  C   UNL     1     -43.800  27.765   0.220  1.00  0.00     0.004 A 
ATOM      8  C   UNL     1     -46.169  27.542  -0.231  1.00  0.00     0.004 A 
ATOM      9  C   UNL     1     -43.567  28.035  -1.131  1.00  0.00     0.004 A 
ATOM     10  C   UNL     1     -45.937  27.812  -1.584  1.00  0.00     0.004 A 
ENDBRANCH   2   4
ENDBRANCH   1   2
BRANCH   1  11
ATOM     11  C   UNL     1     -43.683  27.108  -5.648  1.00  0.00     0.028 C 
BRANCH  11  12
ATOM     12  C   UNL     1     -44.536  27.617  -6.782  1.00  0.00    -0.028 C 
ATOM     13  C   UNL     1     -44.219  28.676  -7.560  1.00  0.00    -0.080 C 
ATOM     14  C   UNL     1     -45.191  29.096  -8.632  1.00  0.00     0.039 C 
ATOM     15  C   UNL     1     -42.921  29.431  -7.394  1.00  0.00     0.039 C 
ENDBRANCH  11  12
ENDBRANCH   1  11
TORSDOF 4
ENDMDL
MODEL 5
REMARK VINA RESULT:    -4.323      1.445      6.354
REMARK INTER + INTRA:          -6.220
REMARK INTER:                  -5.435
REMARK INTRA:                  -0.785
REMARK UNBOUND:                -0.886
REMARK SMILES CC(C)=CCC[C@H](C)c1ccc(C)cc1
REMARK SMILES IDX 6 1 7 2 8 3 9 4 13 5 12 6 11 7 14 8 10 9 15 10 5 11 4 12
REMARK SMILES IDX 2 13 1 14 3 15
REMARK H PARENT
REMARK Flexibility Score: inf
ROOT
ATOM      1  C   UNL     1     -44.131  29.016  -4.354  1.00  0.00     0.012 C 
ENDROOT
BRANCH   1   2
ATOM      2  C   UNL     1     -45.055  27.898  -3.821  1.00  0.00     0.016 C 
ATOM      3  C   UNL     1     -46.521  28.108  -4.230  1.00  0.00     0.013 C 
BRANCH   2   4
ATOM      4  C   UNL     1     -44.937  27.790  -2.311  1.00  0.00    -0.045 A 
ATOM      5  C   UNL     1     -44.574  27.536   1.986  1.00  0.00     0.044 C 
ATOM      6  C   UNL     1     -44.696  27.594   0.492  1.00  0.00    -0.051 A 
ATOM      7  C   UNL     1     -45.957  27.507  -0.118  1.00  0.00     0.004 A 
ATOM      8  C   UNL     1     -43.560  27.805  -0.303  1.00  0.00     0.004 A 
ATOM      9  C   UNL     1     -46.076  27.599  -1.507  1.00  0.00     0.004 A 
ATOM     10  C   UNL     1     -43.679  27.896  -1.693  1.00  0.00     0.004 A 
ENDBRANCH   2   4
ENDBRANCH   1   2
BRANCH   1  11
ATOM     11  C   UNL     1     -43.068  28.489  -5.331  1.00  0.00     0.028 C 
BRANCH  11  12
ATOM     12  C   UNL     1     -43.676  27.509  -6.303  1.00  0.00    -0.028 C 
ATOM     13  C   UNL     1     -44.271  27.856  -7.466  1.00  0.00    -0.080 C 
ATOM     14  C   UNL     1     -44.872  26.769  -8.317  1.00  0.00     0.039 C 
ATOM     15  C   UNL     1     -44.333  29.291  -7.936  1.00  0.00     0.039 C 
ENDBRANCH  11  12
ENDBRANCH   1  11
TORSDOF 4
ENDMDL
MODEL 6
REMARK VINA RESULT:    -4.310      1.192      6.250
REMARK INTER + INTRA:          -6.204
REMARK INTER:                  -5.639
REMARK INTRA:                  -0.565
REMARK UNBOUND:                -0.886
REMARK SMILES CC(C)=CCC[C@H](C)c1ccc(C)cc1
REMARK SMILES IDX 6 1 7 2 8 3 9 4 13 5 12 6 11 7 14 8 10 9 15 10 5 11 4 12
REMARK SMILES IDX 2 13 1 14 3 15
REMARK H PARENT
REMARK Flexibility Score: inf
ROOT
ATOM      1  C   UNL     1     -44.560  27.122  -3.534  1.00  0.00     0.012 C 
ENDROOT
BRANCH   1   2
ATOM      2  C   UNL     1     -45.441  27.777  -2.446  1.00  0.00     0.016 C 
ATOM      3  C   UNL     1     -46.378  28.850  -3.022  1.00  0.00     0.013 C 
BRANCH   2   4
ATOM      4  C   UNL     1     -44.573  28.365  -1.347  1.00  0.00    -0.045 A 
ATOM      5  C   UNL     1     -42.153  30.037   1.816  1.00  0.00     0.044 C 
ATOM      6  C   UNL     1     -42.977  29.472   0.697  1.00  0.00    -0.051 A 
ATOM      7  C   UNL     1     -42.624  28.249   0.107  1.00  0.00     0.004 A 
ATOM      8  C   UNL     1     -44.145  30.125   0.279  1.00  0.00     0.004 A 
ATOM      9  C   UNL     1     -43.411  27.702  -0.910  1.00  0.00     0.004 A 
ATOM     10  C   UNL     1     -44.934  29.579  -0.739  1.00  0.00     0.004 A 
ENDBRANCH   2   4
ENDBRANCH   1   2
BRANCH   1  11
ATOM     11  C   UNL     1     -44.240  28.080  -4.693  1.00  0.00     0.028 C 
BRANCH  11  12
ATOM     12  C   UNL     1     -44.805  27.556  -5.989  1.00  0.00    -0.028 C 
ATOM     13  C   UNL     1     -44.113  27.481  -7.148  1.00  0.00    -0.080 C 
ATOM     14  C   UNL     1     -44.822  26.973  -8.376  1.00  0.00     0.039 C 
ATOM     15  C   UNL     1     -42.656  27.873  -7.238  1.00  0.00     0.039 C 
ENDBRANCH  11  12
ENDBRANCH   1  11
TORSDOF 4
ENDMDL
MODEL 7
REMARK VINA RESULT:    -4.205      1.550      2.457
REMARK INTER + INTRA:          -6.074
REMARK INTER:                  -5.250
REMARK INTRA:                  -0.824
REMARK UNBOUND:                -0.886
REMARK SMILES CC(C)=CCC[C@H](C)c1ccc(C)cc1
REMARK SMILES IDX 6 1 7 2 8 3 9 4 13 5 12 6 11 7 14 8 10 9 15 10 5 11 4 12
REMARK SMILES IDX 2 13 1 14 3 15
REMARK H PARENT
REMARK Flexibility Score: inf
ROOT
ATOM      1  C   UNL     1     -43.484  28.775  -2.781  1.00  0.00     0.012 C 
ENDROOT
BRANCH   1   2
ATOM      2  C   UNL     1     -44.404  29.493  -3.794  1.00  0.00     0.016 C 
ATOM      3  C   UNL     1     -45.803  29.767  -3.220  1.00  0.00     0.013 C 
BRANCH   2   4
ATOM      4  C   UNL     1     -44.506  28.688  -5.078  1.00  0.00    -0.045 A 
ATOM      5  C   UNL     1     -44.828  26.443  -8.754  1.00  0.00     0.044 C 
ATOM      6  C   UNL     1     -44.717  27.196  -7.462  1.00  0.00    -0.051 A 
ATOM      7  C   UNL     1     -43.456  27.519  -6.937  1.00  0.00     0.004 A 
ATOM      8  C   UNL     1     -45.870  27.645  -6.803  1.00  0.00     0.004 A 
ATOM      9  C   UNL     1     -43.350  28.253  -5.753  1.00  0.00     0.004 A 
ATOM     10  C   UNL     1     -45.766  28.380  -5.617  1.00  0.00     0.004 A 
ENDBRANCH   2   4
ENDBRANCH   1   2
BRANCH   1  11
ATOM     11  C   UNL     1     -44.136  27.524  -2.172  1.00  0.00     0.028 C 
BRANCH  11  12
ATOM     12  C   UNL     1     -43.928  27.487  -0.678  1.00  0.00    -0.028 C 
ATOM     13  C   UNL     1     -44.922  27.579   0.233  1.00  0.00    -0.080 C 
ATOM     14  C   UNL     1     -44.557  27.570   1.695  1.00  0.00     0.039 C 
ATOM     15  C   UNL     1     -46.374  27.673  -0.172  1.00  0.00     0.039 C 
ENDBRANCH  11  12
ENDBRANCH   1  11
TORSDOF 4
ENDMDL
MODEL 8
REMARK VINA RESULT:    -4.140      1.196      5.962
REMARK INTER + INTRA:          -5.994
REMARK INTER:                  -5.297
REMARK INTRA:                  -0.697
REMARK UNBOUND:                -0.886
REMARK SMILES CC(C)=CCC[C@H](C)c1ccc(C)cc1
REMARK SMILES IDX 6 1 7 2 8 3 9 4 13 5 12 6 11 7 14 8 10 9 15 10 5 11 4 12
REMARK SMILES IDX 2 13 1 14 3 15
REMARK H PARENT
REMARK Flexibility Score: inf
ROOT
ATOM      1  C   UNL     1     -44.533  27.266  -4.132  1.00  0.00     0.012 C 
ENDROOT
BRANCH   1   2
ATOM      2  C   UNL     1     -45.338  27.485  -2.831  1.00  0.00     0.016 C 
ATOM      3  C   UNL     1     -46.597  28.335  -3.060  1.00  0.00     0.013 C 
BRANCH   2   4
ATOM      4  C   UNL     1     -44.459  28.116  -1.766  1.00  0.00    -0.045 A 
ATOM      5  C   UNL     1     -41.914  29.874   1.250  1.00  0.00     0.044 C 
ATOM      6  C   UNL     1     -42.822  29.268   0.220  1.00  0.00    -0.051 A 
ATOM      7  C   UNL     1     -43.367  30.065  -0.798  1.00  0.00     0.004 A 
ATOM      8  C   UNL     1     -43.078  27.890   0.226  1.00  0.00     0.004 A 
ATOM      9  C   UNL     1     -44.183  29.496  -1.779  1.00  0.00     0.004 A 
ATOM     10  C   UNL     1     -43.894  27.319  -0.756  1.00  0.00     0.004 A 
ENDBRANCH   2   4
ENDBRANCH   1   2
BRANCH   1  11
ATOM     11  C   UNL     1     -45.139  28.007  -5.335  1.00  0.00     0.028 C 
BRANCH  11  12
ATOM     12  C   UNL     1     -44.190  29.064  -5.843  1.00  0.00    -0.028 C 
ATOM     13  C   UNL     1     -43.309  28.876  -6.852  1.00  0.00    -0.080 C 
ATOM     14  C   UNL     1     -42.393  30.013  -7.225  1.00  0.00     0.039 C 
ATOM     15  C   UNL     1     -43.234  27.577  -7.618  1.00  0.00     0.039 C 
ENDBRANCH  11  12
ENDBRANCH   1  11
TORSDOF 4
ENDMDL
MODEL 9
REMARK VINA RESULT:    -3.437      1.708      6.292
REMARK INTER + INTRA:          -5.127
REMARK INTER:                  -4.471
REMARK INTRA:                  -0.656
REMARK UNBOUND:                -0.886
REMARK SMILES CC(C)=CCC[C@H](C)c1ccc(C)cc1
REMARK SMILES IDX 6 1 7 2 8 3 9 4 13 5 12 6 11 7 14 8 10 9 15 10 5 11 4 12
REMARK SMILES IDX 2 13 1 14 3 15
REMARK H PARENT
REMARK Flexibility Score: inf
ROOT
ATOM      1  C   UNL     1     -44.030  28.404  -4.328  1.00  0.00     0.012 C 
ENDROOT
BRANCH   1   2
ATOM      2  C   UNL     1     -44.638  27.567  -3.181  1.00  0.00     0.016 C 
ATOM      3  C   UNL     1     -46.174  27.628  -3.164  1.00  0.00     0.013 C 
BRANCH   2   4
ATOM      4  C   UNL     1     -44.075  28.014  -1.844  1.00  0.00    -0.045 A 
ATOM      5  C   UNL     1     -42.510  29.334   1.960  1.00  0.00     0.044 C 
ATOM      6  C   UNL     1     -43.026  28.864   0.632  1.00  0.00    -0.051 A 
ATOM      7  C   UNL     1     -43.627  27.602   0.514  1.00  0.00     0.004 A 
ATOM      8  C   UNL     1     -42.975  29.709  -0.486  1.00  0.00     0.004 A 
ATOM      9  C   UNL     1     -44.142  27.177  -0.713  1.00  0.00     0.004 A 
ATOM     10  C   UNL     1     -43.490  29.285  -1.715  1.00  0.00     0.004 A 
ENDBRANCH   2   4
ENDBRANCH   1   2
BRANCH   1  11
ATOM     11  C   UNL     1     -44.999  29.474  -4.857  1.00  0.00     0.028 C 
BRANCH  11  12
ATOM     12  C   UNL     1     -44.864  29.622  -6.352  1.00  0.00    -0.028 C 
ATOM     13  C   UNL     1     -45.568  28.904  -7.256  1.00  0.00    -0.080 C 
ATOM     14  C   UNL     1     -45.297  29.132  -8.721  1.00  0.00     0.039 C 
ATOM     15  C   UNL     1     -46.620  27.903  -6.840  1.00  0.00     0.039 C 
ENDBRANCH  11  12
ENDBRANCH   1  11
TORSDOF 4
ENDMDL
