MODEL 1
REMARK VINA RESULT:    -4.349      0.000      0.000
REMARK INTER + INTRA:          -5.781
REMARK INTER:                  -6.128
REMARK INTRA:                   0.347
REMARK UNBOUND:                 0.347
REMARK SMILES CC1=CCC(=C(C)C)C(=O)CC(C)=CCC1
REMARK SMILES IDX 12 1 14 2 13 3 15 4 16 5 2 6 1 7 3 8 11 10 9 11 10 12 5 13
REMARK SMILES IDX 6 14 7 15 8 16 4 17
REMARK H PARENT
REMARK Flexibility Score: 60.00
ROOT
ATOM      1  C   UNL     1      -6.745  -4.184   2.373  1.00  0.00    -0.070 C 
ATOM      2  C   UNL     1      -6.332  -2.925   2.106  1.00  0.00    -0.027 C 
ATOM      3  C   UNL     1      -7.762  -4.804   1.448  1.00  0.00     0.039 C 
ENDROOT
BRANCH   2   4
ATOM      4  C   UNL     1      -5.254  -2.171   2.854  1.00  0.00     0.032 C 
BRANCH   4   5
ATOM      5  C   UNL     1      -3.872  -2.165   2.168  1.00  0.00     0.034 C 
BRANCH   5   6
ATOM      6  C   UNL     1      -2.782  -2.800   3.015  1.00  0.00    -0.077 C 
ATOM      7  C   UNL     1      -2.015  -1.905   3.955  1.00  0.00     0.039 C 
ATOM      8  C   UNL     1      -2.503  -4.126   3.030  1.00  0.00    -0.023 CG0
ATOM      9  G   UNL     1      -3.127  -5.203   2.165  1.00  0.00     0.000 G0
ENDBRANCH   5   6
ENDBRANCH   4   5
ENDBRANCH   2   4
BRANCH   1  10
ATOM     10  C   UNL     1      -6.170  -5.027   3.493  1.00  0.00     0.111 C 
BRANCH  10  11
ATOM     11  C   UNL     1      -5.381  -6.194   2.961  1.00  0.00     0.163 C 
ATOM     12  O   UNL     1      -6.011  -7.132   2.400  1.00  0.00    -0.294 OA
BRANCH  11  13
ATOM     13  C   UNL     1      -3.890  -6.248   3.021  1.00  0.00    -0.002 C 
ATOM     14  C   UNL     1      -3.253  -7.230   3.725  1.00  0.00    -0.069 C 
ATOM     15  C   UNL     1      -1.751  -7.406   3.677  1.00  0.00     0.039 C 
ATOM     16  C   UNL     1      -4.026  -8.197   4.596  1.00  0.00     0.039 C 
BRANCH  13  17
ATOM     17  C   UNL     1      -3.124  -5.230   2.191  1.00  0.00     0.066 CG0
ATOM     18  G   UNL     1      -2.507  -4.139   3.043  1.00  0.00     0.000 G0
ENDBRANCH  13  17
ENDBRANCH  11  13
ENDBRANCH  10  11
ENDBRANCH   1  10
TORSDOF 0
ENDMDL
MODEL 2
REMARK VINA RESULT:    -4.031     17.187     19.253
REMARK INTER + INTRA:          -5.333
REMARK INTER:                  -5.590
REMARK INTRA:                   0.256
REMARK UNBOUND:                 0.347
REMARK SMILES CC1=CCC(=C(C)C)C(=O)CC(C)=CCC1
REMARK SMILES IDX 12 1 14 2 13 3 15 4 16 5 2 6 1 7 3 8 11 10 9 11 10 12 5 13
REMARK SMILES IDX 6 14 7 15 8 16 4 17
REMARK H PARENT
REMARK Flexibility Score: 60.00
ROOT
ATOM      1  C   UNL     1      -1.828   6.387  19.807  1.00  0.00    -0.070 C 
ATOM      2  C   UNL     1      -0.781   7.241  19.836  1.00  0.00    -0.027 C 
ATOM      3  C   UNL     1      -3.025   6.708  20.666  1.00  0.00     0.039 C 
ENDROOT
BRANCH   2   4
ATOM      4  C   UNL     1       0.462   7.145  18.979  1.00  0.00     0.032 C 
BRANCH   4   5
ATOM      5  C   UNL     1       1.609   6.315  19.593  1.00  0.00     0.034 C 
BRANCH   5   6
ATOM      6  C   UNL     1       2.186   5.290  18.632  1.00  0.00    -0.077 C 
ATOM      7  C   UNL     1       3.144   5.781  17.575  1.00  0.00     0.039 C 
ATOM      8  C   UNL     1       1.952   3.957  18.707  1.00  0.00    -0.023 CG0
ATOM      9  G   UNL     1       1.020   3.244  19.666  1.00  0.00     0.000 G0
ENDBRANCH   5   6
ENDBRANCH   4   5
ENDBRANCH   2   4
BRANCH   1  10
ATOM     10  C   UNL     1      -1.892   5.182  18.891  1.00  0.00     0.111 C 
BRANCH  10  11
ATOM     11  C   UNL     1      -1.471   3.922  19.599  1.00  0.00     0.163 C 
ATOM     12  O   UNL     1      -2.101   3.585  20.639  1.00  0.00    -0.294 OA
BRANCH  11  13
ATOM     13  C   UNL     1      -0.386   3.037  19.082  1.00  0.00    -0.002 C 
ATOM     14  C   UNL     1      -0.626   2.154  18.066  1.00  0.00    -0.069 C 
ATOM     15  C   UNL     1       0.484   1.360  17.415  1.00  0.00     0.039 C 
ATOM     16  C   UNL     1      -2.027   1.929  17.540  1.00  0.00     0.039 C 
BRANCH  13  17
ATOM     17  C   UNL     1       1.006   3.230  19.664  1.00  0.00     0.066 CG0
ATOM     18  G   UNL     1       1.931   3.964  18.713  1.00  0.00     0.000 G0
ENDBRANCH  13  17
ENDBRANCH  11  13
ENDBRANCH  10  11
ENDBRANCH   1  10
TORSDOF 0
ENDMDL
MODEL 3
REMARK VINA RESULT:    -3.874      1.625      3.978
REMARK INTER + INTRA:          -5.112
REMARK INTER:                  -5.433
REMARK INTRA:                   0.322
REMARK UNBOUND:                 0.347
REMARK SMILES CC1=CCC(=C(C)C)C(=O)CC(C)=CCC1
REMARK SMILES IDX 12 1 14 2 13 3 15 4 16 5 2 6 1 7 3 8 11 10 9 11 10 12 5 13
REMARK SMILES IDX 6 14 7 15 8 16 4 17
REMARK H PARENT
REMARK Flexibility Score: 60.00
ROOT
ATOM      1  C   UNL     1      -5.722  -5.612   3.151  1.00  0.00    -0.070 C 
ATOM      2  C   UNL     1      -5.177  -6.835   3.331  1.00  0.00    -0.027 C 
ATOM      3  C   UNL     1      -7.157  -5.539   2.693  1.00  0.00     0.039 C 
ENDROOT
BRANCH   2   4
ATOM      4  C   UNL     1      -3.793  -7.115   3.875  1.00  0.00     0.032 C 
BRANCH   4   5
ATOM      5  C   UNL     1      -2.649  -6.937   2.856  1.00  0.00     0.034 C 
BRANCH   5   6
ATOM      6  C   UNL     1      -1.605  -5.927   3.300  1.00  0.00    -0.077 C 
ATOM      7  C   UNL     1      -0.697  -6.312   4.442  1.00  0.00     0.039 C 
ATOM      8  C   UNL     1      -1.390  -4.734   2.694  1.00  0.00    -0.023 CG0
ATOM      9  G   UNL     1      -2.183  -4.133   1.550  1.00  0.00     0.000 G0
ENDBRANCH   5   6
ENDBRANCH   4   5
ENDBRANCH   2   4
BRANCH   1  10
ATOM     10  C   UNL     1      -4.995  -4.322   3.474  1.00  0.00     0.111 C 
BRANCH  10  11
ATOM     11  C   UNL     1      -4.600  -3.579   2.225  1.00  0.00     0.163 C 
ATOM     12  O   UNL     1      -5.501  -3.314   1.382  1.00  0.00    -0.294 OA
BRANCH  11  13
ATOM     13  C   UNL     1      -3.208  -3.098   1.984  1.00  0.00    -0.002 C 
ATOM     14  C   UNL     1      -2.859  -1.804   2.251  1.00  0.00    -0.069 C 
ATOM     15  C   UNL     1      -1.425  -1.328   2.169  1.00  0.00     0.039 C 
ATOM     16  C   UNL     1      -3.898  -0.777   2.644  1.00  0.00     0.039 C 
BRANCH  13  17
ATOM     17  C   UNL     1      -2.186  -4.128   1.529  1.00  0.00     0.066 CG0
ATOM     18  G   UNL     1      -1.411  -4.723   2.688  1.00  0.00     0.000 G0
ENDBRANCH  13  17
ENDBRANCH  11  13
ENDBRANCH  10  11
ENDBRANCH   1  10
TORSDOF 0
ENDMDL
MODEL 4
REMARK VINA RESULT:    -3.751      1.557      3.921
REMARK INTER + INTRA:          -4.939
REMARK INTER:                  -5.042
REMARK INTRA:                   0.103
REMARK UNBOUND:                 0.347
REMARK SMILES CC1=CCC(=C(C)C)C(=O)CC(C)=CCC1
REMARK SMILES IDX 12 1 14 2 13 3 15 4 16 5 2 6 1 7 3 8 11 10 9 11 10 12 5 13
REMARK SMILES IDX 6 14 7 15 8 16 4 17
REMARK H PARENT
REMARK Flexibility Score: 60.00
ROOT
ATOM      1  C   UNL     1      -2.171  -6.131   3.194  1.00  0.00    -0.070 C 
ATOM      2  C   UNL     1      -1.517  -4.956   3.325  1.00  0.00    -0.027 C 
ATOM      3  C   UNL     1      -1.694  -7.300   4.018  1.00  0.00     0.039 C 
ENDROOT
BRANCH   2   4
ATOM      4  C   UNL     1      -1.902  -3.652   2.661  1.00  0.00     0.032 C 
BRANCH   4   5
ATOM      5  C   UNL     1      -2.849  -2.758   3.489  1.00  0.00     0.034 C 
BRANCH   5   6
ATOM      6  C   UNL     1      -4.075  -2.308   2.714  1.00  0.00    -0.077 C 
ATOM      7  C   UNL     1      -3.914  -1.159   1.751  1.00  0.00     0.039 C 
ATOM      8  C   UNL     1      -5.285  -2.915   2.780  1.00  0.00    -0.023 CG0
ATOM      9  G   UNL     1      -5.683  -4.067   3.682  1.00  0.00     0.000 G0
ENDBRANCH   5   6
ENDBRANCH   4   5
ENDBRANCH   2   4
BRANCH   1  10
ATOM     10  C   UNL     1      -3.408  -6.304   2.335  1.00  0.00     0.111 C 
BRANCH  10  11
ATOM     11  C   UNL     1      -4.660  -6.358   3.168  1.00  0.00     0.163 C 
ATOM     12  O   UNL     1      -4.717  -7.205   4.101  1.00  0.00    -0.294 OA
BRANCH  11  13
ATOM     13  C   UNL     1      -5.797  -5.411   2.968  1.00  0.00    -0.002 C 
ATOM     14  C   UNL     1      -6.892  -5.778   2.237  1.00  0.00    -0.069 C 
ATOM     15  C   UNL     1      -8.125  -4.906   2.147  1.00  0.00     0.039 C 
ATOM     16  C   UNL     1      -6.924  -7.084   1.474  1.00  0.00     0.039 C 
BRANCH  13  17
ATOM     17  C   UNL     1      -5.725  -4.075   3.690  1.00  0.00     0.066 CG0
ATOM     18  G   UNL     1      -5.293  -2.948   2.773  1.00  0.00     0.000 G0
ENDBRANCH  13  17
ENDBRANCH  11  13
ENDBRANCH  10  11
ENDBRANCH   1  10
TORSDOF 0
ENDMDL
MODEL 5
REMARK VINA RESULT:    -3.499      3.220      5.634
REMARK INTER + INTRA:          -4.584
REMARK INTER:                  -4.784
REMARK INTRA:                   0.200
REMARK UNBOUND:                 0.347
REMARK SMILES CC1=CCC(=C(C)C)C(=O)CC(C)=CCC1
REMARK SMILES IDX 12 1 14 2 13 3 15 4 16 5 2 6 1 7 3 8 11 10 9 11 10 12 5 13
REMARK SMILES IDX 6 14 7 15 8 16 4 17
REMARK H PARENT
REMARK Flexibility Score: 60.00
ROOT
ATOM      1  C   UNL     1      -1.025  -5.797   3.917  1.00  0.00    -0.070 C 
ATOM      2  C   UNL     1      -0.236  -5.843   5.013  1.00  0.00    -0.027 C 
ATOM      3  C   UNL     1      -2.041  -6.896   3.731  1.00  0.00     0.039 C 
ENDROOT
BRANCH   2   4
ATOM      4  C   UNL     1       0.770  -4.789   5.423  1.00  0.00     0.032 C 
BRANCH   4   5
ATOM      5  C   UNL     1       0.255  -3.772   6.462  1.00  0.00     0.034 C 
BRANCH   5   6
ATOM      6  C   UNL     1       0.490  -2.328   6.053  1.00  0.00    -0.077 C 
ATOM      7  C   UNL     1       1.838  -1.724   6.356  1.00  0.00     0.039 C 
ATOM      8  C   UNL     1      -0.407  -1.572   5.372  1.00  0.00    -0.023 CG0
ATOM      9  G   UNL     1      -1.818  -1.960   4.978  1.00  0.00     0.000 G0
ENDBRANCH   5   6
ENDBRANCH   4   5
ENDBRANCH   2   4
BRANCH   1  10
ATOM     10  C   UNL     1      -1.000  -4.654   2.922  1.00  0.00     0.111 C 
BRANCH  10  11
ATOM     11  C   UNL     1      -2.154  -3.709   3.132  1.00  0.00     0.163 C 
ATOM     12  O   UNL     1      -3.324  -4.171   3.042  1.00  0.00    -0.294 OA
BRANCH  11  13
ATOM     13  C   UNL     1      -1.959  -2.275   3.499  1.00  0.00    -0.002 C 
ATOM     14  C   UNL     1      -1.997  -1.297   2.545  1.00  0.00    -0.069 C 
ATOM     15  C   UNL     1      -1.962   0.172   2.901  1.00  0.00     0.039 C 
ATOM     16  C   UNL     1      -2.078  -1.641   1.073  1.00  0.00     0.039 C 
BRANCH  13  17
ATOM     17  C   UNL     1      -1.815  -1.949   4.977  1.00  0.00     0.066 CG0
ATOM     18  G   UNL     1      -0.397  -1.564   5.347  1.00  0.00     0.000 G0
ENDBRANCH  13  17
ENDBRANCH  11  13
ENDBRANCH  10  11
ENDBRANCH   1  10
TORSDOF 0
ENDMDL
MODEL 6
REMARK VINA RESULT:    -3.405      5.781      7.651
REMARK INTER + INTRA:          -4.451
REMARK INTER:                  -4.682
REMARK INTRA:                   0.230
REMARK UNBOUND:                 0.347
REMARK SMILES CC1=CCC(=C(C)C)C(=O)CC(C)=CCC1
REMARK SMILES IDX 12 1 14 2 13 3 15 4 16 5 2 6 1 7 3 8 11 10 9 11 10 12 5 13
REMARK SMILES IDX 6 14 7 15 8 16 4 17
REMARK H PARENT
REMARK Flexibility Score: 60.00
ROOT
ATOM      1  C   UNL     1      -4.037   4.098   5.953  1.00  0.00    -0.070 C 
ATOM      2  C   UNL     1      -3.427   4.233   4.755  1.00  0.00    -0.027 C 
ATOM      3  C   UNL     1      -4.118   5.311   6.845  1.00  0.00     0.039 C 
ENDROOT
BRANCH   2   4
ATOM      4  C   UNL     1      -3.331   3.165   3.687  1.00  0.00     0.032 C 
BRANCH   4   5
ATOM      5  C   UNL     1      -2.275   2.073   3.956  1.00  0.00     0.034 C 
BRANCH   5   6
ATOM      6  C   UNL     1      -2.800   0.666   3.731  1.00  0.00    -0.077 C 
ATOM      7  C   UNL     1      -3.181   0.276   2.325  1.00  0.00     0.039 C 
ATOM      8  C   UNL     1      -2.882  -0.282   4.697  1.00  0.00    -0.023 CG0
ATOM      9  G   UNL     1      -2.573  -0.115   6.172  1.00  0.00     0.000 G0
ENDBRANCH   5   6
ENDBRANCH   4   5
ENDBRANCH   2   4
BRANCH   1  10
ATOM     10  C   UNL     1      -4.719   2.820   6.400  1.00  0.00     0.111 C 
BRANCH  10  11
ATOM     11  C   UNL     1      -3.778   1.926   7.164  1.00  0.00     0.163 C 
ATOM     12  O   UNL     1      -3.028   2.454   8.029  1.00  0.00    -0.294 OA
BRANCH  11  13
ATOM     13  C   UNL     1      -3.749   0.446   6.975  1.00  0.00    -0.002 C 
ATOM     14  C   UNL     1      -4.779  -0.337   7.418  1.00  0.00    -0.069 C 
ATOM     15  C   UNL     1      -4.855  -1.814   7.104  1.00  0.00     0.039 C 
ATOM     16  C   UNL     1      -5.901   0.244   8.251  1.00  0.00     0.039 C 
BRANCH  13  17
ATOM     17  C   UNL     1      -2.582  -0.133   6.190  1.00  0.00     0.066 CG0
ATOM     18  G   UNL     1      -2.893  -0.269   4.713  1.00  0.00     0.000 G0
ENDBRANCH  13  17
ENDBRANCH  11  13
ENDBRANCH  10  11
ENDBRANCH   1  10
TORSDOF 0
ENDMDL
MODEL 7
REMARK VINA RESULT:    -3.404      5.630      7.992
REMARK INTER + INTRA:          -4.451
REMARK INTER:                  -4.550
REMARK INTRA:                   0.099
REMARK UNBOUND:                 0.347
REMARK SMILES CC1=CCC(=C(C)C)C(=O)CC(C)=CCC1
REMARK SMILES IDX 12 1 14 2 13 3 15 4 16 5 2 6 1 7 3 8 11 10 9 11 10 12 5 13
REMARK SMILES IDX 6 14 7 15 8 16 4 17
REMARK H PARENT
REMARK Flexibility Score: 60.00
ROOT
ATOM      1  C   UNL     1      -2.875   4.613   3.495  1.00  0.00    -0.070 C 
ATOM      2  C   UNL     1      -3.344   5.068   4.679  1.00  0.00    -0.027 C 
ATOM      3  C   UNL     1      -1.862   5.457   2.766  1.00  0.00     0.039 C 
ENDROOT
BRANCH   2   4
ATOM      4  C   UNL     1      -4.286   4.325   5.601  1.00  0.00     0.032 C 
BRANCH   4   5
ATOM      5  C   UNL     1      -3.598   3.360   6.588  1.00  0.00     0.034 C 
BRANCH   5   6
ATOM      6  C   UNL     1      -4.217   1.973   6.599  1.00  0.00    -0.077 C 
ATOM      7  C   UNL     1      -5.564   1.812   7.258  1.00  0.00     0.039 C 
ATOM      8  C   UNL     1      -3.672   0.889   5.994  1.00  0.00    -0.023 CG0
ATOM      9  G   UNL     1      -2.331   0.810   5.292  1.00  0.00     0.000 G0
ENDBRANCH   5   6
ENDBRANCH   4   5
ENDBRANCH   2   4
BRANCH   1  10
ATOM     10  C   UNL     1      -3.247   3.262   2.918  1.00  0.00     0.111 C 
BRANCH  10  11
ATOM     11  C   UNL     1      -2.165   2.241   3.150  1.00  0.00     0.163 C 
ATOM     12  O   UNL     1      -0.978   2.557   2.859  1.00  0.00    -0.294 OA
BRANCH  11  13
ATOM     13  C   UNL     1      -2.438   0.908   3.762  1.00  0.00    -0.002 C 
ATOM     14  C   UNL     1      -2.698  -0.182   2.979  1.00  0.00    -0.069 C 
ATOM     15  C   UNL     1      -2.822  -1.574   3.558  1.00  0.00     0.039 C 
ATOM     16  C   UNL     1      -2.875  -0.047   1.482  1.00  0.00     0.039 C 
BRANCH  13  17
ATOM     17  C   UNL     1      -2.319   0.799   5.274  1.00  0.00     0.066 CG0
ATOM     18  G   UNL     1      -3.665   0.880   5.966  1.00  0.00     0.000 G0
ENDBRANCH  13  17
ENDBRANCH  11  13
ENDBRANCH  10  11
ENDBRANCH   1  10
TORSDOF 0
ENDMDL
MODEL 8
REMARK VINA RESULT:    -3.250      5.314      8.231
REMARK INTER + INTRA:          -4.233
REMARK INTER:                  -4.370
REMARK INTRA:                   0.137
REMARK UNBOUND:                 0.347
REMARK SMILES CC1=CCC(=C(C)C)C(=O)CC(C)=CCC1
REMARK SMILES IDX 12 1 14 2 13 3 15 4 16 5 2 6 1 7 3 8 11 10 9 11 10 12 5 13
REMARK SMILES IDX 6 14 7 15 8 16 4 17
REMARK H PARENT
REMARK Flexibility Score: 60.00
ROOT
ATOM      1  C   UNL     1       2.214  -1.025   6.779  1.00  0.00    -0.070 C 
ATOM      2  C   UNL     1       2.427  -0.130   7.770  1.00  0.00    -0.027 C 
ATOM      3  C   UNL     1       3.252  -2.096   6.559  1.00  0.00     0.039 C 
ENDROOT
BRANCH   2   4
ATOM      4  C   UNL     1       1.464   0.952   8.206  1.00  0.00     0.032 C 
BRANCH   4   5
ATOM      5  C   UNL     1       0.485   0.536   9.324  1.00  0.00     0.034 C 
BRANCH   5   6
ATOM      6  C   UNL     1      -0.949   0.953   9.048  1.00  0.00    -0.077 C 
ATOM      7  C   UNL     1      -1.313   2.400   9.266  1.00  0.00     0.039 C 
ATOM      8  C   UNL     1      -1.903   0.126   8.553  1.00  0.00    -0.023 CG0
ATOM      9  G   UNL     1      -1.773  -1.359   8.275  1.00  0.00     0.000 G0
ENDBRANCH   5   6
ENDBRANCH   4   5
ENDBRANCH   2   4
BRANCH   1  10
ATOM     10  C   UNL     1       0.948  -1.057   5.946  1.00  0.00     0.111 C 
BRANCH  10  11
ATOM     11  C   UNL     1      -0.050  -2.046   6.489  1.00  0.00     0.163 C 
ATOM     12  O   UNL     1       0.346  -3.221   6.722  1.00  0.00    -0.294 OA
BRANCH  11  13
ATOM     13  C   UNL     1      -1.457  -1.669   6.814  1.00  0.00    -0.002 C 
ATOM     14  C   UNL     1      -2.426  -1.688   5.851  1.00  0.00    -0.069 C 
ATOM     15  C   UNL     1      -3.886  -1.466   6.179  1.00  0.00     0.039 C 
ATOM     16  C   UNL     1      -2.083  -1.933   4.398  1.00  0.00     0.039 C 
BRANCH  13  17
ATOM     17  C   UNL     1      -1.776  -1.363   8.269  1.00  0.00     0.066 CG0
ATOM     18  G   UNL     1      -1.906   0.125   8.530  1.00  0.00     0.000 G0
ENDBRANCH  13  17
ENDBRANCH  11  13
ENDBRANCH  10  11
ENDBRANCH   1  10
TORSDOF 0
ENDMDL
MODEL 9
REMARK VINA RESULT:    -3.249      4.704      6.505
REMARK INTER + INTRA:          -4.231
REMARK INTER:                  -4.666
REMARK INTRA:                   0.434
REMARK UNBOUND:                 0.347
REMARK SMILES CC1=CCC(=C(C)C)C(=O)CC(C)=CCC1
REMARK SMILES IDX 12 1 14 2 13 3 15 4 16 5 2 6 1 7 3 8 11 10 9 11 10 12 5 13
REMARK SMILES IDX 6 14 7 15 8 16 4 17
REMARK H PARENT
REMARK Flexibility Score: 60.00
ROOT
ATOM      1  C   UNL     1       1.029   0.222   5.972  1.00  0.00    -0.070 C 
ATOM      2  C   UNL     1       0.386   0.707   4.886  1.00  0.00    -0.027 C 
ATOM      3  C   UNL     1       1.059   1.077   7.214  1.00  0.00     0.039 C 
ENDROOT
BRANCH   2   4
ATOM      4  C   UNL     1       0.165  -0.035   3.586  1.00  0.00     0.032 C 
BRANCH   4   5
ATOM      5  C   UNL     1      -1.315  -0.254   3.209  1.00  0.00     0.034 C 
BRANCH   5   6
ATOM      6  C   UNL     1      -2.122  -0.917   4.312  1.00  0.00    -0.077 C 
ATOM      7  C   UNL     1      -3.347  -0.196   4.814  1.00  0.00     0.039 C 
ATOM      8  C   UNL     1      -1.852  -2.143   4.823  1.00  0.00    -0.023 CG0
ATOM      9  G   UNL     1      -0.674  -3.036   4.486  1.00  0.00     0.000 G0
ENDBRANCH   5   6
ENDBRANCH   4   5
ENDBRANCH   2   4
BRANCH   1  10
ATOM     10  C   UNL     1       1.636  -1.165   6.029  1.00  0.00     0.111 C 
BRANCH  10  11
ATOM     11  C   UNL     1       0.640  -2.189   6.505  1.00  0.00     0.163 C 
ATOM     12  O   UNL     1       0.114  -2.023   7.640  1.00  0.00    -0.294 OA
BRANCH  11  13
ATOM     13  C   UNL     1       0.214  -3.345   5.663  1.00  0.00    -0.002 C 
ATOM     14  C   UNL     1       0.550  -4.624   6.009  1.00  0.00    -0.069 C 
ATOM     15  C   UNL     1       0.004  -5.824   5.268  1.00  0.00     0.039 C 
ATOM     16  C   UNL     1       1.494  -4.902   7.158  1.00  0.00     0.039 C 
BRANCH  13  17
ATOM     17  C   UNL     1      -0.684  -3.045   4.473  1.00  0.00     0.066 CG0
ATOM     18  G   UNL     1      -1.838  -2.132   4.837  1.00  0.00     0.000 G0
ENDBRANCH  13  17
ENDBRANCH  11  13
ENDBRANCH  10  11
ENDBRANCH   1  10
TORSDOF 0
ENDMDL
