MODEL 1
REMARK VINA RESULT:    -6.922      0.000      0.000
REMARK INTER + INTRA:         -12.190
REMARK INTER:                 -10.361
REMARK INTRA:                  -1.829
REMARK UNBOUND:                -1.829
REMARK SMILES C=C(CC[C@@H](C(=O)[O-])[C@H]1[C@@H](O)C[C@]2(C)C3=C(CC[C@@]12C)[C@]1(C)CC[C@H](OC(C)=O)C(C)(C)[C@H]1CC3)C(C)C
REMARK SMILES IDX 4 1 5 2 6 3 7 4 8 5 9 6 10 7 19 8 12 9 13 10 18 11 20 12
REMARK SMILES IDX 14 13 15 14 17 15 16 16 35 17 21 18 34 19 33 20 23 21 22 22
REMARK SMILES IDX 30 23 24 24 25 25 31 26 32 27 11 28 26 30 27 31 29 32 28 33
REMARK SMILES IDX 3 34 2 35 1 36 36 37 37 38 38 39
REMARK H PARENT 11 29
REMARK Flexibility Score: inf
ROOT
ATOM      1  C   UNL     1     -28.969 -13.119   0.848  1.00  0.00     0.014 C 
ENDROOT
BRANCH   1   2
ATOM      2  C   UNL     1     -27.803 -12.560  -0.018  1.00  0.00     0.042 C 
BRANCH   2   3
ATOM      3  C   UNL     1     -26.692 -12.052   0.872  1.00  0.00     0.045 C 
ATOM      4  O   UNL     1     -25.971 -11.083   0.516  1.00  0.00    -0.550 OA
ATOM      5  O   UNL     1     -26.481 -12.636   2.116  1.00  0.00    -0.550 OA
ENDBRANCH   2   3
BRANCH   2   6
ATOM      6  C   UNL     1     -27.200 -13.474  -1.152  1.00  0.00     0.033 C 
ATOM      7  C   UNL     1     -26.570 -14.851  -0.774  1.00  0.00     0.119 C 
ATOM      8  C   UNL     1     -28.046 -13.752  -2.449  1.00  0.00    -0.017 C 
ATOM      9  C   UNL     1     -27.082 -15.872  -1.817  1.00  0.00     0.043 C 
ATOM     10  C   UNL     1     -28.387 -15.271  -2.372  1.00  0.00    -0.003 C 
ATOM     11  C   UNL     1     -29.345 -12.956  -2.693  1.00  0.00     0.012 C 
ATOM     12  C   UNL     1     -27.105 -13.422  -3.671  1.00  0.00     0.013 C 
ATOM     13  C   UNL     1     -29.527 -15.673  -1.383  1.00  0.00     0.017 C 
ATOM     14  C   UNL     1     -28.858 -15.732  -3.747  1.00  0.00    -0.064 C 
ATOM     15  C   UNL     1     -30.230 -13.589  -3.811  1.00  0.00     0.032 C 
ATOM     16  C   UNL     1     -29.790 -14.958  -4.402  1.00  0.00    -0.064 C 
ATOM     17  C   UNL     1     -28.463 -17.120  -4.223  1.00  0.00     0.032 C 
ATOM     18  C   UNL     1     -30.334 -15.356  -5.799  1.00  0.00    -0.008 C 
ATOM     19  C   UNL     1     -28.793 -17.397  -5.684  1.00  0.00     0.009 C 
ATOM     20  C   UNL     1     -30.213 -16.907  -6.013  1.00  0.00     0.009 C 
ATOM     21  C   UNL     1     -31.848 -14.956  -5.916  1.00  0.00     0.015 C 
ATOM     22  C   UNL     1     -29.496 -14.545  -6.828  1.00  0.00     0.016 C 
ATOM     23  C   UNL     1     -30.799 -17.471  -7.382  1.00  0.00     0.005 C 
ATOM     24  C   UNL     1     -32.725 -15.895  -6.769  1.00  0.00     0.047 C 
ATOM     25  C   UNL     1     -31.959 -16.552  -7.918  1.00  0.00     0.182 C 
ATOM     26  C   UNL     1     -31.349 -18.901  -7.120  1.00  0.00     0.015 C 
ATOM     27  C   UNL     1     -29.710 -17.606  -8.480  1.00  0.00     0.015 C 
BRANCH   7  28
ATOM     28  O   UNL     1     -26.911 -15.261   0.523  1.00  0.00    -0.393 OA
ATOM     29  H   UNL     1     -27.898 -15.175   0.601  1.00  0.00     0.210 HD
ENDBRANCH   7  28
BRANCH  25  30
ATOM     30  O   UNL     1     -32.901 -17.290  -8.706  1.00  0.00    -0.462 OA
BRANCH  30  31
ATOM     31  C   UNL     1     -32.978 -17.238 -10.103  1.00  0.00     0.302 C 
ATOM     32  O   UNL     1     -32.484 -16.274 -10.747  1.00  0.00    -0.253 OA
ATOM     33  C   UNL     1     -33.709 -18.314 -10.831  1.00  0.00     0.139 C 
ENDBRANCH  30  31
ENDBRANCH  25  30
ENDBRANCH   2   6
ENDBRANCH   1   2
BRANCH   1  34
ATOM     34  C   UNL     1     -29.880 -12.018   1.426  1.00  0.00     0.031 C 
BRANCH  34  35
ATOM     35  C   UNL     1     -30.922 -11.521   0.437  1.00  0.00    -0.075 C 
ATOM     36  C   UNL     1     -31.877 -12.367   0.008  1.00  0.00     0.008 C 
BRANCH  35  37
ATOM     37  C   UNL     1     -30.938 -10.050   0.035  1.00  0.00     0.008 C 
ATOM     38  C   UNL     1     -29.934  -9.787  -1.095  1.00  0.00     0.012 C 
ATOM     39  C   UNL     1     -30.677  -9.115   1.225  1.00  0.00     0.012 C 
ENDBRANCH  35  37
ENDBRANCH  34  35
ENDBRANCH   1  34
TORSDOF 9
ENDMDL
MODEL 2
REMARK VINA RESULT:    -6.799      2.289      4.099
REMARK INTER + INTRA:         -12.006
REMARK INTER:                 -10.367
REMARK INTRA:                  -1.639
REMARK UNBOUND:                -1.829
REMARK SMILES C=C(CC[C@@H](C(=O)[O-])[C@H]1[C@@H](O)C[C@]2(C)C3=C(CC[C@@]12C)[C@]1(C)CC[C@H](OC(C)=O)C(C)(C)[C@H]1CC3)C(C)C
REMARK SMILES IDX 4 1 5 2 6 3 7 4 8 5 9 6 10 7 19 8 12 9 13 10 18 11 20 12
REMARK SMILES IDX 14 13 15 14 17 15 16 16 35 17 21 18 34 19 33 20 23 21 22 22
REMARK SMILES IDX 30 23 24 24 25 25 31 26 32 27 11 28 26 30 27 31 29 32 28 33
REMARK SMILES IDX 3 34 2 35 1 36 36 37 37 38 38 39
REMARK H PARENT 11 29
REMARK Flexibility Score: inf
ROOT
ATOM      1  C   UNL     1     -25.942 -12.973   1.523  1.00  0.00     0.014 C 
ENDROOT
BRANCH   1   2
ATOM      2  C   UNL     1     -27.448 -12.660   1.290  1.00  0.00     0.042 C 
BRANCH   2   3
ATOM      3  C   UNL     1     -27.905 -11.570   2.233  1.00  0.00     0.045 C 
ATOM      4  O   UNL     1     -28.784 -10.738   1.882  1.00  0.00    -0.550 OA
ATOM      5  O   UNL     1     -27.376 -11.501   3.517  1.00  0.00    -0.550 OA
ENDBRANCH   2   3
BRANCH   2   6
ATOM      6  C   UNL     1     -27.934 -12.335  -0.174  1.00  0.00     0.033 C 
ATOM      7  C   UNL     1     -27.000 -11.530  -1.131  1.00  0.00     0.119 C 
ATOM      8  C   UNL     1     -28.536 -13.486  -1.060  1.00  0.00    -0.017 C 
ATOM      9  C   UNL     1     -27.058 -12.239  -2.505  1.00  0.00     0.043 C 
ATOM     10  C   UNL     1     -27.490 -13.686  -2.199  1.00  0.00    -0.003 C 
ATOM     11  C   UNL     1     -28.847 -14.855  -0.418  1.00  0.00     0.012 C 
ATOM     12  C   UNL     1     -29.911 -12.948  -1.613  1.00  0.00     0.013 C 
ATOM     13  C   UNL     1     -26.197 -14.475  -1.819  1.00  0.00     0.017 C 
ATOM     14  C   UNL     1     -28.143 -14.488  -3.320  1.00  0.00    -0.064 C 
ATOM     15  C   UNL     1     -29.092 -15.969  -1.481  1.00  0.00     0.032 C 
ATOM     16  C   UNL     1     -28.852 -15.617  -2.976  1.00  0.00    -0.064 C 
ATOM     17  C   UNL     1     -27.792 -14.146  -4.758  1.00  0.00     0.032 C 
ATOM     18  C   UNL     1     -29.540 -16.499  -4.051  1.00  0.00    -0.008 C 
ATOM     19  C   UNL     1     -28.655 -14.849  -5.797  1.00  0.00     0.009 C 
ATOM     20  C   UNL     1     -28.820 -16.336  -5.437  1.00  0.00     0.009 C 
ATOM     21  C   UNL     1     -29.464 -18.010  -3.629  1.00  0.00     0.015 C 
ATOM     22  C   UNL     1     -31.025 -16.040  -4.092  1.00  0.00     0.016 C 
ATOM     23  C   UNL     1     -29.376 -17.239  -6.624  1.00  0.00     0.005 C 
ATOM     24  C   UNL     1     -29.329 -19.022  -4.784  1.00  0.00     0.047 C 
ATOM     25  C   UNL     1     -30.021 -18.563  -6.069  1.00  0.00     0.182 C 
ATOM     26  C   UNL     1     -28.187 -17.594  -7.560  1.00  0.00     0.015 C 
ATOM     27  C   UNL     1     -30.423 -16.492  -7.495  1.00  0.00     0.015 C 
BRANCH   7  28
ATOM     28  O   UNL     1     -25.679 -11.467  -0.667  1.00  0.00    -0.393 OA
ATOM     29  H   UNL     1     -25.412 -12.395  -0.434  1.00  0.00     0.210 HD
ENDBRANCH   7  28
BRANCH  25  30
ATOM     30  O   UNL     1     -29.938 -19.633  -7.017  1.00  0.00    -0.462 OA
BRANCH  30  31
ATOM     31  C   UNL     1     -31.002 -20.071  -7.815  1.00  0.00     0.302 C 
ATOM     32  O   UNL     1     -30.817 -20.424  -9.010  1.00  0.00    -0.253 OA
ATOM     33  C   UNL     1     -32.383 -20.059  -7.254  1.00  0.00     0.139 C 
ENDBRANCH  30  31
ENDBRANCH  25  30
ENDBRANCH   2   6
ENDBRANCH   1   2
BRANCH   1  34
ATOM     34  C   UNL     1     -25.637 -14.482   1.592  1.00  0.00     0.031 C 
BRANCH  34  35
ATOM     35  C   UNL     1     -25.949 -15.096   2.946  1.00  0.00    -0.075 C 
ATOM     36  C   UNL     1     -25.436 -14.535   4.057  1.00  0.00     0.008 C 
BRANCH  35  37
ATOM     37  C   UNL     1     -26.926 -16.264   3.037  1.00  0.00     0.008 C 
ATOM     38  C   UNL     1     -26.728 -17.228   1.861  1.00  0.00     0.012 C 
ATOM     39  C   UNL     1     -28.388 -15.799   3.121  1.00  0.00     0.012 C 
ENDBRANCH  35  37
ENDBRANCH  34  35
ENDBRANCH   1  34
TORSDOF 9
ENDMDL
MODEL 3
REMARK VINA RESULT:    -6.627      2.420      9.270
REMARK INTER + INTRA:         -11.749
REMARK INTER:                  -9.815
REMARK INTRA:                  -1.934
REMARK UNBOUND:                -1.829
REMARK SMILES C=C(CC[C@@H](C(=O)[O-])[C@H]1[C@@H](O)C[C@]2(C)C3=C(CC[C@@]12C)[C@]1(C)CC[C@H](OC(C)=O)C(C)(C)[C@H]1CC3)C(C)C
REMARK SMILES IDX 4 1 5 2 6 3 7 4 8 5 9 6 10 7 19 8 12 9 13 10 18 11 20 12
REMARK SMILES IDX 14 13 15 14 17 15 16 16 35 17 21 18 34 19 33 20 23 21 22 22
REMARK SMILES IDX 30 23 24 24 25 25 31 26 32 27 11 28 26 30 27 31 29 32 28 33
REMARK SMILES IDX 3 34 2 35 1 36 36 37 37 38 38 39
REMARK H PARENT 11 29
REMARK Flexibility Score: inf
ROOT
ATOM      1  C   UNL     1     -31.703 -19.834  -7.750  1.00  0.00     0.014 C 
ENDROOT
BRANCH   1   2
ATOM      2  C   UNL     1     -32.751 -19.536  -6.640  1.00  0.00     0.042 C 
BRANCH   2   3
ATOM      3  C   UNL     1     -33.931 -20.473  -6.773  1.00  0.00     0.045 C 
ATOM      4  O   UNL     1     -33.776 -21.721  -6.706  1.00  0.00    -0.550 OA
ATOM      5  O   UNL     1     -35.210 -19.953  -6.937  1.00  0.00    -0.550 OA
ENDBRANCH   2   3
BRANCH   2   6
ATOM      6  C   UNL     1     -32.271 -19.496  -5.139  1.00  0.00     0.033 C 
ATOM      7  C   UNL     1     -31.431 -20.683  -4.571  1.00  0.00     0.119 C 
ATOM      8  C   UNL     1     -31.573 -18.199  -4.587  1.00  0.00    -0.017 C 
ATOM      9  C   UNL     1     -30.278 -20.057  -3.752  1.00  0.00     0.043 C 
ATOM     10  C   UNL     1     -30.100 -18.635  -4.319  1.00  0.00    -0.003 C 
ATOM     11  C   UNL     1     -31.569 -16.916  -5.445  1.00  0.00     0.012 C 
ATOM     12  C   UNL     1     -32.327 -17.822  -3.255  1.00  0.00     0.013 C 
ATOM     13  C   UNL     1     -29.177 -18.759  -5.571  1.00  0.00     0.017 C 
ATOM     14  C   UNL     1     -29.441 -17.588  -3.426  1.00  0.00    -0.064 C 
ATOM     15  C   UNL     1     -30.550 -15.855  -4.925  1.00  0.00     0.032 C 
ATOM     16  C   UNL     1     -29.604 -16.262  -3.760  1.00  0.00    -0.064 C 
ATOM     17  C   UNL     1     -28.457 -18.053  -2.366  1.00  0.00     0.032 C 
ATOM     18  C   UNL     1     -28.960 -15.131  -2.916  1.00  0.00    -0.008 C 
ATOM     19  C   UNL     1     -28.026 -16.964  -1.392  1.00  0.00     0.009 C 
ATOM     20  C   UNL     1     -27.697 -15.667  -2.152  1.00  0.00     0.009 C 
ATOM     21  C   UNL     1     -28.508 -13.956  -3.856  1.00  0.00     0.015 C 
ATOM     22  C   UNL     1     -30.074 -14.633  -1.953  1.00  0.00     0.016 C 
ATOM     23  C   UNL     1     -26.890 -14.595  -1.297  1.00  0.00     0.005 C 
ATOM     24  C   UNL     1     -27.237 -13.201  -3.419  1.00  0.00     0.047 C 
ATOM     25  C   UNL     1     -27.060 -13.151  -1.901  1.00  0.00     0.182 C 
ATOM     26  C   UNL     1     -25.387 -14.992  -1.317  1.00  0.00     0.015 C 
ATOM     27  C   UNL     1     -27.327 -14.576   0.193  1.00  0.00     0.015 C 
BRANCH   7  28
ATOM     28  O   UNL     1     -30.923 -21.514  -5.579  1.00  0.00    -0.393 OA
ATOM     29  H   UNL     1     -29.939 -21.555  -5.448  1.00  0.00     0.210 HD
ENDBRANCH   7  28
BRANCH  25  30
ATOM     30  O   UNL     1     -25.927 -12.320  -1.619  1.00  0.00    -0.462 OA
BRANCH  30  31
ATOM     31  C   UNL     1     -25.783 -11.541  -0.465  1.00  0.00     0.302 C 
ATOM     32  O   UNL     1     -24.651 -11.352   0.055  1.00  0.00    -0.253 OA
ATOM     33  C   UNL     1     -26.998 -10.977   0.188  1.00  0.00     0.139 C 
ENDBRANCH  30  31
ENDBRANCH  25  30
ENDBRANCH   2   6
ENDBRANCH   1   2
BRANCH   1  34
ATOM     34  C   UNL     1     -31.811 -18.885  -8.960  1.00  0.00     0.031 C 
BRANCH  34  35
ATOM     35  C   UNL     1     -30.650 -17.911  -9.064  1.00  0.00    -0.075 C 
ATOM     36  C   UNL     1     -29.391 -18.387  -9.076  1.00  0.00     0.008 C 
BRANCH  35  37
ATOM     37  C   UNL     1     -30.927 -16.425  -9.266  1.00  0.00     0.008 C 
ATOM     38  C   UNL     1     -29.898 -15.574  -8.511  1.00  0.00     0.012 C 
ATOM     39  C   UNL     1     -32.357 -16.036  -8.862  1.00  0.00     0.012 C 
ENDBRANCH  35  37
ENDBRANCH  34  35
ENDBRANCH   1  34
TORSDOF 9
ENDMDL
MODEL 4
REMARK VINA RESULT:    -6.602      5.005     10.397
REMARK INTER + INTRA:         -11.712
REMARK INTER:                  -9.890
REMARK INTRA:                  -1.822
REMARK UNBOUND:                -1.829
REMARK SMILES C=C(CC[C@@H](C(=O)[O-])[C@H]1[C@@H](O)C[C@]2(C)C3=C(CC[C@@]12C)[C@]1(C)CC[C@H](OC(C)=O)C(C)(C)[C@H]1CC3)C(C)C
REMARK SMILES IDX 4 1 5 2 6 3 7 4 8 5 9 6 10 7 19 8 12 9 13 10 18 11 20 12
REMARK SMILES IDX 14 13 15 14 17 15 16 16 35 17 21 18 34 19 33 20 23 21 22 22
REMARK SMILES IDX 30 23 24 24 25 25 31 26 32 27 11 28 26 30 27 31 29 32 28 33
REMARK SMILES IDX 3 34 2 35 1 36 36 37 37 38 38 39
REMARK H PARENT 11 29
REMARK Flexibility Score: inf
ROOT
ATOM      1  C   UNL     1     -36.073 -13.139 -11.625  1.00  0.00     0.014 C 
ENDROOT
BRANCH   1   2
ATOM      2  C   UNL     1     -36.303 -14.593 -12.130  1.00  0.00     0.042 C 
BRANCH   2   3
ATOM      3  C   UNL     1     -37.040 -14.574 -13.451  1.00  0.00     0.045 C 
ATOM      4  O   UNL     1     -36.863 -13.638 -14.276  1.00  0.00    -0.550 OA
ATOM      5  O   UNL     1     -37.898 -15.617 -13.778  1.00  0.00    -0.550 OA
ENDBRANCH   2   3
BRANCH   2   6
ATOM      6  C   UNL     1     -35.066 -15.564 -12.225  1.00  0.00     0.033 C 
ATOM      7  C   UNL     1     -33.874 -15.198 -13.165  1.00  0.00     0.119 C 
ATOM      8  C   UNL     1     -34.397 -16.093 -10.904  1.00  0.00    -0.017 C 
ATOM      9  C   UNL     1     -32.579 -15.487 -12.370  1.00  0.00     0.043 C 
ATOM     10  C   UNL     1     -32.989 -15.425 -10.886  1.00  0.00    -0.003 C 
ATOM     11  C   UNL     1     -35.091 -15.839  -9.549  1.00  0.00     0.012 C 
ATOM     12  C   UNL     1     -34.303 -17.660 -11.051  1.00  0.00     0.013 C 
ATOM     13  C   UNL     1     -32.941 -13.923 -10.465  1.00  0.00     0.017 C 
ATOM     14  C   UNL     1     -32.117 -16.162  -9.874  1.00  0.00    -0.064 C 
ATOM     15  C   UNL     1     -34.144 -16.104  -8.337  1.00  0.00     0.032 C 
ATOM     16  C   UNL     1     -32.652 -16.424  -8.633  1.00  0.00    -0.064 C 
ATOM     17  C   UNL     1     -30.644 -16.359 -10.192  1.00  0.00     0.032 C 
ATOM     18  C   UNL     1     -31.834 -17.157  -7.538  1.00  0.00    -0.008 C 
ATOM     19  C   UNL     1     -29.917 -17.289  -9.229  1.00  0.00     0.009 C 
ATOM     20  C   UNL     1     -30.295 -16.955  -7.776  1.00  0.00     0.009 C 
ATOM     21  C   UNL     1     -32.197 -16.578  -6.124  1.00  0.00     0.015 C 
ATOM     22  C   UNL     1     -32.260 -18.650  -7.618  1.00  0.00     0.016 C 
ATOM     23  C   UNL     1     -29.329 -17.597  -6.685  1.00  0.00     0.005 C 
ATOM     24  C   UNL     1     -31.046 -16.547  -5.098  1.00  0.00     0.047 C 
ATOM     25  C   UNL     1     -30.044 -17.686  -5.285  1.00  0.00     0.182 C 
ATOM     26  C   UNL     1     -28.067 -16.697  -6.566  1.00  0.00     0.015 C 
ATOM     27  C   UNL     1     -28.833 -19.011  -7.092  1.00  0.00     0.015 C 
BRANCH   7  28
ATOM     28  O   UNL     1     -33.907 -13.859 -13.581  1.00  0.00    -0.393 OA
ATOM     29  H   UNL     1     -34.523 -13.383 -12.963  1.00  0.00     0.210 HD
ENDBRANCH   7  28
BRANCH  25  30
ATOM     30  O   UNL     1     -29.105 -17.626  -4.204  1.00  0.00    -0.462 OA
BRANCH  30  31
ATOM     31  C   UNL     1     -28.957 -18.616  -3.226  1.00  0.00     0.302 C 
ATOM     32  O   UNL     1     -28.463 -18.348  -2.098  1.00  0.00    -0.253 OA
ATOM     33  C   UNL     1     -29.335 -20.021  -3.551  1.00  0.00     0.139 C 
ENDBRANCH  30  31
ENDBRANCH  25  30
ENDBRANCH   2   6
ENDBRANCH   1   2
BRANCH   1  34
ATOM     34  C   UNL     1     -37.196 -12.631 -10.699  1.00  0.00     0.031 C 
BRANCH  34  35
ATOM     35  C   UNL     1     -36.748 -12.447  -9.258  1.00  0.00    -0.075 C 
ATOM     36  C   UNL     1     -35.494 -12.029  -9.008  1.00  0.00     0.008 C 
BRANCH  35  37
ATOM     37  C   UNL     1     -37.755 -12.626  -8.127  1.00  0.00     0.008 C 
ATOM     38  C   UNL     1     -37.516 -11.591  -7.021  1.00  0.00     0.012 C 
ATOM     39  C   UNL     1     -37.742 -14.051  -7.552  1.00  0.00     0.012 C 
ENDBRANCH  35  37
ENDBRANCH  34  35
ENDBRANCH   1  34
TORSDOF 9
ENDMDL
MODEL 5
REMARK VINA RESULT:    -6.484      3.810      7.210
REMARK INTER + INTRA:         -11.535
REMARK INTER:                  -9.537
REMARK INTRA:                  -1.997
REMARK UNBOUND:                -1.829
REMARK SMILES C=C(CC[C@@H](C(=O)[O-])[C@H]1[C@@H](O)C[C@]2(C)C3=C(CC[C@@]12C)[C@]1(C)CC[C@H](OC(C)=O)C(C)(C)[C@H]1CC3)C(C)C
REMARK SMILES IDX 4 1 5 2 6 3 7 4 8 5 9 6 10 7 19 8 12 9 13 10 18 11 20 12
REMARK SMILES IDX 14 13 15 14 17 15 16 16 35 17 21 18 34 19 33 20 23 21 22 22
REMARK SMILES IDX 30 23 24 24 25 25 31 26 32 27 11 28 26 30 27 31 29 32 28 33
REMARK SMILES IDX 3 34 2 35 1 36 36 37 37 38 38 39
REMARK H PARENT 11 29
REMARK Flexibility Score: inf
ROOT
ATOM      1  C   UNL     1     -29.069 -17.750  -4.672  1.00  0.00     0.014 C 
ENDROOT
BRANCH   1   2
ATOM      2  C   UNL     1     -29.839 -16.495  -4.170  1.00  0.00     0.042 C 
BRANCH   2   3
ATOM      3  C   UNL     1     -29.146 -15.908  -2.961  1.00  0.00     0.045 C 
ATOM      4  O   UNL     1     -29.774 -15.183  -2.144  1.00  0.00    -0.550 OA
ATOM      5  O   UNL     1     -27.807 -16.198  -2.724  1.00  0.00    -0.550 OA
ENDBRANCH   2   3
BRANCH   2   6
ATOM      6  C   UNL     1     -30.170 -15.349  -5.201  1.00  0.00     0.033 C 
ATOM      7  C   UNL     1     -29.004 -14.522  -5.828  1.00  0.00     0.119 C 
ATOM      8  C   UNL     1     -31.150 -15.646  -6.394  1.00  0.00    -0.017 C 
ATOM      9  C   UNL     1     -29.316 -14.392  -7.338  1.00  0.00     0.043 C 
ATOM     10  C   UNL     1     -30.249 -15.574  -7.664  1.00  0.00    -0.003 C 
ATOM     11  C   UNL     1     -31.943 -16.970  -6.414  1.00  0.00     0.012 C 
ATOM     12  C   UNL     1     -32.232 -14.498  -6.375  1.00  0.00     0.013 C 
ATOM     13  C   UNL     1     -29.336 -16.811  -7.934  1.00  0.00     0.017 C 
ATOM     14  C   UNL     1     -31.150 -15.455  -8.890  1.00  0.00    -0.064 C 
ATOM     15  C   UNL     1     -32.579 -17.262  -7.808  1.00  0.00     0.032 C 
ATOM     16  C   UNL     1     -32.224 -16.311  -8.986  1.00  0.00    -0.064 C 
ATOM     17  C   UNL     1     -30.695 -14.575 -10.042  1.00  0.00     0.032 C 
ATOM     18  C   UNL     1     -33.185 -16.269 -10.202  1.00  0.00    -0.008 C 
ATOM     19  C   UNL     1     -31.755 -14.351 -11.113  1.00  0.00     0.009 C 
ATOM     20  C   UNL     1     -32.454 -15.677 -11.460  1.00  0.00     0.009 C 
ATOM     21  C   UNL     1     -33.670 -17.722 -10.550  1.00  0.00     0.015 C 
ATOM     22  C   UNL     1     -34.398 -15.405  -9.756  1.00  0.00     0.016 C 
ATOM     23  C   UNL     1     -33.301 -15.638 -12.807  1.00  0.00     0.005 C 
ATOM     24  C   UNL     1     -33.914 -18.007 -12.045  1.00  0.00     0.047 C 
ATOM     25  C   UNL     1     -34.387 -16.777 -12.822  1.00  0.00     0.182 C 
ATOM     26  C   UNL     1     -32.323 -15.838 -13.999  1.00  0.00     0.015 C 
ATOM     27  C   UNL     1     -33.999 -14.268 -13.027  1.00  0.00     0.015 C 
BRANCH   7  28
ATOM     28  O   UNL     1     -27.753 -15.123  -5.635  1.00  0.00    -0.393 OA
ATOM     29  H   UNL     1     -27.208 -14.916  -6.440  1.00  0.00     0.210 HD
ENDBRANCH   7  28
BRANCH  25  30
ATOM     30  O   UNL     1     -34.701 -17.195 -14.155  1.00  0.00    -0.462 OA
BRANCH  30  31
ATOM     31  C   UNL     1     -35.952 -17.035 -14.763  1.00  0.00     0.302 C 
ATOM     32  O   UNL     1     -36.230 -17.620 -15.844  1.00  0.00    -0.253 OA
ATOM     33  C   UNL     1     -36.946 -16.112 -14.147  1.00  0.00     0.139 C 
ENDBRANCH  30  31
ENDBRANCH  25  30
ENDBRANCH   2   6
ENDBRANCH   1   2
BRANCH   1  34
ATOM     34  C   UNL     1     -29.671 -19.076  -4.167  1.00  0.00     0.031 C 
BRANCH  34  35
ATOM     35  C   UNL     1     -30.135 -19.990  -5.289  1.00  0.00    -0.075 C 
ATOM     36  C   UNL     1     -31.395 -20.461  -5.275  1.00  0.00     0.008 C 
BRANCH  35  37
ATOM     37  C   UNL     1     -29.208 -20.266  -6.468  1.00  0.00     0.008 C 
ATOM     38  C   UNL     1     -29.979 -20.192  -7.792  1.00  0.00     0.012 C 
ATOM     39  C   UNL     1     -28.480 -21.613  -6.337  1.00  0.00     0.012 C 
ENDBRANCH  35  37
ENDBRANCH  34  35
ENDBRANCH   1  34
TORSDOF 9
ENDMDL
MODEL 6
REMARK VINA RESULT:    -6.445      1.869      3.521
REMARK INTER + INTRA:         -11.477
REMARK INTER:                  -9.501
REMARK INTRA:                  -1.976
REMARK UNBOUND:                -1.829
REMARK SMILES C=C(CC[C@@H](C(=O)[O-])[C@H]1[C@@H](O)C[C@]2(C)C3=C(CC[C@@]12C)[C@]1(C)CC[C@H](OC(C)=O)C(C)(C)[C@H]1CC3)C(C)C
REMARK SMILES IDX 4 1 5 2 6 3 7 4 8 5 9 6 10 7 19 8 12 9 13 10 18 11 20 12
REMARK SMILES IDX 14 13 15 14 17 15 16 16 35 17 21 18 34 19 33 20 23 21 22 22
REMARK SMILES IDX 30 23 24 24 25 25 31 26 32 27 11 28 26 30 27 31 29 32 28 33
REMARK SMILES IDX 3 34 2 35 1 36 36 37 37 38 38 39
REMARK H PARENT 11 29
REMARK Flexibility Score: inf
ROOT
ATOM      1  C   UNL     1     -27.158 -13.794   1.498  1.00  0.00     0.014 C 
ENDROOT
BRANCH   1   2
ATOM      2  C   UNL     1     -28.170 -12.693   1.069  1.00  0.00     0.042 C 
BRANCH   2   3
ATOM      3  C   UNL     1     -28.010 -11.470   1.943  1.00  0.00     0.045 C 
ATOM      4  O   UNL     1     -27.353 -11.524   3.016  1.00  0.00    -0.550 OA
ATOM      5  O   UNL     1     -28.564 -10.259   1.544  1.00  0.00    -0.550 OA
ENDBRANCH   2   3
BRANCH   2   6
ATOM      6  C   UNL     1     -28.219 -12.262  -0.446  1.00  0.00     0.033 C 
ATOM      7  C   UNL     1     -26.893 -11.882  -1.179  1.00  0.00     0.119 C 
ATOM      8  C   UNL     1     -29.017 -13.145  -1.475  1.00  0.00    -0.017 C 
ATOM      9  C   UNL     1     -26.943 -12.566  -2.565  1.00  0.00     0.043 C 
ATOM     10  C   UNL     1     -27.919 -13.747  -2.403  1.00  0.00    -0.003 C 
ATOM     11  C   UNL     1     -29.918 -14.285  -0.956  1.00  0.00     0.012 C 
ATOM     12  C   UNL     1     -29.973 -12.163  -2.255  1.00  0.00     0.013 C 
ATOM     13  C   UNL     1     -27.096 -14.938  -1.818  1.00  0.00     0.017 C 
ATOM     14  C   UNL     1     -28.593 -14.293  -3.658  1.00  0.00    -0.064 C 
ATOM     15  C   UNL     1     -30.344 -15.269  -2.089  1.00  0.00     0.032 C 
ATOM     16  C   UNL     1     -29.714 -15.077  -3.498  1.00  0.00    -0.064 C 
ATOM     17  C   UNL     1     -27.876 -14.149  -4.989  1.00  0.00     0.032 C 
ATOM     18  C   UNL     1     -30.457 -15.684  -4.716  1.00  0.00    -0.008 C 
ATOM     19  C   UNL     1     -28.722 -14.525  -6.199  1.00  0.00     0.009 C 
ATOM     20  C   UNL     1     -29.478 -15.838  -5.935  1.00  0.00     0.009 C 
ATOM     21  C   UNL     1     -31.015 -17.105  -4.346  1.00  0.00     0.015 C 
ATOM     22  C   UNL     1     -31.639 -14.720  -5.018  1.00  0.00     0.016 C 
ATOM     23  C   UNL     1     -30.088 -16.516  -7.240  1.00  0.00     0.005 C 
ATOM     24  C   UNL     1     -31.039 -18.134  -5.494  1.00  0.00     0.047 C 
ATOM     25  C   UNL     1     -31.261 -17.498  -6.867  1.00  0.00     0.182 C 
ATOM     26  C   UNL     1     -28.954 -17.308  -7.948  1.00  0.00     0.015 C 
ATOM     27  C   UNL     1     -30.608 -15.469  -8.262  1.00  0.00     0.015 C 
BRANCH   7  28
ATOM     28  O   UNL     1     -25.753 -12.287  -0.472  1.00  0.00    -0.393 OA
ATOM     29  H   UNL     1     -25.695 -11.709   0.335  1.00  0.00     0.210 HD
ENDBRANCH   7  28
BRANCH  25  30
ATOM     30  O   UNL     1     -31.393 -18.555  -7.824  1.00  0.00    -0.462 OA
BRANCH  30  31
ATOM     31  C   UNL     1     -32.552 -18.814  -8.565  1.00  0.00     0.302 C 
ATOM     32  O   UNL     1     -32.571 -18.667  -9.817  1.00  0.00    -0.253 OA
ATOM     33  C   UNL     1     -33.798 -19.212  -7.851  1.00  0.00     0.139 C 
ENDBRANCH  30  31
ENDBRANCH  25  30
ENDBRANCH   2   6
ENDBRANCH   1   2
BRANCH   1  34
ATOM     34  C   UNL     1     -27.809 -14.944   2.292  1.00  0.00     0.031 C 
BRANCH  34  35
ATOM     35  C   UNL     1     -27.580 -16.309   1.666  1.00  0.00    -0.075 C 
ATOM     36  C   UNL     1     -26.322 -16.722   1.429  1.00  0.00     0.008 C 
BRANCH  35  37
ATOM     37  C   UNL     1     -28.768 -17.235   1.422  1.00  0.00     0.008 C 
ATOM     38  C   UNL     1     -28.777 -17.732  -0.029  1.00  0.00     0.012 C 
ATOM     39  C   UNL     1     -30.108 -16.574   1.780  1.00  0.00     0.012 C 
ENDBRANCH  35  37
ENDBRANCH  34  35
ENDBRANCH   1  34
TORSDOF 9
ENDMDL
MODEL 7
REMARK VINA RESULT:    -6.330      6.963     11.091
REMARK INTER + INTRA:         -11.305
REMARK INTER:                  -9.166
REMARK INTRA:                  -2.139
REMARK UNBOUND:                -1.829
REMARK SMILES C=C(CC[C@@H](C(=O)[O-])[C@H]1[C@@H](O)C[C@]2(C)C3=C(CC[C@@]12C)[C@]1(C)CC[C@H](OC(C)=O)C(C)(C)[C@H]1CC3)C(C)C
REMARK SMILES IDX 4 1 5 2 6 3 7 4 8 5 9 6 10 7 19 8 12 9 13 10 18 11 20 12
REMARK SMILES IDX 14 13 15 14 17 15 16 16 35 17 21 18 34 19 33 20 23 21 22 22
REMARK SMILES IDX 30 23 24 24 25 25 31 26 32 27 11 28 26 30 27 31 29 32 28 33
REMARK SMILES IDX 3 34 2 35 1 36 36 37 37 38 38 39
REMARK H PARENT 11 29
REMARK Flexibility Score: inf
ROOT
ATOM      1  C   UNL     1     -34.568 -13.546  -8.822  1.00  0.00     0.014 C 
ENDROOT
BRANCH   1   2
ATOM      2  C   UNL     1     -35.108 -12.576  -9.912  1.00  0.00     0.042 C 
BRANCH   2   3
ATOM      3  C   UNL     1     -36.620 -12.591  -9.920  1.00  0.00     0.045 C 
ATOM      4  O   UNL     1     -37.260 -12.648 -11.004  1.00  0.00    -0.550 OA
ATOM      5  O   UNL     1     -37.317 -12.578  -8.718  1.00  0.00    -0.550 OA
ENDBRANCH   2   3
BRANCH   2   6
ATOM      6  C   UNL     1     -34.591 -11.087  -9.920  1.00  0.00     0.033 C 
ATOM      7  C   UNL     1     -34.755 -10.211  -8.639  1.00  0.00     0.119 C 
ATOM      8  C   UNL     1     -33.142 -10.776 -10.447  1.00  0.00    -0.017 C 
ATOM      9  C   UNL     1     -33.417  -9.460  -8.443  1.00  0.00     0.043 C 
ATOM     10  C   UNL     1     -32.362 -10.305  -9.181  1.00  0.00    -0.003 C 
ATOM     11  C   UNL     1     -32.335 -11.888 -11.149  1.00  0.00     0.012 C 
ATOM     12  C   UNL     1     -33.293  -9.620 -11.508  1.00  0.00     0.013 C 
ATOM     13  C   UNL     1     -31.906 -11.425  -8.194  1.00  0.00     0.017 C 
ATOM     14  C   UNL     1     -31.081  -9.612  -9.633  1.00  0.00    -0.064 C 
ATOM     15  C   UNL     1     -30.822 -11.532 -11.283  1.00  0.00     0.032 C 
ATOM     16  C   UNL     1     -30.314 -10.237 -10.591  1.00  0.00    -0.064 C 
ATOM     17  C   UNL     1     -30.595  -8.403  -8.852  1.00  0.00     0.032 C 
ATOM     18  C   UNL     1     -28.989  -9.611 -11.101  1.00  0.00    -0.008 C 
ATOM     19  C   UNL     1     -29.440  -7.657  -9.508  1.00  0.00     0.009 C 
ATOM     20  C   UNL     1     -28.381  -8.652 -10.015  1.00  0.00     0.009 C 
ATOM     21  C   UNL     1     -27.944 -10.744 -11.401  1.00  0.00     0.015 C 
ATOM     22  C   UNL     1     -29.350  -8.868 -12.418  1.00  0.00     0.016 C 
ATOM     23  C   UNL     1     -26.979  -7.989 -10.375  1.00  0.00     0.005 C 
ATOM     24  C   UNL     1     -26.469 -10.384 -11.133  1.00  0.00     0.047 C 
ATOM     25  C   UNL     1     -26.162  -8.903 -11.362  1.00  0.00     0.182 C 
ATOM     26  C   UNL     1     -26.179  -7.805  -9.055  1.00  0.00     0.015 C 
ATOM     27  C   UNL     1     -27.136  -6.577 -11.003  1.00  0.00     0.015 C 
BRANCH   7  28
ATOM     28  O   UNL     1     -35.063 -10.972  -7.503  1.00  0.00    -0.393 OA
ATOM     29  H   UNL     1     -36.043 -10.890  -7.360  1.00  0.00     0.210 HD
ENDBRANCH   7  28
BRANCH  25  30
ATOM     30  O   UNL     1     -24.749  -8.721 -11.208  1.00  0.00    -0.462 OA
BRANCH  30  31
ATOM     31  C   UNL     1     -23.834  -8.689 -12.267  1.00  0.00     0.302 C 
ATOM     32  O   UNL     1     -23.174  -9.713 -12.587  1.00  0.00    -0.253 OA
ATOM     33  C   UNL     1     -23.598  -7.405 -12.986  1.00  0.00     0.139 C 
ENDBRANCH  30  31
ENDBRANCH  25  30
ENDBRANCH   2   6
ENDBRANCH   1   2
BRANCH   1  34
ATOM     34  C   UNL     1     -34.317 -14.973  -9.347  1.00  0.00     0.031 C 
BRANCH  34  35
ATOM     35  C   UNL     1     -32.880 -15.209  -9.780  1.00  0.00    -0.075 C 
ATOM     36  C   UNL     1     -32.632 -15.619 -11.038  1.00  0.00     0.008 C 
BRANCH  35  37
ATOM     37  C   UNL     1     -31.739 -14.870  -8.827  1.00  0.00     0.008 C 
ATOM     38  C   UNL     1     -30.400 -14.841  -9.574  1.00  0.00     0.012 C 
ATOM     39  C   UNL     1     -31.674 -15.828  -7.627  1.00  0.00     0.012 C 
ENDBRANCH  35  37
ENDBRANCH  34  35
ENDBRANCH   1  34
TORSDOF 9
ENDMDL
MODEL 8
REMARK VINA RESULT:    -6.294      1.900      9.500
REMARK INTER + INTRA:         -11.250
REMARK INTER:                  -9.341
REMARK INTRA:                  -1.909
REMARK UNBOUND:                -1.829
REMARK SMILES C=C(CC[C@@H](C(=O)[O-])[C@H]1[C@@H](O)C[C@]2(C)C3=C(CC[C@@]12C)[C@]1(C)CC[C@H](OC(C)=O)C(C)(C)[C@H]1CC3)C(C)C
REMARK SMILES IDX 4 1 5 2 6 3 7 4 8 5 9 6 10 7 19 8 12 9 13 10 18 11 20 12
REMARK SMILES IDX 14 13 15 14 17 15 16 16 35 17 21 18 34 19 33 20 23 21 22 22
REMARK SMILES IDX 30 23 24 24 25 25 31 26 32 27 11 28 26 30 27 31 29 32 28 33
REMARK SMILES IDX 3 34 2 35 1 36 36 37 37 38 38 39
REMARK H PARENT 11 29
REMARK Flexibility Score: inf
ROOT
ATOM      1  C   UNL     1     -31.653 -18.341  -6.978  1.00  0.00     0.014 C 
ENDROOT
BRANCH   1   2
ATOM      2  C   UNL     1     -30.294 -17.717  -7.409  1.00  0.00     0.042 C 
BRANCH   2   3
ATOM      3  C   UNL     1     -30.088 -17.896  -8.896  1.00  0.00     0.045 C 
ATOM      4  O   UNL     1     -29.463 -18.892  -9.347  1.00  0.00    -0.550 OA
ATOM      5  O   UNL     1     -30.623 -16.969  -9.783  1.00  0.00    -0.550 OA
ENDBRANCH   2   3
BRANCH   2   6
ATOM      6  C   UNL     1     -29.987 -16.225  -7.005  1.00  0.00     0.033 C 
ATOM      7  C   UNL     1     -31.070 -15.126  -7.246  1.00  0.00     0.119 C 
ATOM      8  C   UNL     1     -29.402 -15.917  -5.578  1.00  0.00    -0.017 C 
ATOM      9  C   UNL     1     -31.106 -14.253  -5.970  1.00  0.00     0.043 C 
ATOM     10  C   UNL     1     -30.544 -15.146  -4.847  1.00  0.00    -0.003 C 
ATOM     11  C   UNL     1     -28.930 -17.083  -4.684  1.00  0.00     0.012 C 
ATOM     12  C   UNL     1     -28.132 -15.009  -5.805  1.00  0.00     0.013 C 
ATOM     13  C   UNL     1     -31.732 -16.010  -4.319  1.00  0.00     0.017 C 
ATOM     14  C   UNL     1     -29.956 -14.463  -3.618  1.00  0.00    -0.064 C 
ATOM     15  C   UNL     1     -28.719 -16.648  -3.200  1.00  0.00     0.032 C 
ATOM     16  C   UNL     1     -29.138 -15.206  -2.797  1.00  0.00    -0.064 C 
ATOM     17  C   UNL     1     -30.478 -13.089  -3.231  1.00  0.00     0.032 C 
ATOM     18  C   UNL     1     -28.506 -14.596  -1.518  1.00  0.00    -0.008 C 
ATOM     19  C   UNL     1     -29.680 -12.404  -2.129  1.00  0.00     0.009 C 
ATOM     20  C   UNL     1     -29.375 -13.398  -0.994  1.00  0.00     0.009 C 
ATOM     21  C   UNL     1     -28.431 -15.685  -0.388  1.00  0.00     0.015 C 
ATOM     22  C   UNL     1     -27.069 -14.159  -1.921  1.00  0.00     0.016 C 
ATOM     23  C   UNL     1     -28.883 -12.716   0.358  1.00  0.00     0.005 C 
ATOM     24  C   UNL     1     -28.614 -15.168   1.053  1.00  0.00     0.047 C 
ATOM     25  C   UNL     1     -28.094 -13.744   1.251  1.00  0.00     0.182 C 
ATOM     26  C   UNL     1     -30.136 -12.214   1.130  1.00  0.00     0.015 C 
ATOM     27  C   UNL     1     -27.988 -11.473   0.102  1.00  0.00     0.015 C 
BRANCH   7  28
ATOM     28  O   UNL     1     -32.337 -15.667  -7.507  1.00  0.00    -0.393 OA
ATOM     29  H   UNL     1     -32.780 -15.795  -6.626  1.00  0.00     0.210 HD
ENDBRANCH   7  28
BRANCH  25  30
ATOM     30  O   UNL     1     -28.200 -13.429   2.644  1.00  0.00    -0.462 OA
BRANCH  30  31
ATOM     31  C   UNL     1     -27.187 -12.827   3.401  1.00  0.00     0.302 C 
ATOM     32  O   UNL     1     -27.211 -11.594   3.657  1.00  0.00    -0.253 OA
ATOM     33  C   UNL     1     -26.033 -13.653   3.858  1.00  0.00     0.139 C 
ENDBRANCH  30  31
ENDBRANCH  25  30
ENDBRANCH   2   6
ENDBRANCH   1   2
BRANCH   1  34
ATOM     34  C   UNL     1     -31.554 -19.842  -6.640  1.00  0.00     0.031 C 
BRANCH  34  35
ATOM     35  C   UNL     1     -31.014 -20.108  -5.245  1.00  0.00    -0.075 C 
ATOM     36  C   UNL     1     -31.670 -19.611  -4.180  1.00  0.00     0.008 C 
BRANCH  35  37
ATOM     37  C   UNL     1     -29.809 -21.025  -5.064  1.00  0.00     0.008 C 
ATOM     38  C   UNL     1     -29.092 -20.723  -3.742  1.00  0.00     0.012 C 
ATOM     39  C   UNL     1     -28.830 -20.943  -6.246  1.00  0.00     0.012 C 
ENDBRANCH  35  37
ENDBRANCH  34  35
ENDBRANCH   1  34
TORSDOF 9
ENDMDL
MODEL 9
REMARK VINA RESULT:    -6.254      5.749      8.645
REMARK INTER + INTRA:         -11.191
REMARK INTER:                  -9.184
REMARK INTRA:                  -2.007
REMARK UNBOUND:                -1.829
REMARK SMILES C=C(CC[C@@H](C(=O)[O-])[C@H]1[C@@H](O)C[C@]2(C)C3=C(CC[C@@]12C)[C@]1(C)CC[C@H](OC(C)=O)C(C)(C)[C@H]1CC3)C(C)C
REMARK SMILES IDX 4 1 5 2 6 3 7 4 8 5 9 6 10 7 19 8 12 9 13 10 18 11 20 12
REMARK SMILES IDX 14 13 15 14 17 15 16 16 35 17 21 18 34 19 33 20 23 21 22 22
REMARK SMILES IDX 30 23 24 24 25 25 31 26 32 27 11 28 26 30 27 31 29 32 28 33
REMARK SMILES IDX 3 34 2 35 1 36 36 37 37 38 38 39
REMARK H PARENT 11 29
REMARK Flexibility Score: inf
ROOT
ATOM      1  C   UNL     1     -31.713 -20.115  -7.322  1.00  0.00     0.014 C 
ENDROOT
BRANCH   1   2
ATOM      2  C   UNL     1     -30.566 -19.360  -6.590  1.00  0.00     0.042 C 
BRANCH   2   3
ATOM      3  C   UNL     1     -29.604 -20.349  -5.972  1.00  0.00     0.045 C 
ATOM      4  O   UNL     1     -28.925 -21.128  -6.694  1.00  0.00    -0.550 OA
ATOM      5  O   UNL     1     -29.436 -20.381  -4.593  1.00  0.00    -0.550 OA
ENDBRANCH   2   3
BRANCH   2   6
ATOM      6  C   UNL     1     -29.762 -18.259  -7.380  1.00  0.00     0.033 C 
ATOM      7  C   UNL     1     -29.280 -18.556  -8.834  1.00  0.00     0.119 C 
ATOM      8  C   UNL     1     -30.312 -16.786  -7.424  1.00  0.00    -0.017 C 
ATOM      9  C   UNL     1     -29.586 -17.291  -9.669  1.00  0.00     0.043 C 
ATOM     10  C   UNL     1     -30.717 -16.566  -8.913  1.00  0.00    -0.003 C 
ATOM     11  C   UNL     1     -31.498 -16.391  -6.518  1.00  0.00     0.012 C 
ATOM     12  C   UNL     1     -29.116 -15.852  -6.996  1.00  0.00     0.013 C 
ATOM     13  C   UNL     1     -32.059 -17.221  -9.369  1.00  0.00     0.017 C 
ATOM     14  C   UNL     1     -30.890 -15.070  -9.152  1.00  0.00    -0.064 C 
ATOM     15  C   UNL     1     -32.138 -15.031  -6.934  1.00  0.00     0.032 C 
ATOM     16  C   UNL     1     -31.628 -14.353  -8.237  1.00  0.00    -0.064 C 
ATOM     17  C   UNL     1     -30.450 -14.491 -10.486  1.00  0.00     0.032 C 
ATOM     18  C   UNL     1     -31.867 -12.830  -8.406  1.00  0.00    -0.008 C 
ATOM     19  C   UNL     1     -30.462 -12.969 -10.542  1.00  0.00     0.009 C 
ATOM     20  C   UNL     1     -31.758 -12.421  -9.919  1.00  0.00     0.009 C 
ATOM     21  C   UNL     1     -33.303 -12.454  -7.894  1.00  0.00     0.015 C 
ATOM     22  C   UNL     1     -30.796 -12.131  -7.521  1.00  0.00     0.016 C 
ATOM     23  C   UNL     1     -32.049 -10.892 -10.253  1.00  0.00     0.005 C 
ATOM     24  C   UNL     1     -34.005 -11.307  -8.649  1.00  0.00     0.047 C 
ATOM     25  C   UNL     1     -33.030 -10.263  -9.195  1.00  0.00     0.182 C 
ATOM     26  C   UNL     1     -32.694 -10.821 -11.665  1.00  0.00     0.015 C 
ATOM     27  C   UNL     1     -30.751 -10.042 -10.311  1.00  0.00     0.015 C 
BRANCH   7  28
ATOM     28  O   UNL     1     -29.910 -19.677  -9.392  1.00  0.00    -0.393 OA
ATOM     29  H   UNL     1     -30.871 -19.443  -9.497  1.00  0.00     0.210 HD
ENDBRANCH   7  28
BRANCH  25  30
ATOM     30  O   UNL     1     -33.802  -9.194  -9.755  1.00  0.00    -0.462 OA
BRANCH  30  31
ATOM     31  C   UNL     1     -33.616  -7.840  -9.454  1.00  0.00     0.302 C 
ATOM     32  O   UNL     1     -33.233  -7.024 -10.335  1.00  0.00    -0.253 OA
ATOM     33  C   UNL     1     -33.820  -7.371  -8.054  1.00  0.00     0.139 C 
ENDBRANCH  30  31
ENDBRANCH  25  30
ENDBRANCH   2   6
ENDBRANCH   1   2
BRANCH   1  34
ATOM     34  C   UNL     1     -32.888 -20.484  -6.395  1.00  0.00     0.031 C 
BRANCH  34  35
ATOM     35  C   UNL     1     -33.731 -19.286  -5.990  1.00  0.00    -0.075 C 
ATOM     36  C   UNL     1     -33.713 -18.873  -4.709  1.00  0.00     0.008 C 
BRANCH  35  37
ATOM     37  C   UNL     1     -34.492 -18.504  -7.056  1.00  0.00     0.008 C 
ATOM     38  C   UNL     1     -35.199 -17.292  -6.436  1.00  0.00     0.012 C 
ATOM     39  C   UNL     1     -35.490 -19.382  -7.826  1.00  0.00     0.012 C 
ENDBRANCH  35  37
ENDBRANCH  34  35
ENDBRANCH   1  34
TORSDOF 9
ENDMDL
