MODEL 1
REMARK VINA RESULT:    -4.491      0.000      0.000
REMARK INTER + INTRA:          -5.819
REMARK INTER:                  -5.541
REMARK INTRA:                  -0.278
REMARK UNBOUND:                -0.278
REMARK SMILES CCCCC=CC(C)=O
REMARK SMILES IDX 4 1 3 2 2 3 1 4 5 5 6 6 7 7 9 8 8 9
REMARK H PARENT
REMARK Flexibility Score: inf
ROOT
ATOM      1  C   UNL     1     -10.733  71.884  32.628  1.00  0.00     0.027 C 
ENDROOT
BRANCH   1   2
ATOM      2  C   UNL     1     -11.698  73.000  32.199  1.00  0.00     0.004 C 
BRANCH   2   3
ATOM      3  C   UNL     1     -11.007  74.058  31.328  1.00  0.00    -0.003 C 
ATOM      4  C   UNL     1     -10.883  75.386  32.070  1.00  0.00     0.004 C 
ENDBRANCH   2   3
ENDBRANCH   1   2
BRANCH   1   5
ATOM      5  C   UNL     1     -10.466  71.894  34.108  1.00  0.00    -0.023 C 
ATOM      6  C   UNL     1     -11.100  72.740  34.927  1.00  0.00     0.042 C 
BRANCH   6   7
ATOM      7  C   UNL     1     -10.849  72.769  36.380  1.00  0.00     0.152 C 
ATOM      8  O   UNL     1     -10.233  73.734  36.909  1.00  0.00    -0.295 OA
ATOM      9  C   UNL     1     -11.324  71.639  37.235  1.00  0.00     0.093 C 
ENDBRANCH   6   7
ENDBRANCH   1   5
TORSDOF 4
ENDMDL
MODEL 2
REMARK VINA RESULT:    -4.444      3.573      6.035
REMARK INTER + INTRA:          -5.762
REMARK INTER:                  -5.578
REMARK INTRA:                  -0.184
REMARK UNBOUND:                -0.278
REMARK SMILES CCCCC=CC(C)=O
REMARK SMILES IDX 4 1 3 2 2 3 1 4 5 5 6 6 7 7 9 8 8 9
REMARK H PARENT
REMARK Flexibility Score: inf
ROOT
ATOM      1  C   UNL     1     -11.023  74.300  32.279  1.00  0.00     0.027 C 
ENDROOT
BRANCH   1   2
ATOM      2  C   UNL     1     -11.811  73.022  32.602  1.00  0.00     0.004 C 
BRANCH   2   3
ATOM      3  C   UNL     1     -10.898  71.889  33.094  1.00  0.00    -0.003 C 
ATOM      4  C   UNL     1     -10.544  72.069  34.567  1.00  0.00     0.004 C 
ENDBRANCH   2   3
ENDBRANCH   1   2
BRANCH   1   5
ATOM      5  C   UNL     1     -10.992  74.598  30.805  1.00  0.00    -0.023 C 
ATOM      6  C   UNL     1     -11.344  73.679  29.898  1.00  0.00     0.042 C 
BRANCH   6   7
ATOM      7  C   UNL     1     -11.315  73.949  28.449  1.00  0.00     0.152 C 
ATOM      8  O   UNL     1     -12.310  73.679  27.722  1.00  0.00    -0.295 OA
ATOM      9  C   UNL     1     -10.092  74.546  27.832  1.00  0.00     0.093 C 
ENDBRANCH   6   7
ENDBRANCH   1   5
TORSDOF 4
ENDMDL
MODEL 3
REMARK VINA RESULT:    -4.438      3.613      6.131
REMARK INTER + INTRA:          -5.754
REMARK INTER:                  -5.523
REMARK INTRA:                  -0.231
REMARK UNBOUND:                -0.278
REMARK SMILES CCCCC=CC(C)=O
REMARK SMILES IDX 4 1 3 2 2 3 1 4 5 5 6 6 7 7 9 8 8 9
REMARK H PARENT
REMARK Flexibility Score: inf
ROOT
ATOM      1  C   UNL     1     -10.892  75.228  31.834  1.00  0.00     0.027 C 
ENDROOT
BRANCH   1   2
ATOM      2  C   UNL     1     -10.994  74.179  32.951  1.00  0.00     0.004 C 
BRANCH   2   3
ATOM      3  C   UNL     1     -11.658  72.882  32.467  1.00  0.00    -0.003 C 
ATOM      4  C   UNL     1     -10.856  71.658  32.903  1.00  0.00     0.004 C 
ENDBRANCH   2   3
ENDBRANCH   1   2
BRANCH   1   5
ATOM      5  C   UNL     1     -10.870  74.607  30.464  1.00  0.00    -0.023 C 
ATOM      6  C   UNL     1      -9.736  74.500  29.763  1.00  0.00     0.042 C 
BRANCH   6   7
ATOM      7  C   UNL     1      -9.695  73.899  28.417  1.00  0.00     0.152 C 
ATOM      8  O   UNL     1      -9.317  72.707  28.254  1.00  0.00    -0.295 OA
ATOM      9  C   UNL     1     -10.100  74.713  27.231  1.00  0.00     0.093 C 
ENDBRANCH   6   7
ENDBRANCH   1   5
TORSDOF 4
ENDMDL
MODEL 4
REMARK VINA RESULT:    -4.405      1.988      2.987
REMARK INTER + INTRA:          -5.713
REMARK INTER:                  -5.467
REMARK INTRA:                  -0.246
REMARK UNBOUND:                -0.278
REMARK SMILES CCCCC=CC(C)=O
REMARK SMILES IDX 4 1 3 2 2 3 1 4 5 5 6 6 7 7 9 8 8 9
REMARK H PARENT
REMARK Flexibility Score: inf
ROOT
ATOM      1  C   UNL     1     -10.901  74.803  31.119  1.00  0.00     0.027 C 
ENDROOT
BRANCH   1   2
ATOM      2  C   UNL     1     -10.537  74.261  29.728  1.00  0.00     0.004 C 
BRANCH   2   3
ATOM      3  C   UNL     1     -11.738  73.608  29.029  1.00  0.00    -0.003 C 
ATOM      4  C   UNL     1     -11.731  72.094  29.223  1.00  0.00     0.004 C 
ENDBRANCH   2   3
ENDBRANCH   1   2
BRANCH   1   5
ATOM      5  C   UNL     1     -10.432  73.901  32.227  1.00  0.00    -0.023 C 
ATOM      6  C   UNL     1     -11.295  73.306  33.058  1.00  0.00     0.042 C 
BRANCH   6   7
ATOM      7  C   UNL     1     -10.854  72.423  34.154  1.00  0.00     0.152 C 
ATOM      8  O   UNL     1     -10.119  71.424  33.921  1.00  0.00    -0.295 OA
ATOM      9  C   UNL     1     -11.286  72.711  35.555  1.00  0.00     0.093 C 
ENDBRANCH   6   7
ENDBRANCH   1   5
TORSDOF 4
ENDMDL
MODEL 5
REMARK VINA RESULT:    -4.372      3.537      5.266
REMARK INTER + INTRA:          -5.673
REMARK INTER:                  -5.441
REMARK INTRA:                  -0.232
REMARK UNBOUND:                -0.278
REMARK SMILES CCCCC=CC(C)=O
REMARK SMILES IDX 4 1 3 2 2 3 1 4 5 5 6 6 7 7 9 8 8 9
REMARK H PARENT
REMARK Flexibility Score: inf
ROOT
ATOM      1  C   UNL     1     -11.405  73.886  27.823  1.00  0.00     0.027 C 
ENDROOT
BRANCH   1   2
ATOM      2  C   UNL     1     -10.103  74.644  27.525  1.00  0.00     0.004 C 
BRANCH   2   3
ATOM      3  C   UNL     1      -8.994  73.710  27.020  1.00  0.00    -0.003 C 
ATOM      4  C   UNL     1      -9.439  72.951  25.773  1.00  0.00     0.004 C 
ENDBRANCH   2   3
ENDBRANCH   1   2
BRANCH   1   5
ATOM      5  C   UNL     1     -11.561  73.567  29.285  1.00  0.00    -0.023 C 
ATOM      6  C   UNL     1     -11.048  74.359  30.232  1.00  0.00     0.042 C 
BRANCH   6   7
ATOM      7  C   UNL     1     -11.186  74.061  31.670  1.00  0.00     0.152 C 
ATOM      8  O   UNL     1     -10.889  74.925  32.539  1.00  0.00    -0.295 OA
ATOM      9  C   UNL     1     -11.677  72.718  32.102  1.00  0.00     0.093 C 
ENDBRANCH   6   7
ENDBRANCH   1   5
TORSDOF 4
ENDMDL
MODEL 6
REMARK VINA RESULT:    -4.350      4.668      7.179
REMARK INTER + INTRA:          -5.646
REMARK INTER:                  -5.430
REMARK INTRA:                  -0.216
REMARK UNBOUND:                -0.278
REMARK SMILES CCCCC=CC(C)=O
REMARK SMILES IDX 4 1 3 2 2 3 1 4 5 5 6 6 7 7 9 8 8 9
REMARK H PARENT
REMARK Flexibility Score: inf
ROOT
ATOM      1  C   UNL     1     -11.640  73.668  29.907  1.00  0.00     0.027 C 
ENDROOT
BRANCH   1   2
ATOM      2  C   UNL     1     -10.788  74.685  30.680  1.00  0.00     0.004 C 
BRANCH   2   3
ATOM      3  C   UNL     1     -10.935  74.526  32.200  1.00  0.00    -0.003 C 
ATOM      4  C   UNL     1     -11.692  73.248  32.549  1.00  0.00     0.004 C 
ENDBRANCH   2   3
ENDBRANCH   1   2
BRANCH   1   5
ATOM      5  C   UNL     1     -11.203  73.523  28.476  1.00  0.00    -0.023 C 
ATOM      6  C   UNL     1      -9.970  73.862  28.083  1.00  0.00     0.042 C 
BRANCH   6   7
ATOM      7  C   UNL     1      -9.524  73.732  26.684  1.00  0.00     0.152 C 
ATOM      8  O   UNL     1      -8.582  72.952  26.376  1.00  0.00    -0.295 OA
ATOM      9  C   UNL     1     -10.191  74.538  25.617  1.00  0.00     0.093 C 
ENDBRANCH   6   7
ENDBRANCH   1   5
TORSDOF 4
ENDMDL
MODEL 7
REMARK VINA RESULT:    -4.265      1.629      2.228
REMARK INTER + INTRA:          -5.541
REMARK INTER:                  -5.413
REMARK INTRA:                  -0.128
REMARK UNBOUND:                -0.278
REMARK SMILES CCCCC=CC(C)=O
REMARK SMILES IDX 4 1 3 2 2 3 1 4 5 5 6 6 7 7 9 8 8 9
REMARK H PARENT
REMARK Flexibility Score: inf
ROOT
ATOM      1  C   UNL     1     -11.629  72.746  31.231  1.00  0.00     0.027 C 
ENDROOT
BRANCH   1   2
ATOM      2  C   UNL     1     -11.222  74.082  30.591  1.00  0.00     0.004 C 
BRANCH   2   3
ATOM      3  C   UNL     1      -9.918  73.965  29.789  1.00  0.00    -0.003 C 
ATOM      4  C   UNL     1     -10.083  74.539  28.384  1.00  0.00     0.004 C 
ENDBRANCH   2   3
ENDBRANCH   1   2
BRANCH   1   5
ATOM      5  C   UNL     1     -11.620  72.805  32.734  1.00  0.00    -0.023 C 
ATOM      6  C   UNL     1     -10.731  72.113  33.455  1.00  0.00     0.042 C 
BRANCH   6   7
ATOM      7  C   UNL     1     -10.710  72.153  34.929  1.00  0.00     0.152 C 
ATOM      8  O   UNL     1     -11.535  72.861  35.568  1.00  0.00    -0.295 OA
ATOM      9  C   UNL     1      -9.695  71.350  35.676  1.00  0.00     0.093 C 
ENDBRANCH   6   7
ENDBRANCH   1   5
TORSDOF 4
ENDMDL
MODEL 8
REMARK VINA RESULT:    -4.234      3.188      4.562
REMARK INTER + INTRA:          -5.503
REMARK INTER:                  -5.364
REMARK INTRA:                  -0.139
REMARK UNBOUND:                -0.278
REMARK SMILES CCCCC=CC(C)=O
REMARK SMILES IDX 4 1 3 2 2 3 1 4 5 5 6 6 7 7 9 8 8 9
REMARK H PARENT
REMARK Flexibility Score: inf
ROOT
ATOM      1  C   UNL     1     -11.306  73.827  28.880  1.00  0.00     0.027 C 
ENDROOT
BRANCH   1   2
ATOM      2  C   UNL     1     -10.081  74.555  28.307  1.00  0.00     0.004 C 
BRANCH   2   3
ATOM      3  C   UNL     1      -9.967  74.386  26.785  1.00  0.00    -0.003 C 
ATOM      4  C   UNL     1      -9.033  73.233  26.429  1.00  0.00     0.004 C 
ENDBRANCH   2   3
ENDBRANCH   1   2
BRANCH   1   5
ATOM      5  C   UNL     1     -11.256  73.712  30.379  1.00  0.00    -0.023 C 
ATOM      6  C   UNL     1     -11.138  72.526  30.985  1.00  0.00     0.042 C 
BRANCH   6   7
ATOM      7  C   UNL     1     -11.092  72.392  32.454  1.00  0.00     0.152 C 
ATOM      8  O   UNL     1     -10.283  71.596  33.004  1.00  0.00    -0.295 OA
ATOM      9  C   UNL     1     -12.019  73.203  33.299  1.00  0.00     0.093 C 
ENDBRANCH   6   7
ENDBRANCH   1   5
TORSDOF 4
ENDMDL
MODEL 9
REMARK VINA RESULT:    -4.151      6.011      8.384
REMARK INTER + INTRA:          -5.400
REMARK INTER:                  -5.246
REMARK INTRA:                  -0.153
REMARK UNBOUND:                -0.278
REMARK SMILES CCCCC=CC(C)=O
REMARK SMILES IDX 4 1 3 2 2 3 1 4 5 5 6 6 7 7 9 8 8 9
REMARK H PARENT
REMARK Flexibility Score: inf
ROOT
ATOM      1  C   UNL     1     -10.127  74.529  28.384  1.00  0.00     0.027 C 
ENDROOT
BRANCH   1   2
ATOM      2  C   UNL     1     -11.211  73.944  29.300  1.00  0.00     0.004 C 
BRANCH   2   3
ATOM      3  C   UNL     1     -10.975  74.300  30.775  1.00  0.00    -0.003 C 
ATOM      4  C   UNL     1      -9.521  74.691  31.021  1.00  0.00     0.004 C 
ENDBRANCH   2   3
ENDBRANCH   1   2
BRANCH   1   5
ATOM      5  C   UNL     1     -10.239  74.028  26.970  1.00  0.00    -0.023 C 
ATOM      6  C   UNL     1      -9.298  73.247  26.428  1.00  0.00     0.042 C 
BRANCH   6   7
ATOM      7  C   UNL     1      -9.387  72.750  25.043  1.00  0.00     0.152 C 
ATOM      8  O   UNL     1     -10.453  72.873  24.381  1.00  0.00    -0.295 OA
ATOM      9  C   UNL     1      -8.202  72.087  24.417  1.00  0.00     0.093 C 
ENDBRANCH   6   7
ENDBRANCH   1   5
TORSDOF 4
ENDMDL
