MODEL 1
REMARK VINA RESULT:    -2.785      0.000      0.000
REMARK INTER + INTRA:          -3.374
REMARK INTER:                  -3.273
REMARK INTRA:                  -0.101
REMARK UNBOUND:                -0.101
REMARK SMILES CCCCC(=O)[O-]
REMARK SMILES IDX 4 1 5 2 6 3 7 4 3 5 2 6 1 7
REMARK H PARENT
REMARK Flexibility Score: inf
ROOT
ATOM      1  C   UNL     1      -4.993   8.073  -1.490  1.00  0.00     0.053 C 
ENDROOT
BRANCH   1   2
ATOM      2  C   UNL     1      -3.919   8.643  -0.618  1.00  0.00     0.041 C 
ATOM      3  O   UNL     1      -2.727   8.260  -0.748  1.00  0.00    -0.550 OA
ATOM      4  O   UNL     1      -4.227   9.634   0.306  1.00  0.00    -0.550 OA
ENDBRANCH   1   2
BRANCH   1   5
ATOM      5  C   UNL     1      -4.920   8.683  -2.896  1.00  0.00     0.006 C 
BRANCH   5   6
ATOM      6  C   UNL     1      -4.599   7.637  -3.975  1.00  0.00    -0.003 C 
ATOM      7  C   UNL     1      -3.145   7.696  -4.443  1.00  0.00     0.004 C 
ENDBRANCH   5   6
ENDBRANCH   1   5
TORSDOF 3
ENDMDL
MODEL 2
REMARK VINA RESULT:    -2.753      2.434      4.019
REMARK INTER + INTRA:          -3.336
REMARK INTER:                  -3.314
REMARK INTRA:                  -0.022
REMARK UNBOUND:                -0.101
REMARK SMILES CCCCC(=O)[O-]
REMARK SMILES IDX 4 1 5 2 6 3 7 4 3 5 2 6 1 7
REMARK H PARENT
REMARK Flexibility Score: inf
ROOT
ATOM      1  C   UNL     1      -3.010   8.074  -1.829  1.00  0.00     0.053 C 
ENDROOT
BRANCH   1   2
ATOM      2  C   UNL     1      -4.437   8.051  -2.281  1.00  0.00     0.041 C 
ATOM      3  O   UNL     1      -5.356   8.401  -1.495  1.00  0.00    -0.550 OA
ATOM      4  O   UNL     1      -4.747   7.689  -3.586  1.00  0.00    -0.550 OA
ENDBRANCH   1   2
BRANCH   1   5
ATOM      5  C   UNL     1      -2.927   8.435  -0.340  1.00  0.00     0.006 C 
BRANCH   5   6
ATOM      6  C   UNL     1      -1.508   8.270   0.226  1.00  0.00    -0.003 C 
ATOM      7  C   UNL     1      -1.287   9.070   1.510  1.00  0.00     0.004 C 
ENDBRANCH   5   6
ENDBRANCH   1   5
TORSDOF 3
ENDMDL
MODEL 3
REMARK VINA RESULT:    -2.724      1.730      2.725
REMARK INTER + INTRA:          -3.302
REMARK INTER:                  -3.252
REMARK INTRA:                  -0.050
REMARK UNBOUND:                -0.101
REMARK SMILES CCCCC(=O)[O-]
REMARK SMILES IDX 4 1 5 2 6 3 7 4 3 5 2 6 1 7
REMARK H PARENT
REMARK Flexibility Score: inf
ROOT
ATOM      1  C   UNL     1      -4.459   7.595  -4.092  1.00  0.00     0.053 C 
ENDROOT
BRANCH   1   2
ATOM      2  C   UNL     1      -4.656   8.296  -2.784  1.00  0.00     0.041 C 
ATOM      3  O   UNL     1      -5.526   9.199  -2.674  1.00  0.00    -0.550 OA
ATOM      4  O   UNL     1      -3.912   7.918  -1.674  1.00  0.00    -0.550 OA
ENDBRANCH   1   2
BRANCH   1   5
ATOM      5  C   UNL     1      -3.164   8.070  -4.762  1.00  0.00     0.006 C 
BRANCH   5   6
ATOM      6  C   UNL     1      -2.000   7.088  -4.553  1.00  0.00    -0.003 C 
ATOM      7  C   UNL     1      -2.015   5.930  -5.549  1.00  0.00     0.004 C 
ENDBRANCH   5   6
ENDBRANCH   1   5
TORSDOF 3
ENDMDL
MODEL 4
REMARK VINA RESULT:    -2.722      2.026      3.577
REMARK INTER + INTRA:          -3.300
REMARK INTER:                  -3.193
REMARK INTRA:                  -0.107
REMARK UNBOUND:                -0.101
REMARK SMILES CCCCC(=O)[O-]
REMARK SMILES IDX 4 1 5 2 6 3 7 4 3 5 2 6 1 7
REMARK H PARENT
REMARK Flexibility Score: inf
ROOT
ATOM      1  C   UNL     1      -4.976   8.793  -2.649  1.00  0.00     0.053 C 
ENDROOT
BRANCH   1   2
ATOM      2  C   UNL     1      -4.093   8.005  -3.566  1.00  0.00     0.041 C 
ATOM      3  O   UNL     1      -4.584   7.404  -4.557  1.00  0.00    -0.550 OA
ATOM      4  O   UNL     1      -2.721   7.975  -3.352  1.00  0.00    -0.550 OA
ENDBRANCH   1   2
BRANCH   1   5
ATOM      5  C   UNL     1      -4.870   8.257  -1.215  1.00  0.00     0.006 C 
BRANCH   5   6
ATOM      6  C   UNL     1      -4.138   9.229  -0.277  1.00  0.00    -0.003 C 
ATOM      7  C   UNL     1      -2.748   8.735   0.121  1.00  0.00     0.004 C 
ENDBRANCH   5   6
ENDBRANCH   1   5
TORSDOF 3
ENDMDL
MODEL 5
REMARK VINA RESULT:    -2.690      2.164      3.724
REMARK INTER + INTRA:          -3.262
REMARK INTER:                  -3.162
REMARK INTRA:                  -0.100
REMARK UNBOUND:                -0.101
REMARK SMILES CCCCC(=O)[O-]
REMARK SMILES IDX 4 1 5 2 6 3 7 4 3 5 2 6 1 7
REMARK H PARENT
REMARK Flexibility Score: inf
ROOT
ATOM      1  C   UNL     1      -4.586   7.618  -3.993  1.00  0.00     0.053 C 
ENDROOT
BRANCH   1   2
ATOM      2  C   UNL     1      -3.132   7.638  -4.350  1.00  0.00     0.041 C 
ATOM      3  O   UNL     1      -2.388   8.560  -3.925  1.00  0.00    -0.550 OA
ATOM      4  O   UNL     1      -2.590   6.610  -5.111  1.00  0.00    -0.550 OA
ENDBRANCH   1   2
BRANCH   1   5
ATOM      5  C   UNL     1      -4.885   8.668  -2.915  1.00  0.00     0.006 C 
BRANCH   5   6
ATOM      6  C   UNL     1      -4.917   8.066  -1.501  1.00  0.00    -0.003 C 
ATOM      7  C   UNL     1      -3.955   8.762  -0.539  1.00  0.00     0.004 C 
ENDBRANCH   5   6
ENDBRANCH   1   5
TORSDOF 3
ENDMDL
MODEL 6
REMARK VINA RESULT:    -2.659      2.401      4.105
REMARK INTER + INTRA:          -3.226
REMARK INTER:                  -3.196
REMARK INTRA:                  -0.030
REMARK UNBOUND:                -0.101
REMARK SMILES CCCCC(=O)[O-]
REMARK SMILES IDX 4 1 5 2 6 3 7 4 3 5 2 6 1 7
REMARK H PARENT
REMARK Flexibility Score: inf
ROOT
ATOM      1  C   UNL     1      -3.783   9.285  -0.042  1.00  0.00     0.053 C 
ENDROOT
BRANCH   1   2
ATOM      2  C   UNL     1      -4.584   8.941  -1.258  1.00  0.00     0.041 C 
ATOM      3  O   UNL     1      -5.059   7.784  -1.399  1.00  0.00    -0.550 OA
ATOM      4  O   UNL     1      -4.847   9.914  -2.215  1.00  0.00    -0.550 OA
ENDBRANCH   1   2
BRANCH   1   5
ATOM      5  C   UNL     1      -2.476   8.481  -0.019  1.00  0.00     0.006 C 
BRANCH   5   6
ATOM      6  C   UNL     1      -1.525   8.938   1.099  1.00  0.00    -0.003 C 
ATOM      7  C   UNL     1      -2.146   9.996   2.010  1.00  0.00     0.004 C 
ENDBRANCH   5   6
ENDBRANCH   1   5
TORSDOF 3
ENDMDL
MODEL 7
REMARK VINA RESULT:    -2.594      3.125      4.518
REMARK INTER + INTRA:          -3.149
REMARK INTER:                  -3.101
REMARK INTRA:                  -0.048
REMARK UNBOUND:                -0.101
REMARK SMILES CCCCC(=O)[O-]
REMARK SMILES IDX 4 1 5 2 6 3 7 4 3 5 2 6 1 7
REMARK H PARENT
REMARK Flexibility Score: inf
ROOT
ATOM      1  C   UNL     1      -1.832   7.388  -5.216  1.00  0.00     0.053 C 
ENDROOT
BRANCH   1   2
ATOM      2  C   UNL     1      -3.026   7.598  -4.339  1.00  0.00     0.041 C 
ATOM      3  O   UNL     1      -4.151   7.146  -4.681  1.00  0.00    -0.550 OA
ATOM      4  O   UNL     1      -2.888   8.249  -3.120  1.00  0.00    -0.550 OA
ENDBRANCH   1   2
BRANCH   1   5
ATOM      5  C   UNL     1      -1.361   5.930  -5.138  1.00  0.00     0.006 C 
BRANCH   5   6
ATOM      6  C   UNL     1      -1.549   5.180  -6.466  1.00  0.00    -0.003 C 
ATOM      7  C   UNL     1      -1.672   3.668  -6.279  1.00  0.00     0.004 C 
ENDBRANCH   5   6
ENDBRANCH   1   5
TORSDOF 3
ENDMDL
MODEL 8
REMARK VINA RESULT:    -2.534     14.700     15.361
REMARK INTER + INTRA:          -3.079
REMARK INTER:                  -3.064
REMARK INTRA:                  -0.016
REMARK UNBOUND:                -0.101
REMARK SMILES CCCCC(=O)[O-]
REMARK SMILES IDX 4 1 5 2 6 3 7 4 3 5 2 6 1 7
REMARK H PARENT
REMARK Flexibility Score: inf
ROOT
ATOM      1  C   UNL     1     -19.186   9.757  -5.181  1.00  0.00     0.053 C 
ENDROOT
BRANCH   1   2
ATOM      2  C   UNL     1     -20.119   8.681  -5.640  1.00  0.00     0.041 C 
ATOM      3  O   UNL     1     -20.106   7.551  -5.085  1.00  0.00    -0.550 OA
ATOM      4  O   UNL     1     -21.038   8.941  -6.649  1.00  0.00    -0.550 OA
ENDBRANCH   1   2
BRANCH   1   5
ATOM      5  C   UNL     1     -17.894   9.731  -6.008  1.00  0.00     0.006 C 
BRANCH   5   6
ATOM      6  C   UNL     1     -16.761  10.538  -5.354  1.00  0.00    -0.003 C 
ATOM      7  C   UNL     1     -15.381   9.932  -5.606  1.00  0.00     0.004 C 
ENDBRANCH   5   6
ENDBRANCH   1   5
TORSDOF 3
ENDMDL
MODEL 9
REMARK VINA RESULT:    -2.529      4.522      5.810
REMARK INTER + INTRA:          -3.073
REMARK INTER:                  -3.046
REMARK INTRA:                  -0.028
REMARK UNBOUND:                -0.101
REMARK SMILES CCCCC(=O)[O-]
REMARK SMILES IDX 4 1 5 2 6 3 7 4 3 5 2 6 1 7
REMARK H PARENT
REMARK Flexibility Score: inf
ROOT
ATOM      1  C   UNL     1      -1.018   5.550  -5.381  1.00  0.00     0.053 C 
ENDROOT
BRANCH   1   2
ATOM      2  C   UNL     1      -1.936   6.712  -5.169  1.00  0.00     0.041 C 
ATOM      3  O   UNL     1      -3.175   6.526  -5.043  1.00  0.00    -0.550 OA
ATOM      4  O   UNL     1      -1.419   7.996  -5.062  1.00  0.00    -0.550 OA
ENDBRANCH   1   2
BRANCH   1   5
ATOM      5  C   UNL     1      -1.717   4.460  -6.204  1.00  0.00     0.006 C 
BRANCH   5   6
ATOM      6  C   UNL     1      -0.983   3.111  -6.137  1.00  0.00    -0.003 C 
ATOM      7  C   UNL     1      -1.258   2.351  -4.840  1.00  0.00     0.004 C 
ENDBRANCH   5   6
ENDBRANCH   1   5
TORSDOF 3
ENDMDL
