MODEL 1
REMARK VINA RESULT:    -3.165      0.000      0.000
REMARK INTER + INTRA:          -7.099
REMARK INTER:                  -5.571
REMARK INTRA:                  -1.528
REMARK UNBOUND:                -1.528
REMARK SMILES CCCCCCCCCCCCCCC(=O)[O-]
REMARK SMILES IDX 9 1 10 2 11 3 12 4 13 5 14 6 15 7 16 8 17 9 8 10 7 11 6 12
REMARK SMILES IDX 5 13 4 14 3 15 2 16 1 17
REMARK H PARENT
REMARK Flexibility Score: inf
ROOT
ATOM      1  C   UNL     1      25.525  40.542  24.992  1.00  0.00     0.000 C 
ENDROOT
BRANCH   1   2
ATOM      2  C   UNL     1      25.034  40.390  26.448  1.00  0.00     0.000 C 
BRANCH   2   3
ATOM      3  C   UNL     1      25.765  41.307  27.448  1.00  0.00     0.000 C 
BRANCH   3   4
ATOM      4  C   UNL     1      26.133  42.697  26.901  1.00  0.00     0.000 C 
BRANCH   4   5
ATOM      5  C   UNL     1      27.614  43.050  27.126  1.00  0.00     0.006 C 
BRANCH   5   6
ATOM      6  C   UNL     1      28.406  43.079  25.812  1.00  0.00     0.053 C 
BRANCH   6   7
ATOM      7  C   UNL     1      29.882  43.169  26.053  1.00  0.00     0.041 C 
ATOM      8  O   UNL     1      30.428  44.289  26.233  1.00  0.00    -0.550 OA
ATOM      9  O   UNL     1      30.660  42.018  26.046  1.00  0.00    -0.550 OA
ENDBRANCH   6   7
ENDBRANCH   5   6
ENDBRANCH   4   5
ENDBRANCH   3   4
ENDBRANCH   2   3
ENDBRANCH   1   2
BRANCH   1  10
ATOM     10  C   UNL     1      24.893  39.500  24.054  1.00  0.00     0.000 C 
BRANCH  10  11
ATOM     11  C   UNL     1      25.266  38.056  24.428  1.00  0.00    -0.000 C 
BRANCH  11  12
ATOM     12  C   UNL     1      26.786  37.820  24.433  1.00  0.00    -0.000 C 
BRANCH  12  13
ATOM     13  C   UNL     1      27.308  37.363  25.805  1.00  0.00    -0.000 C 
BRANCH  13  14
ATOM     14  C   UNL     1      26.182  36.877  26.733  1.00  0.00    -0.000 C 
BRANCH  14  15
ATOM     15  C   UNL     1      26.502  37.104  28.219  1.00  0.00    -0.000 C 
BRANCH  15  16
ATOM     16  C   UNL     1      25.351  37.780  28.978  1.00  0.00    -0.003 C 
ATOM     17  C   UNL     1      25.880  38.689  30.083  1.00  0.00     0.004 C 
ENDBRANCH  15  16
ENDBRANCH  14  15
ENDBRANCH  13  14
ENDBRANCH  12  13
ENDBRANCH  11  12
ENDBRANCH  10  11
ENDBRANCH   1  10
TORSDOF 13
ENDMDL
MODEL 2
REMARK VINA RESULT:    -3.154     16.647     18.537
REMARK INTER + INTRA:          -7.079
REMARK INTER:                  -4.890
REMARK INTRA:                  -2.189
REMARK UNBOUND:                -1.528
REMARK SMILES CCCCCCCCCCCCCCC(=O)[O-]
REMARK SMILES IDX 9 1 10 2 11 3 12 4 13 5 14 6 15 7 16 8 17 9 8 10 7 11 6 12
REMARK SMILES IDX 5 13 4 14 3 15 2 16 1 17
REMARK H PARENT
REMARK Flexibility Score: inf
ROOT
ATOM      1  C   UNL     1      30.904  51.272  38.380  1.00  0.00     0.000 C 
ENDROOT
BRANCH   1   2
ATOM      2  C   UNL     1      30.949  50.171  39.461  1.00  0.00     0.000 C 
BRANCH   2   3
ATOM      3  C   UNL     1      30.957  50.716  40.902  1.00  0.00     0.000 C 
BRANCH   3   4
ATOM      4  C   UNL     1      30.129  49.896  41.907  1.00  0.00     0.000 C 
BRANCH   4   5
ATOM      5  C   UNL     1      29.015  49.078  41.231  1.00  0.00     0.006 C 
BRANCH   5   6
ATOM      6  C   UNL     1      28.656  47.819  42.033  1.00  0.00     0.053 C 
BRANCH   6   7
ATOM      7  C   UNL     1      29.410  46.617  41.552  1.00  0.00     0.041 C 
ATOM      8  O   UNL     1      29.185  45.485  42.053  1.00  0.00    -0.550 OA
ATOM      9  O   UNL     1      30.385  46.754  40.571  1.00  0.00    -0.550 OA
ENDBRANCH   6   7
ENDBRANCH   5   6
ENDBRANCH   4   5
ENDBRANCH   3   4
ENDBRANCH   2   3
ENDBRANCH   1   2
BRANCH   1  10
ATOM     10  C   UNL     1      30.025  52.463  38.800  1.00  0.00     0.000 C 
BRANCH  10  11
ATOM     11  C   UNL     1      28.685  52.509  38.047  1.00  0.00    -0.000 C 
BRANCH  11  12
ATOM     12  C   UNL     1      27.554  51.797  38.809  1.00  0.00    -0.000 C 
BRANCH  12  13
ATOM     13  C   UNL     1      26.809  52.736  39.772  1.00  0.00    -0.000 C 
BRANCH  13  14
ATOM     14  C   UNL     1      26.697  52.156  41.193  1.00  0.00    -0.000 C 
BRANCH  14  15
ATOM     15  C   UNL     1      27.810  52.660  42.125  1.00  0.00    -0.000 C 
BRANCH  15  16
ATOM     16  C   UNL     1      28.321  54.056  41.738  1.00  0.00    -0.003 C 
ATOM     17  C   UNL     1      29.817  54.188  42.008  1.00  0.00     0.004 C 
ENDBRANCH  15  16
ENDBRANCH  14  15
ENDBRANCH  13  14
ENDBRANCH  12  13
ENDBRANCH  11  12
ENDBRANCH  10  11
ENDBRANCH   1  10
TORSDOF 13
ENDMDL
MODEL 3
REMARK VINA RESULT:    -3.031      2.412      5.700
REMARK INTER + INTRA:          -6.863
REMARK INTER:                  -5.622
REMARK INTRA:                  -1.241
REMARK UNBOUND:                -1.528
REMARK SMILES CCCCCCCCCCCCCCC(=O)[O-]
REMARK SMILES IDX 9 1 10 2 11 3 12 4 13 5 14 6 15 7 16 8 17 9 8 10 7 11 6 12
REMARK SMILES IDX 5 13 4 14 3 15 2 16 1 17
REMARK H PARENT
REMARK Flexibility Score: inf
ROOT
ATOM      1  C   UNL     1      25.718  40.392  28.059  1.00  0.00     0.000 C 
ENDROOT
BRANCH   1   2
ATOM      2  C   UNL     1      24.993  39.205  28.730  1.00  0.00     0.000 C 
BRANCH   2   3
ATOM      3  C   UNL     1      25.943  38.091  29.213  1.00  0.00     0.000 C 
BRANCH   3   4
ATOM      4  C   UNL     1      26.042  36.875  28.277  1.00  0.00     0.000 C 
BRANCH   4   5
ATOM      5  C   UNL     1      27.029  37.098  27.117  1.00  0.00     0.006 C 
BRANCH   5   6
ATOM      6  C   UNL     1      26.320  37.145  25.757  1.00  0.00     0.053 C 
BRANCH   6   7
ATOM      7  C   UNL     1      27.282  37.387  24.634  1.00  0.00     0.041 C 
ATOM      8  O   UNL     1      26.855  37.630  23.474  1.00  0.00    -0.550 OA
ATOM      9  O   UNL     1      28.651  37.313  24.862  1.00  0.00    -0.550 OA
ENDBRANCH   6   7
ENDBRANCH   5   6
ENDBRANCH   4   5
ENDBRANCH   3   4
ENDBRANCH   2   3
ENDBRANCH   1   2
BRANCH   1  10
ATOM     10  C   UNL     1      24.971  40.900  26.813  1.00  0.00     0.000 C 
BRANCH  10  11
ATOM     11  C   UNL     1      25.783  40.726  25.520  1.00  0.00    -0.000 C 
BRANCH  11  12
ATOM     12  C   UNL     1      26.379  42.050  25.013  1.00  0.00    -0.000 C 
BRANCH  12  13
ATOM     13  C   UNL     1      26.501  43.106  26.124  1.00  0.00    -0.000 C 
BRANCH  13  14
ATOM     14  C   UNL     1      27.954  43.555  26.356  1.00  0.00    -0.000 C 
BRANCH  14  15
ATOM     15  C   UNL     1      28.875  42.391  26.751  1.00  0.00    -0.000 C 
BRANCH  15  16
ATOM     16  C   UNL     1      30.343  42.642  26.376  1.00  0.00    -0.003 C 
ATOM     17  C   UNL     1      30.579  44.108  26.026  1.00  0.00     0.004 C 
ENDBRANCH  15  16
ENDBRANCH  14  15
ENDBRANCH  13  14
ENDBRANCH  12  13
ENDBRANCH  11  12
ENDBRANCH  10  11
ENDBRANCH   1  10
TORSDOF 13
ENDMDL
MODEL 4
REMARK VINA RESULT:    -2.953      1.180      3.200
REMARK INTER + INTRA:          -6.725
REMARK INTER:                  -5.644
REMARK INTRA:                  -1.080
REMARK UNBOUND:                -1.528
REMARK SMILES CCCCCCCCCCCCCCC(=O)[O-]
REMARK SMILES IDX 9 1 10 2 11 3 12 4 13 5 14 6 15 7 16 8 17 9 8 10 7 11 6 12
REMARK SMILES IDX 5 13 4 14 3 15 2 16 1 17
REMARK H PARENT
REMARK Flexibility Score: inf
ROOT
ATOM      1  C   UNL     1      26.013  41.071  27.864  1.00  0.00     0.000 C 
ENDROOT
BRANCH   1   2
ATOM      2  C   UNL     1      25.298  40.785  26.525  1.00  0.00     0.000 C 
BRANCH   2   3
ATOM      3  C   UNL     1      26.129  41.166  25.284  1.00  0.00     0.000 C 
BRANCH   3   4
ATOM      4  C   UNL     1      26.380  42.674  25.113  1.00  0.00     0.000 C 
BRANCH   4   5
ATOM      5  C   UNL     1      27.436  43.215  26.093  1.00  0.00     0.006 C 
BRANCH   5   6
ATOM      6  C   UNL     1      28.865  42.878  25.645  1.00  0.00     0.053 C 
BRANCH   6   7
ATOM      7  C   UNL     1      29.883  43.305  26.659  1.00  0.00     0.041 C 
ATOM      8  O   UNL     1      30.477  44.408  26.536  1.00  0.00    -0.550 OA
ATOM      9  O   UNL     1      30.198  42.468  27.723  1.00  0.00    -0.550 OA
ENDBRANCH   6   7
ENDBRANCH   5   6
ENDBRANCH   4   5
ENDBRANCH   3   4
ENDBRANCH   2   3
ENDBRANCH   1   2
BRANCH   1  10
ATOM     10  C   UNL     1      25.946  39.873  28.826  1.00  0.00     0.000 C 
BRANCH  10  11
ATOM     11  C   UNL     1      24.875  38.846  28.426  1.00  0.00    -0.000 C 
BRANCH  11  12
ATOM     12  C   UNL     1      25.405  37.401  28.439  1.00  0.00    -0.000 C 
BRANCH  12  13
ATOM     13  C   UNL     1      25.743  36.884  27.031  1.00  0.00    -0.000 C 
BRANCH  13  14
ATOM     14  C   UNL     1      27.254  36.897  26.744  1.00  0.00    -0.000 C 
BRANCH  14  15
ATOM     15  C   UNL     1      27.625  37.829  25.580  1.00  0.00    -0.000 C 
BRANCH  15  16
ATOM     16  C   UNL     1      26.927  37.444  24.266  1.00  0.00    -0.003 C 
ATOM     17  C   UNL     1      27.929  36.908  23.248  1.00  0.00     0.004 C 
ENDBRANCH  15  16
ENDBRANCH  14  15
ENDBRANCH  13  14
ENDBRANCH  12  13
ENDBRANCH  11  12
ENDBRANCH  10  11
ENDBRANCH   1  10
TORSDOF 13
ENDMDL
MODEL 5
REMARK VINA RESULT:    -2.940     17.001     18.258
REMARK INTER + INTRA:          -6.702
REMARK INTER:                  -5.320
REMARK INTRA:                  -1.382
REMARK UNBOUND:                -1.528
REMARK SMILES CCCCCCCCCCCCCCC(=O)[O-]
REMARK SMILES IDX 9 1 10 2 11 3 12 4 13 5 14 6 15 7 16 8 17 9 8 10 7 11 6 12
REMARK SMILES IDX 5 13 4 14 3 15 2 16 1 17
REMARK H PARENT
REMARK Flexibility Score: inf
ROOT
ATOM      1  C   UNL     1      30.273  51.205  38.377  1.00  0.00     0.000 C 
ENDROOT
BRANCH   1   2
ATOM      2  C   UNL     1      29.940  52.684  38.667  1.00  0.00     0.000 C 
BRANCH   2   3
ATOM      3  C   UNL     1      28.444  53.023  38.522  1.00  0.00     0.000 C 
BRANCH   3   4
ATOM      4  C   UNL     1      27.533  52.398  39.593  1.00  0.00     0.000 C 
BRANCH   4   5
ATOM      5  C   UNL     1      28.123  52.507  41.010  1.00  0.00     0.006 C 
BRANCH   5   6
ATOM      6  C   UNL     1      27.913  53.901  41.617  1.00  0.00     0.053 C 
BRANCH   6   7
ATOM      7  C   UNL     1      29.213  54.605  41.862  1.00  0.00     0.041 C 
ATOM      8  O   UNL     1      29.275  55.861  41.802  1.00  0.00    -0.550 OA
ATOM      9  O   UNL     1      30.363  53.871  42.125  1.00  0.00    -0.550 OA
ENDBRANCH   6   7
ENDBRANCH   5   6
ENDBRANCH   4   5
ENDBRANCH   3   4
ENDBRANCH   2   3
ENDBRANCH   1   2
BRANCH   1  10
ATOM     10  C   UNL     1      31.382  50.667  39.299  1.00  0.00     0.000 C 
BRANCH  10  11
ATOM     11  C   UNL     1      30.877  49.589  40.272  1.00  0.00    -0.000 C 
BRANCH  11  12
ATOM     12  C   UNL     1      29.361  49.352  40.157  1.00  0.00    -0.000 C 
BRANCH  12  13
ATOM     13  C   UNL     1      28.820  48.441  41.272  1.00  0.00    -0.000 C 
BRANCH  13  14
ATOM     14  C   UNL     1      29.925  47.602  41.937  1.00  0.00    -0.000 C 
BRANCH  14  15
ATOM     15  C   UNL     1      29.981  46.165  41.395  1.00  0.00    -0.000 C 
BRANCH  15  16
ATOM     16  C   UNL     1      31.369  45.527  41.546  1.00  0.00    -0.003 C 
ATOM     17  C   UNL     1      32.392  46.546  42.041  1.00  0.00     0.004 C 
ENDBRANCH  15  16
ENDBRANCH  14  15
ENDBRANCH  13  14
ENDBRANCH  12  13
ENDBRANCH  11  12
ENDBRANCH  10  11
ENDBRANCH   1  10
TORSDOF 13
ENDMDL
MODEL 6
REMARK VINA RESULT:    -2.757      1.510      2.683
REMARK INTER + INTRA:          -6.381
REMARK INTER:                  -5.317
REMARK INTRA:                  -1.064
REMARK UNBOUND:                -1.528
REMARK SMILES CCCCCCCCCCCCCCC(=O)[O-]
REMARK SMILES IDX 9 1 10 2 11 3 12 4 13 5 14 6 15 7 16 8 17 9 8 10 7 11 6 12
REMARK SMILES IDX 5 13 4 14 3 15 2 16 1 17
REMARK H PARENT
REMARK Flexibility Score: inf
ROOT
ATOM      1  C   UNL     1      26.748  39.147  26.115  1.00  0.00     0.000 C 
ENDROOT
BRANCH   1   2
ATOM      2  C   UNL     1      25.491  40.027  25.943  1.00  0.00     0.000 C 
BRANCH   2   3
ATOM      3  C   UNL     1      25.645  41.448  26.518  1.00  0.00     0.000 C 
BRANCH   3   4
ATOM      4  C   UNL     1      27.019  41.748  27.141  1.00  0.00     0.000 C 
BRANCH   4   5
ATOM      5  C   UNL     1      27.478  43.197  26.898  1.00  0.00     0.006 C 
BRANCH   5   6
ATOM      6  C   UNL     1      28.602  43.279  25.856  1.00  0.00     0.053 C 
BRANCH   6   7
ATOM      7  C   UNL     1      29.954  43.335  26.499  1.00  0.00     0.041 C 
ATOM      8  O   UNL     1      30.715  44.316  26.290  1.00  0.00    -0.550 OA
ATOM      9  O   UNL     1      30.387  42.288  27.303  1.00  0.00    -0.550 OA
ENDBRANCH   6   7
ENDBRANCH   5   6
ENDBRANCH   4   5
ENDBRANCH   3   4
ENDBRANCH   2   3
ENDBRANCH   1   2
BRANCH   1  10
ATOM     10  C   UNL     1      26.424  37.792  26.768  1.00  0.00     0.000 C 
BRANCH  10  11
ATOM     11  C   UNL     1      24.972  37.701  27.263  1.00  0.00    -0.000 C 
BRANCH  11  12
ATOM     12  C   UNL     1      24.875  37.527  28.789  1.00  0.00    -0.000 C 
BRANCH  12  13
ATOM     13  C   UNL     1      26.241  37.250  29.438  1.00  0.00    -0.000 C 
BRANCH  13  14
ATOM     14  C   UNL     1      26.613  38.296  30.503  1.00  0.00    -0.000 C 
BRANCH  14  15
ATOM     15  C   UNL     1      26.830  37.674  31.891  1.00  0.00    -0.000 C 
BRANCH  15  16
ATOM     16  C   UNL     1      25.513  37.399  32.631  1.00  0.00    -0.003 C 
ATOM     17  C   UNL     1      24.900  38.691  33.161  1.00  0.00     0.004 C 
ENDBRANCH  15  16
ENDBRANCH  14  15
ENDBRANCH  13  14
ENDBRANCH  12  13
ENDBRANCH  11  12
ENDBRANCH  10  11
ENDBRANCH   1  10
TORSDOF 13
ENDMDL
MODEL 7
REMARK VINA RESULT:    -2.744      2.057      3.709
REMARK INTER + INTRA:          -6.357
REMARK INTER:                  -5.460
REMARK INTRA:                  -0.897
REMARK UNBOUND:                -1.528
REMARK SMILES CCCCCCCCCCCCCCC(=O)[O-]
REMARK SMILES IDX 9 1 10 2 11 3 12 4 13 5 14 6 15 7 16 8 17 9 8 10 7 11 6 12
REMARK SMILES IDX 5 13 4 14 3 15 2 16 1 17
REMARK H PARENT
REMARK Flexibility Score: inf
ROOT
ATOM      1  C   UNL     1      24.938  40.230  25.695  1.00  0.00     0.000 C 
ENDROOT
BRANCH   1   2
ATOM      2  C   UNL     1      25.965  40.021  26.828  1.00  0.00     0.000 C 
BRANCH   2   3
ATOM      3  C   UNL     1      26.348  41.319  27.565  1.00  0.00     0.000 C 
BRANCH   3   4
ATOM      4  C   UNL     1      26.301  42.591  26.701  1.00  0.00     0.000 C 
BRANCH   4   5
ATOM      5  C   UNL     1      27.611  43.396  26.758  1.00  0.00     0.006 C 
BRANCH   5   6
ATOM      6  C   UNL     1      28.728  42.740  25.934  1.00  0.00     0.053 C 
BRANCH   6   7
ATOM      7  C   UNL     1      30.087  43.170  26.394  1.00  0.00     0.041 C 
ATOM      8  O   UNL     1      31.019  42.330  26.494  1.00  0.00    -0.550 OA
ATOM      9  O   UNL     1      30.317  44.496  26.743  1.00  0.00    -0.550 OA
ENDBRANCH   6   7
ENDBRANCH   5   6
ENDBRANCH   4   5
ENDBRANCH   3   4
ENDBRANCH   2   3
ENDBRANCH   1   2
BRANCH   1  10
ATOM     10  C   UNL     1      24.897  39.039  24.721  1.00  0.00     0.000 C 
BRANCH  10  11
ATOM     11  C   UNL     1      26.033  38.033  24.961  1.00  0.00    -0.000 C 
BRANCH  11  12
ATOM     12  C   UNL     1      26.181  37.021  23.812  1.00  0.00    -0.000 C 
BRANCH  12  13
ATOM     13  C   UNL     1      27.635  36.884  23.330  1.00  0.00    -0.000 C 
BRANCH  13  14
ATOM     14  C   UNL     1      28.653  37.364  24.379  1.00  0.00    -0.000 C 
BRANCH  14  15
ATOM     15  C   UNL     1      30.097  36.985  24.016  1.00  0.00    -0.000 C 
BRANCH  15  16
ATOM     16  C   UNL     1      30.320  36.879  22.500  1.00  0.00    -0.003 C 
ATOM     17  C   UNL     1      31.779  37.137  22.139  1.00  0.00     0.004 C 
ENDBRANCH  15  16
ENDBRANCH  14  15
ENDBRANCH  13  14
ENDBRANCH  12  13
ENDBRANCH  11  12
ENDBRANCH  10  11
ENDBRANCH   1  10
TORSDOF 13
ENDMDL
MODEL 8
REMARK VINA RESULT:    -2.699     16.642     18.580
REMARK INTER + INTRA:          -6.278
REMARK INTER:                  -4.760
REMARK INTRA:                  -1.518
REMARK UNBOUND:                -1.528
REMARK SMILES CCCCCCCCCCCCCCC(=O)[O-]
REMARK SMILES IDX 9 1 10 2 11 3 12 4 13 5 14 6 15 7 16 8 17 9 8 10 7 11 6 12
REMARK SMILES IDX 5 13 4 14 3 15 2 16 1 17
REMARK H PARENT
REMARK Flexibility Score: inf
ROOT
ATOM      1  C   UNL     1      29.864  51.761  38.013  1.00  0.00     0.000 C 
ENDROOT
BRANCH   1   2
ATOM      2  C   UNL     1      29.344  50.777  39.084  1.00  0.00     0.000 C 
BRANCH   2   3
ATOM      3  C   UNL     1      30.444  49.884  39.691  1.00  0.00     0.000 C 
BRANCH   3   4
ATOM      4  C   UNL     1      30.700  50.106  41.191  1.00  0.00     0.000 C 
BRANCH   4   5
ATOM      5  C   UNL     1      30.132  48.973  42.065  1.00  0.00     0.006 C 
BRANCH   5   6
ATOM      6  C   UNL     1      29.514  47.849  41.221  1.00  0.00     0.053 C 
BRANCH   6   7
ATOM      7  C   UNL     1      30.247  46.554  41.394  1.00  0.00     0.041 C 
ATOM      8  O   UNL     1      31.472  46.477  41.115  1.00  0.00    -0.550 OA
ATOM      9  O   UNL     1      29.569  45.424  41.834  1.00  0.00    -0.550 OA
ENDBRANCH   6   7
ENDBRANCH   5   6
ENDBRANCH   4   5
ENDBRANCH   3   4
ENDBRANCH   2   3
ENDBRANCH   1   2
BRANCH   1  10
ATOM     10  C   UNL     1      29.149  53.122  38.079  1.00  0.00     0.000 C 
BRANCH  10  11
ATOM     11  C   UNL     1      28.203  53.241  39.286  1.00  0.00    -0.000 C 
BRANCH  11  12
ATOM     12  C   UNL     1      28.654  54.319  40.287  1.00  0.00    -0.000 C 
BRANCH  12  13
ATOM     13  C   UNL     1      29.120  53.724  41.626  1.00  0.00    -0.000 C 
BRANCH  13  14
ATOM     14  C   UNL     1      28.251  52.538  42.080  1.00  0.00    -0.000 C 
BRANCH  14  15
ATOM     15  C   UNL     1      26.755  52.887  42.123  1.00  0.00    -0.000 C 
BRANCH  15  16
ATOM     16  C   UNL     1      25.854  51.648  42.019  1.00  0.00    -0.003 C 
ATOM     17  C   UNL     1      26.670  50.363  42.125  1.00  0.00     0.004 C 
ENDBRANCH  15  16
ENDBRANCH  14  15
ENDBRANCH  13  14
ENDBRANCH  12  13
ENDBRANCH  11  12
ENDBRANCH  10  11
ENDBRANCH   1  10
TORSDOF 13
ENDMDL
MODEL 9
REMARK VINA RESULT:    -2.664      2.961      6.198
REMARK INTER + INTRA:          -6.216
REMARK INTER:                  -4.858
REMARK INTRA:                  -1.358
REMARK UNBOUND:                -1.528
REMARK SMILES CCCCCCCCCCCCCCC(=O)[O-]
REMARK SMILES IDX 9 1 10 2 11 3 12 4 13 5 14 6 15 7 16 8 17 9 8 10 7 11 6 12
REMARK SMILES IDX 5 13 4 14 3 15 2 16 1 17
REMARK H PARENT
REMARK Flexibility Score: inf
ROOT
ATOM      1  C   UNL     1      24.875  40.091  25.928  1.00  0.00     0.000 C 
ENDROOT
BRANCH   1   2
ATOM      2  C   UNL     1      25.786  39.140  25.122  1.00  0.00     0.000 C 
BRANCH   2   3
ATOM      3  C   UNL     1      26.841  38.417  25.980  1.00  0.00     0.000 C 
BRANCH   3   4
ATOM      4  C   UNL     1      26.322  37.185  26.741  1.00  0.00     0.000 C 
BRANCH   4   5
ATOM      5  C   UNL     1      26.691  37.211  28.235  1.00  0.00     0.006 C 
BRANCH   5   6
ATOM      6  C   UNL     1      25.453  37.335  29.133  1.00  0.00     0.053 C 
BRANCH   6   7
ATOM      7  C   UNL     1      25.819  37.687  30.542  1.00  0.00     0.041 C 
ATOM      8  O   UNL     1      26.961  38.145  30.805  1.00  0.00    -0.550 OA
ATOM      9  O   UNL     1      24.907  37.481  31.571  1.00  0.00    -0.550 OA
ENDBRANCH   6   7
ENDBRANCH   5   6
ENDBRANCH   4   5
ENDBRANCH   3   4
ENDBRANCH   2   3
ENDBRANCH   1   2
BRANCH   1  10
ATOM     10  C   UNL     1      25.555  40.599  27.211  1.00  0.00     0.000 C 
BRANCH  10  11
ATOM     11  C   UNL     1      25.217  42.065  27.526  1.00  0.00    -0.000 C 
BRANCH  11  12
ATOM     12  C   UNL     1      26.353  43.029  27.145  1.00  0.00    -0.000 C 
BRANCH  12  13
ATOM     13  C   UNL     1      26.697  42.975  25.647  1.00  0.00    -0.000 C 
BRANCH  13  14
ATOM     14  C   UNL     1      28.131  42.483  25.387  1.00  0.00    -0.000 C 
BRANCH  14  15
ATOM     15  C   UNL     1      28.904  42.207  26.686  1.00  0.00    -0.000 C 
BRANCH  15  16
ATOM     16  C   UNL     1      30.333  42.770  26.656  1.00  0.00    -0.003 C 
ATOM     17  C   UNL     1      30.331  44.261  26.332  1.00  0.00     0.004 C 
ENDBRANCH  15  16
ENDBRANCH  14  15
ENDBRANCH  13  14
ENDBRANCH  12  13
ENDBRANCH  11  12
ENDBRANCH  10  11
ENDBRANCH   1  10
TORSDOF 13
ENDMDL
