MODEL 1
REMARK VINA RESULT:    -3.843      0.000      0.000
REMARK INTER + INTRA:          -5.156
REMARK INTER:                  -4.967
REMARK INTRA:                  -0.190
REMARK UNBOUND:                -0.190
REMARK SMILES CCCCCCC(=O)[O-]
REMARK SMILES IDX 5 1 6 2 7 3 8 4 9 5 4 6 3 7 2 8 1 9
REMARK H PARENT
REMARK Flexibility Score: inf
ROOT
ATOM      1  C   UNL     1      -7.524  26.749   2.863  1.00  0.00     0.006 C 
ENDROOT
BRANCH   1   2
ATOM      2  C   UNL     1      -6.831  26.026   1.704  1.00  0.00     0.053 C 
BRANCH   2   3
ATOM      3  C   UNL     1      -7.560  24.765   1.363  1.00  0.00     0.041 C 
ATOM      4  O   UNL     1      -6.956  23.660   1.375  1.00  0.00    -0.550 OA
ATOM      5  O   UNL     1      -8.919  24.803   1.078  1.00  0.00    -0.550 OA
ENDBRANCH   2   3
ENDBRANCH   1   2
BRANCH   1   6
ATOM      6  C   UNL     1      -7.565  25.863   4.117  1.00  0.00     0.000 C 
BRANCH   6   7
ATOM      7  C   UNL     1      -6.586  26.330   5.206  1.00  0.00    -0.000 C 
BRANCH   7   8
ATOM      8  C   UNL     1      -7.087  26.018   6.624  1.00  0.00    -0.003 C 
ATOM      9  C   UNL     1      -8.542  25.559   6.603  1.00  0.00     0.004 C 
ENDBRANCH   7   8
ENDBRANCH   6   7
ENDBRANCH   1   6
TORSDOF 5
ENDMDL
MODEL 2
REMARK VINA RESULT:    -3.431      1.576      2.163
REMARK INTER + INTRA:          -4.624
REMARK INTER:                  -4.470
REMARK INTRA:                  -0.153
REMARK UNBOUND:                -0.190
REMARK SMILES CCCCCCC(=O)[O-]
REMARK SMILES IDX 5 1 6 2 7 3 8 4 9 5 4 6 3 7 2 8 1 9
REMARK H PARENT
REMARK Flexibility Score: inf
ROOT
ATOM      1  C   UNL     1      -8.453  25.747   3.024  1.00  0.00     0.006 C 
ENDROOT
BRANCH   1   2
ATOM      2  C   UNL     1      -7.704  25.076   1.870  1.00  0.00     0.053 C 
BRANCH   2   3
ATOM      3  C   UNL     1      -6.446  25.823   1.556  1.00  0.00     0.041 C 
ATOM      4  O   UNL     1      -6.502  26.999   1.107  1.00  0.00    -0.550 OA
ATOM      5  O   UNL     1      -5.210  25.240   1.806  1.00  0.00    -0.550 OA
ENDBRANCH   2   3
ENDBRANCH   1   2
BRANCH   1   6
ATOM      6  C   UNL     1      -7.562  25.855   4.270  1.00  0.00     0.000 C 
BRANCH   6   7
ATOM      7  C   UNL     1      -8.316  25.525   5.568  1.00  0.00    -0.000 C 
BRANCH   7   8
ATOM      8  C   UNL     1      -7.436  25.679   6.818  1.00  0.00    -0.003 C 
ATOM      9  C   UNL     1      -6.357  26.737   6.603  1.00  0.00     0.004 C 
ENDBRANCH   7   8
ENDBRANCH   6   7
ENDBRANCH   1   6
TORSDOF 5
ENDMDL
MODEL 3
REMARK VINA RESULT:    -3.294      2.662      4.076
REMARK INTER + INTRA:          -4.446
REMARK INTER:                  -4.265
REMARK INTRA:                  -0.181
REMARK UNBOUND:                -0.190
REMARK SMILES CCCCCCC(=O)[O-]
REMARK SMILES IDX 5 1 6 2 7 3 8 4 9 5 4 6 3 7 2 8 1 9
REMARK H PARENT
REMARK Flexibility Score: inf
ROOT
ATOM      1  C   UNL     1      -5.889  26.497   2.297  1.00  0.00     0.006 C 
ENDROOT
BRANCH   1   2
ATOM      2  C   UNL     1      -7.296  26.009   2.656  1.00  0.00     0.053 C 
BRANCH   2   3
ATOM      3  C   UNL     1      -7.684  24.849   1.794  1.00  0.00     0.041 C 
ATOM      4  O   UNL     1      -8.775  24.863   1.166  1.00  0.00    -0.550 OA
ATOM      5  O   UNL     1      -6.818  23.773   1.645  1.00  0.00    -0.550 OA
ENDBRANCH   2   3
ENDBRANCH   1   2
BRANCH   1   6
ATOM      6  C   UNL     1      -4.913  26.264   3.459  1.00  0.00     0.000 C 
BRANCH   6   7
ATOM      7  C   UNL     1      -3.554  25.718   2.991  1.00  0.00    -0.000 C 
BRANCH   7   8
ATOM      8  C   UNL     1      -2.663  26.804   2.369  1.00  0.00    -0.003 C 
ATOM      9  C   UNL     1      -1.912  26.268   1.154  1.00  0.00     0.004 C 
ENDBRANCH   7   8
ENDBRANCH   6   7
ENDBRANCH   1   6
TORSDOF 5
ENDMDL
MODEL 4
REMARK VINA RESULT:    -3.293      2.705      3.966
REMARK INTER + INTRA:          -4.445
REMARK INTER:                  -4.077
REMARK INTRA:                  -0.368
REMARK UNBOUND:                -0.190
REMARK SMILES CCCCCCC(=O)[O-]
REMARK SMILES IDX 5 1 6 2 7 3 8 4 9 5 4 6 3 7 2 8 1 9
REMARK H PARENT
REMARK Flexibility Score: inf
ROOT
ATOM      1  C   UNL     1      -6.267  24.568   1.317  1.00  0.00     0.006 C 
ENDROOT
BRANCH   1   2
ATOM      2  C   UNL     1      -7.042  24.586   2.637  1.00  0.00     0.053 C 
BRANCH   2   3
ATOM      3  C   UNL     1      -7.673  25.925   2.856  1.00  0.00     0.041 C 
ATOM      4  O   UNL     1      -8.618  26.053   3.679  1.00  0.00    -0.550 OA
ATOM      5  O   UNL     1      -7.186  27.041   2.188  1.00  0.00    -0.550 OA
ENDBRANCH   2   3
ENDBRANCH   1   2
BRANCH   1   6
ATOM      6  C   UNL     1      -4.836  24.049   1.526  1.00  0.00     0.000 C 
BRANCH   6   7
ATOM      7  C   UNL     1      -3.794  25.179   1.558  1.00  0.00    -0.000 C 
BRANCH   7   8
ATOM      8  C   UNL     1      -3.399  25.577   2.988  1.00  0.00    -0.003 C 
ATOM      9  C   UNL     1      -3.746  27.036   3.268  1.00  0.00     0.004 C 
ENDBRANCH   7   8
ENDBRANCH   6   7
ENDBRANCH   1   6
TORSDOF 5
ENDMDL
MODEL 5
REMARK VINA RESULT:    -3.265      2.571      3.550
REMARK INTER + INTRA:          -4.409
REMARK INTER:                  -4.207
REMARK INTRA:                  -0.202
REMARK UNBOUND:                -0.190
REMARK SMILES CCCCCCC(=O)[O-]
REMARK SMILES IDX 5 1 6 2 7 3 8 4 9 5 4 6 3 7 2 8 1 9
REMARK H PARENT
REMARK Flexibility Score: inf
ROOT
ATOM      1  C   UNL     1      -5.932  26.452   2.071  1.00  0.00     0.006 C 
ENDROOT
BRANCH   1   2
ATOM      2  C   UNL     1      -7.342  25.909   2.320  1.00  0.00     0.053 C 
BRANCH   2   3
ATOM      3  C   UNL     1      -7.561  24.646   1.547  1.00  0.00     0.041 C 
ATOM      4  O   UNL     1      -6.766  23.678   1.676  1.00  0.00    -0.550 OA
ATOM      5  O   UNL     1      -8.671  24.521   0.722  1.00  0.00    -0.550 OA
ENDBRANCH   2   3
ENDBRANCH   1   2
BRANCH   1   6
ATOM      6  C   UNL     1      -5.047  26.275   3.314  1.00  0.00     0.000 C 
BRANCH   6   7
ATOM      7  C   UNL     1      -3.669  25.681   2.982  1.00  0.00    -0.000 C 
BRANCH   7   8
ATOM      8  C   UNL     1      -2.682  26.735   2.459  1.00  0.00    -0.003 C 
ATOM      9  C   UNL     1      -2.682  27.976   3.347  1.00  0.00     0.004 C 
ENDBRANCH   7   8
ENDBRANCH   6   7
ENDBRANCH   1   6
TORSDOF 5
ENDMDL
MODEL 6
REMARK VINA RESULT:    -3.260      2.857      4.182
REMARK INTER + INTRA:          -4.402
REMARK INTER:                  -4.031
REMARK INTRA:                  -0.372
REMARK UNBOUND:                -0.190
REMARK SMILES CCCCCCC(=O)[O-]
REMARK SMILES IDX 5 1 6 2 7 3 8 4 9 5 4 6 3 7 2 8 1 9
REMARK H PARENT
REMARK Flexibility Score: inf
ROOT
ATOM      1  C   UNL     1      -7.358  25.909   2.490  1.00  0.00     0.006 C 
ENDROOT
BRANCH   1   2
ATOM      2  C   UNL     1      -8.293  25.879   3.702  1.00  0.00     0.053 C 
BRANCH   2   3
ATOM      3  C   UNL     1      -7.503  25.876   4.973  1.00  0.00     0.041 C 
ATOM      4  O   UNL     1      -6.353  26.388   5.006  1.00  0.00    -0.550 OA
ATOM      5  O   UNL     1      -8.056  25.350   6.134  1.00  0.00    -0.550 OA
ENDBRANCH   2   3
ENDBRANCH   1   2
BRANCH   1   6
ATOM      6  C   UNL     1      -6.969  24.487   2.060  1.00  0.00     0.000 C 
BRANCH   6   7
ATOM      7  C   UNL     1      -5.447  24.274   2.024  1.00  0.00    -0.000 C 
BRANCH   7   8
ATOM      8  C   UNL     1      -4.667  25.595   1.941  1.00  0.00    -0.003 C 
ATOM      9  C   UNL     1      -3.530  25.626   2.958  1.00  0.00     0.004 C 
ENDBRANCH   7   8
ENDBRANCH   6   7
ENDBRANCH   1   6
TORSDOF 5
ENDMDL
MODEL 7
REMARK VINA RESULT:    -3.233      2.767      3.204
REMARK INTER + INTRA:          -4.367
REMARK INTER:                  -4.214
REMARK INTRA:                  -0.153
REMARK UNBOUND:                -0.190
REMARK SMILES CCCCCCC(=O)[O-]
REMARK SMILES IDX 5 1 6 2 7 3 8 4 9 5 4 6 3 7 2 8 1 9
REMARK H PARENT
REMARK Flexibility Score: inf
ROOT
ATOM      1  C   UNL     1      -5.879  25.875   2.998  1.00  0.00     0.006 C 
ENDROOT
BRANCH   1   2
ATOM      2  C   UNL     1      -5.082  24.993   2.032  1.00  0.00     0.053 C 
BRANCH   2   3
ATOM      3  C   UNL     1      -3.623  25.315   2.110  1.00  0.00     0.041 C 
ATOM      4  O   UNL     1      -2.917  25.318   1.067  1.00  0.00    -0.550 OA
ATOM      5  O   UNL     1      -3.052  25.660   3.328  1.00  0.00    -0.550 OA
ENDBRANCH   2   3
ENDBRANCH   1   2
BRANCH   1   6
ATOM      6  C   UNL     1      -7.228  25.230   3.346  1.00  0.00     0.000 C 
BRANCH   6   7
ATOM      7  C   UNL     1      -7.980  25.987   4.452  1.00  0.00    -0.000 C 
BRANCH   7   8
ATOM      8  C   UNL     1      -7.649  25.463   5.858  1.00  0.00    -0.003 C 
ATOM      9  C   UNL     1      -6.760  26.445   6.615  1.00  0.00     0.004 C 
ENDBRANCH   7   8
ENDBRANCH   6   7
ENDBRANCH   1   6
TORSDOF 5
ENDMDL
MODEL 8
REMARK VINA RESULT:    -3.221      8.555     10.936
REMARK INTER + INTRA:          -4.352
REMARK INTER:                  -4.027
REMARK INTRA:                  -0.325
REMARK UNBOUND:                -0.190
REMARK SMILES CCCCCCC(=O)[O-]
REMARK SMILES IDX 5 1 6 2 7 3 8 4 9 5 4 6 3 7 2 8 1 9
REMARK H PARENT
REMARK Flexibility Score: inf
ROOT
ATOM      1  C   UNL     1     -12.691  24.052  -5.242  1.00  0.00     0.006 C 
ENDROOT
BRANCH   1   2
ATOM      2  C   UNL     1     -11.309  24.690  -5.410  1.00  0.00     0.053 C 
BRANCH   2   3
ATOM      3  C   UNL     1     -10.896  25.385  -4.151  1.00  0.00     0.041 C 
ATOM      4  O   UNL     1     -10.494  26.578  -4.187  1.00  0.00    -0.550 OA
ATOM      5  O   UNL     1     -11.000  24.730  -2.930  1.00  0.00    -0.550 OA
ENDBRANCH   2   3
ENDBRANCH   1   2
BRANCH   1   6
ATOM      6  C   UNL     1     -13.799  25.113  -5.318  1.00  0.00     0.000 C 
BRANCH   6   7
ATOM      7  C   UNL     1     -14.547  25.095  -6.660  1.00  0.00    -0.000 C 
BRANCH   7   8
ATOM      8  C   UNL     1     -14.551  26.466  -7.353  1.00  0.00    -0.003 C 
ATOM      9  C   UNL     1     -13.654  27.456  -6.616  1.00  0.00     0.004 C 
ENDBRANCH   7   8
ENDBRANCH   6   7
ENDBRANCH   1   6
TORSDOF 5
ENDMDL
MODEL 9
REMARK VINA RESULT:    -3.204      3.843      5.738
REMARK INTER + INTRA:          -4.330
REMARK INTER:                  -4.247
REMARK INTRA:                  -0.082
REMARK UNBOUND:                -0.190
REMARK SMILES CCCCCCC(=O)[O-]
REMARK SMILES IDX 5 1 6 2 7 3 8 4 9 5 4 6 3 7 2 8 1 9
REMARK H PARENT
REMARK Flexibility Score: inf
ROOT
ATOM      1  C   UNL     1      -5.251  24.006   1.470  1.00  0.00     0.006 C 
ENDROOT
BRANCH   1   2
ATOM      2  C   UNL     1      -6.176  25.066   0.867  1.00  0.00     0.053 C 
BRANCH   2   3
ATOM      3  C   UNL     1      -7.607  24.742   1.162  1.00  0.00     0.041 C 
ATOM      4  O   UNL     1      -8.159  23.753   0.612  1.00  0.00    -0.550 OA
ATOM      5  O   UNL     1      -8.317  25.504   2.081  1.00  0.00    -0.550 OA
ENDBRANCH   2   3
ENDBRANCH   1   2
BRANCH   1   6
ATOM      6  C   UNL     1      -3.968  23.859   0.639  1.00  0.00     0.000 C 
BRANCH   6   7
ATOM      7  C   UNL     1      -3.822  22.462   0.014  1.00  0.00    -0.000 C 
BRANCH   7   8
ATOM      8  C   UNL     1      -2.355  22.061  -0.202  1.00  0.00    -0.003 C 
ATOM      9  C   UNL     1      -2.204  20.544  -0.263  1.00  0.00     0.004 C 
ENDBRANCH   7   8
ENDBRANCH   6   7
ENDBRANCH   1   6
TORSDOF 5
ENDMDL
