MODEL 1
REMARK VINA RESULT:    -7.340      0.000      0.000
REMARK INTER + INTRA:         -13.057
REMARK INTER:                 -11.416
REMARK INTRA:                  -1.641
REMARK UNBOUND:                -1.641
REMARK SMILES C[C@@]12C[C@@]3(O)O[C@@H](O1)[C@]1(COC(=O)c4ccccc4)[C@H]3C[C@@]12O[C@@H]1O[C@@H](CO)[C@H](O)[C@H](O)[C@H]1O
REMARK SMILES IDX 1 1 2 2 3 3 4 4 20 5 21 6 22 7 9 8 7 9 8 10 6 11 23 12 24 13
REMARK SMILES IDX 33 14 25 15 31 16 26 17 29 18 34 19 32 21 27 23 28 24 30 26
REMARK SMILES IDX 5 28 10 30 11 31 12 32 13 33 14 34 15 35 19 36 16 37 18 38
REMARK SMILES IDX 17 39
REMARK H PARENT 34 20 32 22 28 25 30 27 5 29
REMARK Flexibility Score: inf
ROOT
ATOM      1  C   UNL     1      -0.217   1.435 -27.146  1.00  0.00     0.046 C 
ATOM      2  C   UNL     1      -0.537   1.103 -25.688  1.00  0.00     0.104 C 
ATOM      3  C   UNL     1      -1.963   0.457 -25.551  1.00  0.00     0.104 C 
ATOM      4  C   UNL     1      -2.136   0.283 -24.002  1.00  0.00     0.175 C 
ATOM      5  C   UNL     1      -1.770   1.608 -23.257  1.00  0.00     0.070 C 
ATOM      6  C   UNL     1      -1.768   2.837 -24.185  1.00  0.00     0.050 C 
ATOM      7  C   UNL     1      -0.396   2.322 -24.697  1.00  0.00     0.115 C 
ATOM      8  C   UNL     1      -0.252   1.523 -23.399  1.00  0.00     0.096 C 
ATOM      9  C   UNL     1       0.066   0.093 -23.801  1.00  0.00     0.267 C 
ATOM     10  O   UNL     1       0.366   0.136 -25.186  1.00  0.00    -0.342 OA
ATOM     11  O   UNL     1      -1.137  -0.634 -23.606  1.00  0.00    -0.320 OA
ENDROOT
BRANCH   7  12
ATOM     12  O   UNL     1       0.711   3.178 -24.993  1.00  0.00    -0.339 OA
BRANCH  12  13
ATOM     13  C   UNL     1       0.376   4.534 -25.245  1.00  0.00     0.282 C 
ATOM     14  C   UNL     1       1.232   5.466 -24.359  1.00  0.00     0.202 C 
ATOM     15  O   UNL     1       0.498   4.870 -26.620  1.00  0.00    -0.341 OA
ATOM     16  C   UNL     1       2.696   5.485 -24.830  1.00  0.00     0.179 C 
ATOM     17  C   UNL     1       1.834   4.749 -27.083  1.00  0.00     0.178 C 
ATOM     18  C   UNL     1       2.760   5.743 -26.345  1.00  0.00     0.177 C 
BRANCH  14  19
ATOM     19  O   UNL     1       0.718   6.774 -24.407  1.00  0.00    -0.385 OA
ATOM     20  H   UNL     1       1.030   7.237 -23.586  1.00  0.00     0.211 HD
ENDBRANCH  14  19
BRANCH  16  21
ATOM     21  O   UNL     1       3.321   4.262 -24.528  1.00  0.00    -0.387 OA
ATOM     22  H   UNL     1       4.295   4.446 -24.460  1.00  0.00     0.211 HD
ENDBRANCH  16  21
BRANCH  17  23
ATOM     23  C   UNL     1       1.828   4.999 -28.600  1.00  0.00     0.191 C 
BRANCH  23  24
ATOM     24  O   UNL     1       0.944   6.033 -28.943  1.00  0.00    -0.394 OA
ATOM     25  H   UNL     1       0.860   6.018 -29.932  1.00  0.00     0.210 HD
ENDBRANCH  23  24
ENDBRANCH  17  23
BRANCH  18  26
ATOM     26  O   UNL     1       4.084   5.599 -26.793  1.00  0.00    -0.387 OA
ATOM     27  H   UNL     1       4.671   5.883 -26.045  1.00  0.00     0.211 HD
ENDBRANCH  18  26
ENDBRANCH  12  13
ENDBRANCH   7  12
BRANCH   4  28
ATOM     28  O   UNL     1      -3.408  -0.194 -23.656  1.00  0.00    -0.365 OA
ATOM     29  H   UNL     1      -3.592   0.130 -22.736  1.00  0.00     0.214 HD
ENDBRANCH   4  28
BRANCH   8  30
ATOM     30  C   UNL     1       0.584   2.129 -22.250  1.00  0.00     0.249 C 
BRANCH  30  31
ATOM     31  O   UNL     1       1.070   1.103 -21.384  1.00  0.00    -0.461 OA
BRANCH  31  32
ATOM     32  C   UNL     1       0.518   0.804 -20.132  1.00  0.00     0.338 C 
ATOM     33  O   UNL     1       1.268   0.552 -19.150  1.00  0.00    -0.246 OA
BRANCH  32  34
ATOM     34  C   UNL     1      -0.952   0.766 -19.971  1.00  0.00     0.060 A 
ATOM     35  C   UNL     1      -1.677  -0.405 -20.256  1.00  0.00     0.015 A 
ATOM     36  C   UNL     1      -1.645   1.906 -19.521  1.00  0.00     0.015 A 
ATOM     37  C   UNL     1      -3.065  -0.434 -20.095  1.00  0.00     0.001 A 
ATOM     38  C   UNL     1      -3.033   1.872 -19.364  1.00  0.00     0.001 A 
ATOM     39  C   UNL     1      -3.743   0.703 -19.650  1.00  0.00     0.000 A 
ENDBRANCH  32  34
ENDBRANCH  31  32
ENDBRANCH  30  31
ENDBRANCH   8  30
TORSDOF 12
ENDMDL
MODEL 2
REMARK VINA RESULT:    -7.324      1.553      2.182
REMARK INTER + INTRA:         -13.032
REMARK INTER:                 -11.914
REMARK INTRA:                  -1.118
REMARK UNBOUND:                -1.641
REMARK SMILES C[C@@]12C[C@@]3(O)O[C@@H](O1)[C@]1(COC(=O)c4ccccc4)[C@H]3C[C@@]12O[C@@H]1O[C@@H](CO)[C@H](O)[C@H](O)[C@H]1O
REMARK SMILES IDX 1 1 2 2 3 3 4 4 20 5 21 6 22 7 9 8 7 9 8 10 6 11 23 12 24 13
REMARK SMILES IDX 33 14 25 15 31 16 26 17 29 18 34 19 32 21 27 23 28 24 30 26
REMARK SMILES IDX 5 28 10 30 11 31 12 32 13 33 14 34 15 35 19 36 16 37 18 38
REMARK SMILES IDX 17 39
REMARK H PARENT 34 20 32 22 28 25 30 27 5 29
REMARK Flexibility Score: inf
ROOT
ATOM      1  C   UNL     1      -1.884   1.989 -27.219  1.00  0.00     0.046 C 
ATOM      2  C   UNL     1      -2.046   1.457 -25.794  1.00  0.00     0.104 C 
ATOM      3  C   UNL     1      -3.564   1.284 -25.421  1.00  0.00     0.104 C 
ATOM      4  C   UNL     1      -3.519   0.832 -23.920  1.00  0.00     0.175 C 
ATOM      5  C   UNL     1      -2.580   1.769 -23.092  1.00  0.00     0.070 C 
ATOM      6  C   UNL     1      -2.298   3.109 -23.797  1.00  0.00     0.050 C 
ATOM      7  C   UNL     1      -1.311   2.314 -24.692  1.00  0.00     0.115 C 
ATOM      8  C   UNL     1      -1.243   1.241 -23.603  1.00  0.00     0.096 C 
ATOM      9  C   UNL     1      -1.530  -0.088 -24.280  1.00  0.00     0.267 C 
ATOM     10  O   UNL     1      -1.477   0.168 -25.674  1.00  0.00    -0.342 OA
ATOM     11  O   UNL     1      -2.862  -0.420 -23.917  1.00  0.00    -0.320 OA
ENDROOT
BRANCH   7  12
ATOM     12  O   UNL     1      -0.040   2.818 -25.111  1.00  0.00    -0.339 OA
BRANCH  12  13
ATOM     13  C   UNL     1      -0.018   4.196 -25.448  1.00  0.00     0.282 C 
ATOM     14  C   UNL     1       0.601   5.015 -24.294  1.00  0.00     0.202 C 
ATOM     15  O   UNL     1       0.659   4.437 -26.674  1.00  0.00    -0.341 OA
ATOM     16  C   UNL     1       2.115   4.766 -24.188  1.00  0.00     0.179 C 
ATOM     17  C   UNL     1       2.028   4.071 -26.611  1.00  0.00     0.178 C 
ATOM     18  C   UNL     1       2.775   4.933 -25.567  1.00  0.00     0.177 C 
BRANCH  14  19
ATOM     19  O   UNL     1       0.377   6.386 -24.509  1.00  0.00    -0.385 OA
ATOM     20  H   UNL     1      -0.317   6.460 -25.214  1.00  0.00     0.211 HD
ENDBRANCH  14  19
BRANCH  16  21
ATOM     21  O   UNL     1       2.362   3.472 -23.694  1.00  0.00    -0.387 OA
ATOM     22  H   UNL     1       3.193   3.525 -23.152  1.00  0.00     0.211 HD
ENDBRANCH  16  21
BRANCH  17  23
ATOM     23  C   UNL     1       2.624   4.241 -28.018  1.00  0.00     0.191 C 
BRANCH  23  24
ATOM     24  O   UNL     1       3.339   5.444 -28.126  1.00  0.00    -0.394 OA
ATOM     25  H   UNL     1       3.490   5.598 -29.096  1.00  0.00     0.210 HD
ENDBRANCH  23  24
ENDBRANCH  17  23
BRANCH  18  26
ATOM     26  O   UNL     1       4.125   4.547 -25.493  1.00  0.00    -0.387 OA
ATOM     27  H   UNL     1       4.583   5.216 -24.923  1.00  0.00     0.211 HD
ENDBRANCH  18  26
ENDBRANCH  12  13
ENDBRANCH   7  12
BRANCH   4  28
ATOM     28  O   UNL     1      -4.797   0.718 -23.357  1.00  0.00    -0.365 OA
ATOM     29  H   UNL     1      -4.976   1.571 -22.884  1.00  0.00     0.214 HD
ENDBRANCH   4  28
BRANCH   8  30
ATOM     30  C   UNL     1      -0.061   1.276 -22.608  1.00  0.00     0.249 C 
BRANCH  30  31
ATOM     31  O   UNL     1      -0.081   0.128 -21.759  1.00  0.00    -0.461 OA
BRANCH  31  32
ATOM     32  C   UNL     1      -0.453   0.156 -20.409  1.00  0.00     0.338 C 
ATOM     33  O   UNL     1      -1.383  -0.586 -19.991  1.00  0.00    -0.246 OA
BRANCH  32  34
ATOM     34  C   UNL     1       0.239   1.074 -19.478  1.00  0.00     0.060 A 
ATOM     35  C   UNL     1       1.393   0.663 -18.787  1.00  0.00     0.015 A 
ATOM     36  C   UNL     1      -0.249   2.380 -19.278  1.00  0.00     0.015 A 
ATOM     37  C   UNL     1       2.044   1.540 -17.914  1.00  0.00     0.001 A 
ATOM     38  C   UNL     1       0.406   3.251 -18.402  1.00  0.00     0.001 A 
ATOM     39  C   UNL     1       1.551   2.832 -17.721  1.00  0.00     0.000 A 
ENDBRANCH  32  34
ENDBRANCH  31  32
ENDBRANCH  30  31
ENDBRANCH   8  30
TORSDOF 12
ENDMDL
MODEL 3
REMARK VINA RESULT:    -7.319      1.778      2.519
REMARK INTER + INTRA:         -13.024
REMARK INTER:                 -11.715
REMARK INTRA:                  -1.309
REMARK UNBOUND:                -1.641
REMARK SMILES C[C@@]12C[C@@]3(O)O[C@@H](O1)[C@]1(COC(=O)c4ccccc4)[C@H]3C[C@@]12O[C@@H]1O[C@@H](CO)[C@H](O)[C@H](O)[C@H]1O
REMARK SMILES IDX 1 1 2 2 3 3 4 4 20 5 21 6 22 7 9 8 7 9 8 10 6 11 23 12 24 13
REMARK SMILES IDX 33 14 25 15 31 16 26 17 29 18 34 19 32 21 27 23 28 24 30 26
REMARK SMILES IDX 5 28 10 30 11 31 12 32 13 33 14 34 15 35 19 36 16 37 18 38
REMARK SMILES IDX 17 39
REMARK H PARENT 34 20 32 22 28 25 30 27 5 29
REMARK Flexibility Score: inf
ROOT
ATOM      1  C   UNL     1      -3.335   1.517 -26.672  1.00  0.00     0.046 C 
ATOM      2  C   UNL     1      -3.136   1.136 -25.205  1.00  0.00     0.104 C 
ATOM      3  C   UNL     1      -4.515   0.930 -24.478  1.00  0.00     0.104 C 
ATOM      4  C   UNL     1      -4.103   0.646 -22.992  1.00  0.00     0.175 C 
ATOM      5  C   UNL     1      -3.074   1.714 -22.495  1.00  0.00     0.070 C 
ATOM      6  C   UNL     1      -3.055   2.981 -23.369  1.00  0.00     0.050 C 
ATOM      7  C   UNL     1      -2.238   2.143 -24.388  1.00  0.00     0.115 C 
ATOM      8  C   UNL     1      -1.849   1.200 -23.246  1.00  0.00     0.096 C 
ATOM      9  C   UNL     1      -2.183  -0.207 -23.710  1.00  0.00     0.267 C 
ATOM     10  O   UNL     1      -2.462  -0.103 -25.097  1.00  0.00    -0.342 OA
ATOM     11  O   UNL     1      -3.372  -0.563 -23.021  1.00  0.00    -0.320 OA
ENDROOT
BRANCH   7  12
ATOM     12  O   UNL     1      -1.132   2.661 -25.133  1.00  0.00    -0.339 OA
BRANCH  12  13
ATOM     13  C   UNL     1      -1.113   4.072 -25.284  1.00  0.00     0.282 C 
ATOM     14  C   UNL     1       0.095   4.670 -24.530  1.00  0.00     0.202 C 
ATOM     15  O   UNL     1      -1.118   4.465 -26.650  1.00  0.00    -0.341 OA
ATOM     16  C   UNL     1       1.414   4.332 -25.244  1.00  0.00     0.179 C 
ATOM     17  C   UNL     1       0.042   4.025 -27.337  1.00  0.00     0.178 C 
ATOM     18  C   UNL     1       1.310   4.675 -26.739  1.00  0.00     0.177 C 
BRANCH  14  19
ATOM     19  O   UNL     1      -0.037   6.068 -24.452  1.00  0.00    -0.385 OA
ATOM     20  H   UNL     1       0.742   6.404 -23.937  1.00  0.00     0.211 HD
ENDBRANCH  14  19
BRANCH  16  21
ATOM     21  O   UNL     1       1.716   2.966 -25.088  1.00  0.00    -0.387 OA
ATOM     22  H   UNL     1       0.935   2.458 -25.432  1.00  0.00     0.211 HD
ENDBRANCH  16  21
BRANCH  17  23
ATOM     23  C   UNL     1      -0.131   4.380 -28.823  1.00  0.00     0.191 C 
BRANCH  23  24
ATOM     24  O   UNL     1       0.347   5.670 -29.097  1.00  0.00    -0.394 OA
ATOM     25  H   UNL     1      -0.309   6.305 -28.708  1.00  0.00     0.210 HD
ENDBRANCH  23  24
ENDBRANCH  17  23
BRANCH  18  26
ATOM     26  O   UNL     1       2.457   4.215 -27.410  1.00  0.00    -0.387 OA
ATOM     27  H   UNL     1       2.993   5.016 -27.643  1.00  0.00     0.211 HD
ENDBRANCH  18  26
ENDBRANCH  12  13
ENDBRANCH   7  12
BRANCH   4  28
ATOM     28  O   UNL     1      -5.211   0.531 -22.142  1.00  0.00    -0.365 OA
ATOM     29  H   UNL     1      -6.010   0.765 -22.684  1.00  0.00     0.214 HD
ENDBRANCH   4  28
BRANCH   8  30
ATOM     30  C   UNL     1      -0.481   1.402 -22.557  1.00  0.00     0.249 C 
BRANCH  30  31
ATOM     31  O   UNL     1      -0.156   0.277 -21.741  1.00  0.00    -0.461 OA
BRANCH  31  32
ATOM     32  C   UNL     1      -0.482   0.171 -20.383  1.00  0.00     0.338 C 
ATOM     33  O   UNL     1      -1.338  -0.672 -19.999  1.00  0.00    -0.246 OA
BRANCH  32  34
ATOM     34  C   UNL     1       0.169   1.067 -19.402  1.00  0.00     0.060 A 
ATOM     35  C   UNL     1       1.247   0.614 -18.620  1.00  0.00     0.015 A 
ATOM     36  C   UNL     1      -0.282   2.391 -19.244  1.00  0.00     0.015 A 
ATOM     37  C   UNL     1       1.860   1.469 -17.700  1.00  0.00     0.001 A 
ATOM     38  C   UNL     1       0.334   3.240 -18.321  1.00  0.00     0.001 A 
ATOM     39  C   UNL     1       1.404   2.781 -17.550  1.00  0.00     0.000 A 
ENDBRANCH  32  34
ENDBRANCH  31  32
ENDBRANCH  30  31
ENDBRANCH   8  30
TORSDOF 12
ENDMDL
MODEL 4
REMARK VINA RESULT:    -7.202      2.167      7.365
REMARK INTER + INTRA:         -12.842
REMARK INTER:                 -11.755
REMARK INTRA:                  -1.088
REMARK UNBOUND:                -1.641
REMARK SMILES C[C@@]12C[C@@]3(O)O[C@@H](O1)[C@]1(COC(=O)c4ccccc4)[C@H]3C[C@@]12O[C@@H]1O[C@@H](CO)[C@H](O)[C@H](O)[C@H]1O
REMARK SMILES IDX 1 1 2 2 3 3 4 4 20 5 21 6 22 7 9 8 7 9 8 10 6 11 23 12 24 13
REMARK SMILES IDX 33 14 25 15 31 16 26 17 29 18 34 19 32 21 27 23 28 24 30 26
REMARK SMILES IDX 5 28 10 30 11 31 12 32 13 33 14 34 15 35 19 36 16 37 18 38
REMARK SMILES IDX 17 39
REMARK H PARENT 34 20 32 22 28 25 30 27 5 29
REMARK Flexibility Score: inf
ROOT
ATOM      1  C   UNL     1      -3.670   2.528 -24.601  1.00  0.00     0.046 C 
ATOM      2  C   UNL     1      -2.174   2.804 -24.756  1.00  0.00     0.104 C 
ATOM      3  C   UNL     1      -1.698   2.545 -26.232  1.00  0.00     0.104 C 
ATOM      4  C   UNL     1      -0.150   2.786 -26.162  1.00  0.00     0.175 C 
ATOM      5  C   UNL     1       0.472   2.005 -24.959  1.00  0.00     0.070 C 
ATOM      6  C   UNL     1      -0.444   0.885 -24.432  1.00  0.00     0.050 C 
ATOM      7  C   UNL     1      -1.258   2.013 -23.745  1.00  0.00     0.115 C 
ATOM      8  C   UNL     1      -0.021   2.911 -23.834  1.00  0.00     0.096 C 
ATOM      9  C   UNL     1      -0.470   4.207 -24.486  1.00  0.00     0.267 C 
ATOM     10  O   UNL     1      -1.888   4.165 -24.499  1.00  0.00    -0.342 OA
ATOM     11  O   UNL     1       0.011   4.149 -25.821  1.00  0.00    -0.320 OA
ENDROOT
BRANCH   7  12
ATOM     12  O   UNL     1      -1.816   1.899 -22.433  1.00  0.00    -0.339 OA
BRANCH  12  13
ATOM     13  C   UNL     1      -1.890   0.579 -21.920  1.00  0.00     0.282 C 
ATOM     14  C   UNL     1      -1.541   0.573 -20.415  1.00  0.00     0.202 C 
ATOM     15  O   UNL     1      -3.157  -0.020 -22.160  1.00  0.00    -0.341 OA
ATOM     16  C   UNL     1      -2.663   1.220 -19.585  1.00  0.00     0.179 C 
ATOM     17  C   UNL     1      -4.207   0.670 -21.501  1.00  0.00     0.178 C 
ATOM     18  C   UNL     1      -4.022   0.610 -19.968  1.00  0.00     0.177 C 
BRANCH  14  19
ATOM     19  O   UNL     1      -1.350  -0.748 -19.975  1.00  0.00    -0.385 OA
ATOM     20  H   UNL     1      -0.611  -1.130 -20.516  1.00  0.00     0.211 HD
ENDBRANCH  14  19
BRANCH  16  21
ATOM     21  O   UNL     1      -2.687   2.610 -19.798  1.00  0.00    -0.387 OA
ATOM     22  H   UNL     1      -3.308   2.994 -19.124  1.00  0.00     0.211 HD
ENDBRANCH  16  21
BRANCH  17  23
ATOM     23  C   UNL     1      -5.534   0.028 -21.938  1.00  0.00     0.191 C 
BRANCH  23  24
ATOM     24  O   UNL     1      -6.155  -0.636 -20.869  1.00  0.00    -0.394 OA
ATOM     25  H   UNL     1      -5.919  -1.597 -20.957  1.00  0.00     0.210 HD
ENDBRANCH  23  24
ENDBRANCH  17  23
BRANCH  18  26
ATOM     26  O   UNL     1      -5.054   1.316 -19.325  1.00  0.00    -0.387 OA
ATOM     27  H   UNL     1      -5.559   1.793 -20.033  1.00  0.00     0.211 HD
ENDBRANCH  18  26
ENDBRANCH  12  13
ENDBRANCH   7  12
BRANCH   4  28
ATOM     28  O   UNL     1       0.491   2.504 -27.375  1.00  0.00    -0.365 OA
ATOM     29  H   UNL     1      -0.047   1.801 -27.824  1.00  0.00     0.214 HD
ENDBRANCH   4  28
BRANCH   8  30
ATOM     30  C   UNL     1       0.892   3.033 -22.594  1.00  0.00     0.249 C 
BRANCH  30  31
ATOM     31  O   UNL     1       2.208   3.437 -22.973  1.00  0.00    -0.461 OA
BRANCH  31  32
ATOM     32  C   UNL     1       2.691   4.746 -22.858  1.00  0.00     0.338 C 
ATOM     33  O   UNL     1       2.738   5.308 -21.729  1.00  0.00    -0.246 OA
BRANCH  32  34
ATOM     34  C   UNL     1       3.129   5.474 -24.068  1.00  0.00     0.060 A 
ATOM     35  C   UNL     1       3.222   6.878 -24.068  1.00  0.00     0.015 A 
ATOM     36  C   UNL     1       3.465   4.766 -25.238  1.00  0.00     0.015 A 
ATOM     37  C   UNL     1       3.643   7.558 -25.215  1.00  0.00     0.001 A 
ATOM     38  C   UNL     1       3.882   5.452 -26.382  1.00  0.00     0.001 A 
ATOM     39  C   UNL     1       3.972   6.846 -26.371  1.00  0.00     0.000 A 
ENDBRANCH  32  34
ENDBRANCH  31  32
ENDBRANCH  30  31
ENDBRANCH   8  30
TORSDOF 12
ENDMDL
MODEL 5
REMARK VINA RESULT:    -7.138      2.316      5.813
REMARK INTER + INTRA:         -12.742
REMARK INTER:                 -11.443
REMARK INTRA:                  -1.300
REMARK UNBOUND:                -1.641
REMARK SMILES C[C@@]12C[C@@]3(O)O[C@@H](O1)[C@]1(COC(=O)c4ccccc4)[C@H]3C[C@@]12O[C@@H]1O[C@@H](CO)[C@H](O)[C@H](O)[C@H]1O
REMARK SMILES IDX 1 1 2 2 3 3 4 4 20 5 21 6 22 7 9 8 7 9 8 10 6 11 23 12 24 13
REMARK SMILES IDX 33 14 25 15 31 16 26 17 29 18 34 19 32 21 27 23 28 24 30 26
REMARK SMILES IDX 5 28 10 30 11 31 12 32 13 33 14 34 15 35 19 36 16 37 18 38
REMARK SMILES IDX 17 39
REMARK H PARENT 34 20 32 22 28 25 30 27 5 29
REMARK Flexibility Score: inf
ROOT
ATOM      1  C   UNL     1      -0.655   4.494 -25.961  1.00  0.00     0.046 C 
ATOM      2  C   UNL     1       0.667   4.828 -25.271  1.00  0.00     0.104 C 
ATOM      3  C   UNL     1       1.725   5.371 -26.300  1.00  0.00     0.104 C 
ATOM      4  C   UNL     1       3.016   5.559 -25.429  1.00  0.00     0.175 C 
ATOM      5  C   UNL     1       3.294   4.278 -24.577  1.00  0.00     0.070 C 
ATOM      6  C   UNL     1       2.549   3.036 -25.101  1.00  0.00     0.050 C 
ATOM      7  C   UNL     1       1.284   3.640 -24.436  1.00  0.00     0.115 C 
ATOM      8  C   UNL     1       2.199   4.471 -23.532  1.00  0.00     0.096 C 
ATOM      9  C   UNL     1       1.736   5.913 -23.650  1.00  0.00     0.267 C 
ATOM     10  O   UNL     1       0.490   5.866 -24.327  1.00  0.00    -0.342 OA
ATOM     11  O   UNL     1       2.694   6.554 -24.478  1.00  0.00    -0.320 OA
ENDROOT
BRANCH   7  12
ATOM     12  O   UNL     1       0.308   2.862 -23.738  1.00  0.00    -0.339 OA
BRANCH  12  13
ATOM     13  C   UNL     1       0.223   1.502 -24.135  1.00  0.00     0.282 C 
ATOM     14  C   UNL     1       0.156   0.589 -22.891  1.00  0.00     0.202 C 
ATOM     15  O   UNL     1      -0.872   1.266 -25.010  1.00  0.00    -0.341 OA
ATOM     16  C   UNL     1      -1.202   0.720 -22.181  1.00  0.00     0.179 C 
ATOM     17  C   UNL     1      -2.119   1.526 -24.388  1.00  0.00     0.178 C 
ATOM     18  C   UNL     1      -2.346   0.566 -23.197  1.00  0.00     0.177 C 
BRANCH  14  19
ATOM     19  O   UNL     1       0.345  -0.751 -23.272  1.00  0.00    -0.385 OA
ATOM     20  H   UNL     1       0.409  -0.764 -24.262  1.00  0.00     0.211 HD
ENDBRANCH  14  19
BRANCH  16  21
ATOM     21  O   UNL     1      -1.298   1.969 -21.540  1.00  0.00    -0.387 OA
ATOM     22  H   UNL     1      -0.708   2.594 -22.038  1.00  0.00     0.211 HD
ENDBRANCH  16  21
BRANCH  17  23
ATOM     23  C   UNL     1      -3.215   1.375 -25.455  1.00  0.00     0.191 C 
BRANCH  23  24
ATOM     24  O   UNL     1      -4.329   2.175 -25.159  1.00  0.00    -0.394 OA
ATOM     25  H   UNL     1      -4.267   2.976 -25.742  1.00  0.00     0.210 HD
ENDBRANCH  23  24
ENDBRANCH  17  23
BRANCH  18  26
ATOM     26  O   UNL     1      -3.574   0.847 -22.572  1.00  0.00    -0.387 OA
ATOM     27  H   UNL     1      -3.798   0.058 -22.015  1.00  0.00     0.211 HD
ENDBRANCH  18  26
ENDBRANCH  12  13
ENDBRANCH   7  12
BRANCH   4  28
ATOM     28  O   UNL     1       4.124   5.949 -26.193  1.00  0.00    -0.365 OA
ATOM     29  H   UNL     1       4.810   6.272 -25.553  1.00  0.00     0.214 HD
ENDBRANCH   4  28
BRANCH   8  30
ATOM     30  C   UNL     1       2.501   3.948 -22.110  1.00  0.00     0.249 C 
BRANCH  30  31
ATOM     31  O   UNL     1       2.242   4.959 -21.135  1.00  0.00    -0.461 OA
BRANCH  31  32
ATOM     32  C   UNL     1       2.572   4.844 -19.779  1.00  0.00     0.338 C 
ATOM     33  O   UNL     1       3.334   5.691 -19.237  1.00  0.00    -0.246 OA
BRANCH  32  34
ATOM     34  C   UNL     1       2.038   3.715 -18.988  1.00  0.00     0.060 A 
ATOM     35  C   UNL     1       0.693   3.321 -19.115  1.00  0.00     0.015 A 
ATOM     36  C   UNL     1       2.875   3.013 -18.100  1.00  0.00     0.015 A 
ATOM     37  C   UNL     1       0.198   2.248 -18.368  1.00  0.00     0.001 A 
ATOM     38  C   UNL     1       2.373   1.942 -17.354  1.00  0.00     0.001 A 
ATOM     39  C   UNL     1       1.036   1.560 -17.488  1.00  0.00     0.000 A 
ENDBRANCH  32  34
ENDBRANCH  31  32
ENDBRANCH  30  31
ENDBRANCH   8  30
TORSDOF 12
ENDMDL
MODEL 6
REMARK VINA RESULT:    -7.031      2.055      6.657
REMARK INTER + INTRA:         -12.576
REMARK INTER:                 -11.362
REMARK INTRA:                  -1.214
REMARK UNBOUND:                -1.641
REMARK SMILES C[C@@]12C[C@@]3(O)O[C@@H](O1)[C@]1(COC(=O)c4ccccc4)[C@H]3C[C@@]12O[C@@H]1O[C@@H](CO)[C@H](O)[C@H](O)[C@H]1O
REMARK SMILES IDX 1 1 2 2 3 3 4 4 20 5 21 6 22 7 9 8 7 9 8 10 6 11 23 12 24 13
REMARK SMILES IDX 33 14 25 15 31 16 26 17 29 18 34 19 32 21 27 23 28 24 30 26
REMARK SMILES IDX 5 28 10 30 11 31 12 32 13 33 14 34 15 35 19 36 16 37 18 38
REMARK SMILES IDX 17 39
REMARK H PARENT 34 20 32 22 28 25 30 27 5 29
REMARK Flexibility Score: inf
ROOT
ATOM      1  C   UNL     1      -3.298   3.479 -23.558  1.00  0.00     0.046 C 
ATOM      2  C   UNL     1      -2.447   3.251 -24.807  1.00  0.00     0.104 C 
ATOM      3  C   UNL     1      -3.346   2.930 -26.056  1.00  0.00     0.104 C 
ATOM      4  C   UNL     1      -2.302   2.639 -27.190  1.00  0.00     0.175 C 
ATOM      5  C   UNL     1      -1.216   1.631 -26.690  1.00  0.00     0.070 C 
ATOM      6  C   UNL     1      -1.654   0.852 -25.435  1.00  0.00     0.050 C 
ATOM      7  C   UNL     1      -1.333   2.147 -24.643  1.00  0.00     0.115 C 
ATOM      8  C   UNL     1      -0.429   2.587 -25.797  1.00  0.00     0.096 C 
ATOM      9  C   UNL     1      -0.861   3.992 -26.179  1.00  0.00     0.267 C 
ATOM     10  O   UNL     1      -1.733   4.424 -25.146  1.00  0.00    -0.342 OA
ATOM     11  O   UNL     1      -1.599   3.850 -27.383  1.00  0.00    -0.320 OA
ENDROOT
BRANCH   7  12
ATOM     12  O   UNL     1      -0.703   2.153 -23.359  1.00  0.00    -0.339 OA
BRANCH  12  13
ATOM     13  C   UNL     1      -0.503   0.875 -22.777  1.00  0.00     0.282 C 
ATOM     14  C   UNL     1       0.842   0.842 -22.018  1.00  0.00     0.202 C 
ATOM     15  O   UNL     1      -1.582   0.494 -21.935  1.00  0.00    -0.341 OA
ATOM     16  C   UNL     1       0.773   1.685 -20.734  1.00  0.00     0.179 C 
ATOM     17  C   UNL     1      -1.726   1.365 -20.824  1.00  0.00     0.178 C 
ATOM     18  C   UNL     1      -0.475   1.306 -19.919  1.00  0.00     0.177 C 
BRANCH  14  19
ATOM     19  O   UNL     1       1.165  -0.484 -21.678  1.00  0.00    -0.385 OA
ATOM     20  H   UNL     1       1.932  -0.443 -21.050  1.00  0.00     0.211 HD
ENDBRANCH  14  19
BRANCH  16  21
ATOM     21  O   UNL     1       0.737   3.055 -21.052  1.00  0.00    -0.387 OA
ATOM     22  H   UNL     1       1.650   3.412 -20.892  1.00  0.00     0.211 HD
ENDBRANCH  16  21
BRANCH  17  23
ATOM     23  C   UNL     1      -2.996   0.947 -20.064  1.00  0.00     0.191 C 
BRANCH  23  24
ATOM     24  O   UNL     1      -3.404   1.946 -19.167  1.00  0.00    -0.394 OA
ATOM     25  H   UNL     1      -4.347   2.161 -19.392  1.00  0.00     0.210 HD
ENDBRANCH  23  24
ENDBRANCH  17  23
BRANCH  18  26
ATOM     26  O   UNL     1      -0.617   2.189 -18.834  1.00  0.00    -0.387 OA
ATOM     27  H   UNL     1      -0.502   3.106 -19.195  1.00  0.00     0.211 HD
ENDBRANCH  18  26
ENDBRANCH  12  13
ENDBRANCH   7  12
BRANCH   4  28
ATOM     28  O   UNL     1      -2.909   2.226 -28.384  1.00  0.00    -0.365 OA
ATOM     29  H   UNL     1      -3.727   1.726 -28.128  1.00  0.00     0.214 HD
ENDBRANCH   4  28
BRANCH   8  30
ATOM     30  C   UNL     1       1.091   2.331 -25.682  1.00  0.00     0.249 C 
BRANCH  30  31
ATOM     31  O   UNL     1       1.824   3.292 -26.442  1.00  0.00    -0.461 OA
BRANCH  31  32
ATOM     32  C   UNL     1       3.047   3.843 -26.040  1.00  0.00     0.338 C 
ATOM     33  O   UNL     1       4.125   3.444 -26.558  1.00  0.00    -0.246 OA
BRANCH  32  34
ATOM     34  C   UNL     1       3.070   4.884 -24.989  1.00  0.00     0.060 A 
ATOM     35  C   UNL     1       2.749   4.568 -23.657  1.00  0.00     0.015 A 
ATOM     36  C   UNL     1       3.424   6.208 -25.311  1.00  0.00     0.015 A 
ATOM     37  C   UNL     1       2.780   5.557 -22.669  1.00  0.00     0.001 A 
ATOM     38  C   UNL     1       3.451   7.192 -24.319  1.00  0.00     0.001 A 
ATOM     39  C   UNL     1       3.130   6.868 -22.999  1.00  0.00     0.000 A 
ENDBRANCH  32  34
ENDBRANCH  31  32
ENDBRANCH  30  31
ENDBRANCH   8  30
TORSDOF 12
ENDMDL
MODEL 7
REMARK VINA RESULT:    -6.878      2.262      4.666
REMARK INTER + INTRA:         -12.338
REMARK INTER:                 -10.900
REMARK INTRA:                  -1.438
REMARK UNBOUND:                -1.641
REMARK SMILES C[C@@]12C[C@@]3(O)O[C@@H](O1)[C@]1(COC(=O)c4ccccc4)[C@H]3C[C@@]12O[C@@H]1O[C@@H](CO)[C@H](O)[C@H](O)[C@H]1O
REMARK SMILES IDX 1 1 2 2 3 3 4 4 20 5 21 6 22 7 9 8 7 9 8 10 6 11 23 12 24 13
REMARK SMILES IDX 33 14 25 15 31 16 26 17 29 18 34 19 32 21 27 23 28 24 30 26
REMARK SMILES IDX 5 28 10 30 11 31 12 32 13 33 14 34 15 35 19 36 16 37 18 38
REMARK SMILES IDX 17 39
REMARK H PARENT 34 20 32 22 28 25 30 27 5 29
REMARK Flexibility Score: inf
ROOT
ATOM      1  C   UNL     1       1.843   3.758 -19.629  1.00  0.00     0.046 C 
ATOM      2  C   UNL     1       1.002   2.525 -19.958  1.00  0.00     0.104 C 
ATOM      3  C   UNL     1       1.462   1.281 -19.115  1.00  0.00     0.104 C 
ATOM      4  C   UNL     1       0.559   0.119 -19.658  1.00  0.00     0.175 C 
ATOM      5  C   UNL     1       0.580   0.093 -21.221  1.00  0.00     0.070 C 
ATOM      6  C   UNL     1       1.769   0.870 -21.818  1.00  0.00     0.050 C 
ATOM      7  C   UNL     1       0.961   2.155 -21.491  1.00  0.00     0.115 C 
ATOM      8  C   UNL     1      -0.312   1.306 -21.470  1.00  0.00     0.096 C 
ATOM      9  C   UNL     1      -1.013   1.606 -20.156  1.00  0.00     0.267 C 
ATOM     10  O   UNL     1      -0.353   2.737 -19.612  1.00  0.00    -0.342 OA
ATOM     11  O   UNL     1      -0.768   0.479 -19.327  1.00  0.00    -0.320 OA
ENDROOT
BRANCH   7  12
ATOM     12  O   UNL     1       0.902   3.294 -22.355  1.00  0.00    -0.339 OA
BRANCH  12  13
ATOM     13  C   UNL     1       1.820   3.280 -23.437  1.00  0.00     0.282 C 
ATOM     14  C   UNL     1       1.058   3.272 -24.780  1.00  0.00     0.202 C 
ATOM     15  O   UNL     1       2.742   4.359 -23.372  1.00  0.00    -0.341 OA
ATOM     16  C   UNL     1       0.390   4.631 -25.045  1.00  0.00     0.179 C 
ATOM     17  C   UNL     1       2.098   5.619 -23.476  1.00  0.00     0.178 C 
ATOM     18  C   UNL     1       1.408   5.767 -24.851  1.00  0.00     0.177 C 
BRANCH  14  19
ATOM     19  O   UNL     1       1.947   2.986 -25.831  1.00  0.00    -0.385 OA
ATOM     20  H   UNL     1       2.020   3.809 -26.381  1.00  0.00     0.211 HD
ENDBRANCH  14  19
BRANCH  16  21
ATOM     21  O   UNL     1      -0.701   4.815 -24.177  1.00  0.00    -0.387 OA
ATOM     22  H   UNL     1      -0.328   4.918 -23.262  1.00  0.00     0.211 HD
ENDBRANCH  16  21
BRANCH  17  23
ATOM     23  C   UNL     1       3.161   6.708 -23.255  1.00  0.00     0.191 C 
BRANCH  23  24
ATOM     24  O   UNL     1       3.423   7.412 -24.440  1.00  0.00    -0.394 OA
ATOM     25  H   UNL     1       2.696   8.081 -24.539  1.00  0.00     0.210 HD
ENDBRANCH  23  24
ENDBRANCH  17  23
BRANCH  18  26
ATOM     26  O   UNL     1       0.753   7.008 -24.936  1.00  0.00    -0.387 OA
ATOM     27  H   UNL     1      -0.117   6.842 -25.384  1.00  0.00     0.211 HD
ENDBRANCH  18  26
ENDBRANCH  12  13
ENDBRANCH   7  12
BRANCH   4  28
ATOM     28  O   UNL     1       0.887  -1.122 -19.095  1.00  0.00    -0.365 OA
ATOM     29  H   UNL     1       0.181  -1.758 -19.380  1.00  0.00     0.214 HD
ENDBRANCH   4  28
BRANCH   8  30
ATOM     30  C   UNL     1      -1.193   1.267 -22.738  1.00  0.00     0.249 C 
BRANCH  30  31
ATOM     31  O   UNL     1      -1.929   2.483 -22.880  1.00  0.00    -0.461 OA
BRANCH  31  32
ATOM     32  C   UNL     1      -3.266   2.548 -23.293  1.00  0.00     0.338 C 
ATOM     33  O   UNL     1      -3.701   3.581 -23.874  1.00  0.00    -0.246 OA
BRANCH  32  34
ATOM     34  C   UNL     1      -4.170   1.409 -23.030  1.00  0.00     0.060 A 
ATOM     35  C   UNL     1      -4.741   1.223 -21.758  1.00  0.00     0.015 A 
ATOM     36  C   UNL     1      -4.478   0.496 -24.057  1.00  0.00     0.015 A 
ATOM     37  C   UNL     1      -5.600   0.146 -21.519  1.00  0.00     0.001 A 
ATOM     38  C   UNL     1      -5.336  -0.580 -23.811  1.00  0.00     0.001 A 
ATOM     39  C   UNL     1      -5.897  -0.754 -22.544  1.00  0.00     0.000 A 
ENDBRANCH  32  34
ENDBRANCH  31  32
ENDBRANCH  30  31
ENDBRANCH   8  30
TORSDOF 12
ENDMDL
MODEL 8
REMARK VINA RESULT:    -6.809      2.163      6.176
REMARK INTER + INTRA:         -12.231
REMARK INTER:                 -11.288
REMARK INTRA:                  -0.943
REMARK UNBOUND:                -1.641
REMARK SMILES C[C@@]12C[C@@]3(O)O[C@@H](O1)[C@]1(COC(=O)c4ccccc4)[C@H]3C[C@@]12O[C@@H]1O[C@@H](CO)[C@H](O)[C@H](O)[C@H]1O
REMARK SMILES IDX 1 1 2 2 3 3 4 4 20 5 21 6 22 7 9 8 7 9 8 10 6 11 23 12 24 13
REMARK SMILES IDX 33 14 25 15 31 16 26 17 29 18 34 19 32 21 27 23 28 24 30 26
REMARK SMILES IDX 5 28 10 30 11 31 12 32 13 33 14 34 15 35 19 36 16 37 18 38
REMARK SMILES IDX 17 39
REMARK H PARENT 34 20 32 22 28 25 30 27 5 29
REMARK Flexibility Score: inf
ROOT
ATOM      1  C   UNL     1      -3.353   4.478 -24.311  1.00  0.00     0.046 C 
ATOM      2  C   UNL     1      -2.055   3.954 -24.926  1.00  0.00     0.104 C 
ATOM      3  C   UNL     1      -2.065   4.107 -26.491  1.00  0.00     0.104 C 
ATOM      4  C   UNL     1      -0.716   3.438 -26.929  1.00  0.00     0.175 C 
ATOM      5  C   UNL     1      -0.552   2.039 -26.251  1.00  0.00     0.070 C 
ATOM      6  C   UNL     1      -1.878   1.476 -25.707  1.00  0.00     0.050 C 
ATOM      7  C   UNL     1      -1.699   2.470 -24.528  1.00  0.00     0.115 C 
ATOM      8  C   UNL     1      -0.202   2.520 -24.845  1.00  0.00     0.096 C 
ATOM      9  C   UNL     1       0.168   3.988 -24.969  1.00  0.00     0.267 C 
ATOM     10  O   UNL     1      -0.948   4.713 -24.479  1.00  0.00    -0.342 OA
ATOM     11  O   UNL     1       0.307   4.230 -26.361  1.00  0.00    -0.320 OA
ENDROOT
BRANCH   7  12
ATOM     12  O   UNL     1      -2.008   2.150 -23.169  1.00  0.00    -0.339 OA
BRANCH  12  13
ATOM     13  C   UNL     1      -3.374   1.865 -22.911  1.00  0.00     0.282 C 
ATOM     14  C   UNL     1      -3.692   0.403 -23.292  1.00  0.00     0.202 C 
ATOM     15  O   UNL     1      -3.733   2.139 -21.563  1.00  0.00    -0.341 OA
ATOM     16  C   UNL     1      -3.047  -0.580 -22.301  1.00  0.00     0.179 C 
ATOM     17  C   UNL     1      -3.026   1.321 -20.645  1.00  0.00     0.178 C 
ATOM     18  C   UNL     1      -3.379  -0.169 -20.857  1.00  0.00     0.177 C 
BRANCH  14  19
ATOM     19  O   UNL     1      -5.084   0.203 -23.294  1.00  0.00    -0.385 OA
ATOM     20  H   UNL     1      -5.345  -0.033 -22.367  1.00  0.00     0.211 HD
ENDBRANCH  14  19
BRANCH  16  21
ATOM     21  O   UNL     1      -1.653  -0.608 -22.480  1.00  0.00    -0.387 OA
ATOM     22  H   UNL     1      -1.371  -1.557 -22.400  1.00  0.00     0.211 HD
ENDBRANCH  16  21
BRANCH  17  23
ATOM     23  C   UNL     1      -3.385   1.792 -19.226  1.00  0.00     0.191 C 
BRANCH  23  24
ATOM     24  O   UNL     1      -4.504   1.107 -18.729  1.00  0.00    -0.394 OA
ATOM     25  H   UNL     1      -5.125   1.797 -18.376  1.00  0.00     0.210 HD
ENDBRANCH  23  24
ENDBRANCH  17  23
BRANCH  18  26
ATOM     26  O   UNL     1      -2.657  -0.974 -19.959  1.00  0.00    -0.387 OA
ATOM     27  H   UNL     1      -1.767  -0.550 -19.847  1.00  0.00     0.211 HD
ENDBRANCH  18  26
ENDBRANCH  12  13
ENDBRANCH   7  12
BRANCH   4  28
ATOM     28  O   UNL     1      -0.577   3.379 -28.323  1.00  0.00    -0.365 OA
ATOM     29  H   UNL     1      -1.358   3.855 -28.707  1.00  0.00     0.214 HD
ENDBRANCH   4  28
BRANCH   8  30
ATOM     30  C   UNL     1       0.755   1.626 -24.026  1.00  0.00     0.249 C 
BRANCH  30  31
ATOM     31  O   UNL     1       0.944   2.156 -22.714  1.00  0.00    -0.461 OA
BRANCH  31  32
ATOM     32  C   UNL     1       1.011   1.376 -21.553  1.00  0.00     0.338 C 
ATOM     33  O   UNL     1       1.026   0.117 -21.635  1.00  0.00    -0.246 OA
BRANCH  32  34
ATOM     34  C   UNL     1       1.043   2.034 -20.230  1.00  0.00     0.060 A 
ATOM     35  C   UNL     1       1.357   3.400 -20.113  1.00  0.00     0.015 A 
ATOM     36  C   UNL     1       0.751   1.298 -19.065  1.00  0.00     0.015 A 
ATOM     37  C   UNL     1       1.379   4.016 -18.858  1.00  0.00     0.001 A 
ATOM     38  C   UNL     1       0.777   1.919 -17.813  1.00  0.00     0.001 A 
ATOM     39  C   UNL     1       1.090   3.277 -17.709  1.00  0.00     0.000 A 
ENDBRANCH  32  34
ENDBRANCH  31  32
ENDBRANCH  30  31
ENDBRANCH   8  30
TORSDOF 12
ENDMDL
MODEL 9
REMARK VINA RESULT:    -6.717      2.490      4.097
REMARK INTER + INTRA:         -12.088
REMARK INTER:                 -11.228
REMARK INTRA:                  -0.860
REMARK UNBOUND:                -1.641
REMARK SMILES C[C@@]12C[C@@]3(O)O[C@@H](O1)[C@]1(COC(=O)c4ccccc4)[C@H]3C[C@@]12O[C@@H]1O[C@@H](CO)[C@H](O)[C@H](O)[C@H]1O
REMARK SMILES IDX 1 1 2 2 3 3 4 4 20 5 21 6 22 7 9 8 7 9 8 10 6 11 23 12 24 13
REMARK SMILES IDX 33 14 25 15 31 16 26 17 29 18 34 19 32 21 27 23 28 24 30 26
REMARK SMILES IDX 5 28 10 30 11 31 12 32 13 33 14 34 15 35 19 36 16 37 18 38
REMARK SMILES IDX 17 39
REMARK H PARENT 34 20 32 22 28 25 30 27 5 29
REMARK Flexibility Score: inf
ROOT
ATOM      1  C   UNL     1      -4.783  -0.195 -24.623  1.00  0.00     0.046 C 
ATOM      2  C   UNL     1      -4.276  -0.059 -23.187  1.00  0.00     0.104 C 
ATOM      3  C   UNL     1      -5.448  -0.219 -22.152  1.00  0.00     0.104 C 
ATOM      4  C   UNL     1      -4.752   0.044 -20.771  1.00  0.00     0.175 C 
ATOM      5  C   UNL     1      -3.893   1.349 -20.830  1.00  0.00     0.070 C 
ATOM      6  C   UNL     1      -4.271   2.264 -22.010  1.00  0.00     0.050 C 
ATOM      7  C   UNL     1      -3.479   1.271 -22.902  1.00  0.00     0.115 C 
ATOM      8  C   UNL     1      -2.728   0.804 -21.652  1.00  0.00     0.096 C 
ATOM      9  C   UNL     1      -2.843  -0.711 -21.616  1.00  0.00     0.267 C 
ATOM     10  O   UNL     1      -3.358  -1.091 -22.882  1.00  0.00    -0.342 OA
ATOM     11  O   UNL     1      -3.807  -0.996 -20.614  1.00  0.00    -0.320 OA
ENDROOT
BRANCH   7  12
ATOM     12  O   UNL     1      -2.636   1.679 -23.984  1.00  0.00    -0.339 OA
BRANCH  12  13
ATOM     13  C   UNL     1      -3.238   2.557 -24.921  1.00  0.00     0.282 C 
ATOM     14  C   UNL     1      -2.999   4.025 -24.503  1.00  0.00     0.202 C 
ATOM     15  O   UNL     1      -2.788   2.316 -26.247  1.00  0.00    -0.341 OA
ATOM     16  C   UNL     1      -1.528   4.424 -24.706  1.00  0.00     0.179 C 
ATOM     17  C   UNL     1      -1.397   2.553 -26.391  1.00  0.00     0.178 C 
ATOM     18  C   UNL     1      -1.065   4.039 -26.120  1.00  0.00     0.177 C 
BRANCH  14  19
ATOM     19  O   UNL     1      -3.814   4.877 -25.268  1.00  0.00    -0.385 OA
ATOM     20  H   UNL     1      -3.820   5.759 -24.813  1.00  0.00     0.211 HD
ENDBRANCH  14  19
BRANCH  16  21
ATOM     21  O   UNL     1      -0.715   3.791 -23.749  1.00  0.00    -0.387 OA
ATOM     22  H   UNL     1      -0.016   4.446 -23.485  1.00  0.00     0.211 HD
ENDBRANCH  16  21
BRANCH  17  23
ATOM     23  C   UNL     1      -0.994   2.132 -27.813  1.00  0.00     0.191 C 
BRANCH  23  24
ATOM     24  O   UNL     1       0.382   1.874 -27.899  1.00  0.00    -0.394 OA
ATOM     25  H   UNL     1       0.519   0.949 -27.566  1.00  0.00     0.210 HD
ENDBRANCH  23  24
ENDBRANCH  17  23
BRANCH  18  26
ATOM     26  O   UNL     1       0.318   4.259 -26.241  1.00  0.00    -0.387 OA
ATOM     27  H   UNL     1       0.448   4.823 -27.047  1.00  0.00     0.211 HD
ENDBRANCH  18  26
ENDBRANCH  12  13
ENDBRANCH   7  12
BRANCH   4  28
ATOM     28  O   UNL     1      -5.662   0.047 -19.705  1.00  0.00    -0.365 OA
ATOM     29  H   UNL     1      -5.123   0.059 -18.872  1.00  0.00     0.214 HD
ENDBRANCH   4  28
BRANCH   8  30
ATOM     30  C   UNL     1      -1.335   1.406 -21.361  1.00  0.00     0.249 C 
BRANCH  30  31
ATOM     31  O   UNL     1      -0.331   0.391 -21.387  1.00  0.00    -0.461 OA
BRANCH  31  32
ATOM     32  C   UNL     1       0.881   0.467 -20.689  1.00  0.00     0.338 C 
ATOM     33  O   UNL     1       1.801  -0.364 -20.922  1.00  0.00    -0.246 OA
BRANCH  32  34
ATOM     34  C   UNL     1       1.070   1.515 -19.664  1.00  0.00     0.060 A 
ATOM     35  C   UNL     1       1.355   2.842 -20.035  1.00  0.00     0.015 A 
ATOM     36  C   UNL     1       0.960   1.197 -18.297  1.00  0.00     0.015 A 
ATOM     37  C   UNL     1       1.526   3.828 -19.059  1.00  0.00     0.001 A 
ATOM     38  C   UNL     1       1.134   2.187 -17.325  1.00  0.00     0.001 A 
ATOM     39  C   UNL     1       1.416   3.501 -17.705  1.00  0.00     0.000 A 
ENDBRANCH  32  34
ENDBRANCH  31  32
ENDBRANCH  30  31
ENDBRANCH   8  30
TORSDOF 12
ENDMDL
