MODEL 1
REMARK VINA RESULT:    -3.844      0.000      0.000
REMARK INTER + INTRA:          -5.664
REMARK INTER:                  -5.866
REMARK INTRA:                   0.202
REMARK UNBOUND:                 0.202
REMARK SMILES CC1=CCC[C@@H](C)C(=O)C[C@H](C(C)C)C(=O)C1
REMARK SMILES IDX 8 1 9 2 6 3 7 4 5 5 4 6 3 7 2 8 1 9 10 11 11 12 15 13 16 14
REMARK SMILES IDX 17 15 12 17 13 18 14 19
REMARK H PARENT
REMARK Flexibility Score: 70.00
ROOT
ATOM      1  C   UNL     1     -10.107  73.985  22.904  1.00  0.00     0.136 C 
ATOM      2  O   UNL     1     -10.856  73.030  22.754  1.00  0.00    -0.299 OA
ENDROOT
BRANCH   1   3
ATOM      3  C   UNL     1      -9.705  74.815  21.699  1.00  0.00     0.053 C 
ATOM      4  C   UNL     1     -10.643  74.531  20.517  1.00  0.00     0.016 C 
BRANCH   3   5
ATOM      5  C   UNL     1      -8.234  74.537  21.315  1.00  0.00     0.015 C 
BRANCH   5   6
ATOM      6  C   UNL     1      -7.875  73.047  21.482  1.00  0.00     0.028 C 
BRANCH   6   7
ATOM      7  C   UNL     1      -6.630  72.824  22.304  1.00  0.00    -0.028 C 
ATOM      8  C   UNL     1      -6.591  72.247  23.530  1.00  0.00    -0.070 CG0
ATOM      9  C   UNL     1      -5.260  72.202  24.239  1.00  0.00     0.039 C 
ATOM     10  G   UNL     1      -7.800  71.607  24.201  1.00  0.00     0.000 G0
ENDBRANCH   6   7
ENDBRANCH   5   6
ENDBRANCH   3   5
ENDBRANCH   1   3
BRANCH   1  11
ATOM     11  C   UNL     1      -9.613  74.320  24.294  1.00  0.00     0.087 C 
BRANCH  11  12
ATOM     12  C   UNL     1      -9.695  73.105  25.256  1.00  0.00     0.066 C 
BRANCH  12  13
ATOM     13  C   UNL     1      -8.349  72.404  25.375  1.00  0.00     0.140 C 
ATOM     14  O   UNL     1      -7.726  72.433  26.428  1.00  0.00    -0.299 OA
BRANCH  13  15
ATOM     15  C   UNL     1      -7.803  71.617  24.208  1.00  0.00     0.106 CG0
ATOM     16  G   UNL     1      -6.593  72.260  23.541  1.00  0.00     0.000 G0
ENDBRANCH  13  15
ENDBRANCH  12  13
BRANCH  12  17
ATOM     17  C   UNL     1     -10.293  73.458  26.657  1.00  0.00    -0.006 C 
ATOM     18  C   UNL     1      -9.748  74.770  27.254  1.00  0.00     0.008 C 
ATOM     19  C   UNL     1     -11.830  73.506  26.619  1.00  0.00     0.008 C 
ENDBRANCH  12  17
ENDBRANCH  11  12
ENDBRANCH   1  11
TORSDOF 1
ENDMDL
MODEL 2
REMARK VINA RESULT:    -3.765      2.169      3.657
REMARK INTER + INTRA:          -5.543
REMARK INTER:                  -5.485
REMARK INTRA:                  -0.059
REMARK UNBOUND:                 0.202
REMARK SMILES CC1=CCC[C@@H](C)C(=O)C[C@H](C(C)C)C(=O)C1
REMARK SMILES IDX 8 1 9 2 6 3 7 4 5 5 4 6 3 7 2 8 1 9 10 11 11 12 15 13 16 14
REMARK SMILES IDX 17 15 12 17 13 18 14 19
REMARK H PARENT
REMARK Flexibility Score: 70.00
ROOT
ATOM      1  C   UNL     1      -6.315  73.288  21.058  1.00  0.00     0.136 C 
ATOM      2  O   UNL     1      -6.947  73.087  20.029  1.00  0.00    -0.299 OA
ENDROOT
BRANCH   1   3
ATOM      3  C   UNL     1      -4.825  73.005  21.085  1.00  0.00     0.053 C 
ATOM      4  C   UNL     1      -4.074  74.006  20.196  1.00  0.00     0.016 C 
BRANCH   3   5
ATOM      5  C   UNL     1      -4.539  71.552  20.642  1.00  0.00     0.015 C 
BRANCH   5   6
ATOM      6  C   UNL     1      -5.344  70.536  21.477  1.00  0.00     0.028 C 
BRANCH   6   7
ATOM      7  C   UNL     1      -4.987  70.555  22.942  1.00  0.00    -0.028 C 
ATOM      8  C   UNL     1      -5.865  70.717  23.963  1.00  0.00    -0.070 CG0
ATOM      9  C   UNL     1      -5.303  70.809  25.360  1.00  0.00     0.039 C 
ATOM     10  G   UNL     1      -7.377  70.764  23.777  1.00  0.00     0.000 G0
ENDBRANCH   6   7
ENDBRANCH   5   6
ENDBRANCH   3   5
ENDBRANCH   1   3
BRANCH   1  11
ATOM     11  C   UNL     1      -7.039  73.826  22.272  1.00  0.00     0.087 C 
BRANCH  11  12
ATOM     12  C   UNL     1      -8.268  72.959  22.655  1.00  0.00     0.066 C 
BRANCH  12  13
ATOM     13  C   UNL     1      -7.994  72.135  23.906  1.00  0.00     0.140 C 
ATOM     14  O   UNL     1      -8.310  72.559  25.009  1.00  0.00    -0.299 OA
BRANCH  13  15
ATOM     15  C   UNL     1      -7.382  70.760  23.783  1.00  0.00     0.106 CG0
ATOM     16  G   UNL     1      -5.869  70.739  23.964  1.00  0.00     0.000 G0
ENDBRANCH  13  15
ENDBRANCH  12  13
BRANCH  12  17
ATOM     17  C   UNL     1      -9.595  73.779  22.778  1.00  0.00    -0.006 C 
ATOM     18  C   UNL     1      -9.922  74.624  21.532  1.00  0.00     0.008 C 
ATOM     19  C   UNL     1     -10.790  72.872  23.117  1.00  0.00     0.008 C 
ENDBRANCH  12  17
ENDBRANCH  11  12
ENDBRANCH   1  11
TORSDOF 1
ENDMDL
MODEL 3
REMARK VINA RESULT:    -3.738      5.282      7.103
REMARK INTER + INTRA:          -5.504
REMARK INTER:                  -6.061
REMARK INTRA:                   0.557
REMARK UNBOUND:                 0.202
REMARK SMILES CC1=CCC[C@@H](C)C(=O)C[C@H](C(C)C)C(=O)C1
REMARK SMILES IDX 8 1 9 2 6 3 7 4 5 5 4 6 3 7 2 8 1 9 10 11 11 12 15 13 16 14
REMARK SMILES IDX 17 15 12 17 13 18 14 19
REMARK H PARENT
REMARK Flexibility Score: 70.00
ROOT
ATOM      1  C   UNL     1     -11.925  72.340  29.410  1.00  0.00     0.136 C 
ATOM      2  O   UNL     1     -12.000  71.194  28.987  1.00  0.00    -0.299 OA
ENDROOT
BRANCH   1   3
ATOM      3  C   UNL     1     -11.838  73.493  28.427  1.00  0.00     0.053 C 
ATOM      4  C   UNL     1     -13.127  73.591  27.599  1.00  0.00     0.016 C 
BRANCH   3   5
ATOM      5  C   UNL     1     -10.604  73.333  27.511  1.00  0.00     0.015 C 
BRANCH   5   6
ATOM      6  C   UNL     1      -9.438  74.234  27.965  1.00  0.00     0.028 C 
BRANCH   6   7
ATOM      7  C   UNL     1      -9.778  75.090  29.159  1.00  0.00    -0.028 C 
ATOM      8  C   UNL     1      -9.515  74.775  30.452  1.00  0.00    -0.070 CG0
ATOM      9  C   UNL     1     -10.022  75.716  31.516  1.00  0.00     0.039 C 
ATOM     10  G   UNL     1      -8.702  73.559  30.876  1.00  0.00     0.000 G0
ENDBRANCH   6   7
ENDBRANCH   5   6
ENDBRANCH   3   5
ENDBRANCH   1   3
BRANCH   1  11
ATOM     11  C   UNL     1     -11.938  72.574  30.904  1.00  0.00     0.087 C 
BRANCH  11  12
ATOM     12  C   UNL     1     -10.681  71.988  31.601  1.00  0.00     0.066 C 
BRANCH  12  13
ATOM     13  C   UNL     1      -9.424  72.244  30.781  1.00  0.00     0.140 C 
ATOM     14  O   UNL     1      -9.016  71.403  29.992  1.00  0.00    -0.299 OA
BRANCH  13  15
ATOM     15  C   UNL     1      -8.707  73.568  30.895  1.00  0.00     0.106 CG0
ATOM     16  G   UNL     1      -9.537  74.763  30.444  1.00  0.00     0.000 G0
ENDBRANCH  13  15
ENDBRANCH  12  13
BRANCH  12  17
ATOM     17  C   UNL     1     -10.514  72.458  33.083  1.00  0.00    -0.006 C 
ATOM     18  C   UNL     1     -11.758  73.166  33.655  1.00  0.00     0.008 C 
ATOM     19  C   UNL     1     -10.112  71.294  34.003  1.00  0.00     0.008 C 
ENDBRANCH  12  17
ENDBRANCH  11  12
ENDBRANCH   1  11
TORSDOF 1
ENDMDL
MODEL 4
REMARK VINA RESULT:    -3.596      1.880      4.308
REMARK INTER + INTRA:          -5.286
REMARK INTER:                  -5.653
REMARK INTRA:                   0.367
REMARK UNBOUND:                 0.202
REMARK SMILES CC1=CCC[C@@H](C)C(=O)C[C@H](C(C)C)C(=O)C1
REMARK SMILES IDX 8 1 9 2 6 3 7 4 5 5 4 6 3 7 2 8 1 9 10 11 11 12 15 13 16 14
REMARK SMILES IDX 17 15 12 17 13 18 14 19
REMARK H PARENT
REMARK Flexibility Score: 70.00
ROOT
ATOM      1  C   UNL     1      -8.804  72.603  25.003  1.00  0.00     0.136 C 
ATOM      2  O   UNL     1      -9.505  71.630  24.759  1.00  0.00    -0.299 OA
ENDROOT
BRANCH   1   3
ATOM      3  C   UNL     1      -9.459  73.920  25.374  1.00  0.00     0.053 C 
ATOM      4  C   UNL     1     -10.577  73.692  26.400  1.00  0.00     0.016 C 
BRANCH   3   5
ATOM      5  C   UNL     1     -10.003  74.630  24.114  1.00  0.00     0.015 C 
BRANCH   5   6
ATOM      6  C   UNL     1      -9.876  73.739  22.861  1.00  0.00     0.028 C 
BRANCH   6   7
ATOM      7  C   UNL     1      -9.156  74.415  21.721  1.00  0.00    -0.028 C 
ATOM      8  C   UNL     1      -8.061  73.929  21.085  1.00  0.00    -0.070 CG0
ATOM      9  C   UNL     1      -7.422  74.800  20.032  1.00  0.00     0.039 C 
ATOM     10  G   UNL     1      -7.478  72.546  21.345  1.00  0.00     0.000 G0
ENDBRANCH   6   7
ENDBRANCH   5   6
ENDBRANCH   3   5
ENDBRANCH   1   3
BRANCH   1  11
ATOM     11  C   UNL     1      -7.300  72.457  24.942  1.00  0.00     0.087 C 
BRANCH  11  12
ATOM     12  C   UNL     1      -6.840  71.614  23.724  1.00  0.00     0.066 C 
BRANCH  12  13
ATOM     13  C   UNL     1      -6.514  72.500  22.530  1.00  0.00     0.140 C 
ATOM     14  O   UNL     1      -5.473  73.141  22.499  1.00  0.00    -0.299 OA
BRANCH  13  15
ATOM     15  C   UNL     1      -7.452  72.546  21.347  1.00  0.00     0.106 CG0
ATOM     16  G   UNL     1      -8.062  73.919  21.096  1.00  0.00     0.000 G0
ENDBRANCH  13  15
ENDBRANCH  12  13
BRANCH  12  17
ATOM     17  C   UNL     1      -5.670  70.629  24.054  1.00  0.00    -0.006 C 
ATOM     18  C   UNL     1      -5.133  70.759  25.493  1.00  0.00     0.008 C 
ATOM     19  C   UNL     1      -6.066  69.169  23.779  1.00  0.00     0.008 C 
ENDBRANCH  12  17
ENDBRANCH  11  12
ENDBRANCH   1  11
TORSDOF 1
ENDMDL
MODEL 5
REMARK VINA RESULT:    -3.492      1.652      4.284
REMARK INTER + INTRA:          -5.128
REMARK INTER:                  -4.955
REMARK INTRA:                  -0.173
REMARK UNBOUND:                 0.202
REMARK SMILES CC1=CCC[C@@H](C)C(=O)C[C@H](C(C)C)C(=O)C1
REMARK SMILES IDX 8 1 9 2 6 3 7 4 5 5 4 6 3 7 2 8 1 9 10 11 11 12 15 13 16 14
REMARK SMILES IDX 17 15 12 17 13 18 14 19
REMARK H PARENT
REMARK Flexibility Score: 70.00
ROOT
ATOM      1  C   UNL     1      -9.810  73.788  23.817  1.00  0.00     0.136 C 
ATOM      2  O   UNL     1     -10.247  74.930  23.866  1.00  0.00    -0.299 OA
ENDROOT
BRANCH   1   3
ATOM      3  C   UNL     1      -9.605  73.011  25.104  1.00  0.00     0.053 C 
ATOM      4  C   UNL     1      -9.240  73.963  26.251  1.00  0.00     0.016 C 
BRANCH   3   5
ATOM      5  C   UNL     1      -8.519  71.928  24.918  1.00  0.00     0.015 C 
BRANCH   5   6
ATOM      6  C   UNL     1      -7.121  72.456  25.296  1.00  0.00     0.028 C 
BRANCH   6   7
ATOM      7  C   UNL     1      -6.002  71.745  24.577  1.00  0.00    -0.028 C 
ATOM      8  C   UNL     1      -5.521  72.073  23.352  1.00  0.00    -0.070 CG0
ATOM      9  C   UNL     1      -4.464  71.179  22.754  1.00  0.00     0.039 C 
ATOM     10  G   UNL     1      -5.957  73.311  22.578  1.00  0.00     0.000 G0
ENDBRANCH   6   7
ENDBRANCH   5   6
ENDBRANCH   3   5
ENDBRANCH   1   3
BRANCH   1  11
ATOM     11  C   UNL     1      -9.499  73.178  22.468  1.00  0.00     0.087 C 
BRANCH  11  12
ATOM     12  C   UNL     1      -8.364  73.935  21.728  1.00  0.00     0.066 C 
BRANCH  12  13
ATOM     13  C   UNL     1      -7.110  73.080  21.619  1.00  0.00     0.140 C 
ATOM     14  O   UNL     1      -7.008  72.238  20.737  1.00  0.00    -0.299 OA
BRANCH  13  15
ATOM     15  C   UNL     1      -5.957  73.308  22.567  1.00  0.00     0.106 CG0
ATOM     16  G   UNL     1      -5.548  72.068  23.353  1.00  0.00     0.000 G0
ENDBRANCH  13  15
ENDBRANCH  12  13
BRANCH  12  17
ATOM     17  C   UNL     1      -8.800  74.508  20.339  1.00  0.00    -0.006 C 
ATOM     18  C   UNL     1     -10.261  74.996  20.298  1.00  0.00     0.008 C 
ATOM     19  C   UNL     1      -7.865  75.637  19.875  1.00  0.00     0.008 C 
ENDBRANCH  12  17
ENDBRANCH  11  12
ENDBRANCH   1  11
TORSDOF 1
ENDMDL
MODEL 6
REMARK VINA RESULT:    -3.483      4.041      7.471
REMARK INTER + INTRA:          -5.114
REMARK INTER:                  -5.691
REMARK INTRA:                   0.576
REMARK UNBOUND:                 0.202
REMARK SMILES CC1=CCC[C@@H](C)C(=O)C[C@H](C(C)C)C(=O)C1
REMARK SMILES IDX 8 1 9 2 6 3 7 4 5 5 4 6 3 7 2 8 1 9 10 11 11 12 15 13 16 14
REMARK SMILES IDX 17 15 12 17 13 18 14 19
REMARK H PARENT
REMARK Flexibility Score: 70.00
ROOT
ATOM      1  C   UNL     1      -9.543  74.778  30.538  1.00  0.00     0.136 C 
ATOM      2  O   UNL     1      -8.397  74.928  30.941  1.00  0.00    -0.299 OA
ENDROOT
BRANCH   1   3
ATOM      3  C   UNL     1     -10.664  74.567  31.539  1.00  0.00     0.053 C 
ATOM      4  C   UNL     1     -10.721  75.735  32.533  1.00  0.00     0.016 C 
BRANCH   3   5
ATOM      5  C   UNL     1     -10.484  73.222  32.279  1.00  0.00     0.015 C 
BRANCH   5   6
ATOM      6  C   UNL     1     -11.478  72.158  31.771  1.00  0.00     0.028 C 
BRANCH   6   7
ATOM      7  C   UNL     1     -12.301  72.625  30.596  1.00  0.00    -0.028 C 
ATOM      8  C   UNL     1     -11.975  72.454  29.291  1.00  0.00    -0.070 CG0
ATOM      9  C   UNL     1     -12.879  73.080  28.258  1.00  0.00     0.039 C 
ATOM     10  G   UNL     1     -10.783  71.631  28.819  1.00  0.00     0.000 G0
ENDBRANCH   6   7
ENDBRANCH   5   6
ENDBRANCH   3   5
ENDBRANCH   1   3
BRANCH   1  11
ATOM     11  C   UNL     1      -9.810  74.824  29.051  1.00  0.00     0.087 C 
BRANCH  11  12
ATOM     12  C   UNL     1      -9.159  73.632  28.300  1.00  0.00     0.066 C 
BRANCH  12  13
ATOM     13  C   UNL     1      -9.443  72.313  29.004  1.00  0.00     0.140 C 
ATOM     14  O   UNL     1      -8.618  71.827  29.765  1.00  0.00    -0.299 OA
BRANCH  13  15
ATOM     15  C   UNL     1     -10.774  71.627  28.811  1.00  0.00     0.106 CG0
ATOM     16  G   UNL     1     -11.968  72.454  29.270  1.00  0.00     0.000 G0
ENDBRANCH  13  15
ENDBRANCH  12  13
BRANCH  12  17
ATOM     17  C   UNL     1      -9.532  73.573  26.782  1.00  0.00    -0.006 C 
ATOM     18  C   UNL     1     -10.105  74.892  26.230  1.00  0.00     0.008 C 
ATOM     19  C   UNL     1      -8.336  73.129  25.923  1.00  0.00     0.008 C 
ENDBRANCH  12  17
ENDBRANCH  11  12
ENDBRANCH   1  11
TORSDOF 1
ENDMDL
MODEL 7
REMARK VINA RESULT:    -3.455      4.294      7.522
REMARK INTER + INTRA:          -5.070
REMARK INTER:                  -5.904
REMARK INTRA:                   0.833
REMARK UNBOUND:                 0.202
REMARK SMILES CC1=CCC[C@@H](C)C(=O)C[C@H](C(C)C)C(=O)C1
REMARK SMILES IDX 8 1 9 2 6 3 7 4 5 5 4 6 3 7 2 8 1 9 10 11 11 12 15 13 16 14
REMARK SMILES IDX 17 15 12 17 13 18 14 19
REMARK H PARENT
REMARK Flexibility Score: 70.00
ROOT
ATOM      1  C   UNL     1      -9.759  75.178  30.898  1.00  0.00     0.136 C 
ATOM      2  O   UNL     1      -8.621  74.997  31.310  1.00  0.00    -0.299 OA
ENDROOT
BRANCH   1   3
ATOM      3  C   UNL     1     -10.914  75.196  31.882  1.00  0.00     0.053 C 
ATOM      4  C   UNL     1     -10.934  76.520  32.659  1.00  0.00     0.016 C 
BRANCH   3   5
ATOM      5  C   UNL     1     -10.825  73.992  32.846  1.00  0.00     0.015 C 
BRANCH   5   6
ATOM      6  C   UNL     1     -11.039  72.656  32.107  1.00  0.00     0.028 C 
BRANCH   6   7
ATOM      7  C   UNL     1      -9.762  72.067  31.561  1.00  0.00    -0.028 C 
ATOM      8  C   UNL     1      -9.591  71.593  30.302  1.00  0.00    -0.070 CG0
ATOM      9  C   UNL     1      -8.267  70.949  29.973  1.00  0.00     0.039 C 
ATOM     10  G   UNL     1     -10.638  71.717  29.203  1.00  0.00     0.000 G0
ENDBRANCH   6   7
ENDBRANCH   5   6
ENDBRANCH   3   5
ENDBRANCH   1   3
BRANCH   1  11
ATOM     11  C   UNL     1      -9.978  75.392  29.417  1.00  0.00     0.087 C 
BRANCH  11  12
ATOM     12  C   UNL     1      -9.726  74.102  28.592  1.00  0.00     0.066 C 
BRANCH  12  13
ATOM     13  C   UNL     1     -10.889  73.128  28.721  1.00  0.00     0.140 C 
ATOM     14  O   UNL     1     -12.021  73.469  28.408  1.00  0.00    -0.299 OA
BRANCH  13  15
ATOM     15  C   UNL     1     -10.639  71.712  29.184  1.00  0.00     0.106 CG0
ATOM     16  G   UNL     1      -9.594  71.598  30.286  1.00  0.00     0.000 G0
ENDBRANCH  13  15
ENDBRANCH  12  13
BRANCH  12  17
ATOM     17  C   UNL     1      -9.364  74.380  27.097  1.00  0.00    -0.006 C 
ATOM     18  C   UNL     1      -9.003  73.112  26.297  1.00  0.00     0.008 C 
ATOM     19  C   UNL     1     -10.487  75.144  26.376  1.00  0.00     0.008 C 
ENDBRANCH  12  17
ENDBRANCH  11  12
ENDBRANCH   1  11
TORSDOF 1
ENDMDL
MODEL 8
REMARK VINA RESULT:    -3.191      4.335      6.101
REMARK INTER + INTRA:          -4.668
REMARK INTER:                  -4.587
REMARK INTRA:                  -0.080
REMARK UNBOUND:                 0.202
REMARK SMILES CC1=CCC[C@@H](C)C(=O)C[C@H](C(C)C)C(=O)C1
REMARK SMILES IDX 8 1 9 2 6 3 7 4 5 5 4 6 3 7 2 8 1 9 10 11 11 12 15 13 16 14
REMARK SMILES IDX 17 15 12 17 13 18 14 19
REMARK H PARENT
REMARK Flexibility Score: 70.00
ROOT
ATOM      1  C   UNL     1      -5.537  71.210  24.887  1.00  0.00     0.136 C 
ATOM      2  O   UNL     1      -6.425  71.758  25.527  1.00  0.00    -0.299 OA
ENDROOT
BRANCH   1   3
ATOM      3  C   UNL     1      -5.655  71.118  23.377  1.00  0.00     0.053 C 
ATOM      4  C   UNL     1      -5.405  72.490  22.736  1.00  0.00     0.016 C 
BRANCH   3   5
ATOM      5  C   UNL     1      -7.039  70.564  22.973  1.00  0.00     0.015 C 
BRANCH   5   6
ATOM      6  C   UNL     1      -7.144  69.048  23.238  1.00  0.00     0.028 C 
BRANCH   6   7
ATOM      7  C   UNL     1      -6.133  68.238  22.465  1.00  0.00    -0.028 C 
ATOM      8  C   UNL     1      -5.157  67.471  23.012  1.00  0.00    -0.070 CG0
ATOM      9  C   UNL     1      -4.178  66.813  22.072  1.00  0.00     0.039 C 
ATOM     10  G   UNL     1      -5.030  67.205  24.507  1.00  0.00     0.000 G0
ENDBRANCH   6   7
ENDBRANCH   5   6
ENDBRANCH   3   5
ENDBRANCH   1   3
BRANCH   1  11
ATOM     11  C   UNL     1      -4.340  70.651  25.623  1.00  0.00     0.087 C 
BRANCH  11  12
ATOM     12  C   UNL     1      -4.598  69.220  26.165  1.00  0.00     0.066 C 
BRANCH  12  13
ATOM     13  C   UNL     1      -4.068  68.163  25.206  1.00  0.00     0.140 C 
ATOM     14  O   UNL     1      -2.865  68.034  25.029  1.00  0.00    -0.299 OA
BRANCH  13  15
ATOM     15  C   UNL     1      -5.028  67.226  24.512  1.00  0.00     0.106 CG0
ATOM     16  G   UNL     1      -5.146  67.462  23.012  1.00  0.00     0.000 G0
ENDBRANCH  13  15
ENDBRANCH  12  13
BRANCH  12  17
ATOM     17  C   UNL     1      -4.071  69.001  27.621  1.00  0.00    -0.006 C 
ATOM     18  C   UNL     1      -4.881  69.752  28.696  1.00  0.00     0.008 C 
ATOM     19  C   UNL     1      -3.999  67.507  27.977  1.00  0.00     0.008 C 
ENDBRANCH  12  17
ENDBRANCH  11  12
ENDBRANCH   1  11
TORSDOF 1
ENDMDL
MODEL 9
REMARK VINA RESULT:    -3.176     12.112     13.439
REMARK INTER + INTRA:          -4.645
REMARK INTER:                  -4.538
REMARK INTRA:                  -0.107
REMARK UNBOUND:                 0.202
REMARK SMILES CC1=CCC[C@@H](C)C(=O)C[C@H](C(C)C)C(=O)C1
REMARK SMILES IDX 8 1 9 2 6 3 7 4 5 5 4 6 3 7 2 8 1 9 10 11 11 12 15 13 16 14
REMARK SMILES IDX 17 15 12 17 13 18 14 19
REMARK H PARENT
REMARK Flexibility Score: 70.00
ROOT
ATOM      1  C   UNL     1      -5.396  69.353  37.293  1.00  0.00     0.136 C 
ATOM      2  O   UNL     1      -5.327  70.464  37.803  1.00  0.00    -0.299 OA
ENDROOT
BRANCH   1   3
ATOM      3  C   UNL     1      -4.153  68.736  36.680  1.00  0.00     0.053 C 
ATOM      4  C   UNL     1      -3.060  68.565  37.744  1.00  0.00     0.016 C 
BRANCH   3   5
ATOM      5  C   UNL     1      -3.645  69.595  35.500  1.00  0.00     0.015 C 
BRANCH   5   6
ATOM      6  C   UNL     1      -3.781  68.851  34.156  1.00  0.00     0.028 C 
BRANCH   6   7
ATOM      7  C   UNL     1      -4.014  67.369  34.317  1.00  0.00    -0.028 C 
ATOM      8  C   UNL     1      -5.224  66.757  34.299  1.00  0.00    -0.070 CG0
ATOM      9  C   UNL     1      -5.261  65.275  34.577  1.00  0.00     0.039 C 
ATOM     10  G   UNL     1      -6.527  67.474  33.969  1.00  0.00     0.000 G0
ENDBRANCH   6   7
ENDBRANCH   5   6
ENDBRANCH   3   5
ENDBRANCH   1   3
BRANCH   1  11
ATOM     11  C   UNL     1      -6.719  68.622  37.303  1.00  0.00     0.087 C 
BRANCH  11  12
ATOM     12  C   UNL     1      -7.517  68.831  35.988  1.00  0.00     0.066 C 
BRANCH  12  13
ATOM     13  C   UNL     1      -7.502  67.576  35.127  1.00  0.00     0.140 C 
ATOM     14  O   UNL     1      -8.298  66.672  35.336  1.00  0.00    -0.299 OA
BRANCH  13  15
ATOM     15  C   UNL     1      -6.538  67.467  33.970  1.00  0.00     0.106 CG0
ATOM     16  G   UNL     1      -5.238  66.749  34.313  1.00  0.00     0.000 G0
ENDBRANCH  13  15
ENDBRANCH  12  13
BRANCH  12  17
ATOM     17  C   UNL     1      -8.970  69.361  36.219  1.00  0.00    -0.006 C 
ATOM     18  C   UNL     1      -9.558  68.989  37.595  1.00  0.00     0.008 C 
ATOM     19  C   UNL     1      -9.056  70.882  36.014  1.00  0.00     0.008 C 
ENDBRANCH  12  17
ENDBRANCH  11  12
ENDBRANCH   1  11
TORSDOF 1
ENDMDL
