MODEL 1
REMARK VINA RESULT:    -6.417      0.000      0.000
REMARK INTER + INTRA:         -10.734
REMARK INTER:                  -9.417
REMARK INTRA:                  -1.316
REMARK UNBOUND:                -1.316
REMARK SMILES O=c1c(O[C@H]2O[C@H](CO)[C@@H](O)[C@@H](O)[C@@H]2O)c(-c2ccc(O)c(O)c2)oc2cc(O)cc(O)c12
REMARK SMILES IDX 4 1 3 2 16 3 25 4 2 5 26 6 1 7 33 8 27 9 31 10 28 11 30 12
REMARK SMILES IDX 17 13 18 14 19 15 20 16 24 17 22 18 21 19 23 21 32 23 29 25
REMARK SMILES IDX 5 27 14 28 6 29 12 30 7 31 10 32 15 33 13 35 8 37 9 38 11 40
REMARK H PARENT 21 20 23 22 32 24 29 26 15 34 13 36 9 39 11 41
REMARK Flexibility Score: inf
ROOT
ATOM      1  O   UNL     1     -38.438   5.114  80.316  1.00  0.00    -0.454 OA
ENDROOT
BRANCH   1   2
ATOM      2  C   UNL     1     -37.305   5.850  80.721  1.00  0.00     0.214 A 
ATOM      3  C   UNL     1     -36.919   6.958  79.939  1.00  0.00     0.180 A 
ATOM      4  O   UNL     1     -35.817   7.640  80.232  1.00  0.00    -0.452 OA
ATOM      5  C   UNL     1     -36.512   5.524  81.847  1.00  0.00     0.239 A 
ATOM      6  C   UNL     1     -35.040   7.357  81.269  1.00  0.00     0.146 A 
ATOM      7  O   UNL     1     -36.826   4.559  82.592  1.00  0.00    -0.285 OA
ATOM      8  C   UNL     1     -35.357   6.285  82.134  1.00  0.00     0.111 A 
ATOM      9  C   UNL     1     -33.903   8.138  81.497  1.00  0.00     0.094 A 
ATOM     10  C   UNL     1     -34.509   6.020  83.237  1.00  0.00     0.134 A 
ATOM     11  C   UNL     1     -33.069   7.869  82.587  1.00  0.00     0.123 A 
ATOM     12  C   UNL     1     -33.373   6.816  83.451  1.00  0.00     0.093 A 
BRANCH   3  13
ATOM     13  C   UNL     1     -37.705   7.392  78.767  1.00  0.00     0.025 A 
ATOM     14  C   UNL     1     -37.392   6.933  77.479  1.00  0.00     0.016 A 
ATOM     15  C   UNL     1     -38.156   7.334  76.381  1.00  0.00     0.051 A 
ATOM     16  C   UNL     1     -39.252   8.185  76.557  1.00  0.00     0.157 A 
ATOM     17  C   UNL     1     -38.820   8.226  78.946  1.00  0.00     0.062 A 
ATOM     18  C   UNL     1     -39.590   8.631  77.846  1.00  0.00     0.158 A 
BRANCH  16  19
ATOM     19  O   UNL     1     -39.996   8.572  75.442  1.00  0.00    -0.504 OA
ATOM     20  H   UNL     1     -40.173   9.546  75.225  1.00  0.00     0.293 HD
ENDBRANCH  16  19
BRANCH  18  21
ATOM     21  O   UNL     1     -40.686   9.471  78.030  1.00  0.00    -0.504 OA
ATOM     22  H   UNL     1     -41.422   9.543  77.336  1.00  0.00     0.293 HD
ENDBRANCH  18  21
ENDBRANCH   3  13
BRANCH  10  23
ATOM     23  O   UNL     1     -34.782   4.975  84.121  1.00  0.00    -0.507 OA
ATOM     24  H   UNL     1     -34.083   4.281  84.358  1.00  0.00     0.293 HD
ENDBRANCH  10  23
BRANCH  11  25
ATOM     25  O   UNL     1     -31.935   8.644  82.821  1.00  0.00    -0.508 OA
ATOM     26  H   UNL     1     -32.004   9.585  83.191  1.00  0.00     0.293 HD
ENDBRANCH  11  25
ENDBRANCH   1   2
BRANCH   1  27
ATOM     27  C   UNL     1     -38.555   3.690  80.220  1.00  0.00     0.339 C 
ATOM     28  C   UNL     1     -38.778   3.257  78.755  1.00  0.00     0.214 C 
ATOM     29  O   UNL     1     -39.582   3.193  81.064  1.00  0.00    -0.332 OA
ATOM     30  C   UNL     1     -40.179   3.657  78.267  1.00  0.00     0.180 C 
ATOM     31  C   UNL     1     -40.853   3.711  80.708  1.00  0.00     0.179 C 
ATOM     32  C   UNL     1     -41.251   3.230  79.292  1.00  0.00     0.177 C 
BRANCH  28  33
ATOM     33  O   UNL     1     -38.636   1.863  78.646  1.00  0.00    -0.384 OA
ATOM     34  H   UNL     1     -38.401   1.525  79.550  1.00  0.00     0.211 HD
ENDBRANCH  28  33
BRANCH  30  35
ATOM     35  O   UNL     1     -40.221   5.046  78.059  1.00  0.00    -0.387 OA
ATOM     36  H   UNL     1     -41.173   5.323  78.112  1.00  0.00     0.211 HD
ENDBRANCH  30  35
BRANCH  31  37
ATOM     37  C   UNL     1     -41.864   3.236  81.766  1.00  0.00     0.191 C 
BRANCH  37  38
ATOM     38  O   UNL     1     -43.129   3.804  81.554  1.00  0.00    -0.394 OA
ATOM     39  H   UNL     1     -43.640   3.160  80.998  1.00  0.00     0.210 HD
ENDBRANCH  37  38
ENDBRANCH  31  37
BRANCH  32  40
ATOM     40  O   UNL     1     -42.500   3.762  78.930  1.00  0.00    -0.387 OA
ATOM     41  H   UNL     1     -42.616   3.583  77.961  1.00  0.00     0.211 HD
ENDBRANCH  32  40
ENDBRANCH   1  27
TORSDOF 12
ENDMDL
MODEL 2
REMARK VINA RESULT:    -6.372      2.414      6.965
REMARK INTER + INTRA:         -10.668
REMARK INTER:                  -9.864
REMARK INTRA:                  -0.804
REMARK UNBOUND:                -1.316
REMARK SMILES O=c1c(O[C@H]2O[C@H](CO)[C@@H](O)[C@@H](O)[C@@H]2O)c(-c2ccc(O)c(O)c2)oc2cc(O)cc(O)c12
REMARK SMILES IDX 4 1 3 2 16 3 25 4 2 5 26 6 1 7 33 8 27 9 31 10 28 11 30 12
REMARK SMILES IDX 17 13 18 14 19 15 20 16 24 17 22 18 21 19 23 21 32 23 29 25
REMARK SMILES IDX 5 27 14 28 6 29 12 30 7 31 10 32 15 33 13 35 8 37 9 38 11 40
REMARK H PARENT 21 20 23 22 32 24 29 26 15 34 13 36 9 39 11 41
REMARK Flexibility Score: inf
ROOT
ATOM      1  O   UNL     1     -38.517   6.062  81.073  1.00  0.00    -0.454 OA
ENDROOT
BRANCH   1   2
ATOM      2  C   UNL     1     -39.247   5.236  80.193  1.00  0.00     0.214 A 
ATOM      3  C   UNL     1     -38.707   4.987  78.915  1.00  0.00     0.180 A 
ATOM      4  O   UNL     1     -39.387   4.279  78.021  1.00  0.00    -0.452 OA
ATOM      5  C   UNL     1     -40.506   4.669  80.503  1.00  0.00     0.239 A 
ATOM      6  C   UNL     1     -40.575   3.744  78.267  1.00  0.00     0.146 A 
ATOM      7  O   UNL     1     -41.022   4.841  81.638  1.00  0.00    -0.285 OA
ATOM      8  C   UNL     1     -41.189   3.907  79.529  1.00  0.00     0.111 A 
ATOM      9  C   UNL     1     -41.209   3.009  77.261  1.00  0.00     0.094 A 
ATOM     10  C   UNL     1     -42.454   3.312  79.759  1.00  0.00     0.134 A 
ATOM     11  C   UNL     1     -42.459   2.426  77.495  1.00  0.00     0.123 A 
ATOM     12  C   UNL     1     -43.075   2.577  78.738  1.00  0.00     0.093 A 
BRANCH   3  13
ATOM     13  C   UNL     1     -37.384   5.510  78.517  1.00  0.00     0.025 A 
ATOM     14  C   UNL     1     -37.271   6.699  77.780  1.00  0.00     0.016 A 
ATOM     15  C   UNL     1     -36.013   7.194  77.427  1.00  0.00     0.051 A 
ATOM     16  C   UNL     1     -34.853   6.519  77.820  1.00  0.00     0.157 A 
ATOM     17  C   UNL     1     -36.219   4.846  78.930  1.00  0.00     0.062 A 
ATOM     18  C   UNL     1     -34.955   5.340  78.578  1.00  0.00     0.158 A 
BRANCH  16  19
ATOM     19  O   UNL     1     -33.611   7.035  77.450  1.00  0.00    -0.504 OA
ATOM     20  H   UNL     1     -32.742   6.604  77.742  1.00  0.00     0.293 HD
ENDBRANCH  16  19
BRANCH  18  21
ATOM     21  O   UNL     1     -33.803   4.667  78.980  1.00  0.00    -0.504 OA
ATOM     22  H   UNL     1     -32.916   4.801  78.506  1.00  0.00     0.293 HD
ENDBRANCH  18  21
ENDBRANCH   3  13
BRANCH  10  23
ATOM     23  O   UNL     1     -43.099   3.443  80.990  1.00  0.00    -0.507 OA
ATOM     24  H   UNL     1     -44.059   3.147  81.123  1.00  0.00     0.293 HD
ENDBRANCH  10  23
BRANCH  11  25
ATOM     25  O   UNL     1     -43.096   1.692  76.496  1.00  0.00    -0.508 OA
ATOM     26  H   UNL     1     -43.050   1.970  75.523  1.00  0.00     0.293 HD
ENDBRANCH  11  25
ENDBRANCH   1   2
BRANCH   1  27
ATOM     27  C   UNL     1     -38.834   6.366  82.437  1.00  0.00     0.339 C 
ATOM     28  C   UNL     1     -38.131   7.665  82.886  1.00  0.00     0.214 C 
ATOM     29  O   UNL     1     -38.517   5.285  83.299  1.00  0.00    -0.332 OA
ATOM     30  C   UNL     1     -36.615   7.454  83.023  1.00  0.00     0.180 C 
ATOM     31  C   UNL     1     -37.130   4.988  83.282  1.00  0.00     0.179 C 
ATOM     32  C   UNL     1     -36.318   6.181  83.841  1.00  0.00     0.177 C 
BRANCH  28  33
ATOM     33  O   UNL     1     -38.649   8.080  84.124  1.00  0.00    -0.384 OA
ATOM     34  H   UNL     1     -37.976   7.843  84.814  1.00  0.00     0.211 HD
ENDBRANCH  28  33
BRANCH  30  35
ATOM     35  O   UNL     1     -36.040   7.364  81.743  1.00  0.00    -0.387 OA
ATOM     36  H   UNL     1     -36.767   7.518  81.084  1.00  0.00     0.211 HD
ENDBRANCH  30  35
BRANCH  31  37
ATOM     37  C   UNL     1     -36.914   3.718  84.123  1.00  0.00     0.191 C 
BRANCH  37  38
ATOM     38  O   UNL     1     -35.712   3.079  83.784  1.00  0.00    -0.394 OA
ATOM     39  H   UNL     1     -35.193   2.986  84.625  1.00  0.00     0.210 HD
ENDBRANCH  37  38
ENDBRANCH  31  37
BRANCH  32  40
ATOM     40  O   UNL     1     -34.943   5.894  83.802  1.00  0.00    -0.387 OA
ATOM     41  H   UNL     1     -34.471   6.767  83.789  1.00  0.00     0.211 HD
ENDBRANCH  32  40
ENDBRANCH   1  27
TORSDOF 12
ENDMDL
MODEL 3
REMARK VINA RESULT:    -6.308      2.410      5.687
REMARK INTER + INTRA:         -10.575
REMARK INTER:                  -9.353
REMARK INTRA:                  -1.222
REMARK UNBOUND:                -1.316
REMARK SMILES O=c1c(O[C@H]2O[C@H](CO)[C@@H](O)[C@@H](O)[C@@H]2O)c(-c2ccc(O)c(O)c2)oc2cc(O)cc(O)c12
REMARK SMILES IDX 4 1 3 2 16 3 25 4 2 5 26 6 1 7 33 8 27 9 31 10 28 11 30 12
REMARK SMILES IDX 17 13 18 14 19 15 20 16 24 17 22 18 21 19 23 21 32 23 29 25
REMARK SMILES IDX 5 27 14 28 6 29 12 30 7 31 10 32 15 33 13 35 8 37 9 38 11 40
REMARK H PARENT 21 20 23 22 32 24 29 26 15 34 13 36 9 39 11 41
REMARK Flexibility Score: inf
ROOT
ATOM      1  O   UNL     1     -38.276   5.496  80.677  1.00  0.00    -0.454 OA
ENDROOT
BRANCH   1   2
ATOM      2  C   UNL     1     -38.355   6.305  79.523  1.00  0.00     0.214 A 
ATOM      3  C   UNL     1     -39.270   5.935  78.516  1.00  0.00     0.180 A 
ATOM      4  O   UNL     1     -39.332   6.617  77.378  1.00  0.00    -0.452 OA
ATOM      5  C   UNL     1     -37.549   7.447  79.301  1.00  0.00     0.239 A 
ATOM      6  C   UNL     1     -38.583   7.682  77.126  1.00  0.00     0.146 A 
ATOM      7  O   UNL     1     -36.733   7.833  80.179  1.00  0.00    -0.285 OA
ATOM      8  C   UNL     1     -37.658   8.155  78.084  1.00  0.00     0.111 A 
ATOM      9  C   UNL     1     -38.727   8.337  75.899  1.00  0.00     0.094 A 
ATOM     10  C   UNL     1     -36.884   9.302  77.783  1.00  0.00     0.134 A 
ATOM     11  C   UNL     1     -37.957   9.468  75.608  1.00  0.00     0.123 A 
ATOM     12  C   UNL     1     -37.042   9.946  76.547  1.00  0.00     0.093 A 
BRANCH   3  13
ATOM     13  C   UNL     1     -40.174   4.779  78.676  1.00  0.00     0.025 A 
ATOM     14  C   UNL     1     -40.076   3.664  77.831  1.00  0.00     0.016 A 
ATOM     15  C   UNL     1     -40.924   2.568  78.005  1.00  0.00     0.051 A 
ATOM     16  C   UNL     1     -41.869   2.564  79.036  1.00  0.00     0.157 A 
ATOM     17  C   UNL     1     -41.107   4.765  79.726  1.00  0.00     0.062 A 
ATOM     18  C   UNL     1     -41.960   3.666  79.904  1.00  0.00     0.158 A 
BRANCH  16  19
ATOM     19  O   UNL     1     -42.705   1.458  79.185  1.00  0.00    -0.504 OA
ATOM     20  H   UNL     1     -43.413   1.222  78.498  1.00  0.00     0.293 HD
ENDBRANCH  16  19
BRANCH  18  21
ATOM     21  O   UNL     1     -42.893   3.665  80.939  1.00  0.00    -0.504 OA
ATOM     22  H   UNL     1     -42.797   3.052  81.741  1.00  0.00     0.293 HD
ENDBRANCH  18  21
ENDBRANCH   3  13
BRANCH  10  23
ATOM     23  O   UNL     1     -35.959   9.807  78.699  1.00  0.00    -0.507 OA
ATOM     24  H   UNL     1     -35.008   9.458  78.743  1.00  0.00     0.293 HD
ENDBRANCH  10  23
BRANCH  11  25
ATOM     25  O   UNL     1     -38.096  10.125  74.387  1.00  0.00    -0.508 OA
ATOM     26  H   UNL     1     -37.571  10.965  74.174  1.00  0.00     0.293 HD
ENDBRANCH  11  25
ENDBRANCH   1   2
BRANCH   1  27
ATOM     27  C   UNL     1     -38.406   5.920  82.040  1.00  0.00     0.339 C 
ATOM     28  C   UNL     1     -37.067   5.758  82.793  1.00  0.00     0.214 C 
ATOM     29  O   UNL     1     -39.454   5.230  82.702  1.00  0.00    -0.332 OA
ATOM     30  C   UNL     1     -36.736   4.276  83.021  1.00  0.00     0.180 C 
ATOM     31  C   UNL     1     -39.215   3.832  82.752  1.00  0.00     0.179 C 
ATOM     32  C   UNL     1     -37.957   3.533  83.601  1.00  0.00     0.177 C 
BRANCH  28  33
ATOM     33  O   UNL     1     -37.143   6.408  84.036  1.00  0.00    -0.384 OA
ATOM     34  H   UNL     1     -38.059   6.784  84.111  1.00  0.00     0.211 HD
ENDBRANCH  28  33
BRANCH  30  35
ATOM     35  O   UNL     1     -36.336   3.695  81.805  1.00  0.00    -0.387 OA
ATOM     36  H   UNL     1     -36.973   4.005  81.109  1.00  0.00     0.211 HD
ENDBRANCH  30  35
BRANCH  31  37
ATOM     37  C   UNL     1     -40.467   3.166  83.347  1.00  0.00     0.191 C 
BRANCH  37  38
ATOM     38  O   UNL     1     -40.590   1.835  82.919  1.00  0.00    -0.394 OA
ATOM     39  H   UNL     1     -41.337   1.438  83.438  1.00  0.00     0.210 HD
ENDBRANCH  37  38
ENDBRANCH  31  37
BRANCH  32  40
ATOM     40  O   UNL     1     -37.708   2.150  83.631  1.00  0.00    -0.387 OA
ATOM     41  H   UNL     1     -38.556   1.714  83.906  1.00  0.00     0.211 HD
ENDBRANCH  32  40
ENDBRANCH   1  27
TORSDOF 12
ENDMDL
MODEL 4
REMARK VINA RESULT:    -6.289      2.104      6.895
REMARK INTER + INTRA:         -10.547
REMARK INTER:                  -9.039
REMARK INTRA:                  -1.508
REMARK UNBOUND:                -1.316
REMARK SMILES O=c1c(O[C@H]2O[C@H](CO)[C@@H](O)[C@@H](O)[C@@H]2O)c(-c2ccc(O)c(O)c2)oc2cc(O)cc(O)c12
REMARK SMILES IDX 4 1 3 2 16 3 25 4 2 5 26 6 1 7 33 8 27 9 31 10 28 11 30 12
REMARK SMILES IDX 17 13 18 14 19 15 20 16 24 17 22 18 21 19 23 21 32 23 29 25
REMARK SMILES IDX 5 27 14 28 6 29 12 30 7 31 10 32 15 33 13 35 8 37 9 38 11 40
REMARK H PARENT 21 20 23 22 32 24 29 26 15 34 13 36 9 39 11 41
REMARK Flexibility Score: inf
ROOT
ATOM      1  O   UNL     1     -38.101   5.836  81.361  1.00  0.00    -0.454 OA
ENDROOT
BRANCH   1   2
ATOM      2  C   UNL     1     -38.903   5.138  80.434  1.00  0.00     0.214 A 
ATOM      3  C   UNL     1     -38.505   5.136  79.081  1.00  0.00     0.180 A 
ATOM      4  O   UNL     1     -39.261   4.558  78.156  1.00  0.00    -0.452 OA
ATOM      5  C   UNL     1     -40.101   4.465  80.773  1.00  0.00     0.239 A 
ATOM      6  C   UNL     1     -40.397   3.932  78.431  1.00  0.00     0.146 A 
ATOM      7  O   UNL     1     -40.488   4.416  81.970  1.00  0.00    -0.285 OA
ATOM      8  C   UNL     1     -40.868   3.847  79.761  1.00  0.00     0.111 A 
ATOM      9  C   UNL     1     -41.120   3.349  77.386  1.00  0.00     0.094 A 
ATOM     10  C   UNL     1     -42.080   3.160  80.017  1.00  0.00     0.134 A 
ATOM     11  C   UNL     1     -42.317   2.674  77.647  1.00  0.00     0.123 A 
ATOM     12  C   UNL     1     -42.791   2.581  78.956  1.00  0.00     0.093 A 
BRANCH   3  13
ATOM     13  C   UNL     1     -37.253   5.784  78.641  1.00  0.00     0.025 A 
ATOM     14  C   UNL     1     -36.062   5.049  78.528  1.00  0.00     0.016 A 
ATOM     15  C   UNL     1     -34.889   5.668  78.090  1.00  0.00     0.051 A 
ATOM     16  C   UNL     1     -34.893   7.024  77.745  1.00  0.00     0.157 A 
ATOM     17  C   UNL     1     -37.261   7.138  78.271  1.00  0.00     0.062 A 
ATOM     18  C   UNL     1     -36.084   7.763  77.832  1.00  0.00     0.158 A 
BRANCH  16  19
ATOM     19  O   UNL     1     -33.706   7.616  77.314  1.00  0.00    -0.504 OA
ATOM     20  H   UNL     1     -33.156   7.229  76.556  1.00  0.00     0.293 HD
ENDBRANCH  16  19
BRANCH  18  21
ATOM     21  O   UNL     1     -36.098   9.111  77.480  1.00  0.00    -0.504 OA
ATOM     22  H   UNL     1     -35.870   9.837  78.151  1.00  0.00     0.293 HD
ENDBRANCH  18  21
ENDBRANCH   3  13
BRANCH  10  23
ATOM     23  O   UNL     1     -42.584   3.049  81.314  1.00  0.00    -0.507 OA
ATOM     24  H   UNL     1     -43.427   3.531  81.602  1.00  0.00     0.293 HD
ENDBRANCH  10  23
BRANCH  11  25
ATOM     25  O   UNL     1     -43.042   2.090  76.610  1.00  0.00    -0.508 OA
ATOM     26  H   UNL     1     -43.939   2.460  76.316  1.00  0.00     0.293 HD
ENDBRANCH  11  25
ENDBRANCH   1   2
BRANCH   1  27
ATOM     27  C   UNL     1     -36.910   5.365  82.002  1.00  0.00     0.339 C 
ATOM     28  C   UNL     1     -37.088   5.334  83.535  1.00  0.00     0.214 C 
ATOM     29  O   UNL     1     -35.779   6.137  81.632  1.00  0.00    -0.332 OA
ATOM     30  C   UNL     1     -37.139   6.757  84.115  1.00  0.00     0.180 C 
ATOM     31  C   UNL     1     -35.917   7.494  82.022  1.00  0.00     0.179 C 
ATOM     32  C   UNL     1     -35.974   7.605  83.564  1.00  0.00     0.177 C 
BRANCH  28  33
ATOM     33  O   UNL     1     -36.019   4.638  84.123  1.00  0.00    -0.384 OA
ATOM     34  H   UNL     1     -35.229   5.239  84.090  1.00  0.00     0.211 HD
ENDBRANCH  28  33
BRANCH  30  35
ATOM     35  O   UNL     1     -38.374   7.346  83.795  1.00  0.00    -0.387 OA
ATOM     36  H   UNL     1     -38.438   8.191  84.312  1.00  0.00     0.211 HD
ENDBRANCH  30  35
BRANCH  31  37
ATOM     37  C   UNL     1     -34.720   8.269  81.447  1.00  0.00     0.191 C 
BRANCH  37  38
ATOM     38  O   UNL     1     -35.105   9.541  80.994  1.00  0.00    -0.394 OA
ATOM     39  H   UNL     1     -34.776   9.622  80.061  1.00  0.00     0.210 HD
ENDBRANCH  37  38
ENDBRANCH  31  37
BRANCH  32  40
ATOM     40  O   UNL     1     -36.134   8.947  83.949  1.00  0.00    -0.387 OA
ATOM     41  H   UNL     1     -36.491   8.937  84.875  1.00  0.00     0.211 HD
ENDBRANCH  32  40
ENDBRANCH   1  27
TORSDOF 12
ENDMDL
MODEL 5
REMARK VINA RESULT:    -6.213     10.869     15.653
REMARK INTER + INTRA:         -10.435
REMARK INTER:                  -8.780
REMARK INTRA:                  -1.656
REMARK UNBOUND:                -1.316
REMARK SMILES O=c1c(O[C@H]2O[C@H](CO)[C@@H](O)[C@@H](O)[C@@H]2O)c(-c2ccc(O)c(O)c2)oc2cc(O)cc(O)c12
REMARK SMILES IDX 4 1 3 2 16 3 25 4 2 5 26 6 1 7 33 8 27 9 31 10 28 11 30 12
REMARK SMILES IDX 17 13 18 14 19 15 20 16 24 17 22 18 21 19 23 21 32 23 29 25
REMARK SMILES IDX 5 27 14 28 6 29 12 30 7 31 10 32 15 33 13 35 8 37 9 38 11 40
REMARK H PARENT 21 20 23 22 32 24 29 26 15 34 13 36 9 39 11 41
REMARK Flexibility Score: inf
ROOT
ATOM      1  O   UNL     1     -47.660   3.836  70.378  1.00  0.00    -0.454 OA
ENDROOT
BRANCH   1   2
ATOM      2  C   UNL     1     -47.953   2.508  69.999  1.00  0.00     0.214 A 
ATOM      3  C   UNL     1     -47.826   1.497  70.972  1.00  0.00     0.180 A 
ATOM      4  O   UNL     1     -48.017   0.223  70.650  1.00  0.00    -0.452 OA
ATOM      5  C   UNL     1     -48.337   2.127  68.692  1.00  0.00     0.239 A 
ATOM      6  C   UNL     1     -48.362  -0.177  69.434  1.00  0.00     0.146 A 
ATOM      7  O   UNL     1     -48.489   2.994  67.792  1.00  0.00    -0.285 OA
ATOM      8  C   UNL     1     -48.548   0.762  68.394  1.00  0.00     0.111 A 
ATOM      9  C   UNL     1     -48.546  -1.542  69.196  1.00  0.00     0.094 A 
ATOM     10  C   UNL     1     -48.927   0.298  67.110  1.00  0.00     0.134 A 
ATOM     11  C   UNL     1     -48.919  -1.993  67.925  1.00  0.00     0.123 A 
ATOM     12  C   UNL     1     -49.108  -1.075  66.891  1.00  0.00     0.093 A 
BRANCH   3  13
ATOM     13  C   UNL     1     -47.463   1.807  72.370  1.00  0.00     0.025 A 
ATOM     14  C   UNL     1     -48.427   1.776  73.389  1.00  0.00     0.016 A 
ATOM     15  C   UNL     1     -48.068   2.051  74.710  1.00  0.00     0.051 A 
ATOM     16  C   UNL     1     -46.738   2.343  75.034  1.00  0.00     0.157 A 
ATOM     17  C   UNL     1     -46.125   2.077  72.699  1.00  0.00     0.062 A 
ATOM     18  C   UNL     1     -45.761   2.353  74.025  1.00  0.00     0.158 A 
BRANCH  16  19
ATOM     19  O   UNL     1     -46.409   2.617  76.361  1.00  0.00    -0.504 OA
ATOM     20  H   UNL     1     -47.041   2.409  77.126  1.00  0.00     0.293 HD
ENDBRANCH  16  19
BRANCH  18  21
ATOM     21  O   UNL     1     -44.433   2.635  74.341  1.00  0.00    -0.504 OA
ATOM     22  H   UNL     1     -43.755   1.896  74.496  1.00  0.00     0.293 HD
ENDBRANCH  18  21
ENDBRANCH   3  13
BRANCH  10  23
ATOM     23  O   UNL     1     -49.125   1.188  66.053  1.00  0.00    -0.507 OA
ATOM     24  H   UNL     1     -49.985   1.714  65.952  1.00  0.00     0.293 HD
ENDBRANCH  10  23
BRANCH  11  25
ATOM     25  O   UNL     1     -49.104  -3.352  67.681  1.00  0.00    -0.508 OA
ATOM     26  H   UNL     1     -48.327  -3.960  67.449  1.00  0.00     0.293 HD
ENDBRANCH  11  25
ENDBRANCH   1   2
BRANCH   1  27
ATOM     27  C   UNL     1     -48.589   4.914  70.538  1.00  0.00     0.339 C 
ATOM     28  C   UNL     1     -48.095   6.176  69.798  1.00  0.00     0.214 C 
ATOM     29  O   UNL     1     -48.839   5.187  71.908  1.00  0.00    -0.332 OA
ATOM     30  C   UNL     1     -46.874   6.789  70.503  1.00  0.00     0.180 C 
ATOM     31  C   UNL     1     -47.660   5.587  72.589  1.00  0.00     0.179 C 
ATOM     32  C   UNL     1     -47.138   6.926  72.017  1.00  0.00     0.177 C 
BRANCH  28  33
ATOM     33  O   UNL     1     -49.125   7.131  69.751  1.00  0.00    -0.384 OA
ATOM     34  H   UNL     1     -49.816   6.843  70.403  1.00  0.00     0.211 HD
ENDBRANCH  28  33
BRANCH  30  35
ATOM     35  O   UNL     1     -45.748   5.983  70.268  1.00  0.00    -0.387 OA
ATOM     36  H   UNL     1     -45.400   5.699  71.153  1.00  0.00     0.211 HD
ENDBRANCH  30  35
BRANCH  31  37
ATOM     37  C   UNL     1     -48.004   5.710  74.083  1.00  0.00     0.191 C 
BRANCH  37  38
ATOM     38  O   UNL     1     -47.996   7.051  74.499  1.00  0.00    -0.394 OA
ATOM     39  H   UNL     1     -48.745   7.499  74.028  1.00  0.00     0.210 HD
ENDBRANCH  37  38
ENDBRANCH  31  37
BRANCH  32  40
ATOM     40  O   UNL     1     -45.957   7.309  72.676  1.00  0.00    -0.387 OA
ATOM     41  H   UNL     1     -45.325   7.614  71.975  1.00  0.00     0.211 HD
ENDBRANCH  32  40
ENDBRANCH   1  27
TORSDOF 12
ENDMDL
MODEL 6
REMARK VINA RESULT:    -6.156      2.115      6.471
REMARK INTER + INTRA:         -10.351
REMARK INTER:                  -8.606
REMARK INTRA:                  -1.744
REMARK UNBOUND:                -1.316
REMARK SMILES O=c1c(O[C@H]2O[C@H](CO)[C@@H](O)[C@@H](O)[C@@H]2O)c(-c2ccc(O)c(O)c2)oc2cc(O)cc(O)c12
REMARK SMILES IDX 4 1 3 2 16 3 25 4 2 5 26 6 1 7 33 8 27 9 31 10 28 11 30 12
REMARK SMILES IDX 17 13 18 14 19 15 20 16 24 17 22 18 21 19 23 21 32 23 29 25
REMARK SMILES IDX 5 27 14 28 6 29 12 30 7 31 10 32 15 33 13 35 8 37 9 38 11 40
REMARK H PARENT 21 20 23 22 32 24 29 26 15 34 13 36 9 39 11 41
REMARK Flexibility Score: inf
ROOT
ATOM      1  O   UNL     1     -38.848   6.495  78.914  1.00  0.00    -0.454 OA
ENDROOT
BRANCH   1   2
ATOM      2  C   UNL     1     -38.887   5.485  79.898  1.00  0.00     0.214 A 
ATOM      3  C   UNL     1     -37.663   4.957  80.356  1.00  0.00     0.180 A 
ATOM      4  O   UNL     1     -37.644   3.953  81.225  1.00  0.00    -0.452 OA
ATOM      5  C   UNL     1     -40.083   4.947  80.431  1.00  0.00     0.239 A 
ATOM      6  C   UNL     1     -38.742   3.412  81.736  1.00  0.00     0.146 A 
ATOM      7  O   UNL     1     -41.202   5.400  80.074  1.00  0.00    -0.285 OA
ATOM      8  C   UNL     1     -40.019   3.891  81.367  1.00  0.00     0.111 A 
ATOM      9  C   UNL     1     -38.617   2.361  82.650  1.00  0.00     0.094 A 
ATOM     10  C   UNL     1     -41.168   3.295  81.942  1.00  0.00     0.134 A 
ATOM     11  C   UNL     1     -39.757   1.776  83.212  1.00  0.00     0.123 A 
ATOM     12  C   UNL     1     -41.023   2.243  82.859  1.00  0.00     0.093 A 
BRANCH   3  13
ATOM     13  C   UNL     1     -36.367   5.480  79.881  1.00  0.00     0.025 A 
ATOM     14  C   UNL     1     -35.879   5.152  78.607  1.00  0.00     0.016 A 
ATOM     15  C   UNL     1     -34.661   5.670  78.161  1.00  0.00     0.051 A 
ATOM     16  C   UNL     1     -33.923   6.535  78.974  1.00  0.00     0.157 A 
ATOM     17  C   UNL     1     -35.636   6.368  80.687  1.00  0.00     0.062 A 
ATOM     18  C   UNL     1     -34.413   6.890  80.242  1.00  0.00     0.158 A 
BRANCH  16  19
ATOM     19  O   UNL     1     -32.708   7.035  78.504  1.00  0.00    -0.504 OA
ATOM     20  H   UNL     1     -32.585   7.332  77.543  1.00  0.00     0.293 HD
ENDBRANCH  16  19
BRANCH  18  21
ATOM     21  O   UNL     1     -33.686   7.759  81.054  1.00  0.00    -0.504 OA
ATOM     22  H   UNL     1     -32.962   8.360  80.675  1.00  0.00     0.293 HD
ENDBRANCH  18  21
ENDBRANCH   3  13
BRANCH  10  23
ATOM     23  O   UNL     1     -42.450   3.736  81.611  1.00  0.00    -0.507 OA
ATOM     24  H   UNL     1     -42.616   4.668  81.249  1.00  0.00     0.293 HD
ENDBRANCH  10  23
BRANCH  11  25
ATOM     25  O   UNL     1     -39.639   0.730  84.125  1.00  0.00    -0.508 OA
ATOM     26  H   UNL     1     -40.430   0.141  84.360  1.00  0.00     0.293 HD
ENDBRANCH  11  25
ENDBRANCH   1   2
BRANCH   1  27
ATOM     27  C   UNL     1     -39.209   7.872  79.074  1.00  0.00     0.339 C 
ATOM     28  C   UNL     1     -40.208   8.307  77.980  1.00  0.00     0.214 C 
ATOM     29  O   UNL     1     -38.066   8.713  79.089  1.00  0.00    -0.332 OA
ATOM     30  C   UNL     1     -39.524   8.385  76.606  1.00  0.00     0.180 C 
ATOM     31  C   UNL     1     -37.344   8.640  77.870  1.00  0.00     0.179 C 
ATOM     32  C   UNL     1     -38.205   9.180  76.703  1.00  0.00     0.177 C 
BRANCH  28  33
ATOM     33  O   UNL     1     -40.741   9.568  78.298  1.00  0.00    -0.384 OA
ATOM     34  H   UNL     1     -40.394  10.207  77.623  1.00  0.00     0.211 HD
ENDBRANCH  28  33
BRANCH  30  35
ATOM     35  O   UNL     1     -39.283   7.084  76.132  1.00  0.00    -0.387 OA
ATOM     36  H   UNL     1     -39.893   6.935  75.363  1.00  0.00     0.211 HD
ENDBRANCH  30  35
BRANCH  31  37
ATOM     37  C   UNL     1     -36.054   9.461  78.042  1.00  0.00     0.191 C 
BRANCH  37  38
ATOM     38  O   UNL     1     -35.141   9.200  77.009  1.00  0.00    -0.394 OA
ATOM     39  H   UNL     1     -34.670   8.360  77.252  1.00  0.00     0.210 HD
ENDBRANCH  37  38
ENDBRANCH  31  37
BRANCH  32  40
ATOM     40  O   UNL     1     -37.498   9.087  75.493  1.00  0.00    -0.387 OA
ATOM     41  H   UNL     1     -37.337   8.122  75.331  1.00  0.00     0.211 HD
ENDBRANCH  32  40
ENDBRANCH   1  27
TORSDOF 12
ENDMDL
MODEL 7
REMARK VINA RESULT:    -6.088      1.781      4.700
REMARK INTER + INTRA:         -10.252
REMARK INTER:                  -8.976
REMARK INTRA:                  -1.276
REMARK UNBOUND:                -1.316
REMARK SMILES O=c1c(O[C@H]2O[C@H](CO)[C@@H](O)[C@@H](O)[C@@H]2O)c(-c2ccc(O)c(O)c2)oc2cc(O)cc(O)c12
REMARK SMILES IDX 4 1 3 2 16 3 25 4 2 5 26 6 1 7 33 8 27 9 31 10 28 11 30 12
REMARK SMILES IDX 17 13 18 14 19 15 20 16 24 17 22 18 21 19 23 21 32 23 29 25
REMARK SMILES IDX 5 27 14 28 6 29 12 30 7 31 10 32 15 33 13 35 8 37 9 38 11 40
REMARK H PARENT 21 20 23 22 32 24 29 26 15 34 13 36 9 39 11 41
REMARK Flexibility Score: inf
ROOT
ATOM      1  O   UNL     1     -37.975   6.320  80.011  1.00  0.00    -0.454 OA
ENDROOT
BRANCH   1   2
ATOM      2  C   UNL     1     -36.827   6.516  80.808  1.00  0.00     0.214 A 
ATOM      3  C   UNL     1     -36.786   5.901  82.076  1.00  0.00     0.180 A 
ATOM      4  O   UNL     1     -35.763   6.113  82.896  1.00  0.00    -0.452 OA
ATOM      5  C   UNL     1     -35.726   7.318  80.424  1.00  0.00     0.239 A 
ATOM      6  C   UNL     1     -34.721   6.869  82.580  1.00  0.00     0.146 A 
ATOM      7  O   UNL     1     -35.702   7.870  79.293  1.00  0.00    -0.285 OA
ATOM      8  C   UNL     1     -34.650   7.504  81.319  1.00  0.00     0.111 A 
ATOM      9  C   UNL     1     -33.690   7.026  83.510  1.00  0.00     0.094 A 
ATOM     10  C   UNL     1     -33.516   8.296  81.013  1.00  0.00     0.134 A 
ATOM     11  C   UNL     1     -32.574   7.812  83.202  1.00  0.00     0.123 A 
ATOM     12  C   UNL     1     -32.490   8.441  81.959  1.00  0.00     0.093 A 
BRANCH   3  13
ATOM     13  C   UNL     1     -37.874   5.019  82.545  1.00  0.00     0.025 A 
ATOM     14  C   UNL     1     -39.041   5.553  83.111  1.00  0.00     0.016 A 
ATOM     15  C   UNL     1     -40.072   4.710  83.533  1.00  0.00     0.051 A 
ATOM     16  C   UNL     1     -39.957   3.324  83.379  1.00  0.00     0.157 A 
ATOM     17  C   UNL     1     -37.769   3.630  82.370  1.00  0.00     0.062 A 
ATOM     18  C   UNL     1     -38.802   2.780  82.792  1.00  0.00     0.158 A 
BRANCH  16  19
ATOM     19  O   UNL     1     -41.000   2.506  83.812  1.00  0.00    -0.504 OA
ATOM     20  H   UNL     1     -40.901   1.882  84.606  1.00  0.00     0.293 HD
ENDBRANCH  16  19
BRANCH  18  21
ATOM     21  O   UNL     1     -38.684   1.401  82.629  1.00  0.00    -0.504 OA
ATOM     22  H   UNL     1     -39.449   0.773  82.849  1.00  0.00     0.293 HD
ENDBRANCH  18  21
ENDBRANCH   3  13
BRANCH  10  23
ATOM     23  O   UNL     1     -33.399   8.941  79.781  1.00  0.00    -0.507 OA
ATOM     24  H   UNL     1     -33.725   8.512  78.922  1.00  0.00     0.293 HD
ENDBRANCH  10  23
BRANCH  11  25
ATOM     25  O   UNL     1     -31.543   7.971  84.125  1.00  0.00    -0.508 OA
ATOM     26  H   UNL     1     -30.585   8.118  83.829  1.00  0.00     0.293 HD
ENDBRANCH  11  25
ENDBRANCH   1   2
BRANCH   1  27
ATOM     27  C   UNL     1     -38.015   6.021  78.611  1.00  0.00     0.339 C 
ATOM     28  C   UNL     1     -39.364   6.456  77.997  1.00  0.00     0.214 C 
ATOM     29  O   UNL     1     -37.758   4.648  78.364  1.00  0.00    -0.332 OA
ATOM     30  C   UNL     1     -40.509   5.553  78.480  1.00  0.00     0.180 C 
ATOM     31  C   UNL     1     -38.734   3.813  78.967  1.00  0.00     0.179 C 
ATOM     32  C   UNL     1     -40.122   4.066  78.333  1.00  0.00     0.177 C 
BRANCH  28  33
ATOM     33  O   UNL     1     -39.288   6.392  76.595  1.00  0.00    -0.384 OA
ATOM     34  H   UNL     1     -39.363   5.434  76.346  1.00  0.00     0.211 HD
ENDBRANCH  28  33
BRANCH  30  35
ATOM     35  O   UNL     1     -40.808   5.856  79.819  1.00  0.00    -0.387 OA
ATOM     36  H   UNL     1     -40.666   5.026  80.346  1.00  0.00     0.211 HD
ENDBRANCH  30  35
BRANCH  31  37
ATOM     37  C   UNL     1     -38.285   2.355  78.771  1.00  0.00     0.191 C 
BRANCH  37  38
ATOM     38  O   UNL     1     -39.004   1.734  77.738  1.00  0.00    -0.394 OA
ATOM     39  H   UNL     1     -39.962   1.782  77.990  1.00  0.00     0.210 HD
ENDBRANCH  37  38
ENDBRANCH  31  37
BRANCH  32  40
ATOM     40  O   UNL     1     -41.092   3.255  78.946  1.00  0.00    -0.387 OA
ATOM     41  H   UNL     1     -40.611   2.674  79.590  1.00  0.00     0.211 HD
ENDBRANCH  32  40
ENDBRANCH   1  27
TORSDOF 12
ENDMDL
MODEL 8
REMARK VINA RESULT:    -5.985      1.925      5.990
REMARK INTER + INTRA:         -10.100
REMARK INTER:                  -8.909
REMARK INTRA:                  -1.191
REMARK UNBOUND:                -1.316
REMARK SMILES O=c1c(O[C@H]2O[C@H](CO)[C@@H](O)[C@@H](O)[C@@H]2O)c(-c2ccc(O)c(O)c2)oc2cc(O)cc(O)c12
REMARK SMILES IDX 4 1 3 2 16 3 25 4 2 5 26 6 1 7 33 8 27 9 31 10 28 11 30 12
REMARK SMILES IDX 17 13 18 14 19 15 20 16 24 17 22 18 21 19 23 21 32 23 29 25
REMARK SMILES IDX 5 27 14 28 6 29 12 30 7 31 10 32 15 33 13 35 8 37 9 38 11 40
REMARK H PARENT 21 20 23 22 32 24 29 26 15 34 13 36 9 39 11 41
REMARK Flexibility Score: inf
ROOT
ATOM      1  O   UNL     1     -36.853   6.693  78.976  1.00  0.00    -0.454 OA
ENDROOT
BRANCH   1   2
ATOM      2  C   UNL     1     -37.849   5.917  79.607  1.00  0.00     0.214 A 
ATOM      3  C   UNL     1     -39.193   6.139  79.243  1.00  0.00     0.180 A 
ATOM      4  O   UNL     1     -40.174   5.491  79.859  1.00  0.00    -0.452 OA
ATOM      5  C   UNL     1     -37.583   4.951  80.607  1.00  0.00     0.239 A 
ATOM      6  C   UNL     1     -39.968   4.590  80.810  1.00  0.00     0.146 A 
ATOM      7  O   UNL     1     -36.399   4.698  80.951  1.00  0.00    -0.285 OA
ATOM      8  C   UNL     1     -38.655   4.271  81.225  1.00  0.00     0.111 A 
ATOM      9  C   UNL     1     -41.068   3.956  81.394  1.00  0.00     0.094 A 
ATOM     10  C   UNL     1     -38.473   3.296  82.237  1.00  0.00     0.134 A 
ATOM     11  C   UNL     1     -40.881   2.996  82.394  1.00  0.00     0.123 A 
ATOM     12  C   UNL     1     -39.590   2.670  82.810  1.00  0.00     0.093 A 
BRANCH   3  13
ATOM     13  C   UNL     1     -39.561   7.102  78.186  1.00  0.00     0.025 A 
ATOM     14  C   UNL     1     -39.070   6.962  76.880  1.00  0.00     0.016 A 
ATOM     15  C   UNL     1     -39.442   7.868  75.884  1.00  0.00     0.051 A 
ATOM     16  C   UNL     1     -40.321   8.915  76.175  1.00  0.00     0.157 A 
ATOM     17  C   UNL     1     -40.462   8.140  78.473  1.00  0.00     0.062 A 
ATOM     18  C   UNL     1     -40.838   9.051  77.475  1.00  0.00     0.158 A 
BRANCH  16  19
ATOM     19  O   UNL     1     -40.673   9.807  75.162  1.00  0.00    -0.504 OA
ATOM     20  H   UNL     1     -41.344   9.565  74.442  1.00  0.00     0.293 HD
ENDBRANCH  16  19
BRANCH  18  21
ATOM     21  O   UNL     1     -41.722  10.087  77.770  1.00  0.00    -0.504 OA
ATOM     22  H   UNL     1     -41.397  10.973  78.143  1.00  0.00     0.293 HD
ENDBRANCH  18  21
ENDBRANCH   3  13
BRANCH  10  23
ATOM     23  O   UNL     1     -37.196   2.945  82.678  1.00  0.00    -0.507 OA
ATOM     24  H   UNL     1     -36.987   2.823  83.662  1.00  0.00     0.293 HD
ENDBRANCH  10  23
BRANCH  11  25
ATOM     25  O   UNL     1     -41.974   2.360  82.980  1.00  0.00    -0.508 OA
ATOM     26  H   UNL     1     -42.746   2.012  82.423  1.00  0.00     0.293 HD
ENDBRANCH  11  25
ENDBRANCH   1   2
BRANCH   1  27
ATOM     27  C   UNL     1     -36.449   8.024  79.317  1.00  0.00     0.339 C 
ATOM     28  C   UNL     1     -35.696   8.686  78.142  1.00  0.00     0.214 C 
ATOM     29  O   UNL     1     -35.670   8.045  80.503  1.00  0.00    -0.332 OA
ATOM     30  C   UNL     1     -34.313   8.047  77.943  1.00  0.00     0.180 C 
ATOM     31  C   UNL     1     -34.471   7.302  80.358  1.00  0.00     0.179 C 
ATOM     32  C   UNL     1     -33.563   7.952  79.287  1.00  0.00     0.177 C 
BRANCH  28  33
ATOM     33  O   UNL     1     -35.536  10.058  78.396  1.00  0.00    -0.384 OA
ATOM     34  H   UNL     1     -35.942  10.238  79.284  1.00  0.00     0.211 HD
ENDBRANCH  28  33
BRANCH  30  35
ATOM     35  O   UNL     1     -34.467   6.772  77.371  1.00  0.00    -0.387 OA
ATOM     36  H   UNL     1     -35.371   6.742  76.962  1.00  0.00     0.211 HD
ENDBRANCH  30  35
BRANCH  31  37
ATOM     37  C   UNL     1     -33.779   7.261  81.731  1.00  0.00     0.191 C 
BRANCH  37  38
ATOM     38  O   UNL     1     -34.248   6.190  82.507  1.00  0.00    -0.394 OA
ATOM     39  H   UNL     1     -34.871   6.575  83.177  1.00  0.00     0.210 HD
ENDBRANCH  37  38
ENDBRANCH  31  37
BRANCH  32  40
ATOM     40  O   UNL     1     -32.385   7.203  79.128  1.00  0.00    -0.387 OA
ATOM     41  H   UNL     1     -32.502   6.372  79.659  1.00  0.00     0.211 HD
ENDBRANCH  32  40
ENDBRANCH   1  27
TORSDOF 12
ENDMDL
MODEL 9
REMARK VINA RESULT:    -5.897      2.026      6.721
REMARK INTER + INTRA:          -9.971
REMARK INTER:                  -8.399
REMARK INTRA:                  -1.572
REMARK UNBOUND:                -1.316
REMARK SMILES O=c1c(O[C@H]2O[C@H](CO)[C@@H](O)[C@@H](O)[C@@H]2O)c(-c2ccc(O)c(O)c2)oc2cc(O)cc(O)c12
REMARK SMILES IDX 4 1 3 2 16 3 25 4 2 5 26 6 1 7 33 8 27 9 31 10 28 11 30 12
REMARK SMILES IDX 17 13 18 14 19 15 20 16 24 17 22 18 21 19 23 21 32 23 29 25
REMARK SMILES IDX 5 27 14 28 6 29 12 30 7 31 10 32 15 33 13 35 8 37 9 38 11 40
REMARK H PARENT 21 20 23 22 32 24 29 26 15 34 13 36 9 39 11 41
REMARK Flexibility Score: inf
ROOT
ATOM      1  O   UNL     1     -38.190   6.815  81.003  1.00  0.00    -0.454 OA
ENDROOT
BRANCH   1   2
ATOM      2  C   UNL     1     -38.928   5.951  80.166  1.00  0.00     0.214 A 
ATOM      3  C   UNL     1     -38.695   6.015  78.777  1.00  0.00     0.180 A 
ATOM      4  O   UNL     1     -39.414   5.279  77.938  1.00  0.00    -0.452 OA
ATOM      5  C   UNL     1     -39.911   5.047  80.633  1.00  0.00     0.239 A 
ATOM      6  C   UNL     1     -40.354   4.432  78.334  1.00  0.00     0.146 A 
ATOM      7  O   UNL     1     -40.141   4.934  81.865  1.00  0.00    -0.285 OA
ATOM      8  C   UNL     1     -40.642   4.269  79.708  1.00  0.00     0.111 A 
ATOM      9  C   UNL     1     -41.053   3.696  77.372  1.00  0.00     0.094 A 
ATOM     10  C   UNL     1     -41.646   3.346  80.094  1.00  0.00     0.134 A 
ATOM     11  C   UNL     1     -42.045   2.789  77.761  1.00  0.00     0.123 A 
ATOM     12  C   UNL     1     -42.336   2.617  79.115  1.00  0.00     0.093 A 
BRANCH   3  13
ATOM     13  C   UNL     1     -37.665   6.904  78.203  1.00  0.00     0.025 A 
ATOM     14  C   UNL     1     -38.000   8.178  77.720  1.00  0.00     0.016 A 
ATOM     15  C   UNL     1     -37.013   9.018  77.198  1.00  0.00     0.051 A 
ATOM     16  C   UNL     1     -35.678   8.604  77.169  1.00  0.00     0.157 A 
ATOM     17  C   UNL     1     -36.321   6.499  78.195  1.00  0.00     0.062 A 
ATOM     18  C   UNL     1     -35.327   7.340  77.672  1.00  0.00     0.158 A 
BRANCH  16  19
ATOM     19  O   UNL     1     -34.714   9.462  76.640  1.00  0.00    -0.504 OA
ATOM     20  H   UNL     1     -33.731   9.214  76.609  1.00  0.00     0.293 HD
ENDBRANCH  16  19
BRANCH  18  21
ATOM     21  O   UNL     1     -33.997   6.924  77.654  1.00  0.00    -0.504 OA
ATOM     22  H   UNL     1     -33.344   7.201  78.380  1.00  0.00     0.293 HD
ENDBRANCH  18  21
ENDBRANCH   3  13
BRANCH  10  23
ATOM     23  O   UNL     1     -41.964   3.149  81.439  1.00  0.00    -0.507 OA
ATOM     24  H   UNL     1     -42.637   3.735  81.918  1.00  0.00     0.293 HD
ENDBRANCH  10  23
BRANCH  11  25
ATOM     25  O   UNL     1     -42.745   2.053  76.808  1.00  0.00    -0.508 OA
ATOM     26  H   UNL     1     -42.267   1.562  76.061  1.00  0.00     0.293 HD
ENDBRANCH  11  25
ENDBRANCH   1   2
BRANCH   1  27
ATOM     27  C   UNL     1     -37.514   6.471  82.218  1.00  0.00     0.339 C 
ATOM     28  C   UNL     1     -36.811   7.706  82.822  1.00  0.00     0.214 C 
ATOM     29  O   UNL     1     -36.599   5.404  82.021  1.00  0.00    -0.332 OA
ATOM     30  C   UNL     1     -35.601   8.125  81.971  1.00  0.00     0.180 C 
ATOM     31  C   UNL     1     -35.581   5.748  81.095  1.00  0.00     0.179 C 
ATOM     32  C   UNL     1     -34.715   6.902  81.654  1.00  0.00     0.177 C 
BRANCH  28  33
ATOM     33  O   UNL     1     -36.375   7.413  84.125  1.00  0.00    -0.384 OA
ATOM     34  H   UNL     1     -36.244   8.281  84.588  1.00  0.00     0.211 HD
ENDBRANCH  28  33
BRANCH  30  35
ATOM     35  O   UNL     1     -36.053   8.728  80.785  1.00  0.00    -0.387 OA
ATOM     36  H   UNL     1     -35.922   8.071  80.053  1.00  0.00     0.211 HD
ENDBRANCH  30  35
BRANCH  31  37
ATOM     37  C   UNL     1     -34.738   4.487  80.839  1.00  0.00     0.191 C 
BRANCH  37  38
ATOM     38  O   UNL     1     -33.963   4.619  79.677  1.00  0.00    -0.394 OA
ATOM     39  H   UNL     1     -34.517   4.281  78.926  1.00  0.00     0.210 HD
ENDBRANCH  37  38
ENDBRANCH  31  37
BRANCH  32  40
ATOM     40  O   UNL     1     -33.721   7.258  80.726  1.00  0.00    -0.387 OA
ATOM     41  H   UNL     1     -34.016   6.910  79.845  1.00  0.00     0.211 HD
ENDBRANCH  32  40
ENDBRANCH   1  27
TORSDOF 12
ENDMDL
