MODEL 1
REMARK VINA RESULT:    -7.683      0.000      0.000
REMARK INTER + INTRA:         -12.761
REMARK INTER:                 -11.277
REMARK INTRA:                  -1.484
REMARK UNBOUND:                -1.484
REMARK SMILES O=c1c(O[C@@H]2O[C@@H](CO)[C@@H](O)[C@@H](O)[C@@H]2O)c(-c2ccc(O)c(O)c2)oc2cc(O)cc(O)c12
REMARK SMILES IDX 4 1 3 2 16 3 25 4 2 5 26 6 1 7 33 8 27 9 31 10 28 11 30 12
REMARK SMILES IDX 17 13 18 14 19 15 20 16 24 17 22 18 21 19 23 21 32 23 29 25
REMARK SMILES IDX 5 27 14 28 6 29 12 30 7 31 10 32 15 33 13 35 8 37 9 38 11 40
REMARK H PARENT 21 20 23 22 32 24 29 26 15 34 13 36 9 39 11 41
REMARK Flexibility Score: inf
ROOT
ATOM      1  O   UNL     1      12.786  44.904   6.369  1.00  0.00    -0.454 OA
ENDROOT
BRANCH   1   2
ATOM      2  C   UNL     1      12.101  44.791   7.587  1.00  0.00     0.214 A 
ATOM      3  C   UNL     1      12.704  44.253   8.742  1.00  0.00     0.180 A 
ATOM      4  O   UNL     1      11.971  44.049   9.831  1.00  0.00    -0.452 OA
ATOM      5  C   UNL     1      10.771  45.223   7.659  1.00  0.00     0.239 A 
ATOM      6  C   UNL     1      10.694  44.397   9.927  1.00  0.00     0.146 A 
ATOM      7  O   UNL     1      10.245  45.718   6.627  1.00  0.00    -0.285 OA
ATOM      8  C   UNL     1      10.037  45.058   8.857  1.00  0.00     0.111 A 
ATOM      9  C   UNL     1      10.006  44.104  11.107  1.00  0.00     0.094 A 
ATOM     10  C   UNL     1       8.682  45.463   9.034  1.00  0.00     0.134 A 
ATOM     11  C   UNL     1       8.663  44.449  11.247  1.00  0.00     0.123 A 
ATOM     12  C   UNL     1       8.008  45.122  10.213  1.00  0.00     0.093 A 
BRANCH   3  13
ATOM     13  C   UNL     1      14.144  43.917   8.806  1.00  0.00     0.025 A 
ATOM     14  C   UNL     1      15.103  44.931   8.674  1.00  0.00     0.016 A 
ATOM     15  C   UNL     1      16.466  44.626   8.713  1.00  0.00     0.051 A 
ATOM     16  C   UNL     1      16.887  43.299   8.868  1.00  0.00     0.157 A 
ATOM     17  C   UNL     1      14.572  42.583   8.940  1.00  0.00     0.062 A 
ATOM     18  C   UNL     1      15.935  42.273   8.981  1.00  0.00     0.158 A 
BRANCH  16  19
ATOM     19  O   UNL     1      18.248  42.997   8.905  1.00  0.00    -0.504 OA
ATOM     20  H   UNL     1      18.736  42.848   9.780  1.00  0.00     0.293 HD
ENDBRANCH  16  19
BRANCH  18  21
ATOM     21  O   UNL     1      16.323  40.941   9.128  1.00  0.00    -0.504 OA
ATOM     22  H   UNL     1      15.650  40.183   9.148  1.00  0.00     0.293 HD
ENDBRANCH  18  21
ENDBRANCH   3  13
BRANCH  10  23
ATOM     23  O   UNL     1       7.971  46.222   8.100  1.00  0.00    -0.507 OA
ATOM     24  H   UNL     1       7.409  47.026   8.332  1.00  0.00     0.293 HD
ENDBRANCH  10  23
BRANCH  11  25
ATOM     25  O   UNL     1       7.991  44.128  12.425  1.00  0.00    -0.508 OA
ATOM     26  H   UNL     1       8.215  43.292  12.952  1.00  0.00     0.293 HD
ENDBRANCH  11  25
ENDBRANCH   1   2
BRANCH   1  27
ATOM     27  C   UNL     1      12.960  43.811   5.458  1.00  0.00     0.339 C 
ATOM     28  C   UNL     1      12.647  44.242   3.993  1.00  0.00     0.214 C 
ATOM     29  O   UNL     1      14.260  43.257   5.622  1.00  0.00    -0.332 OA
ATOM     30  C   UNL     1      13.605  43.535   3.018  1.00  0.00     0.180 C 
ATOM     31  C   UNL     1      15.233  44.021   4.932  1.00  0.00     0.179 C 
ATOM     32  C   UNL     1      15.079  43.834   3.394  1.00  0.00     0.177 C 
BRANCH  28  33
ATOM     33  O   UNL     1      12.788  45.634   3.842  1.00  0.00    -0.384 OA
ATOM     34  H   UNL     1      11.979  45.967   3.374  1.00  0.00     0.211 HD
ENDBRANCH  28  33
BRANCH  30  35
ATOM     35  O   UNL     1      13.374  42.147   3.048  1.00  0.00    -0.387 OA
ATOM     36  H   UNL     1      12.684  41.954   2.363  1.00  0.00     0.211 HD
ENDBRANCH  30  35
BRANCH  31  37
ATOM     37  C   UNL     1      16.631  43.657   5.457  1.00  0.00     0.191 C 
BRANCH  37  38
ATOM     38  O   UNL     1      16.767  42.266   5.575  1.00  0.00    -0.394 OA
ATOM     39  H   UNL     1      16.233  41.875   4.835  1.00  0.00     0.210 HD
ENDBRANCH  37  38
ENDBRANCH  31  37
BRANCH  32  40
ATOM     40  O   UNL     1      15.913  42.809   2.913  1.00  0.00    -0.387 OA
ATOM     41  H   UNL     1      16.605  42.653   3.608  1.00  0.00     0.211 HD
ENDBRANCH  32  40
ENDBRANCH   1  27
TORSDOF 12
ENDMDL
MODEL 2
REMARK VINA RESULT:    -7.248      1.649      4.464
REMARK INTER + INTRA:         -12.123
REMARK INTER:                 -11.570
REMARK INTRA:                  -0.552
REMARK UNBOUND:                -1.484
REMARK SMILES O=c1c(O[C@@H]2O[C@@H](CO)[C@@H](O)[C@@H](O)[C@@H]2O)c(-c2ccc(O)c(O)c2)oc2cc(O)cc(O)c12
REMARK SMILES IDX 4 1 3 2 16 3 25 4 2 5 26 6 1 7 33 8 27 9 31 10 28 11 30 12
REMARK SMILES IDX 17 13 18 14 19 15 20 16 24 17 22 18 21 19 23 21 32 23 29 25
REMARK SMILES IDX 5 27 14 28 6 29 12 30 7 31 10 32 15 33 13 35 8 37 9 38 11 40
REMARK H PARENT 21 20 23 22 32 24 29 26 15 34 13 36 9 39 11 41
REMARK Flexibility Score: inf
ROOT
ATOM      1  O   UNL     1      13.173  43.924   8.939  1.00  0.00    -0.454 OA
ENDROOT
BRANCH   1   2
ATOM      2  C   UNL     1      11.930  44.514   8.669  1.00  0.00     0.214 A 
ATOM      3  C   UNL     1      11.681  45.232   7.481  1.00  0.00     0.180 A 
ATOM      4  O   UNL     1      10.530  45.879   7.334  1.00  0.00    -0.452 OA
ATOM      5  C   UNL     1      10.901  44.389   9.610  1.00  0.00     0.239 A 
ATOM      6  C   UNL     1       9.546  45.830   8.225  1.00  0.00     0.146 A 
ATOM      7  O   UNL     1      11.127  43.733  10.661  1.00  0.00    -0.285 OA
ATOM      8  C   UNL     1       9.660  45.032   9.392  1.00  0.00     0.111 A 
ATOM      9  C   UNL     1       8.391  46.579   7.988  1.00  0.00     0.094 A 
ATOM     10  C   UNL     1       8.551  44.968  10.285  1.00  0.00     0.134 A 
ATOM     11  C   UNL     1       7.336  46.558   8.899  1.00  0.00     0.123 A 
ATOM     12  C   UNL     1       7.421  45.759  10.042  1.00  0.00     0.093 A 
BRANCH   3  13
ATOM     13  C   UNL     1      12.649  45.283   6.363  1.00  0.00     0.025 A 
ATOM     14  C   UNL     1      13.570  46.338   6.287  1.00  0.00     0.016 A 
ATOM     15  C   UNL     1      14.477  46.410   5.227  1.00  0.00     0.051 A 
ATOM     16  C   UNL     1      14.463  45.438   4.218  1.00  0.00     0.157 A 
ATOM     17  C   UNL     1      12.623  44.321   5.337  1.00  0.00     0.062 A 
ATOM     18  C   UNL     1      13.530  44.389   4.275  1.00  0.00     0.158 A 
BRANCH  16  19
ATOM     19  O   UNL     1      15.367  45.514   3.160  1.00  0.00    -0.504 OA
ATOM     20  H   UNL     1      15.116  45.218   2.224  1.00  0.00     0.293 HD
ENDBRANCH  16  19
BRANCH  18  21
ATOM     21  O   UNL     1      13.485  43.410   3.281  1.00  0.00    -0.504 OA
ATOM     22  H   UNL     1      12.936  43.524   2.437  1.00  0.00     0.293 HD
ENDBRANCH  18  21
ENDBRANCH   3  13
BRANCH  10  23
ATOM     23  O   UNL     1       8.502  44.128  11.401  1.00  0.00    -0.507 OA
ATOM     24  H   UNL     1       9.085  43.315  11.525  1.00  0.00     0.293 HD
ENDBRANCH  10  23
BRANCH  11  25
ATOM     25  O   UNL     1       6.201  47.329   8.654  1.00  0.00    -0.508 OA
ATOM     26  H   UNL     1       5.467  47.425   9.345  1.00  0.00     0.293 HD
ENDBRANCH  11  25
ENDBRANCH   1   2
BRANCH   1  27
ATOM     27  C   UNL     1      13.926  43.191   7.965  1.00  0.00     0.339 C 
ATOM     28  C   UNL     1      15.431  43.599   7.992  1.00  0.00     0.214 C 
ATOM     29  O   UNL     1      13.711  41.797   8.149  1.00  0.00    -0.332 OA
ATOM     30  C   UNL     1      16.316  42.368   7.727  1.00  0.00     0.180 C 
ATOM     31  C   UNL     1      14.519  41.288   9.195  1.00  0.00     0.179 C 
ATOM     32  C   UNL     1      16.014  41.251   8.758  1.00  0.00     0.177 C 
BRANCH  28  33
ATOM     33  O   UNL     1      15.776  44.149   9.240  1.00  0.00    -0.384 OA
ATOM     34  H   UNL     1      16.762  44.082   9.333  1.00  0.00     0.211 HD
ENDBRANCH  28  33
BRANCH  30  35
ATOM     35  O   UNL     1      16.090  41.891   6.423  1.00  0.00    -0.387 OA
ATOM     36  H   UNL     1      15.920  40.917   6.497  1.00  0.00     0.211 HD
ENDBRANCH  30  35
BRANCH  31  37
ATOM     37  C   UNL     1      13.976  39.920   9.637  1.00  0.00     0.191 C 
BRANCH  37  38
ATOM     38  O   UNL     1      14.822  39.338  10.592  1.00  0.00    -0.394 OA
ATOM     39  H   UNL     1      15.043  40.060  11.238  1.00  0.00     0.210 HD
ENDBRANCH  37  38
ENDBRANCH  31  37
BRANCH  32  40
ATOM     40  O   UNL     1      16.363  39.998   8.224  1.00  0.00    -0.387 OA
ATOM     41  H   UNL     1      16.975  39.568   8.877  1.00  0.00     0.211 HD
ENDBRANCH  32  40
ENDBRANCH   1  27
TORSDOF 12
ENDMDL
MODEL 3
REMARK VINA RESULT:    -7.211      2.806      9.012
REMARK INTER + INTRA:         -12.068
REMARK INTER:                 -10.713
REMARK INTRA:                  -1.355
REMARK UNBOUND:                -1.484
REMARK SMILES O=c1c(O[C@@H]2O[C@@H](CO)[C@@H](O)[C@@H](O)[C@@H]2O)c(-c2ccc(O)c(O)c2)oc2cc(O)cc(O)c12
REMARK SMILES IDX 4 1 3 2 16 3 25 4 2 5 26 6 1 7 33 8 27 9 31 10 28 11 30 12
REMARK SMILES IDX 17 13 18 14 19 15 20 16 24 17 22 18 21 19 23 21 32 23 29 25
REMARK SMILES IDX 5 27 14 28 6 29 12 30 7 31 10 32 15 33 13 35 8 37 9 38 11 40
REMARK H PARENT 21 20 23 22 32 24 29 26 15 34 13 36 9 39 11 41
REMARK Flexibility Score: inf
ROOT
ATOM      1  O   UNL     1       8.460  45.147   9.273  1.00  0.00    -0.454 OA
ENDROOT
BRANCH   1   2
ATOM      2  C   UNL     1       9.559  45.566   8.509  1.00  0.00     0.214 A 
ATOM      3  C   UNL     1       9.436  46.518   7.476  1.00  0.00     0.180 A 
ATOM      4  O   UNL     1      10.481  46.782   6.699  1.00  0.00    -0.452 OA
ATOM      5  C   UNL     1      10.819  45.019   8.776  1.00  0.00     0.239 A 
ATOM      6  C   UNL     1      11.682  46.248   6.885  1.00  0.00     0.146 A 
ATOM      7  O   UNL     1      10.922  44.181   9.711  1.00  0.00    -0.285 OA
ATOM      8  C   UNL     1      11.930  45.374   7.975  1.00  0.00     0.111 A 
ATOM      9  C   UNL     1      12.704  46.567   5.987  1.00  0.00     0.094 A 
ATOM     10  C   UNL     1      13.252  44.876   8.164  1.00  0.00     0.134 A 
ATOM     11  C   UNL     1      13.978  46.025   6.144  1.00  0.00     0.123 A 
ATOM     12  C   UNL     1      14.246  45.182   7.226  1.00  0.00     0.093 A 
BRANCH   3  13
ATOM     13  C   UNL     1       8.183  47.265   7.224  1.00  0.00     0.025 A 
ATOM     14  C   UNL     1       8.132  48.643   7.475  1.00  0.00     0.016 A 
ATOM     15  C   UNL     1       6.950  49.357   7.261  1.00  0.00     0.051 A 
ATOM     16  C   UNL     1       5.799  48.698   6.808  1.00  0.00     0.157 A 
ATOM     17  C   UNL     1       7.020  46.603   6.791  1.00  0.00     0.062 A 
ATOM     18  C   UNL     1       5.836  47.314   6.573  1.00  0.00     0.158 A 
BRANCH  16  19
ATOM     19  O   UNL     1       4.621  49.413   6.597  1.00  0.00    -0.504 OA
ATOM     20  H   UNL     1       4.326  49.688   5.668  1.00  0.00     0.293 HD
ENDBRANCH  16  19
BRANCH  18  21
ATOM     21  O   UNL     1       4.705  46.627   6.130  1.00  0.00    -0.504 OA
ATOM     22  H   UNL     1       3.796  47.070   6.068  1.00  0.00     0.293 HD
ENDBRANCH  18  21
ENDBRANCH   3  13
BRANCH  10  23
ATOM     23  O   UNL     1      13.641  44.107   9.264  1.00  0.00    -0.507 OA
ATOM     24  H   UNL     1      14.022  44.488  10.116  1.00  0.00     0.293 HD
ENDBRANCH  10  23
BRANCH  11  25
ATOM     25  O   UNL     1      14.977  46.339   5.224  1.00  0.00    -0.508 OA
ATOM     26  H   UNL     1      14.942  47.190   4.675  1.00  0.00     0.293 HD
ENDBRANCH  11  25
ENDBRANCH   1   2
BRANCH   1  27
ATOM     27  C   UNL     1       8.027  45.816  10.463  1.00  0.00     0.339 C 
ATOM     28  C   UNL     1       6.481  45.711  10.638  1.00  0.00     0.214 C 
ATOM     29  O   UNL     1       8.760  45.324  11.579  1.00  0.00    -0.332 OA
ATOM     30  C   UNL     1       6.127  45.561  12.129  1.00  0.00     0.180 C 
ATOM     31  C   UNL     1       8.226  44.097  12.043  1.00  0.00     0.179 C 
ATOM     32  C   UNL     1       6.851  44.332  12.736  1.00  0.00     0.177 C 
BRANCH  28  33
ATOM     33  O   UNL     1       5.974  44.603   9.935  1.00  0.00    -0.384 OA
ATOM     34  H   UNL     1       6.743  44.023   9.699  1.00  0.00     0.211 HD
ENDBRANCH  28  33
BRANCH  30  35
ATOM     35  O   UNL     1       6.496  46.726  12.825  1.00  0.00    -0.387 OA
ATOM     36  H   UNL     1       6.507  47.466  12.164  1.00  0.00     0.211 HD
ENDBRANCH  30  35
BRANCH  31  37
ATOM     37  C   UNL     1       9.257  43.402  12.945  1.00  0.00     0.191 C 
BRANCH  37  38
ATOM     38  O   UNL     1      10.560  43.771  12.580  1.00  0.00    -0.394 OA
ATOM     39  H   UNL     1      11.068  43.856  13.429  1.00  0.00     0.210 HD
ENDBRANCH  37  38
ENDBRANCH  31  37
BRANCH  32  40
ATOM     40  O   UNL     1       6.996  44.498  14.125  1.00  0.00    -0.387 OA
ATOM     41  H   UNL     1       7.832  44.029  14.384  1.00  0.00     0.211 HD
ENDBRANCH  32  40
ENDBRANCH   1  27
TORSDOF 12
ENDMDL
MODEL 4
REMARK VINA RESULT:    -7.201      2.141      8.731
REMARK INTER + INTRA:         -12.053
REMARK INTER:                 -10.342
REMARK INTRA:                  -1.712
REMARK UNBOUND:                -1.484
REMARK SMILES O=c1c(O[C@@H]2O[C@@H](CO)[C@@H](O)[C@@H](O)[C@@H]2O)c(-c2ccc(O)c(O)c2)oc2cc(O)cc(O)c12
REMARK SMILES IDX 4 1 3 2 16 3 25 4 2 5 26 6 1 7 33 8 27 9 31 10 28 11 30 12
REMARK SMILES IDX 17 13 18 14 19 15 20 16 24 17 22 18 21 19 23 21 32 23 29 25
REMARK SMILES IDX 5 27 14 28 6 29 12 30 7 31 10 32 15 33 13 35 8 37 9 38 11 40
REMARK H PARENT 21 20 23 22 32 24 29 26 15 34 13 36 9 39 11 41
REMARK Flexibility Score: inf
ROOT
ATOM      1  O   UNL     1      10.143  45.249   9.650  1.00  0.00    -0.454 OA
ENDROOT
BRANCH   1   2
ATOM      2  C   UNL     1      10.826  45.049   8.442  1.00  0.00     0.214 A 
ATOM      3  C   UNL     1      10.312  45.492   7.206  1.00  0.00     0.180 A 
ATOM      4  O   UNL     1      10.935  45.163   6.080  1.00  0.00    -0.452 OA
ATOM      5  C   UNL     1      12.058  44.384   8.462  1.00  0.00     0.239 A 
ATOM      6  C   UNL     1      12.079  44.489   6.049  1.00  0.00     0.146 A 
ATOM      7  O   UNL     1      12.517  44.006   9.572  1.00  0.00    -0.285 OA
ATOM      8  C   UNL     1      12.733  44.110   7.250  1.00  0.00     0.111 A 
ATOM      9  C   UNL     1      12.631  44.163   4.808  1.00  0.00     0.094 A 
ATOM     10  C   UNL     1      13.989  43.442   7.160  1.00  0.00     0.134 A 
ATOM     11  C   UNL     1      13.828  43.454   4.731  1.00  0.00     0.123 A 
ATOM     12  C   UNL     1      14.499  43.095   5.903  1.00  0.00     0.093 A 
BRANCH   3  13
ATOM     13  C   UNL     1       9.101  46.337   7.103  1.00  0.00     0.025 A 
ATOM     14  C   UNL     1       9.217  47.732   7.183  1.00  0.00     0.016 A 
ATOM     15  C   UNL     1       8.081  48.542   7.107  1.00  0.00     0.051 A 
ATOM     16  C   UNL     1       6.812  47.965   6.966  1.00  0.00     0.157 A 
ATOM     17  C   UNL     1       7.823  45.762   6.984  1.00  0.00     0.062 A 
ATOM     18  C   UNL     1       6.684  46.568   6.905  1.00  0.00     0.158 A 
BRANCH  16  19
ATOM     19  O   UNL     1       5.679  48.776   6.893  1.00  0.00    -0.504 OA
ATOM     20  H   UNL     1       4.850  48.581   7.442  1.00  0.00     0.293 HD
ENDBRANCH  16  19
BRANCH  18  21
ATOM     21  O   UNL     1       5.433  45.963   6.774  1.00  0.00    -0.504 OA
ATOM     22  H   UNL     1       5.198  45.379   5.981  1.00  0.00     0.293 HD
ENDBRANCH  18  21
ENDBRANCH   3  13
BRANCH  10  23
ATOM     23  O   UNL     1      14.780  43.126   8.268  1.00  0.00    -0.507 OA
ATOM     24  H   UNL     1      15.535  42.458   8.255  1.00  0.00     0.293 HD
ENDBRANCH  10  23
BRANCH  11  25
ATOM     25  O   UNL     1      14.350  43.121   3.482  1.00  0.00    -0.508 OA
ATOM     26  H   UNL     1      14.002  43.547   2.632  1.00  0.00     0.293 HD
ENDBRANCH  11  25
ENDBRANCH   1   2
BRANCH   1  27
ATOM     27  C   UNL     1       9.059  44.422  10.089  1.00  0.00     0.339 C 
ATOM     28  C   UNL     1       9.509  43.462  11.232  1.00  0.00     0.214 C 
ATOM     29  O   UNL     1       7.947  45.239  10.438  1.00  0.00    -0.332 OA
ATOM     30  C   UNL     1       8.371  43.287  12.254  1.00  0.00     0.180 C 
ATOM     31  C   UNL     1       8.096  45.779  11.738  1.00  0.00     0.179 C 
ATOM     32  C   UNL     1       7.927  44.663  12.812  1.00  0.00     0.177 C 
BRANCH  28  33
ATOM     33  O   UNL     1      10.641  43.972  11.894  1.00  0.00    -0.384 OA
ATOM     34  H   UNL     1      10.393  44.856  12.271  1.00  0.00     0.211 HD
ENDBRANCH  28  33
BRANCH  30  35
ATOM     35  O   UNL     1       7.280  42.642  11.643  1.00  0.00    -0.387 OA
ATOM     36  H   UNL     1       6.710  42.285  12.373  1.00  0.00     0.211 HD
ENDBRANCH  30  35
BRANCH  31  37
ATOM     37  C   UNL     1       7.121  46.953  11.916  1.00  0.00     0.191 C 
BRANCH  37  38
ATOM     38  O   UNL     1       7.225  47.489  13.207  1.00  0.00    -0.394 OA
ATOM     39  H   UNL     1       6.383  47.244  13.673  1.00  0.00     0.210 HD
ENDBRANCH  37  38
ENDBRANCH  31  37
BRANCH  32  40
ATOM     40  O   UNL     1       6.600  44.588  13.272  1.00  0.00    -0.387 OA
ATOM     41  H   UNL     1       6.225  43.736  12.929  1.00  0.00     0.211 HD
ENDBRANCH  32  40
ENDBRANCH   1  27
TORSDOF 12
ENDMDL
MODEL 5
REMARK VINA RESULT:    -7.126      1.371      2.006
REMARK INTER + INTRA:         -11.942
REMARK INTER:                 -11.301
REMARK INTRA:                  -0.641
REMARK UNBOUND:                -1.484
REMARK SMILES O=c1c(O[C@@H]2O[C@@H](CO)[C@@H](O)[C@@H](O)[C@@H]2O)c(-c2ccc(O)c(O)c2)oc2cc(O)cc(O)c12
REMARK SMILES IDX 4 1 3 2 16 3 25 4 2 5 26 6 1 7 33 8 27 9 31 10 28 11 30 12
REMARK SMILES IDX 17 13 18 14 19 15 20 16 24 17 22 18 21 19 23 21 32 23 29 25
REMARK SMILES IDX 5 27 14 28 6 29 12 30 7 31 10 32 15 33 13 35 8 37 9 38 11 40
REMARK H PARENT 21 20 23 22 32 24 29 26 15 34 13 36 9 39 11 41
REMARK Flexibility Score: inf
ROOT
ATOM      1  O   UNL     1      13.864  46.259   6.576  1.00  0.00    -0.454 OA
ENDROOT
BRANCH   1   2
ATOM      2  C   UNL     1      12.835  45.805   7.413  1.00  0.00     0.214 A 
ATOM      3  C   UNL     1      13.013  44.730   8.307  1.00  0.00     0.180 A 
ATOM      4  O   UNL     1      11.970  44.257   8.981  1.00  0.00    -0.452 OA
ATOM      5  C   UNL     1      11.587  46.438   7.357  1.00  0.00     0.239 A 
ATOM      6  C   UNL     1      10.757  44.794   8.920  1.00  0.00     0.146 A 
ATOM      7  O   UNL     1      11.441  47.408   6.567  1.00  0.00    -0.285 OA
ATOM      8  C   UNL     1      10.513  45.955   8.142  1.00  0.00     0.111 A 
ATOM      9  C   UNL     1       9.722  44.195   9.642  1.00  0.00     0.094 A 
ATOM     10  C   UNL     1       9.207  46.526   8.159  1.00  0.00     0.134 A 
ATOM     11  C   UNL     1       8.434  44.725   9.603  1.00  0.00     0.123 A 
ATOM     12  C   UNL     1       8.181  45.882   8.862  1.00  0.00     0.093 A 
BRANCH   3  13
ATOM     13  C   UNL     1      14.332  44.104   8.549  1.00  0.00     0.025 A 
ATOM     14  C   UNL     1      15.420  44.900   8.934  1.00  0.00     0.016 A 
ATOM     15  C   UNL     1      16.676  44.326   9.147  1.00  0.00     0.051 A 
ATOM     16  C   UNL     1      16.864  42.950   8.961  1.00  0.00     0.157 A 
ATOM     17  C   UNL     1      14.530  42.727   8.343  1.00  0.00     0.062 A 
ATOM     18  C   UNL     1      15.784  42.148   8.557  1.00  0.00     0.158 A 
BRANCH  16  19
ATOM     19  O   UNL     1      18.119  42.381   9.173  1.00  0.00    -0.504 OA
ATOM     20  H   UNL     1      18.553  42.376  10.089  1.00  0.00     0.293 HD
ENDBRANCH  16  19
BRANCH  18  21
ATOM     21  O   UNL     1      15.941  40.776   8.355  1.00  0.00    -0.504 OA
ATOM     22  H   UNL     1      16.106  40.134   9.121  1.00  0.00     0.293 HD
ENDBRANCH  18  21
ENDBRANCH   3  13
BRANCH  10  23
ATOM     23  O   UNL     1       8.879  47.730   7.529  1.00  0.00    -0.507 OA
ATOM     24  H   UNL     1       7.940  48.088   7.445  1.00  0.00     0.293 HD
ENDBRANCH  10  23
BRANCH  11  25
ATOM     25  O   UNL     1       7.411  44.099  10.315  1.00  0.00    -0.508 OA
ATOM     26  H   UNL     1       6.458  44.438  10.280  1.00  0.00     0.293 HD
ENDBRANCH  11  25
ENDBRANCH   1   2
BRANCH   1  27
ATOM     27  C   UNL     1      13.927  45.967   5.175  1.00  0.00     0.339 C 
ATOM     28  C   UNL     1      15.373  45.575   4.745  1.00  0.00     0.214 C 
ATOM     29  O   UNL     1      12.951  44.984   4.849  1.00  0.00    -0.332 OA
ATOM     30  C   UNL     1      15.325  44.476   3.668  1.00  0.00     0.180 C 
ATOM     31  C   UNL     1      13.409  43.682   5.168  1.00  0.00     0.179 C 
ATOM     32  C   UNL     1      14.534  43.246   4.183  1.00  0.00     0.177 C 
BRANCH  28  33
ATOM     33  O   UNL     1      16.110  45.101   5.846  1.00  0.00    -0.384 OA
ATOM     34  H   UNL     1      17.041  44.951   5.540  1.00  0.00     0.211 HD
ENDBRANCH  28  33
BRANCH  30  35
ATOM     35  O   UNL     1      14.720  44.980   2.501  1.00  0.00    -0.387 OA
ATOM     36  H   UNL     1      13.871  45.411   2.779  1.00  0.00     0.211 HD
ENDBRANCH  30  35
BRANCH  31  37
ATOM     37  C   UNL     1      12.214  42.717   5.200  1.00  0.00     0.191 C 
BRANCH  37  38
ATOM     38  O   UNL     1      12.655  41.390   5.309  1.00  0.00    -0.394 OA
ATOM     39  H   UNL     1      12.104  40.865   4.671  1.00  0.00     0.210 HD
ENDBRANCH  37  38
ENDBRANCH  31  37
BRANCH  32  40
ATOM     40  O   UNL     1      14.015  42.520   3.097  1.00  0.00    -0.387 OA
ATOM     41  H   UNL     1      13.030  42.645   3.112  1.00  0.00     0.211 HD
ENDBRANCH  32  40
ENDBRANCH   1  27
TORSDOF 12
ENDMDL
MODEL 6
REMARK VINA RESULT:    -7.029      2.605      7.971
REMARK INTER + INTRA:         -11.800
REMARK INTER:                 -10.708
REMARK INTRA:                  -1.092
REMARK UNBOUND:                -1.484
REMARK SMILES O=c1c(O[C@@H]2O[C@@H](CO)[C@@H](O)[C@@H](O)[C@@H]2O)c(-c2ccc(O)c(O)c2)oc2cc(O)cc(O)c12
REMARK SMILES IDX 4 1 3 2 16 3 25 4 2 5 26 6 1 7 33 8 27 9 31 10 28 11 30 12
REMARK SMILES IDX 17 13 18 14 19 15 20 16 24 17 22 18 21 19 23 21 32 23 29 25
REMARK SMILES IDX 5 27 14 28 6 29 12 30 7 31 10 32 15 33 13 35 8 37 9 38 11 40
REMARK H PARENT 21 20 23 22 32 24 29 26 15 34 13 36 9 39 11 41
REMARK Flexibility Score: inf
ROOT
ATOM      1  O   UNL     1       8.670  45.892   7.815  1.00  0.00    -0.454 OA
ENDROOT
BRANCH   1   2
ATOM      2  C   UNL     1      10.040  45.596   7.840  1.00  0.00     0.214 A 
ATOM      3  C   UNL     1      10.638  44.893   8.906  1.00  0.00     0.180 A 
ATOM      4  O   UNL     1      11.958  44.753   8.941  1.00  0.00    -0.452 OA
ATOM      5  C   UNL     1      10.843  46.015   6.773  1.00  0.00     0.239 A 
ATOM      6  C   UNL     1      12.764  45.180   7.975  1.00  0.00     0.146 A 
ATOM      7  O   UNL     1      10.298  46.628   5.817  1.00  0.00    -0.285 OA
ATOM      8  C   UNL     1      12.239  45.788   6.806  1.00  0.00     0.111 A 
ATOM      9  C   UNL     1      14.142  45.014   8.131  1.00  0.00     0.094 A 
ATOM     10  C   UNL     1      13.144  46.174   5.773  1.00  0.00     0.134 A 
ATOM     11  C   UNL     1      15.022  45.451   7.142  1.00  0.00     0.123 A 
ATOM     12  C   UNL     1      14.522  46.030   5.973  1.00  0.00     0.093 A 
BRANCH   3  13
ATOM     13  C   UNL     1       9.849  44.275   9.996  1.00  0.00     0.025 A 
ATOM     14  C   UNL     1       8.543  43.833   9.745  1.00  0.00     0.016 A 
ATOM     15  C   UNL     1       7.780  43.267  10.770  1.00  0.00     0.051 A 
ATOM     16  C   UNL     1       8.308  43.150  12.062  1.00  0.00     0.157 A 
ATOM     17  C   UNL     1      10.369  44.177  11.299  1.00  0.00     0.062 A 
ATOM     18  C   UNL     1       9.609  43.608  12.327  1.00  0.00     0.158 A 
BRANCH  16  19
ATOM     19  O   UNL     1       7.544  42.586  13.082  1.00  0.00    -0.504 OA
ATOM     20  H   UNL     1       6.826  43.116  13.563  1.00  0.00     0.293 HD
ENDBRANCH  16  19
BRANCH  18  21
ATOM     21  O   UNL     1      10.161  43.515  13.605  1.00  0.00    -0.504 OA
ATOM     22  H   UNL     1      11.104  43.178  13.761  1.00  0.00     0.293 HD
ENDBRANCH  18  21
ENDBRANCH   3  13
BRANCH  10  23
ATOM     23  O   UNL     1      12.736  46.671   4.532  1.00  0.00    -0.507 OA
ATOM     24  H   UNL     1      11.876  46.416   4.073  1.00  0.00     0.293 HD
ENDBRANCH  10  23
BRANCH  11  25
ATOM     25  O   UNL     1      16.395  45.295   7.327  1.00  0.00    -0.508 OA
ATOM     26  H   UNL     1      16.919  45.905   7.943  1.00  0.00     0.293 HD
ENDBRANCH  11  25
ENDBRANCH   1   2
BRANCH   1  27
ATOM     27  C   UNL     1       8.130  47.158   8.213  1.00  0.00     0.339 C 
ATOM     28  C   UNL     1       7.576  47.946   6.987  1.00  0.00     0.214 C 
ATOM     29  O   UNL     1       7.169  46.962   9.244  1.00  0.00    -0.332 OA
ATOM     30  C   UNL     1       6.309  48.723   7.386  1.00  0.00     0.180 C 
ATOM     31  C   UNL     1       5.918  46.567   8.710  1.00  0.00     0.179 C 
ATOM     32  C   UNL     1       5.243  47.759   7.968  1.00  0.00     0.177 C 
BRANCH  28  33
ATOM     33  O   UNL     1       7.260  47.069   5.933  1.00  0.00    -0.384 OA
ATOM     34  H   UNL     1       6.288  46.876   5.987  1.00  0.00     0.211 HD
ENDBRANCH  28  33
BRANCH  30  35
ATOM     35  O   UNL     1       6.635  49.708   8.336  1.00  0.00    -0.387 OA
ATOM     36  H   UNL     1       7.056  49.240   9.104  1.00  0.00     0.211 HD
ENDBRANCH  30  35
BRANCH  31  37
ATOM     37  C   UNL     1       5.051  45.974   9.831  1.00  0.00     0.191 C 
BRANCH  37  38
ATOM     38  O   UNL     1       3.794  45.598   9.337  1.00  0.00    -0.394 OA
ATOM     39  H   UNL     1       3.875  45.610   8.347  1.00  0.00     0.210 HD
ENDBRANCH  37  38
ENDBRANCH  31  37
BRANCH  32  40
ATOM     40  O   UNL     1       4.370  48.465   8.815  1.00  0.00    -0.387 OA
ATOM     41  H   UNL     1       3.835  49.068   8.237  1.00  0.00     0.211 HD
ENDBRANCH  32  40
ENDBRANCH   1  27
TORSDOF 12
ENDMDL
MODEL 7
REMARK VINA RESULT:    -6.925      2.460      7.524
REMARK INTER + INTRA:         -11.648
REMARK INTER:                 -11.133
REMARK INTRA:                  -0.515
REMARK UNBOUND:                -1.484
REMARK SMILES O=c1c(O[C@@H]2O[C@@H](CO)[C@@H](O)[C@@H](O)[C@@H]2O)c(-c2ccc(O)c(O)c2)oc2cc(O)cc(O)c12
REMARK SMILES IDX 4 1 3 2 16 3 25 4 2 5 26 6 1 7 33 8 27 9 31 10 28 11 30 12
REMARK SMILES IDX 17 13 18 14 19 15 20 16 24 17 22 18 21 19 23 21 32 23 29 25
REMARK SMILES IDX 5 27 14 28 6 29 12 30 7 31 10 32 15 33 13 35 8 37 9 38 11 40
REMARK H PARENT 21 20 23 22 32 24 29 26 15 34 13 36 9 39 11 41
REMARK Flexibility Score: inf
ROOT
ATOM      1  O   UNL     1       9.356  46.588   8.119  1.00  0.00    -0.454 OA
ENDROOT
BRANCH   1   2
ATOM      2  C   UNL     1      10.612  45.967   8.062  1.00  0.00     0.214 A 
ATOM      3  C   UNL     1      10.991  44.955   8.967  1.00  0.00     0.180 A 
ATOM      4  O   UNL     1      12.236  44.494   8.952  1.00  0.00    -0.452 OA
ATOM      5  C   UNL     1      11.522  46.369   7.078  1.00  0.00     0.239 A 
ATOM      6  C   UNL     1      13.148  44.883   8.068  1.00  0.00     0.146 A 
ATOM      7  O   UNL     1      11.170  47.263   6.264  1.00  0.00    -0.285 OA
ATOM      8  C   UNL     1      12.820  45.807   7.043  1.00  0.00     0.111 A 
ATOM      9  C   UNL     1      14.440  44.360   8.165  1.00  0.00     0.094 A 
ATOM     10  C   UNL     1      13.820  46.145   6.084  1.00  0.00     0.134 A 
ATOM     11  C   UNL     1      15.428  44.745   7.260  1.00  0.00     0.123 A 
ATOM     12  C   UNL     1      15.116  45.635   6.229  1.00  0.00     0.093 A 
BRANCH   3  13
ATOM     13  C   UNL     1      10.046  44.357   9.937  1.00  0.00     0.025 A 
ATOM     14  C   UNL     1       8.879  43.731   9.476  1.00  0.00     0.016 A 
ATOM     15  C   UNL     1       7.968  43.180  10.381  1.00  0.00     0.051 A 
ATOM     16  C   UNL     1       8.204  43.262  11.759  1.00  0.00     0.157 A 
ATOM     17  C   UNL     1      10.269  44.457  11.322  1.00  0.00     0.062 A 
ATOM     18  C   UNL     1       9.360  43.905  12.231  1.00  0.00     0.158 A 
BRANCH  16  19
ATOM     19  O   UNL     1       7.292  42.713  12.660  1.00  0.00    -0.504 OA
ATOM     20  H   UNL     1       7.443  42.756  13.661  1.00  0.00     0.293 HD
ENDBRANCH  16  19
BRANCH  18  21
ATOM     21  O   UNL     1       9.620  44.012  13.598  1.00  0.00    -0.504 OA
ATOM     22  H   UNL     1       9.292  44.796  14.149  1.00  0.00     0.293 HD
ENDBRANCH  18  21
ENDBRANCH   3  13
BRANCH  10  23
ATOM     23  O   UNL     1      13.581  46.948   4.966  1.00  0.00    -0.507 OA
ATOM     24  H   UNL     1      14.152  47.735   4.700  1.00  0.00     0.293 HD
ENDBRANCH  10  23
BRANCH  11  25
ATOM     25  O   UNL     1      16.716  44.228   7.387  1.00  0.00    -0.508 OA
ATOM     26  H   UNL     1      17.019  43.425   6.849  1.00  0.00     0.293 HD
ENDBRANCH  11  25
ENDBRANCH   1   2
BRANCH   1  27
ATOM     27  C   UNL     1       8.392  46.515   7.060  1.00  0.00     0.339 C 
ATOM     28  C   UNL     1       7.017  45.999   7.583  1.00  0.00     0.214 C 
ATOM     29  O   UNL     1       8.314  47.774   6.402  1.00  0.00    -0.332 OA
ATOM     30  C   UNL     1       5.870  46.719   6.851  1.00  0.00     0.180 C 
ATOM     31  C   UNL     1       7.494  48.678   7.120  1.00  0.00     0.179 C 
ATOM     32  C   UNL     1       5.999  48.254   7.019  1.00  0.00     0.177 C 
BRANCH  28  33
ATOM     33  O   UNL     1       6.892  46.229   8.965  1.00  0.00    -0.384 OA
ATOM     34  H   UNL     1       5.982  45.938   9.234  1.00  0.00     0.211 HD
ENDBRANCH  28  33
BRANCH  30  35
ATOM     35  O   UNL     1       5.892  46.382   5.485  1.00  0.00    -0.387 OA
ATOM     36  H   UNL     1       6.020  45.400   5.432  1.00  0.00     0.211 HD
ENDBRANCH  30  35
BRANCH  31  37
ATOM     37  C   UNL     1       7.761  50.109   6.627  1.00  0.00     0.191 C 
BRANCH  37  38
ATOM     38  O   UNL     1       8.822  50.125   5.710  1.00  0.00    -0.394 OA
ATOM     39  H   UNL     1       9.504  49.499   6.071  1.00  0.00     0.210 HD
ENDBRANCH  37  38
ENDBRANCH  31  37
BRANCH  32  40
ATOM     40  O   UNL     1       5.349  48.909   5.957  1.00  0.00    -0.387 OA
ATOM     41  H   UNL     1       6.048  49.140   5.292  1.00  0.00     0.211 HD
ENDBRANCH  32  40
ENDBRANCH   1  27
TORSDOF 12
ENDMDL
MODEL 8
REMARK VINA RESULT:    -6.766      3.053      8.419
REMARK INTER + INTRA:         -11.415
REMARK INTER:                 -10.107
REMARK INTRA:                  -1.308
REMARK UNBOUND:                -1.484
REMARK SMILES O=c1c(O[C@@H]2O[C@@H](CO)[C@@H](O)[C@@H](O)[C@@H]2O)c(-c2ccc(O)c(O)c2)oc2cc(O)cc(O)c12
REMARK SMILES IDX 4 1 3 2 16 3 25 4 2 5 26 6 1 7 33 8 27 9 31 10 28 11 30 12
REMARK SMILES IDX 17 13 18 14 19 15 20 16 24 17 22 18 21 19 23 21 32 23 29 25
REMARK SMILES IDX 5 27 14 28 6 29 12 30 7 31 10 32 15 33 13 35 8 37 9 38 11 40
REMARK H PARENT 21 20 23 22 32 24 29 26 15 34 13 36 9 39 11 41
REMARK Flexibility Score: inf
ROOT
ATOM      1  O   UNL     1       7.595  46.496   8.439  1.00  0.00    -0.454 OA
ENDROOT
BRANCH   1   2
ATOM      2  C   UNL     1       8.947  46.147   8.310  1.00  0.00     0.214 A 
ATOM      3  C   UNL     1       9.631  45.413   9.300  1.00  0.00     0.180 A 
ATOM      4  O   UNL     1      10.941  45.223   9.188  1.00  0.00    -0.452 OA
ATOM      5  C   UNL     1       9.643  46.544   7.162  1.00  0.00     0.239 A 
ATOM      6  C   UNL     1      11.650  45.626   8.141  1.00  0.00     0.146 A 
ATOM      7  O   UNL     1       9.020  47.186   6.275  1.00  0.00    -0.285 OA
ATOM      8  C   UNL     1      11.024  46.264   7.039  1.00  0.00     0.111 A 
ATOM      9  C   UNL     1      13.030  45.406   8.141  1.00  0.00     0.094 A 
ATOM     10  C   UNL     1      11.823  46.623   5.914  1.00  0.00     0.134 A 
ATOM     11  C   UNL     1      13.812  45.817   7.063  1.00  0.00     0.123 A 
ATOM     12  C   UNL     1      13.208  46.425   5.959  1.00  0.00     0.093 A 
BRANCH   3  13
ATOM     13  C   UNL     1       8.944  44.817  10.468  1.00  0.00     0.025 A 
ATOM     14  C   UNL     1       8.362  43.546  10.360  1.00  0.00     0.016 A 
ATOM     15  C   UNL     1       7.694  42.980  11.448  1.00  0.00     0.051 A 
ATOM     16  C   UNL     1       7.585  43.685  12.654  1.00  0.00     0.157 A 
ATOM     17  C   UNL     1       8.814  45.531  11.673  1.00  0.00     0.062 A 
ATOM     18  C   UNL     1       8.147  44.967  12.766  1.00  0.00     0.158 A 
BRANCH  16  19
ATOM     19  O   UNL     1       6.915  43.118  13.738  1.00  0.00    -0.504 OA
ATOM     20  H   UNL     1       7.072  43.439  14.686  1.00  0.00     0.293 HD
ENDBRANCH  16  19
BRANCH  18  21
ATOM     21  O   UNL     1       8.048  45.698  13.950  1.00  0.00    -0.504 OA
ATOM     22  H   UNL     1       7.430  46.496  14.040  1.00  0.00     0.293 HD
ENDBRANCH  18  21
ENDBRANCH   3  13
BRANCH  10  23
ATOM     23  O   UNL     1      11.300  47.147   4.728  1.00  0.00    -0.507 OA
ATOM     24  H   UNL     1      10.980  48.096   4.620  1.00  0.00     0.293 HD
ENDBRANCH  10  23
BRANCH  11  25
ATOM     25  O   UNL     1      15.189  45.607   7.094  1.00  0.00    -0.508 OA
ATOM     26  H   UNL     1      15.656  45.053   6.386  1.00  0.00     0.293 HD
ENDBRANCH  11  25
ENDBRANCH   1   2
BRANCH   1  27
ATOM     27  C   UNL     1       6.539  45.836   7.730  1.00  0.00     0.339 C 
ATOM     28  C   UNL     1       5.528  45.172   8.712  1.00  0.00     0.214 C 
ATOM     29  O   UNL     1       5.933  46.748   6.821  1.00  0.00    -0.332 OA
ATOM     30  C   UNL     1       4.097  45.288   8.157  1.00  0.00     0.180 C 
ATOM     31  C   UNL     1       5.001  47.586   7.481  1.00  0.00     0.179 C 
ATOM     32  C   UNL     1       3.738  46.773   7.892  1.00  0.00     0.177 C 
BRANCH  28  33
ATOM     33  O   UNL     1       5.579  45.792   9.974  1.00  0.00    -0.384 OA
ATOM     34  H   UNL     1       4.646  45.995  10.245  1.00  0.00     0.211 HD
ENDBRANCH  28  33
BRANCH  30  35
ATOM     35  O   UNL     1       3.988  44.549   6.965  1.00  0.00    -0.387 OA
ATOM     36  H   UNL     1       4.537  43.731   7.082  1.00  0.00     0.211 HD
ENDBRANCH  30  35
BRANCH  31  37
ATOM     37  C   UNL     1       4.687  48.798   6.591  1.00  0.00     0.191 C 
BRANCH  37  38
ATOM     38  O   UNL     1       5.868  49.459   6.224  1.00  0.00    -0.394 OA
ATOM     39  H   UNL     1       6.611  48.846   6.463  1.00  0.00     0.210 HD
ENDBRANCH  37  38
ENDBRANCH  31  37
BRANCH  32  40
ATOM     40  O   UNL     1       2.731  46.856   6.914  1.00  0.00    -0.387 OA
ATOM     41  H   UNL     1       3.071  47.459   6.203  1.00  0.00     0.211 HD
ENDBRANCH  32  40
ENDBRANCH   1  27
TORSDOF 12
ENDMDL
MODEL 9
REMARK VINA RESULT:    -6.649      1.576      4.643
REMARK INTER + INTRA:         -11.242
REMARK INTER:                  -9.913
REMARK INTRA:                  -1.329
REMARK UNBOUND:                -1.484
REMARK SMILES O=c1c(O[C@@H]2O[C@@H](CO)[C@@H](O)[C@@H](O)[C@@H]2O)c(-c2ccc(O)c(O)c2)oc2cc(O)cc(O)c12
REMARK SMILES IDX 4 1 3 2 16 3 25 4 2 5 26 6 1 7 33 8 27 9 31 10 28 11 30 12
REMARK SMILES IDX 17 13 18 14 19 15 20 16 24 17 22 18 21 19 23 21 32 23 29 25
REMARK SMILES IDX 5 27 14 28 6 29 12 30 7 31 10 32 15 33 13 35 8 37 9 38 11 40
REMARK H PARENT 21 20 23 22 32 24 29 26 15 34 13 36 9 39 11 41
REMARK Flexibility Score: inf
ROOT
ATOM      1  O   UNL     1      12.885  43.631   8.010  1.00  0.00    -0.454 OA
ENDROOT
BRANCH   1   2
ATOM      2  C   UNL     1      11.844  44.520   7.708  1.00  0.00     0.214 A 
ATOM      3  C   UNL     1      11.762  45.187   6.468  1.00  0.00     0.180 A 
ATOM      4  O   UNL     1      10.830  46.115   6.283  1.00  0.00    -0.452 OA
ATOM      5  C   UNL     1      10.856  44.759   8.670  1.00  0.00     0.239 A 
ATOM      6  C   UNL     1       9.904  46.411   7.187  1.00  0.00     0.146 A 
ATOM      7  O   UNL     1      10.929  44.148   9.769  1.00  0.00    -0.285 OA
ATOM      8  C   UNL     1       9.834  45.704   8.415  1.00  0.00     0.111 A 
ATOM      9  C   UNL     1       8.992  47.431   6.904  1.00  0.00     0.094 A 
ATOM     10  C   UNL     1       8.783  46.019   9.326  1.00  0.00     0.134 A 
ATOM     11  C   UNL     1       8.007  47.774   7.828  1.00  0.00     0.123 A 
ATOM     12  C   UNL     1       7.908  47.072   9.032  1.00  0.00     0.093 A 
BRANCH   3  13
ATOM     13  C   UNL     1      12.666  44.881   5.337  1.00  0.00     0.025 A 
ATOM     14  C   UNL     1      13.552  45.862   4.870  1.00  0.00     0.016 A 
ATOM     15  C   UNL     1      14.398  45.595   3.790  1.00  0.00     0.051 A 
ATOM     16  C   UNL     1      14.355  44.348   3.152  1.00  0.00     0.157 A 
ATOM     17  C   UNL     1      12.611  43.639   4.680  1.00  0.00     0.062 A 
ATOM     18  C   UNL     1      13.456  43.366   3.600  1.00  0.00     0.158 A 
BRANCH  16  19
ATOM     19  O   UNL     1      15.199  44.084   2.074  1.00  0.00    -0.504 OA
ATOM     20  H   UNL     1      15.711  43.213   2.000  1.00  0.00     0.293 HD
ENDBRANCH  16  19
BRANCH  18  21
ATOM     21  O   UNL     1      13.384  42.118   2.981  1.00  0.00    -0.504 OA
ATOM     22  H   UNL     1      12.930  41.987   2.084  1.00  0.00     0.293 HD
ENDBRANCH  18  21
ENDBRANCH   3  13
BRANCH  10  23
ATOM     23  O   UNL     1       8.544  45.313  10.508  1.00  0.00    -0.507 OA
ATOM     24  H   UNL     1       9.110  44.547  10.836  1.00  0.00     0.293 HD
ENDBRANCH  10  23
BRANCH  11  25
ATOM     25  O   UNL     1       7.121  48.810   7.534  1.00  0.00    -0.508 OA
ATOM     26  H   UNL     1       6.118  48.674   7.568  1.00  0.00     0.293 HD
ENDBRANCH  11  25
ENDBRANCH   1   2
BRANCH   1  27
ATOM     27  C   UNL     1      14.107  44.032   8.642  1.00  0.00     0.339 C 
ATOM     28  C   UNL     1      14.642  42.919   9.594  1.00  0.00     0.214 C 
ATOM     29  O   UNL     1      15.046  44.433   7.651  1.00  0.00    -0.332 OA
ATOM     30  C   UNL     1      16.180  42.874   9.541  1.00  0.00     0.180 C 
ATOM     31  C   UNL     1      15.686  43.312   7.068  1.00  0.00     0.179 C 
ATOM     32  C   UNL     1      16.666  42.657   8.086  1.00  0.00     0.177 C 
BRANCH  28  33
ATOM     33  O   UNL     1      14.136  41.660   9.222  1.00  0.00    -0.384 OA
ATOM     34  H   UNL     1      13.917  41.700   8.255  1.00  0.00     0.211 HD
ENDBRANCH  28  33
BRANCH  30  35
ATOM     35  O   UNL     1      16.708  44.075  10.049  1.00  0.00    -0.387 OA
ATOM     36  H   UNL     1      16.397  44.153  10.988  1.00  0.00     0.211 HD
ENDBRANCH  30  35
BRANCH  31  37
ATOM     37  C   UNL     1      16.359  43.736   5.754  1.00  0.00     0.191 C 
BRANCH  37  38
ATOM     38  O   UNL     1      16.754  42.611   5.016  1.00  0.00    -0.394 OA
ATOM     39  H   UNL     1      16.507  41.823   5.567  1.00  0.00     0.210 HD
ENDBRANCH  37  38
ENDBRANCH  31  37
BRANCH  32  40
ATOM     40  O   UNL     1      17.972  43.157   7.937  1.00  0.00    -0.387 OA
ATOM     41  H   UNL     1      18.426  42.579   7.269  1.00  0.00     0.211 HD
ENDBRANCH  32  40
ENDBRANCH   1  27
TORSDOF 12
ENDMDL
