MODEL 1
REMARK VINA RESULT:    -5.388      0.000      0.000
REMARK INTER + INTRA:          -6.451
REMARK INTER:                  -6.334
REMARK INTRA:                  -0.117
REMARK UNBOUND:                -0.117
REMARK SMILES C=C(C)[C@@H]1CC[C@@]2(C(=O)[O-])CC[C@]3(C)[C@@H](CC[C@H]4[C@]5(C)C[C@@H](O)[C@@H](O)C(C)(C)[C@@H]5CC[C@@]43C)[C@H]12
REMARK SMILES IDX 7 1 6 2 34 3 11 4 5 5 15 6 4 7 12 8 16 9 13 10 17 11 32 12
REMARK SMILES IDX 14 13 18 14 31 15 33 16 19 17 30 18 29 19 21 20 20 21 26 22
REMARK SMILES IDX 22 23 24 24 27 25 28 26 8 27 9 28 10 29 2 30 3 31 1 32 23 33
REMARK SMILES IDX 25 35
REMARK H PARENT 23 34 25 36
REMARK Flexibility Score: inf
ROOT
ATOM      1  C   UNL     1      72.260  56.127  18.776  1.00  0.00     0.014 C 
ATOM      2  C   UNL     1      71.255  57.075  18.091  1.00  0.00     0.014 C 
ATOM      3  C   UNL     1      71.288  55.243  19.587  1.00  0.00     0.012 C 
ATOM      4  C   UNL     1      73.212  56.834  19.756  1.00  0.00     0.014 C 
ATOM      5  C   UNL     1      70.102  56.160  17.649  1.00  0.00     0.009 C 
ATOM      6  C   UNL     1      71.973  54.112  20.401  1.00  0.00     0.000 C 
ATOM      7  C   UNL     1      70.059  54.999  18.670  1.00  0.00     0.018 C 
ATOM      8  C   UNL     1      73.959  55.808  20.650  1.00  0.00     0.008 C 
ATOM      9  C   UNL     1      70.975  53.134  21.100  1.00  0.00     0.005 C 
ATOM     10  C   UNL     1      73.086  54.701  21.382  1.00  0.00    -0.024 C 
ATOM     11  C   UNL     1      70.937  53.206  22.630  1.00  0.00     0.005 C 
ATOM     12  C   UNL     1      72.478  55.233  22.826  1.00  0.00    -0.024 C 
ATOM     13  C   UNL     1      74.096  53.511  21.576  1.00  0.00     0.012 C 
ATOM     14  C   UNL     1      71.031  54.668  23.089  1.00  0.00     0.002 C 
ATOM     15  C   UNL     1      72.267  56.772  22.888  1.00  0.00     0.008 C 
ATOM     16  C   UNL     1      73.478  54.871  23.972  1.00  0.00     0.012 C 
ATOM     17  C   UNL     1      70.349  54.986  24.492  1.00  0.00    -0.023 C 
ATOM     18  C   UNL     1      71.778  57.300  24.242  1.00  0.00     0.005 C 
ATOM     19  C   UNL     1      70.736  56.443  25.053  1.00  0.00     0.004 C 
ATOM     20  C   UNL     1      68.791  54.871  24.297  1.00  0.00     0.042 C 
ATOM     21  C   UNL     1      70.735  53.883  25.532  1.00  0.00     0.012 C 
ATOM     22  C   UNL     1      69.520  57.338  25.535  1.00  0.00    -0.003 C 
ATOM     23  C   UNL     1      67.914  55.302  25.490  1.00  0.00     0.144 C 
ATOM     24  C   UNL     1      68.500  56.465  26.326  1.00  0.00     0.149 C 
ATOM     25  C   UNL     1      70.023  58.447  26.507  1.00  0.00     0.014 C 
ATOM     26  C   UNL     1      68.810  58.050  24.339  1.00  0.00     0.014 C 
ENDROOT
BRANCH   1  27
ATOM     27  C   UNL     1      73.105  55.422  17.699  1.00  0.00     0.048 C 
ATOM     28  O   UNL     1      73.357  56.000  16.608  1.00  0.00    -0.550 OA
ATOM     29  O   UNL     1      73.700  54.189  17.926  1.00  0.00    -0.550 OA
ENDBRANCH   1  27
BRANCH   7  30
ATOM     30  C   UNL     1      69.915  53.611  18.034  1.00  0.00    -0.077 C 
ATOM     31  C   UNL     1      68.757  52.726  18.428  1.00  0.00     0.039 C 
ATOM     32  C   UNL     1      70.735  53.157  17.073  1.00  0.00     0.008 C 
ENDBRANCH   7  30
BRANCH  23  33
ATOM     33  O   UNL     1      67.645  54.186  26.302  1.00  0.00    -0.390 OA
ATOM     34  H   UNL     1      66.729  54.310  26.667  1.00  0.00     0.211 HD
ENDBRANCH  23  33
BRANCH  24  35
ATOM     35  O   UNL     1      69.100  55.956  27.497  1.00  0.00    -0.390 OA
ATOM     36  H   UNL     1      70.085  56.009  27.382  1.00  0.00     0.211 HD
ENDBRANCH  24  35
TORSDOF 4
ENDMDL
MODEL 2
REMARK VINA RESULT:    -5.366      2.178      4.241
REMARK INTER + INTRA:          -6.424
REMARK INTER:                  -6.298
REMARK INTRA:                  -0.126
REMARK UNBOUND:                -0.117
REMARK SMILES C=C(C)[C@@H]1CC[C@@]2(C(=O)[O-])CC[C@]3(C)[C@@H](CC[C@H]4[C@]5(C)C[C@@H](O)[C@@H](O)C(C)(C)[C@@H]5CC[C@@]43C)[C@H]12
REMARK SMILES IDX 7 1 6 2 34 3 11 4 5 5 15 6 4 7 12 8 16 9 13 10 17 11 32 12
REMARK SMILES IDX 14 13 18 14 31 15 33 16 19 17 30 18 29 19 21 20 20 21 26 22
REMARK SMILES IDX 22 23 24 24 27 25 28 26 8 27 9 28 10 29 2 30 3 31 1 32 23 33
REMARK SMILES IDX 25 35
REMARK H PARENT 23 34 25 36
REMARK Flexibility Score: inf
ROOT
ATOM      1  C   UNL     1      72.784  54.734  19.132  1.00  0.00     0.014 C 
ATOM      2  C   UNL     1      73.944  55.457  19.846  1.00  0.00     0.014 C 
ATOM      3  C   UNL     1      71.715  55.848  19.159  1.00  0.00     0.012 C 
ATOM      4  C   UNL     1      72.243  53.518  19.903  1.00  0.00     0.014 C 
ATOM      5  C   UNL     1      73.936  56.875  19.252  1.00  0.00     0.009 C 
ATOM      6  C   UNL     1      70.376  55.471  18.469  1.00  0.00     0.000 C 
ATOM      7  C   UNL     1      72.467  57.175  18.875  1.00  0.00     0.018 C 
ATOM      8  C   UNL     1      70.886  53.041  19.319  1.00  0.00     0.008 C 
ATOM      9  C   UNL     1      69.354  56.649  18.370  1.00  0.00     0.005 C 
ATOM     10  C   UNL     1      69.758  54.139  19.096  1.00  0.00    -0.024 C 
ATOM     11  C   UNL     1      68.097  56.512  19.235  1.00  0.00     0.005 C 
ATOM     12  C   UNL     1      68.863  54.406  20.461  1.00  0.00    -0.024 C 
ATOM     13  C   UNL     1      68.887  53.534  17.934  1.00  0.00     0.012 C 
ATOM     14  C   UNL     1      68.464  55.924  20.605  1.00  0.00     0.002 C 
ATOM     15  C   UNL     1      69.633  54.122  21.782  1.00  0.00     0.008 C 
ATOM     16  C   UNL     1      67.618  53.460  20.454  1.00  0.00     0.012 C 
ATOM     17  C   UNL     1      67.497  56.332  21.802  1.00  0.00    -0.023 C 
ATOM     18  C   UNL     1      68.800  54.287  23.059  1.00  0.00     0.005 C 
ATOM     19  C   UNL     1      67.751  55.458  23.129  1.00  0.00     0.004 C 
ATOM     20  C   UNL     1      67.732  57.860  22.100  1.00  0.00     0.042 C 
ATOM     21  C   UNL     1      66.006  56.207  21.346  1.00  0.00     0.012 C 
ATOM     22  C   UNL     1      67.911  56.283  24.473  1.00  0.00    -0.003 C 
ATOM     23  C   UNL     1      67.019  58.437  23.339  1.00  0.00     0.144 C 
ATOM     24  C   UNL     1      66.869  57.440  24.513  1.00  0.00     0.149 C 
ATOM     25  C   UNL     1      67.624  55.366  25.700  1.00  0.00     0.014 C 
ATOM     26  C   UNL     1      69.357  56.850  24.640  1.00  0.00     0.014 C 
ENDROOT
BRANCH   1  27
ATOM     27  C   UNL     1      73.258  54.260  17.747  1.00  0.00     0.048 C 
ATOM     28  O   UNL     1      74.452  53.898  17.571  1.00  0.00    -0.550 OA
ATOM     29  O   UNL     1      72.380  54.115  16.681  1.00  0.00    -0.550 OA
ENDBRANCH   1  27
BRANCH   7  30
ATOM     30  C   UNL     1      72.292  57.805  17.487  1.00  0.00    -0.077 C 
ATOM     31  C   UNL     1      71.447  59.047  17.332  1.00  0.00     0.039 C 
ATOM     32  C   UNL     1      72.921  57.350  16.392  1.00  0.00     0.008 C 
ENDBRANCH   7  30
BRANCH  23  33
ATOM     33  O   UNL     1      65.769  58.958  22.961  1.00  0.00    -0.390 OA
ATOM     34  H   UNL     1      65.937  59.607  22.228  1.00  0.00     0.211 HD
ENDBRANCH  23  33
BRANCH  24  35
ATOM     35  O   UNL     1      65.560  56.915  24.528  1.00  0.00    -0.390 OA
ATOM     36  H   UNL     1      65.168  57.100  25.422  1.00  0.00     0.211 HD
ENDBRANCH  24  35
TORSDOF 4
ENDMDL
MODEL 3
REMARK VINA RESULT:    -5.355      1.518      7.445
REMARK INTER + INTRA:          -6.412
REMARK INTER:                  -6.290
REMARK INTRA:                  -0.122
REMARK UNBOUND:                -0.117
REMARK SMILES C=C(C)[C@@H]1CC[C@@]2(C(=O)[O-])CC[C@]3(C)[C@@H](CC[C@H]4[C@]5(C)C[C@@H](O)[C@@H](O)C(C)(C)[C@@H]5CC[C@@]43C)[C@H]12
REMARK SMILES IDX 7 1 6 2 34 3 11 4 5 5 15 6 4 7 12 8 16 9 13 10 17 11 32 12
REMARK SMILES IDX 14 13 18 14 31 15 33 16 19 17 30 18 29 19 21 20 20 21 26 22
REMARK SMILES IDX 22 23 24 24 27 25 28 26 8 27 9 28 10 29 2 30 3 31 1 32 23 33
REMARK SMILES IDX 25 35
REMARK H PARENT 23 34 25 36
REMARK Flexibility Score: inf
ROOT
ATOM      1  C   UNL     1      69.633  56.847  24.503  1.00  0.00     0.014 C 
ATOM      2  C   UNL     1      70.276  58.244  24.625  1.00  0.00     0.014 C 
ATOM      3  C   UNL     1      70.799  56.069  23.855  1.00  0.00     0.012 C 
ATOM      4  C   UNL     1      68.425  56.800  23.552  1.00  0.00     0.014 C 
ATOM      5  C   UNL     1      71.708  57.967  25.109  1.00  0.00     0.009 C 
ATOM      6  C   UNL     1      70.511  54.563  23.611  1.00  0.00     0.000 C 
ATOM      7  C   UNL     1      72.094  56.581  24.541  1.00  0.00     0.018 C 
ATOM      8  C   UNL     1      68.035  55.337  23.212  1.00  0.00     0.008 C 
ATOM      9  C   UNL     1      71.742  53.753  23.092  1.00  0.00     0.005 C 
ATOM     10  C   UNL     1      69.195  54.363  22.730  1.00  0.00    -0.024 C 
ATOM     11  C   UNL     1      71.645  53.250  21.648  1.00  0.00     0.005 C 
ATOM     12  C   UNL     1      69.469  54.470  21.102  1.00  0.00    -0.024 C 
ATOM     13  C   UNL     1      68.669  52.939  23.141  1.00  0.00     0.012 C 
ATOM     14  C   UNL     1      71.000  54.324  20.760  1.00  0.00     0.002 C 
ATOM     15  C   UNL     1      69.108  55.856  20.495  1.00  0.00     0.008 C 
ATOM     16  C   UNL     1      68.588  53.413  20.359  1.00  0.00     0.012 C 
ATOM     17  C   UNL     1      71.423  54.282  19.226  1.00  0.00    -0.023 C 
ATOM     18  C   UNL     1      69.279  55.956  18.974  1.00  0.00     0.005 C 
ATOM     19  C   UNL     1      70.500  55.224  18.304  1.00  0.00     0.004 C 
ATOM     20  C   UNL     1      72.928  54.737  19.138  1.00  0.00     0.042 C 
ATOM     21  C   UNL     1      71.387  52.807  18.705  1.00  0.00     0.012 C 
ATOM     22  C   UNL     1      71.277  56.198  17.325  1.00  0.00    -0.003 C 
ATOM     23  C   UNL     1      73.506  54.933  17.722  1.00  0.00     0.144 C 
ATOM     24  C   UNL     1      72.484  55.452  16.681  1.00  0.00     0.149 C 
ATOM     25  C   UNL     1      70.342  56.643  16.160  1.00  0.00     0.014 C 
ATOM     26  C   UNL     1      71.765  57.490  18.054  1.00  0.00     0.014 C 
ENDROOT
BRANCH   1  27
ATOM     27  C   UNL     1      69.175  56.377  25.896  1.00  0.00     0.048 C 
ATOM     28  O   UNL     1      68.789  57.214  26.755  1.00  0.00    -0.550 OA
ATOM     29  O   UNL     1      69.071  55.031  26.218  1.00  0.00    -0.550 OA
ENDBRANCH   1  27
BRANCH   7  30
ATOM     30  C   UNL     1      72.771  55.654  25.557  1.00  0.00    -0.077 C 
ATOM     31  C   UNL     1      74.121  55.056  25.240  1.00  0.00     0.039 C 
ATOM     32  C   UNL     1      72.256  55.396  26.770  1.00  0.00     0.008 C 
ENDBRANCH   7  30
BRANCH  23  33
ATOM     33  O   UNL     1      74.100  53.735  17.287  1.00  0.00    -0.390 OA
ATOM     34  H   UNL     1      73.504  53.354  16.590  1.00  0.00     0.211 HD
ENDBRANCH  23  33
BRANCH  24  35
ATOM     35  O   UNL     1      72.027  54.380  15.886  1.00  0.00    -0.390 OA
ATOM     36  H   UNL     1      72.391  54.504  14.971  1.00  0.00     0.211 HD
ENDBRANCH  24  35
TORSDOF 4
ENDMDL
MODEL 4
REMARK VINA RESULT:    -5.346      2.731      7.031
REMARK INTER + INTRA:          -6.400
REMARK INTER:                  -6.292
REMARK INTRA:                  -0.109
REMARK UNBOUND:                -0.117
REMARK SMILES C=C(C)[C@@H]1CC[C@@]2(C(=O)[O-])CC[C@]3(C)[C@@H](CC[C@H]4[C@]5(C)C[C@@H](O)[C@@H](O)C(C)(C)[C@@H]5CC[C@@]43C)[C@H]12
REMARK SMILES IDX 7 1 6 2 34 3 11 4 5 5 15 6 4 7 12 8 16 9 13 10 17 11 32 12
REMARK SMILES IDX 14 13 18 14 31 15 33 16 19 17 30 18 29 19 21 20 20 21 26 22
REMARK SMILES IDX 22 23 24 24 27 25 28 26 8 27 9 28 10 29 2 30 3 31 1 32 23 33
REMARK SMILES IDX 25 35
REMARK H PARENT 23 34 25 36
REMARK Flexibility Score: inf
ROOT
ATOM      1  C   UNL     1      72.091  57.524  24.341  1.00  0.00     0.014 C 
ATOM      2  C   UNL     1      73.469  56.834  24.388  1.00  0.00     0.014 C 
ATOM      3  C   UNL     1      71.170  56.285  24.315  1.00  0.00     0.012 C 
ATOM      4  C   UNL     1      71.848  58.341  23.060  1.00  0.00     0.014 C 
ATOM      5  C   UNL     1      73.288  55.680  25.386  1.00  0.00     0.009 C 
ATOM      6  C   UNL     1      69.652  56.611  24.302  1.00  0.00     0.000 C 
ATOM      7  C   UNL     1      71.804  55.255  25.287  1.00  0.00     0.018 C 
ATOM      8  C   UNL     1      70.352  58.726  22.916  1.00  0.00     0.008 C 
ATOM      9  C   UNL     1      68.727  55.357  24.424  1.00  0.00     0.005 C 
ATOM     10  C   UNL     1      69.277  57.567  23.079  1.00  0.00    -0.024 C 
ATOM     11  C   UNL     1      67.913  55.009  23.174  1.00  0.00     0.005 C 
ATOM     12  C   UNL     1      69.011  56.753  21.664  1.00  0.00    -0.024 C 
ATOM     13  C   UNL     1      67.990  58.329  23.566  1.00  0.00     0.012 C 
ATOM     14  C   UNL     1      68.769  55.216  21.916  1.00  0.00     0.002 C 
ATOM     15  C   UNL     1      70.229  56.759  20.698  1.00  0.00     0.008 C 
ATOM     16  C   UNL     1      67.826  57.425  20.897  1.00  0.00     0.012 C 
ATOM     17  C   UNL     1      68.376  54.308  20.669  1.00  0.00    -0.023 C 
ATOM     18  C   UNL     1      69.981  56.078  19.346  1.00  0.00     0.005 C 
ATOM     19  C   UNL     1      69.099  54.776  19.310  1.00  0.00     0.004 C 
ATOM     20  C   UNL     1      68.777  52.825  21.018  1.00  0.00     0.042 C 
ATOM     21  C   UNL     1      66.822  54.301  20.484  1.00  0.00     0.012 C 
ATOM     22  C   UNL     1      69.815  53.629  18.484  1.00  0.00    -0.003 C 
ATOM     23  C   UNL     1      68.640  51.790  19.885  1.00  0.00     0.144 C 
ATOM     24  C   UNL     1      68.926  52.350  18.470  1.00  0.00     0.149 C 
ATOM     25  C   UNL     1      70.000  54.072  17.001  1.00  0.00     0.014 C 
ATOM     26  C   UNL     1      71.232  53.298  19.054  1.00  0.00     0.014 C 
ENDROOT
BRANCH   1  27
ATOM     27  C   UNL     1      71.954  58.465  25.552  1.00  0.00     0.048 C 
ATOM     28  O   UNL     1      72.959  59.081  25.997  1.00  0.00    -0.550 OA
ATOM     29  O   UNL     1      70.721  58.749  26.124  1.00  0.00    -0.550 OA
ENDBRANCH   1  27
BRANCH   7  30
ATOM     30  C   UNL     1      71.120  55.048  26.644  1.00  0.00    -0.077 C 
ATOM     31  C   UNL     1      70.241  53.838  26.860  1.00  0.00     0.039 C 
ATOM     32  C   UNL     1      71.321  55.856  27.696  1.00  0.00     0.008 C 
ENDBRANCH   7  30
BRANCH  23  33
ATOM     33  O   UNL     1      67.367  51.196  19.941  1.00  0.00    -0.390 OA
ATOM     34  H   UNL     1      67.397  50.393  19.357  1.00  0.00     0.211 HD
ENDBRANCH  23  33
BRANCH  24  35
ATOM     35  O   UNL     1      67.710  52.609  17.805  1.00  0.00    -0.390 OA
ATOM     36  H   UNL     1      67.216  53.292  18.329  1.00  0.00     0.211 HD
ENDBRANCH  24  35
TORSDOF 4
ENDMDL
MODEL 5
REMARK VINA RESULT:    -5.281      2.750      4.534
REMARK INTER + INTRA:          -6.325
REMARK INTER:                  -6.517
REMARK INTRA:                   0.193
REMARK UNBOUND:                -0.117
REMARK SMILES C=C(C)[C@@H]1CC[C@@]2(C(=O)[O-])CC[C@]3(C)[C@@H](CC[C@H]4[C@]5(C)C[C@@H](O)[C@@H](O)C(C)(C)[C@@H]5CC[C@@]43C)[C@H]12
REMARK SMILES IDX 7 1 6 2 34 3 11 4 5 5 15 6 4 7 12 8 16 9 13 10 17 11 32 12
REMARK SMILES IDX 14 13 18 14 31 15 33 16 19 17 30 18 29 19 21 20 20 21 26 22
REMARK SMILES IDX 22 23 24 24 27 25 28 26 8 27 9 28 10 29 2 30 3 31 1 32 23 33
REMARK SMILES IDX 25 35
REMARK H PARENT 23 34 25 36
REMARK Flexibility Score: inf
ROOT
ATOM      1  C   UNL     1      69.160  53.584  19.472  1.00  0.00     0.014 C 
ATOM      2  C   UNL     1      69.387  54.763  18.505  1.00  0.00     0.014 C 
ATOM      3  C   UNL     1      68.932  54.356  20.790  1.00  0.00     0.012 C 
ATOM      4  C   UNL     1      70.390  52.676  19.644  1.00  0.00     0.014 C 
ATOM      5  C   UNL     1      68.326  55.800  18.906  1.00  0.00     0.009 C 
ATOM      6  C   UNL     1      68.626  53.458  22.019  1.00  0.00     0.000 C 
ATOM      7  C   UNL     1      68.080  55.600  20.420  1.00  0.00     0.018 C 
ATOM      8  C   UNL     1      70.220  51.725  20.859  1.00  0.00     0.008 C 
ATOM      9  C   UNL     1      68.253  54.250  23.313  1.00  0.00     0.005 C 
ATOM     10  C   UNL     1      69.777  52.373  22.241  1.00  0.00    -0.024 C 
ATOM     11  C   UNL     1      69.280  54.187  24.449  1.00  0.00     0.005 C 
ATOM     12  C   UNL     1      71.064  52.946  23.108  1.00  0.00    -0.024 C 
ATOM     13  C   UNL     1      69.053  51.190  22.982  1.00  0.00     0.012 C 
ATOM     14  C   UNL     1      70.702  54.273  23.876  1.00  0.00     0.002 C 
ATOM     15  C   UNL     1      72.273  53.373  22.227  1.00  0.00     0.008 C 
ATOM     16  C   UNL     1      71.581  51.824  24.066  1.00  0.00     0.012 C 
ATOM     17  C   UNL     1      71.794  54.890  24.857  1.00  0.00    -0.023 C 
ATOM     18  C   UNL     1      73.508  53.833  23.012  1.00  0.00     0.005 C 
ATOM     19  C   UNL     1      73.296  54.679  24.322  1.00  0.00     0.004 C 
ATOM     20  C   UNL     1      71.478  56.426  25.009  1.00  0.00     0.042 C 
ATOM     21  C   UNL     1      71.633  54.274  26.286  1.00  0.00     0.012 C 
ATOM     22  C   UNL     1      74.210  55.974  24.315  1.00  0.00    -0.003 C 
ATOM     23  C   UNL     1      72.510  57.266  25.786  1.00  0.00     0.144 C 
ATOM     24  C   UNL     1      73.976  56.796  25.617  1.00  0.00     0.149 C 
ATOM     25  C   UNL     1      75.714  55.567  24.296  1.00  0.00     0.014 C 
ATOM     26  C   UNL     1      73.950  56.864  23.057  1.00  0.00     0.014 C 
ENDROOT
BRANCH   1  27
ATOM     27  C   UNL     1      67.989  52.726  18.960  1.00  0.00     0.048 C 
ATOM     28  O   UNL     1      67.633  52.790  17.753  1.00  0.00    -0.550 OA
ATOM     29  O   UNL     1      67.360  51.788  19.767  1.00  0.00    -0.550 OA
ENDBRANCH   1  27
BRANCH   7  30
ATOM     30  C   UNL     1      66.599  55.587  20.818  1.00  0.00    -0.077 C 
ATOM     31  C   UNL     1      65.968  56.835  21.387  1.00  0.00     0.039 C 
ATOM     32  C   UNL     1      65.796  54.530  20.616  1.00  0.00     0.008 C 
ENDBRANCH   7  30
BRANCH  23  33
ATOM     33  O   UNL     1      72.152  57.312  27.145  1.00  0.00    -0.390 OA
ATOM     34  H   UNL     1      72.907  56.916  27.655  1.00  0.00     0.211 HD
ENDBRANCH  23  33
BRANCH  24  35
ATOM     35  O   UNL     1      74.368  56.046  26.744  1.00  0.00    -0.390 OA
ATOM     36  H   UNL     1      74.319  56.640  27.538  1.00  0.00     0.211 HD
ENDBRANCH  24  35
TORSDOF 4
ENDMDL
MODEL 6
REMARK VINA RESULT:    -5.238      2.240      7.662
REMARK INTER + INTRA:          -6.274
REMARK INTER:                  -6.233
REMARK INTRA:                  -0.041
REMARK UNBOUND:                -0.117
REMARK SMILES C=C(C)[C@@H]1CC[C@@]2(C(=O)[O-])CC[C@]3(C)[C@@H](CC[C@H]4[C@]5(C)C[C@@H](O)[C@@H](O)C(C)(C)[C@@H]5CC[C@@]43C)[C@H]12
REMARK SMILES IDX 7 1 6 2 34 3 11 4 5 5 15 6 4 7 12 8 16 9 13 10 17 11 32 12
REMARK SMILES IDX 14 13 18 14 31 15 33 16 19 17 30 18 29 19 21 20 20 21 26 22
REMARK SMILES IDX 22 23 24 24 27 25 28 26 8 27 9 28 10 29 2 30 3 31 1 32 23 33
REMARK SMILES IDX 25 35
REMARK H PARENT 23 34 25 36
REMARK Flexibility Score: inf
ROOT
ATOM      1  C   UNL     1      68.951  58.321  24.622  1.00  0.00     0.014 C 
ATOM      2  C   UNL     1      70.373  58.779  25.006  1.00  0.00     0.014 C 
ATOM      3  C   UNL     1      69.255  56.893  24.119  1.00  0.00     0.012 C 
ATOM      4  C   UNL     1      68.331  59.125  23.466  1.00  0.00     0.014 C 
ATOM      5  C   UNL     1      70.991  57.562  25.712  1.00  0.00     0.009 C 
ATOM      6  C   UNL     1      68.005  56.089  23.668  1.00  0.00     0.000 C 
ATOM      7  C   UNL     1      70.328  56.316  25.081  1.00  0.00     0.018 C 
ATOM      8  C   UNL     1      67.067  58.419  22.907  1.00  0.00     0.008 C 
ATOM      9  C   UNL     1      68.302  54.600  23.300  1.00  0.00     0.005 C 
ATOM     10  C   UNL     1      67.189  56.876  22.544  1.00  0.00    -0.024 C 
ATOM     11  C   UNL     1      68.157  54.240  21.818  1.00  0.00     0.005 C 
ATOM     12  C   UNL     1      67.771  56.634  21.015  1.00  0.00    -0.024 C 
ATOM     13  C   UNL     1      65.715  56.349  22.699  1.00  0.00     0.012 C 
ATOM     14  C   UNL     1      68.715  55.375  20.946  1.00  0.00     0.002 C 
ATOM     15  C   UNL     1      68.686  57.783  20.503  1.00  0.00     0.008 C 
ATOM     16  C   UNL     1      66.572  56.536  20.016  1.00  0.00     0.012 C 
ATOM     17  C   UNL     1      69.264  54.929  19.520  1.00  0.00    -0.023 C 
ATOM     18  C   UNL     1      69.174  57.620  19.058  1.00  0.00     0.005 C 
ATOM     19  C   UNL     1      69.552  56.180  18.549  1.00  0.00     0.004 C 
ATOM     20  C   UNL     1      70.585  54.105  19.757  1.00  0.00     0.042 C 
ATOM     21  C   UNL     1      68.255  53.940  18.848  1.00  0.00     0.012 C 
ATOM     22  C   UNL     1      70.968  56.183  17.838  1.00  0.00    -0.003 C 
ATOM     23  C   UNL     1      71.385  53.711  18.500  1.00  0.00     0.144 C 
ATOM     24  C   UNL     1      71.321  54.746  17.351  1.00  0.00     0.149 C 
ATOM     25  C   UNL     1      70.931  57.097  16.575  1.00  0.00     0.014 C 
ATOM     26  C   UNL     1      72.091  56.729  18.777  1.00  0.00     0.014 C 
ENDROOT
BRANCH   1  27
ATOM     27  C   UNL     1      68.030  58.443  25.849  1.00  0.00     0.048 C 
ATOM     28  O   UNL     1      68.386  59.124  26.847  1.00  0.00    -0.550 OA
ATOM     29  O   UNL     1      66.750  57.905  25.861  1.00  0.00    -0.550 OA
ENDBRANCH   1  27
BRANCH   7  30
ATOM     30  C   UNL     1      69.873  55.264  26.100  1.00  0.00    -0.077 C 
ATOM     31  C   UNL     1      70.486  53.884  26.072  1.00  0.00     0.039 C 
ATOM     32  C   UNL     1      68.999  55.528  27.083  1.00  0.00     0.008 C 
ENDBRANCH   7  30
BRANCH  23  33
ATOM     33  O   UNL     1      70.969  52.443  18.057  1.00  0.00    -0.390 OA
ATOM     34  H   UNL     1      70.466  52.027  18.806  1.00  0.00     0.211 HD
ENDBRANCH  23  33
BRANCH  24  35
ATOM     35  O   UNL     1      70.395  54.320  16.377  1.00  0.00    -0.390 OA
ATOM     36  H   UNL     1      70.421  54.970  15.627  1.00  0.00     0.211 HD
ENDBRANCH  24  35
TORSDOF 4
ENDMDL
MODEL 7
REMARK VINA RESULT:    -5.035      1.406      7.425
REMARK INTER + INTRA:          -6.035
REMARK INTER:                  -6.019
REMARK INTRA:                  -0.017
REMARK UNBOUND:                -0.117
REMARK SMILES C=C(C)[C@@H]1CC[C@@]2(C(=O)[O-])CC[C@]3(C)[C@@H](CC[C@H]4[C@]5(C)C[C@@H](O)[C@@H](O)C(C)(C)[C@@H]5CC[C@@]43C)[C@H]12
REMARK SMILES IDX 7 1 6 2 34 3 11 4 5 5 15 6 4 7 12 8 16 9 13 10 17 11 32 12
REMARK SMILES IDX 14 13 18 14 31 15 33 16 19 17 30 18 29 19 21 20 20 21 26 22
REMARK SMILES IDX 22 23 24 24 27 25 28 26 8 27 9 28 10 29 2 30 3 31 1 32 23 33
REMARK SMILES IDX 25 35
REMARK H PARENT 23 34 25 36
REMARK Flexibility Score: inf
ROOT
ATOM      1  C   UNL     1      69.581  55.640  24.445  1.00  0.00     0.014 C 
ATOM      2  C   UNL     1      69.535  57.130  24.838  1.00  0.00     0.014 C 
ATOM      3  C   UNL     1      70.949  55.591  23.731  1.00  0.00     0.012 C 
ATOM      4  C   UNL     1      68.491  55.229  23.441  1.00  0.00     0.014 C 
ATOM      5  C   UNL     1      70.955  57.440  25.337  1.00  0.00     0.009 C 
ATOM      6  C   UNL     1      71.357  54.184  23.216  1.00  0.00     0.000 C 
ATOM      7  C   UNL     1      71.901  56.496  24.559  1.00  0.00     0.018 C 
ATOM      8  C   UNL     1      68.785  53.831  22.834  1.00  0.00     0.008 C 
ATOM      9  C   UNL     1      72.803  54.113  22.627  1.00  0.00     0.005 C 
ATOM     10  C   UNL     1      70.241  53.578  22.249  1.00  0.00    -0.024 C 
ATOM     11  C   UNL     1      72.893  53.884  21.115  1.00  0.00     0.005 C 
ATOM     12  C   UNL     1      70.384  54.082  20.680  1.00  0.00    -0.024 C 
ATOM     13  C   UNL     1      70.421  52.021  22.381  1.00  0.00     0.012 C 
ATOM     14  C   UNL     1      71.807  54.696  20.395  1.00  0.00     0.002 C 
ATOM     15  C   UNL     1      69.423  55.245  20.304  1.00  0.00     0.008 C 
ATOM     16  C   UNL     1      70.046  52.893  19.723  1.00  0.00     0.012 C 
ATOM     17  C   UNL     1      72.153  55.119  18.900  1.00  0.00    -0.023 C 
ATOM     18  C   UNL     1      69.480  55.677  18.834  1.00  0.00     0.005 C 
ATOM     19  C   UNL     1      70.877  55.697  18.109  1.00  0.00     0.004 C 
ATOM     20  C   UNL     1      73.293  56.204  18.967  1.00  0.00     0.042 C 
ATOM     21  C   UNL     1      72.763  53.901  18.131  1.00  0.00     0.012 C 
ATOM     22  C   UNL     1      71.103  57.072  17.353  1.00  0.00    -0.003 C 
ATOM     23  C   UNL     1      73.674  56.884  17.637  1.00  0.00     0.144 C 
ATOM     24  C   UNL     1      72.495  57.068  16.652  1.00  0.00     0.149 C 
ATOM     25  C   UNL     1      70.030  57.252  16.237  1.00  0.00     0.014 C 
ATOM     26  C   UNL     1      70.986  58.294  18.318  1.00  0.00     0.014 C 
ENDROOT
BRANCH   1  27
ATOM     27  C   UNL     1      69.428  54.778  25.711  1.00  0.00     0.048 C 
ATOM     28  O   UNL     1      68.523  55.033  26.550  1.00  0.00    -0.550 OA
ATOM     29  O   UNL     1      70.197  53.642  25.921  1.00  0.00    -0.550 OA
ENDBRANCH   1  27
BRANCH   7  30
ATOM     30  C   UNL     1      72.954  55.804  25.432  1.00  0.00    -0.077 C 
ATOM     31  C   UNL     1      74.359  55.626  24.908  1.00  0.00     0.039 C 
ATOM     32  C   UNL     1      72.714  55.406  26.691  1.00  0.00     0.008 C 
ENDBRANCH   7  30
BRANCH  23  33
ATOM     33  O   UNL     1      74.727  56.175  17.032  1.00  0.00    -0.390 OA
ATOM     34  H   UNL     1      75.536  56.329  17.588  1.00  0.00     0.211 HD
ENDBRANCH  23  33
BRANCH  24  35
ATOM     35  O   UNL     1      72.539  56.065  15.662  1.00  0.00    -0.390 OA
ATOM     36  H   UNL     1      72.189  55.226  16.062  1.00  0.00     0.211 HD
ENDBRANCH  24  35
TORSDOF 4
ENDMDL
MODEL 8
REMARK VINA RESULT:    -5.030      1.653      3.269
REMARK INTER + INTRA:          -6.030
REMARK INTER:                  -5.958
REMARK INTRA:                  -0.072
REMARK UNBOUND:                -0.117
REMARK SMILES C=C(C)[C@@H]1CC[C@@]2(C(=O)[O-])CC[C@]3(C)[C@@H](CC[C@H]4[C@]5(C)C[C@@H](O)[C@@H](O)C(C)(C)[C@@H]5CC[C@@]43C)[C@H]12
REMARK SMILES IDX 7 1 6 2 34 3 11 4 5 5 15 6 4 7 12 8 16 9 13 10 17 11 32 12
REMARK SMILES IDX 14 13 18 14 31 15 33 16 19 17 30 18 29 19 21 20 20 21 26 22
REMARK SMILES IDX 22 23 24 24 27 25 28 26 8 27 9 28 10 29 2 30 3 31 1 32 23 33
REMARK SMILES IDX 25 35
REMARK H PARENT 23 34 25 36
REMARK Flexibility Score: inf
ROOT
ATOM      1  C   UNL     1      71.886  55.121  18.612  1.00  0.00     0.014 C 
ATOM      2  C   UNL     1      73.025  56.155  18.506  1.00  0.00     0.014 C 
ATOM      3  C   UNL     1      70.843  55.947  19.395  1.00  0.00     0.012 C 
ATOM      4  C   UNL     1      72.250  53.878  19.443  1.00  0.00     0.014 C 
ATOM      5  C   UNL     1      72.314  57.477  18.173  1.00  0.00     0.009 C 
ATOM      6  C   UNL     1      69.503  55.208  19.660  1.00  0.00     0.000 C 
ATOM      7  C   UNL     1      70.913  57.387  18.821  1.00  0.00     0.018 C 
ATOM      8  C   UNL     1      70.987  53.047  19.792  1.00  0.00     0.008 C 
ATOM      9  C   UNL     1      68.403  56.097  20.323  1.00  0.00     0.005 C 
ATOM     10  C   UNL     1      69.748  53.823  20.417  1.00  0.00    -0.024 C 
ATOM     11  C   UNL     1      68.037  55.738  21.766  1.00  0.00     0.005 C 
ATOM     12  C   UNL     1      69.869  53.981  22.059  1.00  0.00    -0.024 C 
ATOM     13  C   UNL     1      68.517  52.936  20.004  1.00  0.00     0.012 C 
ATOM     14  C   UNL     1      69.304  55.368  22.551  1.00  0.00     0.002 C 
ATOM     15  C   UNL     1      71.334  53.998  22.581  1.00  0.00     0.008 C 
ATOM     16  C   UNL     1      69.160  52.770  22.747  1.00  0.00     0.012 C 
ATOM     17  C   UNL     1      69.234  55.631  24.120  1.00  0.00    -0.023 C 
ATOM     18  C   UNL     1      71.471  54.064  24.108  1.00  0.00     0.005 C 
ATOM     19  C   UNL     1      70.457  54.955  24.917  1.00  0.00     0.004 C 
ATOM     20  C   UNL     1      69.235  57.191  24.338  1.00  0.00     0.042 C 
ATOM     21  C   UNL     1      67.867  55.118  24.684  1.00  0.00     0.012 C 
ATOM     22  C   UNL     1      71.220  55.901  25.933  1.00  0.00    -0.003 C 
ATOM     23  C   UNL     1      69.339  57.682  25.795  1.00  0.00     0.144 C 
ATOM     24  C   UNL     1      70.195  56.777  26.715  1.00  0.00     0.149 C 
ATOM     25  C   UNL     1      71.987  55.047  26.987  1.00  0.00     0.014 C 
ATOM     26  C   UNL     1      72.268  56.807  25.212  1.00  0.00     0.014 C 
ENDROOT
BRANCH   1  27
ATOM     27  C   UNL     1      71.487  54.661  17.198  1.00  0.00     0.048 C 
ATOM     28  O   UNL     1      72.364  54.508  16.306  1.00  0.00    -0.550 OA
ATOM     29  O   UNL     1      70.183  54.302  16.885  1.00  0.00    -0.550 OA
ENDBRANCH   1  27
BRANCH   7  30
ATOM     30  C   UNL     1      69.769  57.842  17.906  1.00  0.00    -0.077 C 
ATOM     31  C   UNL     1      68.626  58.643  18.482  1.00  0.00     0.039 C 
ATOM     32  C   UNL     1      69.763  57.628  16.581  1.00  0.00     0.008 C 
ENDBRANCH   7  30
BRANCH  23  33
ATOM     33  O   UNL     1      68.049  57.858  26.326  1.00  0.00    -0.390 OA
ATOM     34  H   UNL     1      67.577  56.989  26.230  1.00  0.00     0.211 HD
ENDBRANCH  23  33
BRANCH  24  35
ATOM     35  O   UNL     1      69.353  55.960  27.497  1.00  0.00    -0.390 OA
ATOM     36  H   UNL     1      69.228  56.404  28.376  1.00  0.00     0.211 HD
ENDBRANCH  24  35
TORSDOF 4
ENDMDL
MODEL 9
REMARK VINA RESULT:    -5.027      1.899      3.997
REMARK INTER + INTRA:          -6.025
REMARK INTER:                  -6.075
REMARK INTRA:                   0.050
REMARK UNBOUND:                -0.117
REMARK SMILES C=C(C)[C@@H]1CC[C@@]2(C(=O)[O-])CC[C@]3(C)[C@@H](CC[C@H]4[C@]5(C)C[C@@H](O)[C@@H](O)C(C)(C)[C@@H]5CC[C@@]43C)[C@H]12
REMARK SMILES IDX 7 1 6 2 34 3 11 4 5 5 15 6 4 7 12 8 16 9 13 10 17 11 32 12
REMARK SMILES IDX 14 13 18 14 31 15 33 16 19 17 30 18 29 19 21 20 20 21 26 22
REMARK SMILES IDX 22 23 24 24 27 25 28 26 8 27 9 28 10 29 2 30 3 31 1 32 23 33
REMARK SMILES IDX 25 35
REMARK H PARENT 23 34 25 36
REMARK Flexibility Score: inf
ROOT
ATOM      1  C   UNL     1      72.183  56.392  16.573  1.00  0.00     0.014 C 
ATOM      2  C   UNL     1      73.048  57.660  16.725  1.00  0.00     0.014 C 
ATOM      3  C   UNL     1      71.088  56.685  17.622  1.00  0.00     0.012 C 
ATOM      4  C   UNL     1      72.908  55.095  16.973  1.00  0.00     0.014 C 
ATOM      5  C   UNL     1      72.031  58.807  16.841  1.00  0.00     0.009 C 
ATOM      6  C   UNL     1      69.984  55.598  17.722  1.00  0.00     0.000 C 
ATOM      7  C   UNL     1      70.773  58.200  17.505  1.00  0.00     0.018 C 
ATOM      8  C   UNL     1      71.908  53.917  17.121  1.00  0.00     0.008 C 
ATOM      9  C   UNL     1      68.805  55.970  18.677  1.00  0.00     0.005 C 
ATOM     10  C   UNL     1      70.615  54.161  18.014  1.00  0.00    -0.024 C 
ATOM     11  C   UNL     1      68.705  55.143  19.963  1.00  0.00     0.005 C 
ATOM     12  C   UNL     1      70.898  53.877  19.619  1.00  0.00    -0.024 C 
ATOM     13  C   UNL     1      69.566  53.151  17.418  1.00  0.00     0.012 C 
ATOM     14  C   UNL     1      70.108  54.889  20.534  1.00  0.00     0.002 C 
ATOM     15  C   UNL     1      72.376  54.104  20.045  1.00  0.00     0.008 C 
ATOM     16  C   UNL     1      70.559  52.387  19.947  1.00  0.00     0.012 C 
ATOM     17  C   UNL     1      70.173  54.678  22.110  1.00  0.00    -0.023 C 
ATOM     18  C   UNL     1      72.679  53.772  21.512  1.00  0.00     0.005 C 
ATOM     19  C   UNL     1      71.602  54.125  22.602  1.00  0.00     0.004 C 
ATOM     20  C   UNL     1      69.861  56.065  22.786  1.00  0.00     0.042 C 
ATOM     21  C   UNL     1      69.030  53.711  22.564  1.00  0.00     0.012 C 
ATOM     22  C   UNL     1      72.258  54.906  23.816  1.00  0.00    -0.003 C 
ATOM     23  C   UNL     1      70.032  56.139  24.317  1.00  0.00     0.144 C 
ATOM     24  C   UNL     1      71.170  55.251  24.876  1.00  0.00     0.149 C 
ATOM     25  C   UNL     1      73.316  54.006  24.523  1.00  0.00     0.014 C 
ATOM     26  C   UNL     1      72.988  56.205  23.346  1.00  0.00     0.014 C 
ENDROOT
BRANCH   1  27
ATOM     27  C   UNL     1      71.725  56.263  15.110  1.00  0.00     0.048 C 
ATOM     28  O   UNL     1      72.207  57.017  14.222  1.00  0.00    -0.550 OA
ATOM     29  O   UNL     1      70.858  55.259  14.698  1.00  0.00    -0.550 OA
ENDBRANCH   1  27
BRANCH   7  30
ATOM     30  C   UNL     1      69.455  58.599  16.829  1.00  0.00    -0.077 C 
ATOM     31  C   UNL     1      68.315  59.125  17.668  1.00  0.00     0.039 C 
ATOM     32  C   UNL     1      69.278  58.577  15.498  1.00  0.00     0.008 C 
ENDBRANCH   7  30
BRANCH  23  33
ATOM     33  O   UNL     1      68.809  55.839  24.942  1.00  0.00    -0.390 OA
ATOM     34  H   UNL     1      68.982  55.819  25.920  1.00  0.00     0.211 HD
ENDBRANCH  23  33
BRANCH  24  35
ATOM     35  O   UNL     1      70.627  54.068  25.419  1.00  0.00    -0.390 OA
ATOM     36  H   UNL     1      71.346  53.608  25.927  1.00  0.00     0.211 HD
ENDBRANCH  24  35
TORSDOF 4
ENDMDL
