MODEL 1
REMARK VINA RESULT:    -2.049      0.000      0.000
REMARK INTER + INTRA:          -2.049
REMARK INTER:                  -2.049
REMARK INTRA:                   0.000
REMARK UNBOUND:                 0.000
REMARK SMILES CC(=O)[O-]
REMARK SMILES IDX 1 1 2 2 3 3 4 4
REMARK H PARENT
REMARK Flexibility Score: inf
ROOT
ATOM      1  C   UNL     1      24.875  32.459  19.810  1.00  0.00     0.063 C 
ATOM      2  C   UNL     1      25.884  33.467  19.374  1.00  0.00     0.038 C 
ATOM      3  O   UNL     1      25.609  34.278  18.452  1.00  0.00    -0.550 OA
ATOM      4  O   UNL     1      27.111  33.547  20.019  1.00  0.00    -0.550 OA
ENDROOT
TORSDOF 0
ENDMDL
MODEL 2
REMARK VINA RESULT:    -2.039     18.452     18.949
REMARK INTER + INTRA:          -2.039
REMARK INTER:                  -2.039
REMARK INTRA:                   0.000
REMARK UNBOUND:                 0.000
REMARK SMILES CC(=O)[O-]
REMARK SMILES IDX 1 1 2 2 3 3 4 4
REMARK H PARENT
REMARK Flexibility Score: inf
ROOT
ATOM      1  C   UNL     1      37.881  23.780  29.760  1.00  0.00     0.063 C 
ATOM      2  C   UNL     1      38.235  22.691  28.804  1.00  0.00     0.038 C 
ATOM      3  O   UNL     1      38.228  21.491  29.183  1.00  0.00    -0.550 OA
ATOM      4  O   UNL     1      38.523  22.994  27.480  1.00  0.00    -0.550 OA
ENDROOT
TORSDOF 0
ENDMDL
MODEL 3
REMARK VINA RESULT:    -1.985     15.939     16.425
REMARK INTER + INTRA:          -1.985
REMARK INTER:                  -1.985
REMARK INTRA:                   0.000
REMARK UNBOUND:                 0.000
REMARK SMILES CC(=O)[O-]
REMARK SMILES IDX 1 1 2 2 3 3 4 4
REMARK H PARENT
REMARK Flexibility Score: inf
ROOT
ATOM      1  C   UNL     1      40.698  24.036  19.712  1.00  0.00     0.063 C 
ATOM      2  C   UNL     1      39.621  24.720  18.940  1.00  0.00     0.038 C 
ATOM      3  O   UNL     1      38.439  24.727  19.374  1.00  0.00    -0.550 OA
ATOM      4  O   UNL     1      39.928  25.396  17.767  1.00  0.00    -0.550 OA
ENDROOT
TORSDOF 0
ENDMDL
MODEL 4
REMARK VINA RESULT:    -1.971     15.990     16.463
REMARK INTER + INTRA:          -1.971
REMARK INTER:                  -1.971
REMARK INTRA:                   0.000
REMARK UNBOUND:                 0.000
REMARK SMILES CC(=O)[O-]
REMARK SMILES IDX 1 1 2 2 3 3 4 4
REMARK H PARENT
REMARK Flexibility Score: inf
ROOT
ATOM      1  C   UNL     1      40.722  23.728  19.197  1.00  0.00     0.063 C 
ATOM      2  C   UNL     1      39.704  24.736  18.784  1.00  0.00     0.038 C 
ATOM      3  O   UNL     1      39.953  25.540  17.849  1.00  0.00    -0.550 OA
ATOM      4  O   UNL     1      38.457  24.756  19.396  1.00  0.00    -0.550 OA
ENDROOT
TORSDOF 0
ENDMDL
MODEL 5
REMARK VINA RESULT:    -1.941     18.170     18.533
REMARK INTER + INTRA:          -1.941
REMARK INTER:                  -1.941
REMARK INTRA:                   0.000
REMARK UNBOUND:                 0.000
REMARK SMILES CC(=O)[O-]
REMARK SMILES IDX 1 1 2 2 3 3 4 4
REMARK H PARENT
REMARK Flexibility Score: inf
ROOT
ATOM      1  C   UNL     1      37.565  23.436  30.172  1.00  0.00     0.063 C 
ATOM      2  C   UNL     1      38.500  24.171  29.273  1.00  0.00     0.038 C 
ATOM      3  O   UNL     1      38.317  24.164  28.027  1.00  0.00    -0.550 OA
ATOM      4  O   UNL     1      39.546  24.910  29.810  1.00  0.00    -0.550 OA
ENDROOT
TORSDOF 0
ENDMDL
MODEL 6
REMARK VINA RESULT:    -1.848      5.187      5.452
REMARK INTER + INTRA:          -1.848
REMARK INTER:                  -1.848
REMARK INTRA:                   0.000
REMARK UNBOUND:                 0.000
REMARK SMILES CC(=O)[O-]
REMARK SMILES IDX 1 1 2 2 3 3 4 4
REMARK H PARENT
REMARK Flexibility Score: inf
ROOT
ATOM      1  C   UNL     1      28.394  33.519  23.318  1.00  0.00     0.063 C 
ATOM      2  C   UNL     1      29.570  32.653  23.015  1.00  0.00     0.038 C 
ATOM      3  O   UNL     1      29.556  31.435  23.332  1.00  0.00    -0.550 OA
ATOM      4  O   UNL     1      30.662  33.175  22.335  1.00  0.00    -0.550 OA
ENDROOT
TORSDOF 0
ENDMDL
MODEL 7
REMARK VINA RESULT:    -1.845     16.382     16.829
REMARK INTER + INTRA:          -1.845
REMARK INTER:                  -1.845
REMARK INTRA:                   0.000
REMARK UNBOUND:                 0.000
REMARK SMILES CC(=O)[O-]
REMARK SMILES IDX 1 1 2 2 3 3 4 4
REMARK H PARENT
REMARK Flexibility Score: inf
ROOT
ATOM      1  C   UNL     1      39.112  24.736  19.165  1.00  0.00     0.063 C 
ATOM      2  C   UNL     1      40.273  24.835  18.234  1.00  0.00     0.038 C 
ATOM      3  O   UNL     1      40.291  25.718  17.338  1.00  0.00    -0.550 OA
ATOM      4  O   UNL     1      41.362  23.987  18.387  1.00  0.00    -0.550 OA
ENDROOT
TORSDOF 0
ENDMDL
MODEL 8
REMARK VINA RESULT:    -1.782     17.351     17.686
REMARK INTER + INTRA:          -1.782
REMARK INTER:                  -1.782
REMARK INTRA:                   0.000
REMARK UNBOUND:                 0.000
REMARK SMILES CC(=O)[O-]
REMARK SMILES IDX 1 1 2 2 3 3 4 4
REMARK H PARENT
REMARK Flexibility Score: inf
ROOT
ATOM      1  C   UNL     1      38.383  31.711  32.036  1.00  0.00     0.063 C 
ATOM      2  C   UNL     1      37.401  32.644  32.659  1.00  0.00     0.038 C 
ATOM      3  O   UNL     1      36.211  32.279  32.842  1.00  0.00    -0.550 OA
ATOM      4  O   UNL     1      37.810  33.900  33.087  1.00  0.00    -0.550 OA
ENDROOT
TORSDOF 0
ENDMDL
MODEL 9
REMARK VINA RESULT:    -1.764      4.061      4.875
REMARK INTER + INTRA:          -1.764
REMARK INTER:                  -1.764
REMARK INTRA:                   0.000
REMARK UNBOUND:                 0.000
REMARK SMILES CC(=O)[O-]
REMARK SMILES IDX 1 1 2 2 3 3 4 4
REMARK H PARENT
REMARK Flexibility Score: inf
ROOT
ATOM      1  C   UNL     1      28.587  34.274  23.734  1.00  0.00     0.063 C 
ATOM      2  C   UNL     1      28.683  33.144  22.766  1.00  0.00     0.038 C 
ATOM      3  O   UNL     1      29.329  32.107  23.067  1.00  0.00    -0.550 OA
ATOM      4  O   UNL     1      28.017  33.212  21.549  1.00  0.00    -0.550 OA
ENDROOT
TORSDOF 0
ENDMDL
