MODEL 1
REMARK VINA RESULT:     2.431      0.000      0.000
REMARK INTER + INTRA:           2.832
REMARK INTER:                   2.858
REMARK INTRA:                  -0.026
REMARK UNBOUND:                -0.026
REMARK SMILES O=c1c(O)c(-c2ccc(O)cc2)oc2cc(O)cc(O)c12
REMARK SMILES IDX 5 1 3 2 2 3 1 4 21 5 19 6 18 7 16 8 15 9 14 10 13 11 6 12
REMARK SMILES IDX 7 13 8 14 9 15 12 16 11 17 10 18 4 20 20 22 17 24
REMARK H PARENT 10 19 4 21 20 23 17 25
REMARK Flexibility Score: inf
ROOT
ATOM      1  C   UNL     1       3.972   9.116  12.916  1.00  0.00     0.180 A 
ATOM      2  C   UNL     1       4.250   9.069  14.293  1.00  0.00     0.208 A 
ATOM      3  C   UNL     1       5.248   8.196  14.756  1.00  0.00     0.238 A 
ATOM      4  O   UNL     1       5.530   8.198  15.983  1.00  0.00    -0.285 OA
ATOM      5  C   UNL     1       5.945   7.373  13.839  1.00  0.00     0.111 A 
ATOM      6  C   UNL     1       6.948   6.425  14.203  1.00  0.00     0.134 A 
ATOM      7  C   UNL     1       7.663   5.758  13.201  1.00  0.00     0.093 A 
ATOM      8  C   UNL     1       7.368   5.955  11.852  1.00  0.00     0.123 A 
ATOM      9  C   UNL     1       6.349   6.837  11.488  1.00  0.00     0.094 A 
ATOM     10  C   UNL     1       5.642   7.544  12.463  1.00  0.00     0.146 A 
ATOM     11  O   UNL     1       4.688   8.380  12.075  1.00  0.00    -0.452 OA
ENDROOT
BRANCH   1  12
ATOM     12  C   UNL     1       2.916   9.991  12.355  1.00  0.00     0.021 A 
ATOM     13  C   UNL     1       1.603   9.891  12.846  1.00  0.00     0.016 A 
ATOM     14  C   UNL     1       0.595  10.722  12.346  1.00  0.00     0.047 A 
ATOM     15  C   UNL     1       0.890  11.671  11.364  1.00  0.00     0.115 A 
ATOM     16  C   UNL     1       3.210  10.962  11.381  1.00  0.00     0.016 A 
ATOM     17  C   UNL     1       2.201  11.793  10.885  1.00  0.00     0.047 A 
BRANCH  15  18
ATOM     18  O   UNL     1      -0.125  12.493  10.875  1.00  0.00    -0.508 OA
ATOM     19  H   UNL     1      -0.120  12.828   9.918  1.00  0.00     0.293 HD
ENDBRANCH  15  18
ENDBRANCH   1  12
BRANCH   2  20
ATOM     20  O   UNL     1       3.566   9.906  15.178  1.00  0.00    -0.502 OA
ATOM     21  H   UNL     1       2.783   9.586  15.736  1.00  0.00     0.293 HD
ENDBRANCH   2  20
BRANCH   6  22
ATOM     22  O   UNL     1       7.258   6.084  15.522  1.00  0.00    -0.507 OA
ATOM     23  H   UNL     1       6.976   5.228  15.976  1.00  0.00     0.293 HD
ENDBRANCH   6  22
BRANCH   8  24
ATOM     24  O   UNL     1       8.089   5.263  10.882  1.00  0.00    -0.508 OA
ATOM     25  H   UNL     1       7.767   4.375  10.514  1.00  0.00     0.293 HD
ENDBRANCH   8  24
TORSDOF 5
ENDMDL
