MODEL 1
REMARK VINA RESULT:    -3.362      0.000      0.000
REMARK INTER + INTRA:          -8.466
REMARK INTER:                  -6.309
REMARK INTRA:                  -2.156
REMARK UNBOUND:                -2.156
REMARK SMILES O=C([O-])CCCCCCCCCCCCCCC(=O)[O-]
REMARK SMILES IDX 10 1 9 2 8 3 7 4 6 5 5 6 4 7 2 8 1 9 3 10 11 11 12 12 13 13
REMARK SMILES IDX 14 14 15 15 16 16 17 17 18 18 19 19 20 20
REMARK H PARENT
REMARK Flexibility Score: inf
ROOT
ATOM      1  C   UNL     1     -14.473 -15.883   2.778  1.00  0.00     0.000 C 
ENDROOT
BRANCH   1   2
ATOM      2  C   UNL     1     -13.293 -16.019   1.805  1.00  0.00     0.000 C 
BRANCH   2   3
ATOM      3  C   UNL     1     -12.757 -14.659   1.326  1.00  0.00     0.000 C 
BRANCH   3   4
ATOM      4  C   UNL     1     -13.882 -13.651   1.036  1.00  0.00     0.000 C 
BRANCH   4   5
ATOM      5  C   UNL     1     -13.704 -12.331   1.805  1.00  0.00     0.000 C 
BRANCH   5   6
ATOM      6  C   UNL     1     -12.598 -12.410   2.871  1.00  0.00     0.006 C 
BRANCH   6   7
ATOM      7  C   UNL     1     -12.844 -11.438   4.033  1.00  0.00     0.053 C 
BRANCH   7   8
ATOM      8  C   UNL     1     -13.443 -12.131   5.220  1.00  0.00     0.041 C 
ATOM      9  O   UNL     1     -12.702 -12.700   6.063  1.00  0.00    -0.550 OA
ATOM     10  O   UNL     1     -14.823 -12.173   5.376  1.00  0.00    -0.550 OA
ENDBRANCH   7   8
ENDBRANCH   6   7
ENDBRANCH   5   6
ENDBRANCH   4   5
ENDBRANCH   3   4
ENDBRANCH   2   3
ENDBRANCH   1   2
BRANCH   1  11
ATOM     11  C   UNL     1     -13.978 -15.579   4.201  1.00  0.00     0.000 C 
BRANCH  11  12
ATOM     12  C   UNL     1     -15.016 -15.930   5.279  1.00  0.00     0.000 C 
BRANCH  12  13
ATOM     13  C   UNL     1     -15.845 -17.175   4.917  1.00  0.00     0.000 C 
BRANCH  13  14
ATOM     14  C   UNL     1     -15.703 -18.311   5.948  1.00  0.00     0.000 C 
BRANCH  14  15
ATOM     15  C   UNL     1     -14.303 -18.454   6.572  1.00  0.00     0.000 C 
BRANCH  15  16
ATOM     16  C   UNL     1     -13.426 -19.491   5.849  1.00  0.00     0.006 C 
BRANCH  16  17
ATOM     17  C   UNL     1     -12.378 -18.832   4.945  1.00  0.00     0.053 C 
BRANCH  17  18
ATOM     18  C   UNL     1     -12.597 -19.172   3.504  1.00  0.00     0.041 C 
ATOM     19  O   UNL     1     -11.622 -19.222   2.708  1.00  0.00    -0.550 OA
ATOM     20  O   UNL     1     -13.883 -19.401   3.031  1.00  0.00    -0.550 OA
ENDBRANCH  17  18
ENDBRANCH  16  17
ENDBRANCH  15  16
ENDBRANCH  14  15
ENDBRANCH  13  14
ENDBRANCH  12  13
ENDBRANCH  11  12
ENDBRANCH   1  11
TORSDOF 15
ENDMDL
MODEL 2
REMARK VINA RESULT:    -3.287      1.207      2.126
REMARK INTER + INTRA:          -8.325
REMARK INTER:                  -6.231
REMARK INTRA:                  -2.094
REMARK UNBOUND:                -2.156
REMARK SMILES O=C([O-])CCCCCCCCCCCCCCC(=O)[O-]
REMARK SMILES IDX 10 1 9 2 8 3 7 4 6 5 5 6 4 7 2 8 1 9 3 10 11 11 12 12 13 13
REMARK SMILES IDX 14 14 15 15 16 16 17 17 18 18 19 19 20 20
REMARK H PARENT
REMARK Flexibility Score: inf
ROOT
ATOM      1  C   UNL     1     -14.764 -15.933   5.028  1.00  0.00     0.000 C 
ENDROOT
BRANCH   1   2
ATOM      2  C   UNL     1     -13.637 -15.640   4.026  1.00  0.00     0.000 C 
BRANCH   2   3
ATOM      3  C   UNL     1     -14.103 -15.732   2.564  1.00  0.00     0.000 C 
BRANCH   3   4
ATOM      4  C   UNL     1     -14.368 -14.350   1.941  1.00  0.00     0.000 C 
BRANCH   4   5
ATOM      5  C   UNL     1     -13.124 -13.446   1.960  1.00  0.00     0.000 C 
BRANCH   5   6
ATOM      6  C   UNL     1     -13.398 -12.073   2.597  1.00  0.00     0.006 C 
BRANCH   6   7
ATOM      7  C   UNL     1     -12.561 -11.846   3.863  1.00  0.00     0.053 C 
BRANCH   7   8
ATOM      8  C   UNL     1     -13.332 -12.175   5.106  1.00  0.00     0.041 C 
ATOM      9  O   UNL     1     -14.571 -11.958   5.160  1.00  0.00    -0.550 OA
ATOM     10  O   UNL     1     -12.674 -12.692   6.215  1.00  0.00    -0.550 OA
ENDBRANCH   7   8
ENDBRANCH   6   7
ENDBRANCH   5   6
ENDBRANCH   4   5
ENDBRANCH   3   4
ENDBRANCH   2   3
ENDBRANCH   1   2
BRANCH   1  11
ATOM     11  C   UNL     1     -15.668 -17.067   4.519  1.00  0.00     0.000 C 
BRANCH  11  12
ATOM     12  C   UNL     1     -15.815 -18.211   5.535  1.00  0.00     0.000 C 
BRANCH  12  13
ATOM     13  C   UNL     1     -14.587 -18.347   6.453  1.00  0.00     0.000 C 
BRANCH  13  14
ATOM     14  C   UNL     1     -13.561 -19.373   5.935  1.00  0.00     0.000 C 
BRANCH  14  15
ATOM     15  C   UNL     1     -12.284 -18.768   5.326  1.00  0.00     0.000 C 
BRANCH  15  16
ATOM     16  C   UNL     1     -12.132 -19.073   3.825  1.00  0.00     0.006 C 
BRANCH  16  17
ATOM     17  C   UNL     1     -13.329 -19.853   3.270  1.00  0.00     0.053 C 
BRANCH  17  18
ATOM     18  C   UNL     1     -12.958 -21.260   2.918  1.00  0.00     0.041 C 
ATOM     19  O   UNL     1     -12.724 -21.575   1.722  1.00  0.00    -0.550 OA
ATOM     20  O   UNL     1     -12.903 -22.233   3.908  1.00  0.00    -0.550 OA
ENDBRANCH  17  18
ENDBRANCH  16  17
ENDBRANCH  15  16
ENDBRANCH  14  15
ENDBRANCH  13  14
ENDBRANCH  12  13
ENDBRANCH  11  12
ENDBRANCH   1  11
TORSDOF 15
ENDMDL
MODEL 3
REMARK VINA RESULT:    -3.256      2.398      7.750
REMARK INTER + INTRA:          -8.267
REMARK INTER:                  -6.529
REMARK INTRA:                  -1.738
REMARK UNBOUND:                -2.156
REMARK SMILES O=C([O-])CCCCCCCCCCCCCCC(=O)[O-]
REMARK SMILES IDX 10 1 9 2 8 3 7 4 6 5 5 6 4 7 2 8 1 9 3 10 11 11 12 12 13 13
REMARK SMILES IDX 14 14 15 15 16 16 17 17 18 18 19 19 20 20
REMARK H PARENT
REMARK Flexibility Score: inf
ROOT
ATOM      1  C   UNL     1     -13.034 -12.418   5.334  1.00  0.00     0.000 C 
ENDROOT
BRANCH   1   2
ATOM      2  C   UNL     1     -14.517 -12.817   5.359  1.00  0.00     0.000 C 
BRANCH   2   3
ATOM      3  C   UNL     1     -14.723 -14.340   5.366  1.00  0.00     0.000 C 
BRANCH   3   4
ATOM      4  C   UNL     1     -15.161 -14.883   3.994  1.00  0.00     0.000 C 
BRANCH   4   5
ATOM      5  C   UNL     1     -14.095 -15.785   3.350  1.00  0.00     0.000 C 
BRANCH   5   6
ATOM      6  C   UNL     1     -13.956 -17.141   4.063  1.00  0.00     0.006 C 
BRANCH   6   7
ATOM      7  C   UNL     1     -12.622 -17.829   3.741  1.00  0.00     0.053 C 
BRANCH   7   8
ATOM      8  C   UNL     1     -12.046 -18.516   4.943  1.00  0.00     0.041 C 
ATOM      9  O   UNL     1     -10.799 -18.618   5.078  1.00  0.00    -0.550 OA
ATOM     10  O   UNL     1     -12.890 -19.070   5.897  1.00  0.00    -0.550 OA
ENDBRANCH   7   8
ENDBRANCH   6   7
ENDBRANCH   5   6
ENDBRANCH   4   5
ENDBRANCH   3   4
ENDBRANCH   2   3
ENDBRANCH   1   2
BRANCH   1  11
ATOM     11  C   UNL     1     -12.704 -11.613   4.067  1.00  0.00     0.000 C 
BRANCH  11  12
ATOM     12  C   UNL     1     -12.493 -12.507   2.834  1.00  0.00     0.000 C 
BRANCH  12  13
ATOM     13  C   UNL     1     -13.557 -12.274   1.746  1.00  0.00     0.000 C 
BRANCH  13  14
ATOM     14  C   UNL     1     -14.475 -11.075   2.052  1.00  0.00     0.000 C 
BRANCH  14  15
ATOM     15  C   UNL     1     -14.154  -9.791   1.266  1.00  0.00     0.000 C 
BRANCH  15  16
ATOM     16  C   UNL     1     -14.538  -8.510   2.027  1.00  0.00     0.006 C 
BRANCH  16  17
ATOM     17  C   UNL     1     -13.543  -8.182   3.146  1.00  0.00     0.053 C 
BRANCH  17  18
ATOM     18  C   UNL     1     -14.228  -8.034   4.470  1.00  0.00     0.041 C 
ATOM     19  O   UNL     1     -14.185  -6.938   5.088  1.00  0.00    -0.550 OA
ATOM     20  O   UNL     1     -14.885  -9.119   5.037  1.00  0.00    -0.550 OA
ENDBRANCH  17  18
ENDBRANCH  16  17
ENDBRANCH  15  16
ENDBRANCH  14  15
ENDBRANCH  13  14
ENDBRANCH  12  13
ENDBRANCH  11  12
ENDBRANCH   1  11
TORSDOF 15
ENDMDL
MODEL 4
REMARK VINA RESULT:    -3.251      2.270      4.109
REMARK INTER + INTRA:          -8.258
REMARK INTER:                  -6.603
REMARK INTRA:                  -1.655
REMARK UNBOUND:                -2.156
REMARK SMILES O=C([O-])CCCCCCCCCCCCCCC(=O)[O-]
REMARK SMILES IDX 10 1 9 2 8 3 7 4 6 5 5 6 4 7 2 8 1 9 3 10 11 11 12 12 13 13
REMARK SMILES IDX 14 14 15 15 16 16 17 17 18 18 19 19 20 20
REMARK H PARENT
REMARK Flexibility Score: inf
ROOT
ATOM      1  C   UNL     1     -14.542 -18.718   5.356  1.00  0.00     0.000 C 
ENDROOT
BRANCH   1   2
ATOM      2  C   UNL     1     -15.344 -18.000   6.451  1.00  0.00     0.000 C 
BRANCH   2   3
ATOM      3  C   UNL     1     -15.504 -16.495   6.180  1.00  0.00     0.000 C 
BRANCH   3   4
ATOM      4  C   UNL     1     -15.228 -16.127   4.711  1.00  0.00     0.000 C 
BRANCH   4   5
ATOM      5  C   UNL     1     -14.203 -14.989   4.571  1.00  0.00     0.000 C 
BRANCH   5   6
ATOM      6  C   UNL     1     -14.607 -13.727   5.354  1.00  0.00     0.006 C 
BRANCH   6   7
ATOM      7  C   UNL     1     -13.400 -12.836   5.675  1.00  0.00     0.053 C 
BRANCH   7   8
ATOM      8  C   UNL     1     -13.172 -11.804   4.612  1.00  0.00     0.041 C 
ATOM      9  O   UNL     1     -12.358 -12.025   3.678  1.00  0.00    -0.550 OA
ATOM     10  O   UNL     1     -13.837 -10.586   4.673  1.00  0.00    -0.550 OA
ENDBRANCH   7   8
ENDBRANCH   6   7
ENDBRANCH   5   6
ENDBRANCH   4   5
ENDBRANCH   3   4
ENDBRANCH   2   3
ENDBRANCH   1   2
BRANCH   1  11
ATOM     11  C   UNL     1     -13.154 -19.129   5.873  1.00  0.00     0.000 C 
BRANCH  11  12
ATOM     12  C   UNL     1     -12.012 -18.623   4.977  1.00  0.00     0.000 C 
BRANCH  12  13
ATOM     13  C   UNL     1     -12.485 -18.289   3.551  1.00  0.00     0.000 C 
BRANCH  13  14
ATOM     14  C   UNL     1     -12.125 -19.383   2.528  1.00  0.00     0.000 C 
BRANCH  14  15
ATOM     15  C   UNL     1     -13.328 -20.041   1.827  1.00  0.00     0.000 C 
BRANCH  15  16
ATOM     16  C   UNL     1     -13.945 -21.189   2.645  1.00  0.00     0.006 C 
BRANCH  16  17
ATOM     17  C   UNL     1     -13.025 -22.414   2.707  1.00  0.00     0.053 C 
BRANCH  17  18
ATOM     18  C   UNL     1     -13.158 -23.140   4.010  1.00  0.00     0.041 C 
ATOM     19  O   UNL     1     -13.555 -22.531   5.038  1.00  0.00    -0.550 OA
ATOM     20  O   UNL     1     -12.810 -24.482   4.096  1.00  0.00    -0.550 OA
ENDBRANCH  17  18
ENDBRANCH  16  17
ENDBRANCH  15  16
ENDBRANCH  14  15
ENDBRANCH  13  14
ENDBRANCH  12  13
ENDBRANCH  11  12
ENDBRANCH   1  11
TORSDOF 15
ENDMDL
MODEL 5
REMARK VINA RESULT:    -3.228      1.071      6.685
REMARK INTER + INTRA:          -8.214
REMARK INTER:                  -6.260
REMARK INTRA:                  -1.954
REMARK UNBOUND:                -2.156
REMARK SMILES O=C([O-])CCCCCCCCCCCCCCC(=O)[O-]
REMARK SMILES IDX 10 1 9 2 8 3 7 4 6 5 5 6 4 7 2 8 1 9 3 10 11 11 12 12 13 13
REMARK SMILES IDX 14 14 15 15 16 16 17 17 18 18 19 19 20 20
REMARK H PARENT
REMARK Flexibility Score: inf
ROOT
ATOM      1  C   UNL     1     -14.819 -15.870   3.469  1.00  0.00     0.000 C 
ENDROOT
BRANCH   1   2
ATOM      2  C   UNL     1     -14.589 -15.920   4.987  1.00  0.00     0.000 C 
BRANCH   2   3
ATOM      3  C   UNL     1     -15.775 -16.537   5.747  1.00  0.00     0.000 C 
BRANCH   3   4
ATOM      4  C   UNL     1     -15.615 -18.052   5.961  1.00  0.00     0.000 C 
BRANCH   4   5
ATOM      5  C   UNL     1     -14.254 -18.421   6.575  1.00  0.00     0.000 C 
BRANCH   5   6
ATOM      6  C   UNL     1     -13.588 -19.615   5.870  1.00  0.00     0.006 C 
BRANCH   6   7
ATOM      7  C   UNL     1     -13.435 -19.383   4.361  1.00  0.00     0.053 C 
BRANCH   7   8
ATOM      8  C   UNL     1     -12.018 -19.065   3.988  1.00  0.00     0.041 C 
ATOM      9  O   UNL     1     -11.225 -18.600   4.848  1.00  0.00    -0.550 OA
ATOM     10  O   UNL     1     -11.585 -19.253   2.682  1.00  0.00    -0.550 OA
ENDBRANCH   7   8
ENDBRANCH   6   7
ENDBRANCH   5   6
ENDBRANCH   4   5
ENDBRANCH   3   4
ENDBRANCH   2   3
ENDBRANCH   1   2
BRANCH   1  11
ATOM     11  C   UNL     1     -13.495 -16.041   2.708  1.00  0.00     0.000 C 
BRANCH  11  12
ATOM     12  C   UNL     1     -13.246 -14.917   1.690  1.00  0.00     0.000 C 
BRANCH  12  13
ATOM     13  C   UNL     1     -14.371 -13.867   1.681  1.00  0.00     0.000 C 
BRANCH  13  14
ATOM     14  C   UNL     1     -13.871 -12.448   2.014  1.00  0.00     0.000 C 
BRANCH  14  15
ATOM     15  C   UNL     1     -12.589 -12.391   2.863  1.00  0.00     0.000 C 
BRANCH  15  16
ATOM     16  C   UNL     1     -12.784 -11.648   4.196  1.00  0.00     0.006 C 
BRANCH  16  17
ATOM     17  C   UNL     1     -13.442 -12.534   5.261  1.00  0.00     0.053 C 
BRANCH  17  18
ATOM     18  C   UNL     1     -14.866 -12.143   5.503  1.00  0.00     0.041 C 
ATOM     19  O   UNL     1     -15.609 -12.862   6.222  1.00  0.00    -0.550 OA
ATOM     20  O   UNL     1     -15.385 -11.002   4.905  1.00  0.00    -0.550 OA
ENDBRANCH  17  18
ENDBRANCH  16  17
ENDBRANCH  15  16
ENDBRANCH  14  15
ENDBRANCH  13  14
ENDBRANCH  12  13
ENDBRANCH  11  12
ENDBRANCH   1  11
TORSDOF 15
ENDMDL
MODEL 6
REMARK VINA RESULT:    -3.216      2.113      7.057
REMARK INTER + INTRA:          -8.193
REMARK INTER:                  -6.146
REMARK INTRA:                  -2.047
REMARK UNBOUND:                -2.156
REMARK SMILES O=C([O-])CCCCCCCCCCCCCCC(=O)[O-]
REMARK SMILES IDX 10 1 9 2 8 3 7 4 6 5 5 6 4 7 2 8 1 9 3 10 11 11 12 12 13 13
REMARK SMILES IDX 14 14 15 15 16 16 17 17 18 18 19 19 20 20
REMARK H PARENT
REMARK Flexibility Score: inf
ROOT
ATOM      1  C   UNL     1     -12.348 -18.874   3.318  1.00  0.00     0.000 C 
ENDROOT
BRANCH   1   2
ATOM      2  C   UNL     1     -12.312 -18.325   4.752  1.00  0.00     0.000 C 
BRANCH   2   3
ATOM      3  C   UNL     1     -13.185 -19.138   5.722  1.00  0.00     0.000 C 
BRANCH   3   4
ATOM      4  C   UNL     1     -14.317 -18.299   6.341  1.00  0.00     0.000 C 
BRANCH   4   5
ATOM      5  C   UNL     1     -15.713 -18.792   5.923  1.00  0.00     0.000 C 
BRANCH   5   6
ATOM      6  C   UNL     1     -15.671 -19.716   4.693  1.00  0.00     0.006 C 
BRANCH   6   7
ATOM      7  C   UNL     1     -16.068 -21.158   5.041  1.00  0.00     0.053 C 
BRANCH   7   8
ATOM      8  C   UNL     1     -15.060 -22.148   4.541  1.00  0.00     0.041 C 
ATOM      9  O   UNL     1     -15.127 -22.581   3.361  1.00  0.00    -0.550 OA
ATOM     10  O   UNL     1     -14.065 -22.615   5.391  1.00  0.00    -0.550 OA
ENDBRANCH   7   8
ENDBRANCH   6   7
ENDBRANCH   5   6
ENDBRANCH   4   5
ENDBRANCH   3   4
ENDBRANCH   2   3
ENDBRANCH   1   2
BRANCH   1  11
ATOM     11  C   UNL     1     -13.138 -17.935   2.392  1.00  0.00     0.000 C 
BRANCH  11  12
ATOM     12  C   UNL     1     -13.448 -16.579   3.045  1.00  0.00     0.000 C 
BRANCH  12  13
ATOM     13  C   UNL     1     -14.945 -16.223   2.985  1.00  0.00     0.000 C 
BRANCH  13  14
ATOM     14  C   UNL     1     -15.401 -15.344   4.165  1.00  0.00     0.000 C 
BRANCH  14  15
ATOM     15  C   UNL     1     -14.265 -14.801   5.051  1.00  0.00     0.000 C 
BRANCH  15  16
ATOM     16  C   UNL     1     -14.474 -13.333   5.462  1.00  0.00     0.006 C 
BRANCH  16  17
ATOM     17  C   UNL     1     -13.160 -12.544   5.478  1.00  0.00     0.053 C 
BRANCH  17  18
ATOM     18  C   UNL     1     -12.992 -11.724   4.236  1.00  0.00     0.041 C 
ATOM     19  O   UNL     1     -12.490 -12.234   3.201  1.00  0.00    -0.550 OA
ATOM     20  O   UNL     1     -13.359 -10.384   4.234  1.00  0.00    -0.550 OA
ENDBRANCH  17  18
ENDBRANCH  16  17
ENDBRANCH  15  16
ENDBRANCH  14  15
ENDBRANCH  13  14
ENDBRANCH  12  13
ENDBRANCH  11  12
ENDBRANCH   1  11
TORSDOF 15
ENDMDL
MODEL 7
REMARK VINA RESULT:    -3.200      2.438      3.594
REMARK INTER + INTRA:          -8.162
REMARK INTER:                  -6.238
REMARK INTRA:                  -1.924
REMARK UNBOUND:                -2.156
REMARK SMILES O=C([O-])CCCCCCCCCCCCCCC(=O)[O-]
REMARK SMILES IDX 10 1 9 2 8 3 7 4 6 5 5 6 4 7 2 8 1 9 3 10 11 11 12 12 13 13
REMARK SMILES IDX 14 14 15 15 16 16 17 17 18 18 19 19 20 20
REMARK H PARENT
REMARK Flexibility Score: inf
ROOT
ATOM      1  C   UNL     1     -12.923 -12.440   5.347  1.00  0.00     0.000 C 
ENDROOT
BRANCH   1   2
ATOM      2  C   UNL     1     -12.750 -11.621   4.060  1.00  0.00     0.000 C 
BRANCH   2   3
ATOM      3  C   UNL     1     -12.550 -12.502   2.816  1.00  0.00     0.000 C 
BRANCH   3   4
ATOM      4  C   UNL     1     -13.531 -12.156   1.683  1.00  0.00     0.000 C 
BRANCH   4   5
ATOM      5  C   UNL     1     -14.752 -11.365   2.182  1.00  0.00     0.000 C 
BRANCH   5   6
ATOM      6  C   UNL     1     -14.862  -9.973   1.536  1.00  0.00     0.006 C 
BRANCH   6   7
ATOM      7  C   UNL     1     -15.161  -8.878   2.569  1.00  0.00     0.053 C 
BRANCH   7   8
ATOM      8  C   UNL     1     -13.907  -8.220   3.061  1.00  0.00     0.041 C 
ATOM      9  O   UNL     1     -13.107  -7.690   2.246  1.00  0.00    -0.550 OA
ATOM     10  O   UNL     1     -13.609  -8.222   4.418  1.00  0.00    -0.550 OA
ENDBRANCH   7   8
ENDBRANCH   6   7
ENDBRANCH   5   6
ENDBRANCH   4   5
ENDBRANCH   3   4
ENDBRANCH   2   3
ENDBRANCH   1   2
BRANCH   1  11
ATOM     11  C   UNL     1     -14.402 -12.788   5.581  1.00  0.00     0.000 C 
BRANCH  11  12
ATOM     12  C   UNL     1     -14.708 -14.275   5.341  1.00  0.00     0.000 C 
BRANCH  12  13
ATOM     13  C   UNL     1     -15.729 -14.493   4.210  1.00  0.00     0.000 C 
BRANCH  13  14
ATOM     14  C   UNL     1     -15.177 -15.361   3.062  1.00  0.00     0.000 C 
BRANCH  14  15
ATOM     15  C   UNL     1     -13.789 -15.974   3.318  1.00  0.00     0.000 C 
BRANCH  15  16
ATOM     16  C   UNL     1     -13.852 -17.457   3.721  1.00  0.00     0.006 C 
BRANCH  16  17
ATOM     17  C   UNL     1     -12.485 -18.143   3.621  1.00  0.00     0.053 C 
BRANCH  17  18
ATOM     18  C   UNL     1     -11.996 -18.601   4.960  1.00  0.00     0.041 C 
ATOM     19  O   UNL     1     -12.800 -19.094   5.794  1.00  0.00    -0.550 OA
ATOM     20  O   UNL     1     -10.657 -18.452   5.299  1.00  0.00    -0.550 OA
ENDBRANCH  17  18
ENDBRANCH  16  17
ENDBRANCH  15  16
ENDBRANCH  14  15
ENDBRANCH  13  14
ENDBRANCH  12  13
ENDBRANCH  11  12
ENDBRANCH   1  11
TORSDOF 15
ENDMDL
MODEL 8
REMARK VINA RESULT:    -3.131      2.188      2.924
REMARK INTER + INTRA:          -8.033
REMARK INTER:                  -6.800
REMARK INTRA:                  -1.233
REMARK UNBOUND:                -2.156
REMARK SMILES O=C([O-])CCCCCCCCCCCCCCC(=O)[O-]
REMARK SMILES IDX 10 1 9 2 8 3 7 4 6 5 5 6 4 7 2 8 1 9 3 10 11 11 12 12 13 13
REMARK SMILES IDX 14 14 15 15 16 16 17 17 18 18 19 19 20 20
REMARK H PARENT
REMARK Flexibility Score: inf
ROOT
ATOM      1  C   UNL     1     -13.524 -12.686   5.413  1.00  0.00     0.000 C 
ENDROOT
BRANCH   1   2
ATOM      2  C   UNL     1     -12.783 -11.965   4.276  1.00  0.00     0.000 C 
BRANCH   2   3
ATOM      3  C   UNL     1     -13.250 -12.417   2.883  1.00  0.00     0.000 C 
BRANCH   3   4
ATOM      4  C   UNL     1     -14.419 -11.569   2.349  1.00  0.00     0.000 C 
BRANCH   4   5
ATOM      5  C   UNL     1     -13.944 -10.361   1.525  1.00  0.00     0.000 C 
BRANCH   5   6
ATOM      6  C   UNL     1     -14.421  -9.020   2.108  1.00  0.00     0.006 C 
BRANCH   6   7
ATOM      7  C   UNL     1     -13.486  -8.503   3.210  1.00  0.00     0.053 C 
BRANCH   7   8
ATOM      8  C   UNL     1     -14.224  -8.240   4.488  1.00  0.00     0.041 C 
ATOM      9  O   UNL     1     -14.174  -7.103   5.027  1.00  0.00    -0.550 OA
ATOM     10  O   UNL     1     -14.941  -9.261   5.098  1.00  0.00    -0.550 OA
ENDBRANCH   7   8
ENDBRANCH   6   7
ENDBRANCH   5   6
ENDBRANCH   4   5
ENDBRANCH   3   4
ENDBRANCH   2   3
ENDBRANCH   1   2
BRANCH   1  11
ATOM     11  C   UNL     1     -13.894 -14.120   5.004  1.00  0.00     0.000 C 
BRANCH  11  12
ATOM     12  C   UNL     1     -15.369 -14.454   5.274  1.00  0.00     0.000 C 
BRANCH  12  13
ATOM     13  C   UNL     1     -15.659 -15.963   5.188  1.00  0.00     0.000 C 
BRANCH  13  14
ATOM     14  C   UNL     1     -15.921 -16.603   6.565  1.00  0.00     0.000 C 
BRANCH  14  15
ATOM     15  C   UNL     1     -15.189 -17.933   6.816  1.00  0.00     0.000 C 
BRANCH  15  16
ATOM     16  C   UNL     1     -14.541 -18.510   5.545  1.00  0.00     0.006 C 
BRANCH  16  17
ATOM     17  C   UNL     1     -13.129 -19.047   5.809  1.00  0.00     0.053 C 
BRANCH  17  18
ATOM     18  C   UNL     1     -12.145 -18.534   4.804  1.00  0.00     0.041 C 
ATOM     19  O   UNL     1     -10.911 -18.564   5.051  1.00  0.00    -0.550 OA
ATOM     20  O   UNL     1     -12.594 -17.988   3.608  1.00  0.00    -0.550 OA
ENDBRANCH  17  18
ENDBRANCH  16  17
ENDBRANCH  15  16
ENDBRANCH  14  15
ENDBRANCH  13  14
ENDBRANCH  12  13
ENDBRANCH  11  12
ENDBRANCH   1  11
TORSDOF 15
ENDMDL
MODEL 9
REMARK VINA RESULT:    -3.120      2.264      6.853
REMARK INTER + INTRA:          -8.012
REMARK INTER:                  -6.117
REMARK INTRA:                  -1.895
REMARK UNBOUND:                -2.156
REMARK SMILES O=C([O-])CCCCCCCCCCCCCCC(=O)[O-]
REMARK SMILES IDX 10 1 9 2 8 3 7 4 6 5 5 6 4 7 2 8 1 9 3 10 11 11 12 12 13 13
REMARK SMILES IDX 14 14 15 15 16 16 17 17 18 18 19 19 20 20
REMARK H PARENT
REMARK Flexibility Score: inf
ROOT
ATOM      1  C   UNL     1     -13.136 -19.375   5.781  1.00  0.00     0.000 C 
ENDROOT
BRANCH   1   2
ATOM      2  C   UNL     1     -12.198 -18.420   5.026  1.00  0.00     0.000 C 
BRANCH   2   3
ATOM      3  C   UNL     1     -12.042 -18.791   3.542  1.00  0.00     0.000 C 
BRANCH   3   4
ATOM      4  C   UNL     1     -13.253 -18.358   2.696  1.00  0.00     0.000 C 
BRANCH   4   5
ATOM      5  C   UNL     1     -13.785 -19.493   1.804  1.00  0.00     0.000 C 
BRANCH   5   6
ATOM      6  C   UNL     1     -14.541 -20.570   2.603  1.00  0.00     0.006 C 
BRANCH   6   7
ATOM      7  C   UNL     1     -13.699 -21.837   2.804  1.00  0.00     0.053 C 
BRANCH   7   8
ATOM      8  C   UNL     1     -13.889 -22.419   4.173  1.00  0.00     0.041 C 
ATOM      9  O   UNL     1     -12.973 -23.100   4.705  1.00  0.00    -0.550 OA
ATOM     10  O   UNL     1     -15.089 -22.234   4.846  1.00  0.00    -0.550 OA
ENDBRANCH   7   8
ENDBRANCH   6   7
ENDBRANCH   5   6
ENDBRANCH   4   5
ENDBRANCH   3   4
ENDBRANCH   2   3
ENDBRANCH   1   2
BRANCH   1  11
ATOM     11  C   UNL     1     -14.297 -18.604   6.429  1.00  0.00     0.000 C 
BRANCH  11  12
ATOM     12  C   UNL     1     -15.594 -18.684   5.610  1.00  0.00     0.000 C 
BRANCH  12  13
ATOM     13  C   UNL     1     -15.983 -17.333   4.984  1.00  0.00     0.000 C 
BRANCH  13  14
ATOM     14  C   UNL     1     -15.397 -16.129   5.746  1.00  0.00     0.000 C 
BRANCH  14  15
ATOM     15  C   UNL     1     -14.386 -15.284   4.951  1.00  0.00     0.000 C 
BRANCH  15  16
ATOM     16  C   UNL     1     -14.699 -13.778   4.992  1.00  0.00     0.006 C 
BRANCH  16  17
ATOM     17  C   UNL     1     -13.510 -12.953   5.499  1.00  0.00     0.053 C 
BRANCH  17  18
ATOM     18  C   UNL     1     -13.172 -11.834   4.563  1.00  0.00     0.041 C 
ATOM     19  O   UNL     1     -12.302 -11.997   3.668  1.00  0.00    -0.550 OA
ATOM     20  O   UNL     1     -13.794 -10.600   4.702  1.00  0.00    -0.550 OA
ENDBRANCH  17  18
ENDBRANCH  16  17
ENDBRANCH  15  16
ENDBRANCH  14  15
ENDBRANCH  13  14
ENDBRANCH  12  13
ENDBRANCH  11  12
ENDBRANCH   1  11
TORSDOF 15
ENDMDL
