MODEL 1
REMARK VINA RESULT:    -4.658      0.000      0.000
REMARK INTER + INTRA:         -10.423
REMARK INTER:                  -8.743
REMARK INTRA:                  -1.680
REMARK UNBOUND:                -1.680
REMARK SMILES O=C([O-])CCCCCCCCCCCCCCC(=O)[O-]
REMARK SMILES IDX 10 1 9 2 8 3 7 4 6 5 5 6 4 7 2 8 1 9 3 10 11 11 12 12 13 13
REMARK SMILES IDX 14 14 15 15 16 16 17 17 18 18 19 19 20 20
REMARK H PARENT
REMARK Flexibility Score: inf
ROOT
ATOM      1  C   UNL     1     -31.649  67.865  86.790  1.00  0.00     0.000 C 
ENDROOT
BRANCH   1   2
ATOM      2  C   UNL     1     -32.042  66.510  86.176  1.00  0.00     0.000 C 
BRANCH   2   3
ATOM      3  C   UNL     1     -30.864  65.815  85.473  1.00  0.00     0.000 C 
BRANCH   3   4
ATOM      4  C   UNL     1     -30.291  64.648  86.296  1.00  0.00     0.000 C 
BRANCH   4   5
ATOM      5  C   UNL     1     -30.082  63.379  85.456  1.00  0.00     0.000 C 
BRANCH   5   6
ATOM      6  C   UNL     1     -28.639  63.231  84.952  1.00  0.00     0.006 C 
BRANCH   6   7
ATOM      7  C   UNL     1     -28.588  62.382  83.679  1.00  0.00     0.053 C 
BRANCH   7   8
ATOM      8  C   UNL     1     -27.654  61.226  83.855  1.00  0.00     0.041 C 
ATOM      9  O   UNL     1     -26.735  61.279  84.715  1.00  0.00    -0.550 OA
ATOM     10  O   UNL     1     -27.768  60.109  83.037  1.00  0.00    -0.550 OA
ENDBRANCH   7   8
ENDBRANCH   6   7
ENDBRANCH   5   6
ENDBRANCH   4   5
ENDBRANCH   3   4
ENDBRANCH   2   3
ENDBRANCH   1   2
BRANCH   1  11
ATOM     11  C   UNL     1     -30.527  68.566  86.008  1.00  0.00     0.000 C 
BRANCH  11  12
ATOM     12  C   UNL     1     -29.391  69.062  86.919  1.00  0.00     0.000 C 
BRANCH  12  13
ATOM     13  C   UNL     1     -28.165  68.126  86.887  1.00  0.00     0.000 C 
BRANCH  13  14
ATOM     14  C   UNL     1     -27.110  68.521  85.834  1.00  0.00     0.000 C 
BRANCH  14  15
ATOM     15  C   UNL     1     -26.452  67.338  85.105  1.00  0.00     0.000 C 
BRANCH  15  16
ATOM     16  C   UNL     1     -27.478  66.357  84.517  1.00  0.00     0.006 C 
BRANCH  16  17
ATOM     17  C   UNL     1     -28.207  66.980  83.324  1.00  0.00     0.053 C 
BRANCH  17  18
ATOM     18  C   UNL     1     -28.591  65.925  82.335  1.00  0.00     0.041 C 
ATOM     19  O   UNL     1     -27.799  65.606  81.410  1.00  0.00    -0.550 OA
ATOM     20  O   UNL     1     -29.804  65.259  82.464  1.00  0.00    -0.550 OA
ENDBRANCH  17  18
ENDBRANCH  16  17
ENDBRANCH  15  16
ENDBRANCH  14  15
ENDBRANCH  13  14
ENDBRANCH  12  13
ENDBRANCH  11  12
ENDBRANCH   1  11
TORSDOF 15
ENDMDL
MODEL 2
REMARK VINA RESULT:    -4.554      1.625      3.657
REMARK INTER + INTRA:         -10.227
REMARK INTER:                  -8.337
REMARK INTRA:                  -1.890
REMARK UNBOUND:                -1.680
REMARK SMILES O=C([O-])CCCCCCCCCCCCCCC(=O)[O-]
REMARK SMILES IDX 10 1 9 2 8 3 7 4 6 5 5 6 4 7 2 8 1 9 3 10 11 11 12 12 13 13
REMARK SMILES IDX 14 14 15 15 16 16 17 17 18 18 19 19 20 20
REMARK H PARENT
REMARK Flexibility Score: inf
ROOT
ATOM      1  C   UNL     1     -27.435  66.405  84.527  1.00  0.00     0.000 C 
ENDROOT
BRANCH   1   2
ATOM      2  C   UNL     1     -28.378  67.118  83.542  1.00  0.00     0.000 C 
BRANCH   2   3
ATOM      3  C   UNL     1     -28.215  66.617  82.098  1.00  0.00     0.000 C 
BRANCH   3   4
ATOM      4  C   UNL     1     -28.237  65.082  81.999  1.00  0.00     0.000 C 
BRANCH   4   5
ATOM      5  C   UNL     1     -29.601  64.484  82.382  1.00  0.00     0.000 C 
BRANCH   5   6
ATOM      6  C   UNL     1     -29.485  63.075  82.980  1.00  0.00     0.006 C 
BRANCH   6   7
ATOM      7  C   UNL     1     -28.283  62.978  83.925  1.00  0.00     0.053 C 
BRANCH   7   8
ATOM      8  C   UNL     1     -27.691  61.604  83.883  1.00  0.00     0.041 C 
ATOM      9  O   UNL     1     -28.159  60.737  83.099  1.00  0.00    -0.550 OA
ATOM     10  O   UNL     1     -26.657  61.266  84.746  1.00  0.00    -0.550 OA
ENDBRANCH   7   8
ENDBRANCH   6   7
ENDBRANCH   5   6
ENDBRANCH   4   5
ENDBRANCH   3   4
ENDBRANCH   2   3
ENDBRANCH   1   2
BRANCH   1  11
ATOM     11  C   UNL     1     -26.553  67.385  85.315  1.00  0.00     0.000 C 
BRANCH  11  12
ATOM     12  C   UNL     1     -27.329  68.624  85.797  1.00  0.00     0.000 C 
BRANCH  12  13
ATOM     13  C   UNL     1     -28.259  68.305  86.986  1.00  0.00     0.000 C 
BRANCH  13  14
ATOM     14  C   UNL     1     -29.651  68.958  86.876  1.00  0.00     0.000 C 
BRANCH  14  15
ATOM     15  C   UNL     1     -30.590  68.307  85.847  1.00  0.00     0.000 C 
BRANCH  15  16
ATOM     16  C   UNL     1     -31.308  67.066  86.399  1.00  0.00     0.006 C 
BRANCH  16  17
ATOM     17  C   UNL     1     -31.072  65.853  85.495  1.00  0.00     0.053 C 
BRANCH  17  18
ATOM     18  C   UNL     1     -30.323  64.788  86.233  1.00  0.00     0.041 C 
ATOM     19  O   UNL     1     -29.318  65.088  86.931  1.00  0.00    -0.550 OA
ATOM     20  O   UNL     1     -30.762  63.471  86.190  1.00  0.00    -0.550 OA
ENDBRANCH  17  18
ENDBRANCH  16  17
ENDBRANCH  15  16
ENDBRANCH  14  15
ENDBRANCH  13  14
ENDBRANCH  12  13
ENDBRANCH  11  12
ENDBRANCH   1  11
TORSDOF 15
ENDMDL
MODEL 3
REMARK VINA RESULT:    -4.511      2.231      4.101
REMARK INTER + INTRA:         -10.148
REMARK INTER:                  -8.189
REMARK INTRA:                  -1.958
REMARK UNBOUND:                -1.680
REMARK SMILES O=C([O-])CCCCCCCCCCCCCCC(=O)[O-]
REMARK SMILES IDX 10 1 9 2 8 3 7 4 6 5 5 6 4 7 2 8 1 9 3 10 11 11 12 12 13 13
REMARK SMILES IDX 14 14 15 15 16 16 17 17 18 18 19 19 20 20
REMARK H PARENT
REMARK Flexibility Score: inf
ROOT
ATOM      1  C   UNL     1     -28.721  67.294  83.341  1.00  0.00     0.000 C 
ENDROOT
BRANCH   1   2
ATOM      2  C   UNL     1     -28.110  66.843  82.002  1.00  0.00     0.000 C 
BRANCH   2   3
ATOM      3  C   UNL     1     -28.226  65.327  81.779  1.00  0.00     0.000 C 
BRANCH   3   4
ATOM      4  C   UNL     1     -29.675  64.822  81.894  1.00  0.00     0.000 C 
BRANCH   4   5
ATOM      5  C   UNL     1     -29.808  63.616  82.838  1.00  0.00     0.000 C 
BRANCH   5   6
ATOM      6  C   UNL     1     -28.517  63.327  83.616  1.00  0.00     0.006 C 
BRANCH   6   7
ATOM      7  C   UNL     1     -28.638  62.025  84.413  1.00  0.00     0.053 C 
BRANCH   7   8
ATOM      8  C   UNL     1     -27.532  61.083  84.052  1.00  0.00     0.041 C 
ATOM      9  O   UNL     1     -26.439  61.121  84.676  1.00  0.00    -0.550 OA
ATOM     10  O   UNL     1     -27.690  60.197  82.994  1.00  0.00    -0.550 OA
ENDBRANCH   7   8
ENDBRANCH   6   7
ENDBRANCH   5   6
ENDBRANCH   4   5
ENDBRANCH   3   4
ENDBRANCH   2   3
ENDBRANCH   1   2
BRANCH   1  11
ATOM     11  C   UNL     1     -27.691  67.320  84.481  1.00  0.00     0.000 C 
BRANCH  11  12
ATOM     12  C   UNL     1     -27.564  65.963  85.195  1.00  0.00     0.000 C 
BRANCH  12  13
ATOM     13  C   UNL     1     -28.365  65.920  86.514  1.00  0.00     0.000 C 
BRANCH  13  14
ATOM     14  C   UNL     1     -29.631  65.043  86.441  1.00  0.00     0.000 C 
BRANCH  14  15
ATOM     15  C   UNL     1     -30.845  65.716  85.780  1.00  0.00     0.000 C 
BRANCH  15  16
ATOM     16  C   UNL     1     -31.266  67.011  86.491  1.00  0.00     0.006 C 
BRANCH  16  17
ATOM     17  C   UNL     1     -31.107  68.219  85.564  1.00  0.00     0.053 C 
BRANCH  17  18
ATOM     18  C   UNL     1     -30.456  69.355  86.291  1.00  0.00     0.041 C 
ATOM     19  O   UNL     1     -30.954  70.510  86.235  1.00  0.00    -0.550 OA
ATOM     20  O   UNL     1     -29.328  69.128  87.069  1.00  0.00    -0.550 OA
ENDBRANCH  17  18
ENDBRANCH  16  17
ENDBRANCH  15  16
ENDBRANCH  14  15
ENDBRANCH  13  14
ENDBRANCH  12  13
ENDBRANCH  11  12
ENDBRANCH   1  11
TORSDOF 15
ENDMDL
MODEL 4
REMARK VINA RESULT:    -4.470      3.447      6.156
REMARK INTER + INTRA:         -10.071
REMARK INTER:                  -8.095
REMARK INTRA:                  -1.976
REMARK UNBOUND:                -1.680
REMARK SMILES O=C([O-])CCCCCCCCCCCCCCC(=O)[O-]
REMARK SMILES IDX 10 1 9 2 8 3 7 4 6 5 5 6 4 7 2 8 1 9 3 10 11 11 12 12 13 13
REMARK SMILES IDX 14 14 15 15 16 16 17 17 18 18 19 19 20 20
REMARK H PARENT
REMARK Flexibility Score: inf
ROOT
ATOM      1  C   UNL     1     -28.982  63.520  84.668  1.00  0.00     0.000 C 
ENDROOT
BRANCH   1   2
ATOM      2  C   UNL     1     -30.357  63.689  85.338  1.00  0.00     0.000 C 
BRANCH   2   3
ATOM      3  C   UNL     1     -30.494  65.029  86.078  1.00  0.00     0.000 C 
BRANCH   3   4
ATOM      4  C   UNL     1     -31.346  66.048  85.300  1.00  0.00     0.000 C 
BRANCH   4   5
ATOM      5  C   UNL     1     -32.250  66.886  86.219  1.00  0.00     0.000 C 
BRANCH   5   6
ATOM      6  C   UNL     1     -31.520  68.086  86.837  1.00  0.00     0.006 C 
BRANCH   6   7
ATOM      7  C   UNL     1     -30.808  68.908  85.759  1.00  0.00     0.053 C 
BRANCH   7   8
ATOM      8  C   UNL     1     -30.778  70.356  86.136  1.00  0.00     0.041 C 
ATOM      9  O   UNL     1     -30.112  70.737  87.134  1.00  0.00    -0.550 OA
ATOM     10  O   UNL     1     -31.525  71.278  85.414  1.00  0.00    -0.550 OA
ENDBRANCH   7   8
ENDBRANCH   6   7
ENDBRANCH   5   6
ENDBRANCH   4   5
ENDBRANCH   3   4
ENDBRANCH   2   3
ENDBRANCH   1   2
BRANCH   1  11
ATOM     11  C   UNL     1     -29.087  63.313  83.149  1.00  0.00     0.000 C 
BRANCH  11  12
ATOM     12  C   UNL     1     -29.545  64.581  82.408  1.00  0.00     0.000 C 
BRANCH  12  13
ATOM     13  C   UNL     1     -28.394  65.250  81.627  1.00  0.00     0.000 C 
BRANCH  13  14
ATOM     14  C   UNL     1     -28.135  66.713  82.038  1.00  0.00     0.000 C 
BRANCH  14  15
ATOM     15  C   UNL     1     -28.517  67.053  83.488  1.00  0.00     0.000 C 
BRANCH  15  16
ATOM     16  C   UNL     1     -27.363  66.824  84.476  1.00  0.00     0.006 C 
BRANCH  16  17
ATOM     17  C   UNL     1     -27.857  66.914  85.922  1.00  0.00     0.053 C 
BRANCH  17  18
ATOM     18  C   UNL     1     -27.410  68.196  86.551  1.00  0.00     0.041 C 
ATOM     19  O   UNL     1     -27.878  68.553  87.663  1.00  0.00    -0.550 OA
ATOM     20  O   UNL     1     -26.439  68.973  85.932  1.00  0.00    -0.550 OA
ENDBRANCH  17  18
ENDBRANCH  16  17
ENDBRANCH  15  16
ENDBRANCH  14  15
ENDBRANCH  13  14
ENDBRANCH  12  13
ENDBRANCH  11  12
ENDBRANCH   1  11
TORSDOF 15
ENDMDL
MODEL 5
REMARK VINA RESULT:    -4.470      1.614      4.894
REMARK INTER + INTRA:         -10.070
REMARK INTER:                  -8.180
REMARK INTRA:                  -1.890
REMARK UNBOUND:                -1.680
REMARK SMILES O=C([O-])CCCCCCCCCCCCCCC(=O)[O-]
REMARK SMILES IDX 10 1 9 2 8 3 7 4 6 5 5 6 4 7 2 8 1 9 3 10 11 11 12 12 13 13
REMARK SMILES IDX 14 14 15 15 16 16 17 17 18 18 19 19 20 20
REMARK H PARENT
REMARK Flexibility Score: inf
ROOT
ATOM      1  C   UNL     1     -26.577  67.382  85.359  1.00  0.00     0.000 C 
ENDROOT
BRANCH   1   2
ATOM      2  C   UNL     1     -27.395  68.611  85.791  1.00  0.00     0.000 C 
BRANCH   2   3
ATOM      3  C   UNL     1     -28.354  68.306  86.953  1.00  0.00     0.000 C 
BRANCH   3   4
ATOM      4  C   UNL     1     -29.683  69.074  86.839  1.00  0.00     0.000 C 
BRANCH   4   5
ATOM      5  C   UNL     1     -30.676  68.397  85.880  1.00  0.00     0.000 C 
BRANCH   5   6
ATOM      6  C   UNL     1     -31.283  67.113  86.463  1.00  0.00     0.006 C 
BRANCH   6   7
ATOM      7  C   UNL     1     -31.095  65.934  85.504  1.00  0.00     0.053 C 
BRANCH   7   8
ATOM      8  C   UNL     1     -30.344  64.827  86.173  1.00  0.00     0.041 C 
ATOM      9  O   UNL     1     -30.765  63.642  86.103  1.00  0.00    -0.550 OA
ATOM     10  O   UNL     1     -29.205  65.109  86.916  1.00  0.00    -0.550 OA
ENDBRANCH   7   8
ENDBRANCH   6   7
ENDBRANCH   5   6
ENDBRANCH   4   5
ENDBRANCH   3   4
ENDBRANCH   2   3
ENDBRANCH   1   2
BRANCH   1  11
ATOM     11  C   UNL     1     -27.385  66.415  84.479  1.00  0.00     0.000 C 
BRANCH  11  12
ATOM     12  C   UNL     1     -28.354  67.144  83.532  1.00  0.00     0.000 C 
BRANCH  12  13
ATOM     13  C   UNL     1     -28.231  66.650  82.075  1.00  0.00     0.000 C 
BRANCH  13  14
ATOM     14  C   UNL     1     -28.344  65.119  81.930  1.00  0.00     0.000 C 
BRANCH  14  15
ATOM     15  C   UNL     1     -29.639  64.511  82.493  1.00  0.00     0.000 C 
BRANCH  15  16
ATOM     16  C   UNL     1     -29.453  63.068  82.987  1.00  0.00     0.006 C 
BRANCH  16  17
ATOM     17  C   UNL     1     -28.218  62.954  83.885  1.00  0.00     0.053 C 
BRANCH  17  18
ATOM     18  C   UNL     1     -27.700  61.550  83.888  1.00  0.00     0.041 C 
ATOM     19  O   UNL     1     -28.162  60.703  83.079  1.00  0.00    -0.550 OA
ATOM     20  O   UNL     1     -26.673  61.190  84.751  1.00  0.00    -0.550 OA
ENDBRANCH  17  18
ENDBRANCH  16  17
ENDBRANCH  15  16
ENDBRANCH  14  15
ENDBRANCH  13  14
ENDBRANCH  12  13
ENDBRANCH  11  12
ENDBRANCH   1  11
TORSDOF 15
ENDMDL
MODEL 6
REMARK VINA RESULT:    -4.459      2.223      5.651
REMARK INTER + INTRA:         -10.050
REMARK INTER:                  -7.969
REMARK INTRA:                  -2.080
REMARK UNBOUND:                -1.680
REMARK SMILES O=C([O-])CCCCCCCCCCCCCCC(=O)[O-]
REMARK SMILES IDX 10 1 9 2 8 3 7 4 6 5 5 6 4 7 2 8 1 9 3 10 11 11 12 12 13 13
REMARK SMILES IDX 14 14 15 15 16 16 17 17 18 18 19 19 20 20
REMARK H PARENT
REMARK Flexibility Score: inf
ROOT
ATOM      1  C   UNL     1     -26.859  66.870  85.102  1.00  0.00     0.000 C 
ENDROOT
BRANCH   1   2
ATOM      2  C   UNL     1     -27.562  65.568  85.524  1.00  0.00     0.000 C 
BRANCH   2   3
ATOM      3  C   UNL     1     -28.534  65.773  86.696  1.00  0.00     0.000 C 
BRANCH   3   4
ATOM      4  C   UNL     1     -29.834  64.966  86.534  1.00  0.00     0.000 C 
BRANCH   4   5
ATOM      5  C   UNL     1     -30.933  65.756  85.805  1.00  0.00     0.000 C 
BRANCH   5   6
ATOM      6  C   UNL     1     -31.351  67.026  86.560  1.00  0.00     0.006 C 
BRANCH   6   7
ATOM      7  C   UNL     1     -31.183  68.267  85.679  1.00  0.00     0.053 C 
BRANCH   7   8
ATOM      8  C   UNL     1     -30.388  69.315  86.393  1.00  0.00     0.041 C 
ATOM      9  O   UNL     1     -29.433  68.984  87.144  1.00  0.00    -0.550 OA
ATOM     10  O   UNL     1     -30.733  70.655  86.269  1.00  0.00    -0.550 OA
ENDBRANCH   7   8
ENDBRANCH   6   7
ENDBRANCH   5   6
ENDBRANCH   4   5
ENDBRANCH   3   4
ENDBRANCH   2   3
ENDBRANCH   1   2
BRANCH   1  11
ATOM     11  C   UNL     1     -27.784  67.813  84.316  1.00  0.00     0.000 C 
BRANCH  11  12
ATOM     12  C   UNL     1     -28.749  67.056  83.386  1.00  0.00     0.000 C 
BRANCH  12  13
ATOM     13  C   UNL     1     -28.045  66.525  82.120  1.00  0.00     0.000 C 
BRANCH  13  14
ATOM     14  C   UNL     1     -28.431  65.076  81.758  1.00  0.00     0.000 C 
BRANCH  14  15
ATOM     15  C   UNL     1     -29.538  64.467  82.633  1.00  0.00     0.000 C 
BRANCH  15  16
ATOM     16  C   UNL     1     -29.343  62.962  82.876  1.00  0.00     0.006 C 
BRANCH  16  17
ATOM     17  C   UNL     1     -28.404  62.719  84.060  1.00  0.00     0.053 C 
BRANCH  17  18
ATOM     18  C   UNL     1     -27.680  61.419  83.897  1.00  0.00     0.041 C 
ATOM     19  O   UNL     1     -26.707  61.137  84.644  1.00  0.00    -0.550 OA
ATOM     20  O   UNL     1     -28.112  60.496  82.952  1.00  0.00    -0.550 OA
ENDBRANCH  17  18
ENDBRANCH  16  17
ENDBRANCH  15  16
ENDBRANCH  14  15
ENDBRANCH  13  14
ENDBRANCH  12  13
ENDBRANCH  11  12
ENDBRANCH   1  11
TORSDOF 15
ENDMDL
MODEL 7
REMARK VINA RESULT:    -4.445      0.218      4.508
REMARK INTER + INTRA:         -10.024
REMARK INTER:                  -8.387
REMARK INTRA:                  -1.636
REMARK UNBOUND:                -1.680
REMARK SMILES O=C([O-])CCCCCCCCCCCCCCC(=O)[O-]
REMARK SMILES IDX 10 1 9 2 8 3 7 4 6 5 5 6 4 7 2 8 1 9 3 10 11 11 12 12 13 13
REMARK SMILES IDX 14 14 15 15 16 16 17 17 18 18 19 19 20 20
REMARK H PARENT
REMARK Flexibility Score: inf
ROOT
ATOM      1  C   UNL     1     -30.500  68.565  85.939  1.00  0.00     0.000 C 
ENDROOT
BRANCH   1   2
ATOM      2  C   UNL     1     -29.363  69.062  86.848  1.00  0.00     0.000 C 
BRANCH   2   3
ATOM      3  C   UNL     1     -28.154  68.113  86.856  1.00  0.00     0.000 C 
BRANCH   3   4
ATOM      4  C   UNL     1     -27.118  68.468  85.775  1.00  0.00     0.000 C 
BRANCH   4   5
ATOM      5  C   UNL     1     -26.609  67.231  85.016  1.00  0.00     0.000 C 
BRANCH   5   6
ATOM      6  C   UNL     1     -27.748  66.372  84.450  1.00  0.00     0.006 C 
BRANCH   6   7
ATOM      7  C   UNL     1     -28.169  66.865  83.063  1.00  0.00     0.053 C 
BRANCH   7   8
ATOM      8  C   UNL     1     -28.509  65.710  82.175  1.00  0.00     0.041 C 
ATOM      9  O   UNL     1     -27.725  65.368  81.251  1.00  0.00    -0.550 OA
ATOM     10  O   UNL     1     -29.717  65.042  82.335  1.00  0.00    -0.550 OA
ENDBRANCH   7   8
ENDBRANCH   6   7
ENDBRANCH   5   6
ENDBRANCH   4   5
ENDBRANCH   3   4
ENDBRANCH   2   3
ENDBRANCH   1   2
BRANCH   1  11
ATOM     11  C   UNL     1     -31.705  68.039  86.734  1.00  0.00     0.000 C 
BRANCH  11  12
ATOM     12  C   UNL     1     -31.931  66.530  86.539  1.00  0.00     0.000 C 
BRANCH  12  13
ATOM     13  C   UNL     1     -30.849  65.888  85.644  1.00  0.00     0.000 C 
BRANCH  13  14
ATOM     14  C   UNL     1     -30.218  64.618  86.250  1.00  0.00     0.000 C 
BRANCH  14  15
ATOM     15  C   UNL     1     -30.116  63.426  85.283  1.00  0.00     0.000 C 
BRANCH  15  16
ATOM     16  C   UNL     1     -28.662  63.056  84.949  1.00  0.00     0.006 C 
BRANCH  16  17
ATOM     17  C   UNL     1     -28.598  62.171  83.701  1.00  0.00     0.053 C 
BRANCH  17  18
ATOM     18  C   UNL     1     -27.521  61.142  83.843  1.00  0.00     0.041 C 
ATOM     19  O   UNL     1     -27.511  60.128  83.097  1.00  0.00    -0.550 OA
ATOM     20  O   UNL     1     -26.500  61.326  84.766  1.00  0.00    -0.550 OA
ENDBRANCH  17  18
ENDBRANCH  16  17
ENDBRANCH  15  16
ENDBRANCH  14  15
ENDBRANCH  13  14
ENDBRANCH  12  13
ENDBRANCH  11  12
ENDBRANCH   1  11
TORSDOF 15
ENDMDL
MODEL 8
REMARK VINA RESULT:    -4.361      3.154      5.800
REMARK INTER + INTRA:          -9.865
REMARK INTER:                  -8.001
REMARK INTRA:                  -1.864
REMARK UNBOUND:                -1.680
REMARK SMILES O=C([O-])CCCCCCCCCCCCCCC(=O)[O-]
REMARK SMILES IDX 10 1 9 2 8 3 7 4 6 5 5 6 4 7 2 8 1 9 3 10 11 11 12 12 13 13
REMARK SMILES IDX 14 14 15 15 16 16 17 17 18 18 19 19 20 20
REMARK H PARENT
REMARK Flexibility Score: inf
ROOT
ATOM      1  C   UNL     1     -28.938  63.596  84.390  1.00  0.00     0.000 C 
ENDROOT
BRANCH   1   2
ATOM      2  C   UNL     1     -29.510  63.563  82.961  1.00  0.00     0.000 C 
BRANCH   2   3
ATOM      3  C   UNL     1     -29.602  64.960  82.328  1.00  0.00     0.000 C 
BRANCH   3   4
ATOM      4  C   UNL     1     -28.231  65.501  81.888  1.00  0.00     0.000 C 
BRANCH   4   5
ATOM      5  C   UNL     1     -28.062  66.999  82.187  1.00  0.00     0.000 C 
BRANCH   5   6
ATOM      6  C   UNL     1     -28.496  67.373  83.611  1.00  0.00     0.006 C 
BRANCH   6   7
ATOM      7  C   UNL     1     -27.468  66.893  84.640  1.00  0.00     0.053 C 
BRANCH   7   8
ATOM      8  C   UNL     1     -27.356  67.872  85.767  1.00  0.00     0.041 C 
ATOM      9  O   UNL     1     -28.029  67.706  86.818  1.00  0.00    -0.550 OA
ATOM     10  O   UNL     1     -26.547  68.993  85.636  1.00  0.00    -0.550 OA
ENDBRANCH   7   8
ENDBRANCH   6   7
ENDBRANCH   5   6
ENDBRANCH   4   5
ENDBRANCH   3   4
ENDBRANCH   2   3
ENDBRANCH   1   2
BRANCH   1  11
ATOM     11  C   UNL     1     -29.802  62.811  85.390  1.00  0.00     0.000 C 
BRANCH  11  12
ATOM     12  C   UNL     1     -30.525  63.726  86.393  1.00  0.00     0.000 C 
BRANCH  12  13
ATOM     13  C   UNL     1     -30.185  65.216  86.176  1.00  0.00     0.000 C 
BRANCH  13  14
ATOM     14  C   UNL     1     -31.281  65.999  85.425  1.00  0.00     0.000 C 
BRANCH  14  15
ATOM     15  C   UNL     1     -32.322  66.679  86.330  1.00  0.00     0.000 C 
BRANCH  15  16
ATOM     16  C   UNL     1     -31.859  68.053  86.840  1.00  0.00     0.006 C 
BRANCH  16  17
ATOM     17  C   UNL     1     -31.035  68.780  85.774  1.00  0.00     0.053 C 
BRANCH  17  18
ATOM     18  C   UNL     1     -30.766  70.191  86.192  1.00  0.00     0.041 C 
ATOM     19  O   UNL     1     -29.853  70.443  87.021  1.00  0.00    -0.550 OA
ATOM     20  O   UNL     1     -31.492  71.234  85.630  1.00  0.00    -0.550 OA
ENDBRANCH  17  18
ENDBRANCH  16  17
ENDBRANCH  15  16
ENDBRANCH  14  15
ENDBRANCH  13  14
ENDBRANCH  12  13
ENDBRANCH  11  12
ENDBRANCH   1  11
TORSDOF 15
ENDMDL
MODEL 9
REMARK VINA RESULT:    -4.261      2.724      6.417
REMARK INTER + INTRA:          -9.678
REMARK INTER:                  -7.841
REMARK INTRA:                  -1.837
REMARK UNBOUND:                -1.680
REMARK SMILES O=C([O-])CCCCCCCCCCCCCCC(=O)[O-]
REMARK SMILES IDX 10 1 9 2 8 3 7 4 6 5 5 6 4 7 2 8 1 9 3 10 11 11 12 12 13 13
REMARK SMILES IDX 14 14 15 15 16 16 17 17 18 18 19 19 20 20
REMARK H PARENT
REMARK Flexibility Score: inf
ROOT
ATOM      1  C   UNL     1     -28.335  67.275  83.512  1.00  0.00     0.000 C 
ENDROOT
BRANCH   1   2
ATOM      2  C   UNL     1     -27.323  66.583  84.443  1.00  0.00     0.000 C 
BRANCH   2   3
ATOM      3  C   UNL     1     -26.413  67.582  85.176  1.00  0.00     0.000 C 
BRANCH   3   4
ATOM      4  C   UNL     1     -27.209  68.657  85.937  1.00  0.00     0.000 C 
BRANCH   4   5
ATOM      5  C   UNL     1     -28.055  68.069  87.077  1.00  0.00     0.000 C 
BRANCH   5   6
ATOM      6  C   UNL     1     -29.394  68.798  87.260  1.00  0.00     0.006 C 
BRANCH   6   7
ATOM      7  C   UNL     1     -29.880  69.391  85.934  1.00  0.00     0.053 C 
BRANCH   7   8
ATOM      8  C   UNL     1     -31.163  70.135  86.130  1.00  0.00     0.041 C 
ATOM      9  O   UNL     1     -32.084  69.636  86.828  1.00  0.00    -0.550 OA
ATOM     10  O   UNL     1     -31.362  71.357  85.500  1.00  0.00    -0.550 OA
ENDBRANCH   7   8
ENDBRANCH   6   7
ENDBRANCH   5   6
ENDBRANCH   4   5
ENDBRANCH   3   4
ENDBRANCH   2   3
ENDBRANCH   1   2
BRANCH   1  11
ATOM     11  C   UNL     1     -28.242  66.774  82.062  1.00  0.00     0.000 C 
BRANCH  11  12
ATOM     12  C   UNL     1     -28.209  65.238  81.967  1.00  0.00     0.000 C 
BRANCH  12  13
ATOM     13  C   UNL     1     -29.548  64.598  82.391  1.00  0.00     0.000 C 
BRANCH  13  14
ATOM     14  C   UNL     1     -29.383  63.293  83.195  1.00  0.00     0.000 C 
BRANCH  14  15
ATOM     15  C   UNL     1     -29.014  63.489  84.675  1.00  0.00     0.000 C 
BRANCH  15  16
ATOM     16  C   UNL     1     -30.234  63.796  85.556  1.00  0.00     0.006 C 
BRANCH  16  17
ATOM     17  C   UNL     1     -30.113  65.184  86.191  1.00  0.00     0.053 C 
BRANCH  17  18
ATOM     18  C   UNL     1     -31.207  66.081  85.704  1.00  0.00     0.041 C 
ATOM     19  O   UNL     1     -32.050  66.549  86.513  1.00  0.00    -0.550 OA
ATOM     20  O   UNL     1     -31.267  66.440  84.363  1.00  0.00    -0.550 OA
ENDBRANCH  17  18
ENDBRANCH  16  17
ENDBRANCH  15  16
ENDBRANCH  14  15
ENDBRANCH  13  14
ENDBRANCH  12  13
ENDBRANCH  11  12
ENDBRANCH   1  11
TORSDOF 15
ENDMDL
