MODEL 1
REMARK VINA RESULT:    -3.778      0.000      0.000
REMARK INTER + INTRA:          -8.052
REMARK INTER:                  -6.650
REMARK INTRA:                  -1.402
REMARK UNBOUND:                -1.402
REMARK SMILES CCCCCCCCCCCCCCC(=O)[O-]
REMARK SMILES IDX 9 1 10 2 11 3 12 4 13 5 14 6 15 7 16 8 17 9 8 10 7 11 6 12
REMARK SMILES IDX 5 13 4 14 3 15 2 16 1 17
REMARK H PARENT
REMARK Flexibility Score: inf
ROOT
ATOM      1  C   UNL     1     157.796 153.996 163.381  1.00  0.00     0.000 C 
ENDROOT
BRANCH   1   2
ATOM      2  C   UNL     1     157.981 152.522 162.987  1.00  0.00     0.000 C 
BRANCH   2   3
ATOM      3  C   UNL     1     158.880 151.750 163.968  1.00  0.00     0.000 C 
BRANCH   3   4
ATOM      4  C   UNL     1     159.200 152.532 165.260  1.00  0.00     0.000 C 
BRANCH   4   5
ATOM      5  C   UNL     1     160.694 152.468 165.622  1.00  0.00     0.006 C 
BRANCH   5   6
ATOM      6  C   UNL     1     160.963 152.913 167.066  1.00  0.00     0.053 C 
BRANCH   6   7
ATOM      7  C   UNL     1     161.929 152.001 167.758  1.00  0.00     0.041 C 
ATOM      8  O   UNL     1     162.546 151.118 167.106  1.00  0.00    -0.550 OA
ATOM      9  O   UNL     1     162.173 152.148 169.117  1.00  0.00    -0.550 OA
ENDBRANCH   6   7
ENDBRANCH   5   6
ENDBRANCH   4   5
ENDBRANCH   3   4
ENDBRANCH   2   3
ENDBRANCH   1   2
BRANCH   1  10
ATOM     10  C   UNL     1     156.316 154.377 163.550  1.00  0.00     0.000 C 
BRANCH  10  11
ATOM     11  C   UNL     1     155.707 153.808 164.844  1.00  0.00    -0.000 C 
BRANCH  11  12
ATOM     12  C   UNL     1     156.148 154.575 166.104  1.00  0.00    -0.000 C 
BRANCH  12  13
ATOM     13  C   UNL     1     155.873 156.090 166.083  1.00  0.00    -0.000 C 
BRANCH  13  14
ATOM     14  C   UNL     1     154.374 156.429 166.127  1.00  0.00    -0.000 C 
BRANCH  14  15
ATOM     15  C   UNL     1     153.987 157.565 165.162  1.00  0.00    -0.000 C 
BRANCH  15  16
ATOM     16  C   UNL     1     153.862 157.152 163.685  1.00  0.00    -0.003 C 
ATOM     17  C   UNL     1     152.980 155.922 163.478  1.00  0.00     0.004 C 
ENDBRANCH  15  16
ENDBRANCH  14  15
ENDBRANCH  13  14
ENDBRANCH  12  13
ENDBRANCH  11  12
ENDBRANCH  10  11
ENDBRANCH   1  10
TORSDOF 13
ENDMDL
MODEL 2
REMARK VINA RESULT:    -3.766      5.760      7.419
REMARK INTER + INTRA:          -8.030
REMARK INTER:                  -6.691
REMARK INTRA:                  -1.339
REMARK UNBOUND:                -1.402
REMARK SMILES CCCCCCCCCCCCCCC(=O)[O-]
REMARK SMILES IDX 9 1 10 2 11 3 12 4 13 5 14 6 15 7 16 8 17 9 8 10 7 11 6 12
REMARK SMILES IDX 5 13 4 14 3 15 2 16 1 17
REMARK H PARENT
REMARK Flexibility Score: inf
ROOT
ATOM      1  C   UNL     1     154.338 154.788 170.218  1.00  0.00     0.000 C 
ENDROOT
BRANCH   1   2
ATOM      2  C   UNL     1     154.013 155.387 171.597  1.00  0.00     0.000 C 
BRANCH   2   3
ATOM      3  C   UNL     1     153.626 154.320 172.635  1.00  0.00     0.000 C 
BRANCH   3   4
ATOM      4  C   UNL     1     153.478 152.903 172.040  1.00  0.00     0.000 C 
BRANCH   4   5
ATOM      5  C   UNL     1     154.380 151.879 172.751  1.00  0.00     0.006 C 
BRANCH   5   6
ATOM      6  C   UNL     1     154.073 151.775 174.251  1.00  0.00     0.053 C 
BRANCH   6   7
ATOM      7  C   UNL     1     155.318 151.859 175.080  1.00  0.00     0.041 C 
ATOM      8  O   UNL     1     156.340 152.441 174.631  1.00  0.00    -0.550 OA
ATOM      9  O   UNL     1     155.338 151.324 176.362  1.00  0.00    -0.550 OA
ENDBRANCH   6   7
ENDBRANCH   5   6
ENDBRANCH   4   5
ENDBRANCH   3   4
ENDBRANCH   2   3
ENDBRANCH   1   2
BRANCH   1  10
ATOM     10  C   UNL     1     153.274 155.132 169.163  1.00  0.00     0.000 C 
BRANCH  10  11
ATOM     11  C   UNL     1     153.206 154.087 168.035  1.00  0.00    -0.000 C 
BRANCH  11  12
ATOM     12  C   UNL     1     154.522 153.307 167.859  1.00  0.00    -0.000 C 
BRANCH  12  13
ATOM     13  C   UNL     1     155.110 153.320 166.436  1.00  0.00    -0.000 C 
BRANCH  13  14
ATOM     14  C   UNL     1     156.350 154.221 166.307  1.00  0.00    -0.000 C 
BRANCH  14  15
ATOM     15  C   UNL     1     156.014 155.721 166.398  1.00  0.00    -0.000 C 
BRANCH  15  16
ATOM     16  C   UNL     1     155.113 156.257 165.272  1.00  0.00    -0.003 C 
ATOM     17  C   UNL     1     154.107 157.301 165.753  1.00  0.00     0.004 C 
ENDBRANCH  15  16
ENDBRANCH  14  15
ENDBRANCH  13  14
ENDBRANCH  12  13
ENDBRANCH  11  12
ENDBRANCH  10  11
ENDBRANCH   1  10
TORSDOF 13
ENDMDL
MODEL 3
REMARK VINA RESULT:    -3.670     14.264     16.747
REMARK INTER + INTRA:          -7.862
REMARK INTER:                  -5.534
REMARK INTRA:                  -2.328
REMARK UNBOUND:                -1.402
REMARK SMILES CCCCCCCCCCCCCCC(=O)[O-]
REMARK SMILES IDX 9 1 10 2 11 3 12 4 13 5 14 6 15 7 16 8 17 9 8 10 7 11 6 12
REMARK SMILES IDX 5 13 4 14 3 15 2 16 1 17
REMARK H PARENT
REMARK Flexibility Score: inf
ROOT
ATOM      1  C   UNL     1     168.506 153.309 180.112  1.00  0.00     0.000 C 
ENDROOT
BRANCH   1   2
ATOM      2  C   UNL     1     167.036 153.172 180.539  1.00  0.00     0.000 C 
BRANCH   2   3
ATOM      3  C   UNL     1     166.243 154.481 180.378  1.00  0.00     0.000 C 
BRANCH   3   4
ATOM      4  C   UNL     1     166.989 155.559 179.563  1.00  0.00     0.000 C 
BRANCH   4   5
ATOM      5  C   UNL     1     166.040 156.352 178.647  1.00  0.00     0.006 C 
BRANCH   5   6
ATOM      6  C   UNL     1     164.565 156.149 179.020  1.00  0.00     0.053 C 
BRANCH   6   7
ATOM      7  C   UNL     1     163.686 156.111 177.808  1.00  0.00     0.041 C 
ATOM      8  O   UNL     1     163.327 155.008 177.319  1.00  0.00    -0.550 OA
ATOM      9  O   UNL     1     163.236 157.295 177.238  1.00  0.00    -0.550 OA
ENDBRANCH   6   7
ENDBRANCH   5   6
ENDBRANCH   4   5
ENDBRANCH   3   4
ENDBRANCH   2   3
ENDBRANCH   1   2
BRANCH   1  10
ATOM     10  C   UNL     1     168.933 152.216 179.117  1.00  0.00     0.000 C 
BRANCH  10  11
ATOM     11  C   UNL     1     167.805 151.208 178.835  1.00  0.00    -0.000 C 
BRANCH  11  12
ATOM     12  C   UNL     1     167.266 151.296 177.395  1.00  0.00    -0.000 C 
BRANCH  12  13
ATOM     13  C   UNL     1     166.028 152.192 177.209  1.00  0.00    -0.000 C 
BRANCH  13  14
ATOM     14  C   UNL     1     166.360 153.549 176.565  1.00  0.00    -0.000 C 
BRANCH  14  15
ATOM     15  C   UNL     1     167.822 153.646 176.090  1.00  0.00    -0.000 C 
BRANCH  15  16
ATOM     16  C   UNL     1     168.356 155.078 175.913  1.00  0.00    -0.003 C 
ATOM     17  C   UNL     1     169.511 155.409 176.856  1.00  0.00     0.004 C 
ENDBRANCH  15  16
ENDBRANCH  14  15
ENDBRANCH  13  14
ENDBRANCH  12  13
ENDBRANCH  11  12
ENDBRANCH  10  11
ENDBRANCH   1  10
TORSDOF 13
ENDMDL
MODEL 4
REMARK VINA RESULT:    -3.644     13.714     16.447
REMARK INTER + INTRA:          -7.816
REMARK INTER:                  -5.584
REMARK INTRA:                  -2.231
REMARK UNBOUND:                -1.402
REMARK SMILES CCCCCCCCCCCCCCC(=O)[O-]
REMARK SMILES IDX 9 1 10 2 11 3 12 4 13 5 14 6 15 7 16 8 17 9 8 10 7 11 6 12
REMARK SMILES IDX 5 13 4 14 3 15 2 16 1 17
REMARK H PARENT
REMARK Flexibility Score: inf
ROOT
ATOM      1  C   UNL     1     167.594 154.865 179.804  1.00  0.00     0.000 C 
ENDROOT
BRANCH   1   2
ATOM      2  C   UNL     1     166.153 154.751 180.329  1.00  0.00     0.000 C 
BRANCH   2   3
ATOM      3  C   UNL     1     165.149 155.571 179.502  1.00  0.00     0.000 C 
BRANCH   3   4
ATOM      4  C   UNL     1     165.816 156.595 178.558  1.00  0.00     0.000 C 
BRANCH   4   5
ATOM      5  C   UNL     1     164.955 156.887 177.316  1.00  0.00     0.006 C 
BRANCH   5   6
ATOM      6  C   UNL     1     163.657 156.068 177.303  1.00  0.00     0.053 C 
BRANCH   6   7
ATOM      7  C   UNL     1     162.447 156.944 177.417  1.00  0.00     0.041 C 
ATOM      8  O   UNL     1     161.907 157.137 178.537  1.00  0.00    -0.550 OA
ATOM      9  O   UNL     1     161.936 157.573 176.289  1.00  0.00    -0.550 OA
ENDBRANCH   6   7
ENDBRANCH   5   6
ENDBRANCH   4   5
ENDBRANCH   3   4
ENDBRANCH   2   3
ENDBRANCH   1   2
BRANCH   1  10
ATOM     10  C   UNL     1     168.352 153.529 179.876  1.00  0.00     0.000 C 
BRANCH  10  11
ATOM     11  C   UNL     1     167.418 152.315 179.736  1.00  0.00    -0.000 C 
BRANCH  11  12
ATOM     12  C   UNL     1     167.883 151.319 178.658  1.00  0.00    -0.000 C 
BRANCH  12  13
ATOM     13  C   UNL     1     167.132 151.401 177.316  1.00  0.00    -0.000 C 
BRANCH  13  14
ATOM     14  C   UNL     1     166.037 152.481 177.306  1.00  0.00    -0.000 C 
BRANCH  14  15
ATOM     15  C   UNL     1     166.385 153.682 176.408  1.00  0.00    -0.000 C 
BRANCH  15  16
ATOM     16  C   UNL     1     167.888 153.891 176.152  1.00  0.00    -0.003 C 
ATOM     17  C   UNL     1     168.202 155.218 175.464  1.00  0.00     0.004 C 
ENDBRANCH  15  16
ENDBRANCH  14  15
ENDBRANCH  13  14
ENDBRANCH  12  13
ENDBRANCH  11  12
ENDBRANCH  10  11
ENDBRANCH   1  10
TORSDOF 13
ENDMDL
MODEL 5
REMARK VINA RESULT:    -3.629      1.460      1.980
REMARK INTER + INTRA:          -7.789
REMARK INTER:                  -6.412
REMARK INTRA:                  -1.376
REMARK UNBOUND:                -1.402
REMARK SMILES CCCCCCCCCCCCCCC(=O)[O-]
REMARK SMILES IDX 9 1 10 2 11 3 12 4 13 5 14 6 15 7 16 8 17 9 8 10 7 11 6 12
REMARK SMILES IDX 5 13 4 14 3 15 2 16 1 17
REMARK H PARENT
REMARK Flexibility Score: inf
ROOT
ATOM      1  C   UNL     1     158.945 153.799 163.180  1.00  0.00     0.000 C 
ENDROOT
BRANCH   1   2
ATOM      2  C   UNL     1     159.649 152.482 163.546  1.00  0.00     0.000 C 
BRANCH   2   3
ATOM      3  C   UNL     1     159.317 152.004 164.970  1.00  0.00     0.000 C 
BRANCH   3   4
ATOM      4  C   UNL     1     160.080 152.769 166.073  1.00  0.00     0.000 C 
BRANCH   4   5
ATOM      5  C   UNL     1     161.568 152.380 166.126  1.00  0.00     0.006 C 
BRANCH   5   6
ATOM      6  C   UNL     1     162.492 153.585 165.905  1.00  0.00     0.053 C 
BRANCH   6   7
ATOM      7  C   UNL     1     163.289 153.905 167.132  1.00  0.00     0.041 C 
ATOM      8  O   UNL     1     164.197 153.125 167.521  1.00  0.00    -0.550 OA
ATOM      9  O   UNL     1     163.050 155.084 167.828  1.00  0.00    -0.550 OA
ENDBRANCH   6   7
ENDBRANCH   5   6
ENDBRANCH   4   5
ENDBRANCH   3   4
ENDBRANCH   2   3
ENDBRANCH   1   2
BRANCH   1  10
ATOM     10  C   UNL     1     157.510 153.576 162.674  1.00  0.00     0.000 C 
BRANCH  10  11
ATOM     11  C   UNL     1     156.480 154.427 163.438  1.00  0.00    -0.000 C 
BRANCH  11  12
ATOM     12  C   UNL     1     156.040 153.787 164.768  1.00  0.00    -0.000 C 
BRANCH  12  13
ATOM     13  C   UNL     1     156.619 154.440 166.037  1.00  0.00    -0.000 C 
BRANCH  13  14
ATOM     14  C   UNL     1     155.954 155.785 166.377  1.00  0.00    -0.000 C 
BRANCH  14  15
ATOM     15  C   UNL     1     154.449 155.652 166.675  1.00  0.00    -0.000 C 
BRANCH  15  16
ATOM     16  C   UNL     1     153.555 156.705 165.995  1.00  0.00    -0.003 C 
ATOM     17  C   UNL     1     154.089 157.162 164.639  1.00  0.00     0.004 C 
ENDBRANCH  15  16
ENDBRANCH  14  15
ENDBRANCH  13  14
ENDBRANCH  12  13
ENDBRANCH  11  12
ENDBRANCH  10  11
ENDBRANCH   1  10
TORSDOF 13
ENDMDL
MODEL 6
REMARK VINA RESULT:    -3.603     13.792     15.947
REMARK INTER + INTRA:          -7.743
REMARK INTER:                  -5.711
REMARK INTRA:                  -2.032
REMARK UNBOUND:                -1.402
REMARK SMILES CCCCCCCCCCCCCCC(=O)[O-]
REMARK SMILES IDX 9 1 10 2 11 3 12 4 13 5 14 6 15 7 16 8 17 9 8 10 7 11 6 12
REMARK SMILES IDX 5 13 4 14 3 15 2 16 1 17
REMARK H PARENT
REMARK Flexibility Score: inf
ROOT
ATOM      1  C   UNL     1     168.960 152.491 179.192  1.00  0.00     0.000 C 
ENDROOT
BRANCH   1   2
ATOM      2  C   UNL     1     167.889 151.446 178.840  1.00  0.00     0.000 C 
BRANCH   2   3
ATOM      3  C   UNL     1     167.492 151.474 177.354  1.00  0.00     0.000 C 
BRANCH   3   4
ATOM      4  C   UNL     1     166.129 152.149 177.091  1.00  0.00     0.000 C 
BRANCH   4   5
ATOM      5  C   UNL     1     166.285 153.585 176.561  1.00  0.00     0.006 C 
BRANCH   5   6
ATOM      6  C   UNL     1     167.682 153.842 175.981  1.00  0.00     0.053 C 
BRANCH   6   7
ATOM      7  C   UNL     1     167.790 155.210 175.378  1.00  0.00     0.041 C 
ATOM      8  O   UNL     1     166.756 155.903 175.190  1.00  0.00    -0.550 OA
ATOM      9  O   UNL     1     169.036 155.731 175.055  1.00  0.00    -0.550 OA
ENDBRANCH   6   7
ENDBRANCH   5   6
ENDBRANCH   4   5
ENDBRANCH   3   4
ENDBRANCH   2   3
ENDBRANCH   1   2
BRANCH   1  10
ATOM     10  C   UNL     1     168.406 153.627 180.068  1.00  0.00     0.000 C 
BRANCH  10  11
ATOM     11  C   UNL     1     166.949 153.381 180.496  1.00  0.00    -0.000 C 
BRANCH  11  12
ATOM     12  C   UNL     1     166.010 154.545 180.131  1.00  0.00    -0.000 C 
BRANCH  12  13
ATOM     13  C   UNL     1     166.674 155.719 179.388  1.00  0.00    -0.000 C 
BRANCH  13  14
ATOM     14  C   UNL     1     165.665 156.595 178.627  1.00  0.00    -0.000 C 
BRANCH  14  15
ATOM     15  C   UNL     1     164.304 156.699 179.337  1.00  0.00    -0.000 C 
BRANCH  15  16
ATOM     16  C   UNL     1     163.078 156.470 178.435  1.00  0.00    -0.003 C 
ATOM     17  C   UNL     1     163.349 155.496 177.290  1.00  0.00     0.004 C 
ENDBRANCH  15  16
ENDBRANCH  14  15
ENDBRANCH  13  14
ENDBRANCH  12  13
ENDBRANCH  11  12
ENDBRANCH  10  11
ENDBRANCH   1  10
TORSDOF 13
ENDMDL
MODEL 7
REMARK VINA RESULT:    -3.547     14.088     16.721
REMARK INTER + INTRA:          -7.646
REMARK INTER:                  -5.739
REMARK INTRA:                  -1.907
REMARK UNBOUND:                -1.402
REMARK SMILES CCCCCCCCCCCCCCC(=O)[O-]
REMARK SMILES IDX 9 1 10 2 11 3 12 4 13 5 14 6 15 7 16 8 17 9 8 10 7 11 6 12
REMARK SMILES IDX 5 13 4 14 3 15 2 16 1 17
REMARK H PARENT
REMARK Flexibility Score: inf
ROOT
ATOM      1  C   UNL     1     165.615 152.853 177.302  1.00  0.00     0.000 C 
ENDROOT
BRANCH   1   2
ATOM      2  C   UNL     1     166.207 154.070 176.574  1.00  0.00     0.000 C 
BRANCH   2   3
ATOM      3  C   UNL     1     165.295 155.308 176.642  1.00  0.00     0.000 C 
BRANCH   3   4
ATOM      4  C   UNL     1     163.906 155.020 177.250  1.00  0.00     0.000 C 
BRANCH   4   5
ATOM      5  C   UNL     1     163.119 156.311 177.536  1.00  0.00     0.006 C 
BRANCH   5   6
ATOM      6  C   UNL     1     162.948 156.567 179.040  1.00  0.00     0.053 C 
BRANCH   6   7
ATOM      7  C   UNL     1     161.674 157.297 179.337  1.00  0.00     0.041 C 
ATOM      8  O   UNL     1     160.860 157.553 178.412  1.00  0.00    -0.550 OA
ATOM      9  O   UNL     1     161.372 157.665 180.642  1.00  0.00    -0.550 OA
ENDBRANCH   6   7
ENDBRANCH   5   6
ENDBRANCH   4   5
ENDBRANCH   3   4
ENDBRANCH   2   3
ENDBRANCH   1   2
BRANCH   1  10
ATOM     10  C   UNL     1     166.548 151.631 177.258  1.00  0.00     0.000 C 
BRANCH  10  11
ATOM     11  C   UNL     1     168.011 152.020 176.980  1.00  0.00    -0.000 C 
BRANCH  11  12
ATOM     12  C   UNL     1     168.879 152.042 178.252  1.00  0.00    -0.000 C 
BRANCH  12  13
ATOM     13  C   UNL     1     168.211 151.472 179.516  1.00  0.00    -0.000 C 
BRANCH  13  14
ATOM     14  C   UNL     1     167.838 152.558 180.540  1.00  0.00    -0.000 C 
BRANCH  14  15
ATOM     15  C   UNL     1     168.407 153.942 180.180  1.00  0.00    -0.000 C 
BRANCH  15  16
ATOM     16  C   UNL     1     167.352 155.030 179.906  1.00  0.00    -0.003 C 
ATOM     17  C   UNL     1     165.994 154.721 180.535  1.00  0.00     0.004 C 
ENDBRANCH  15  16
ENDBRANCH  14  15
ENDBRANCH  13  14
ENDBRANCH  12  13
ENDBRANCH  11  12
ENDBRANCH  10  11
ENDBRANCH   1  10
TORSDOF 13
ENDMDL
MODEL 8
REMARK VINA RESULT:    -3.543     13.087     16.302
REMARK INTER + INTRA:          -7.637
REMARK INTER:                  -5.366
REMARK INTRA:                  -2.271
REMARK UNBOUND:                -1.402
REMARK SMILES CCCCCCCCCCCCCCC(=O)[O-]
REMARK SMILES IDX 9 1 10 2 11 3 12 4 13 5 14 6 15 7 16 8 17 9 8 10 7 11 6 12
REMARK SMILES IDX 5 13 4 14 3 15 2 16 1 17
REMARK H PARENT
REMARK Flexibility Score: inf
ROOT
ATOM      1  C   UNL     1     167.516 153.847 175.815  1.00  0.00     0.000 C 
ENDROOT
BRANCH   1   2
ATOM      2  C   UNL     1     168.230 155.202 175.950  1.00  0.00     0.000 C 
BRANCH   2   3
ATOM      3  C   UNL     1     168.300 155.697 177.405  1.00  0.00     0.000 C 
BRANCH   3   4
ATOM      4  C   UNL     1     167.602 157.055 177.631  1.00  0.00     0.000 C 
BRANCH   4   5
ATOM      5  C   UNL     1     166.726 157.464 176.433  1.00  0.00     0.006 C 
BRANCH   5   6
ATOM      6  C   UNL     1     165.227 157.358 176.745  1.00  0.00     0.053 C 
BRANCH   6   7
ATOM      7  C   UNL     1     164.421 157.091 175.512  1.00  0.00     0.041 C 
ATOM      8  O   UNL     1     164.815 156.245 174.668  1.00  0.00    -0.550 OA
ATOM      9  O   UNL     1     163.216 157.753 175.312  1.00  0.00    -0.550 OA
ENDBRANCH   6   7
ENDBRANCH   5   6
ENDBRANCH   4   5
ENDBRANCH   3   4
ENDBRANCH   2   3
ENDBRANCH   1   2
BRANCH   1  10
ATOM     10  C   UNL     1     166.280 153.742 176.724  1.00  0.00     0.000 C 
BRANCH  10  11
ATOM     11  C   UNL     1     165.984 152.292 177.146  1.00  0.00    -0.000 C 
BRANCH  11  12
ATOM     12  C   UNL     1     167.254 151.432 177.275  1.00  0.00    -0.000 C 
BRANCH  12  13
ATOM     13  C   UNL     1     167.795 151.266 178.708  1.00  0.00    -0.000 C 
BRANCH  13  14
ATOM     14  C   UNL     1     168.941 152.238 179.033  1.00  0.00    -0.000 C 
BRANCH  14  15
ATOM     15  C   UNL     1     168.525 153.350 180.014  1.00  0.00    -0.000 C 
BRANCH  15  16
ATOM     16  C   UNL     1     167.073 153.266 180.517  1.00  0.00    -0.003 C 
ATOM     17  C   UNL     1     166.301 154.572 180.342  1.00  0.00     0.004 C 
ENDBRANCH  15  16
ENDBRANCH  14  15
ENDBRANCH  13  14
ENDBRANCH  12  13
ENDBRANCH  11  12
ENDBRANCH  10  11
ENDBRANCH   1  10
TORSDOF 13
ENDMDL
MODEL 9
REMARK VINA RESULT:    -3.528      3.921      7.250
REMARK INTER + INTRA:          -7.611
REMARK INTER:                  -5.795
REMARK INTRA:                  -1.816
REMARK UNBOUND:                -1.402
REMARK SMILES CCCCCCCCCCCCCCC(=O)[O-]
REMARK SMILES IDX 9 1 10 2 11 3 12 4 13 5 14 6 15 7 16 8 17 9 8 10 7 11 6 12
REMARK SMILES IDX 5 13 4 14 3 15 2 16 1 17
REMARK H PARENT
REMARK Flexibility Score: inf
ROOT
ATOM      1  C   UNL     1     155.831 152.898 165.420  1.00  0.00     0.000 C 
ENDROOT
BRANCH   1   2
ATOM      2  C   UNL     1     154.817 153.244 166.524  1.00  0.00     0.000 C 
BRANCH   2   3
ATOM      3  C   UNL     1     155.250 154.451 167.374  1.00  0.00     0.000 C 
BRANCH   3   4
ATOM      4  C   UNL     1     154.077 155.365 167.791  1.00  0.00     0.000 C 
BRANCH   4   5
ATOM      5  C   UNL     1     153.309 155.915 166.576  1.00  0.00     0.006 C 
BRANCH   5   6
ATOM      6  C   UNL     1     154.193 156.788 165.676  1.00  0.00     0.053 C 
BRANCH   6   7
ATOM      7  C   UNL     1     153.866 156.600 164.226  1.00  0.00     0.041 C 
ATOM      8  O   UNL     1     153.987 157.558 163.419  1.00  0.00    -0.550 OA
ATOM      9  O   UNL     1     153.459 155.356 163.761  1.00  0.00    -0.550 OA
ENDBRANCH   6   7
ENDBRANCH   5   6
ENDBRANCH   4   5
ENDBRANCH   3   4
ENDBRANCH   2   3
ENDBRANCH   1   2
BRANCH   1  10
ATOM     10  C   UNL     1     156.672 154.113 164.995  1.00  0.00     0.000 C 
BRANCH  10  11
ATOM     11  C   UNL     1     156.753 154.264 163.466  1.00  0.00    -0.000 C 
BRANCH  11  12
ATOM     12  C   UNL     1     158.044 153.673 162.870  1.00  0.00    -0.000 C 
BRANCH  12  13
ATOM     13  C   UNL     1     157.925 152.232 162.340  1.00  0.00    -0.000 C 
BRANCH  13  14
ATOM     14  C   UNL     1     158.963 151.278 162.955  1.00  0.00    -0.000 C 
BRANCH  14  15
ATOM     15  C   UNL     1     158.669 150.940 164.428  1.00  0.00    -0.000 C 
BRANCH  15  16
ATOM     16  C   UNL     1     159.840 151.178 165.399  1.00  0.00    -0.003 C 
ATOM     17  C   UNL     1     159.880 152.600 165.954  1.00  0.00     0.004 C 
ENDBRANCH  15  16
ENDBRANCH  14  15
ENDBRANCH  13  14
ENDBRANCH  12  13
ENDBRANCH  11  12
ENDBRANCH  10  11
ENDBRANCH   1  10
TORSDOF 13
ENDMDL
