MODEL 1
REMARK VINA RESULT:    -4.076      0.000      0.000
REMARK INTER + INTRA:          -4.673
REMARK INTER:                  -4.434
REMARK INTRA:                  -0.240
REMARK UNBOUND:                -0.240
REMARK SMILES O=C([O-])c1ccccc1O
REMARK SMILES IDX 4 1 9 2 5 3 8 4 6 5 7 6 2 7 1 8 3 9 10 10
REMARK H PARENT 10 11
REMARK Flexibility Score: inf
ROOT
ATOM      1  C   UNL     1      32.175  22.759  30.088  1.00  0.00     0.039 A 
ATOM      2  C   UNL     1      32.371  22.724  31.491  1.00  0.00     0.124 A 
ATOM      3  C   UNL     1      32.373  21.579  29.347  1.00  0.00     0.014 A 
ATOM      4  C   UNL     1      32.756  21.528  32.114  1.00  0.00     0.047 A 
ATOM      5  C   UNL     1      32.755  20.394  29.981  1.00  0.00     0.001 A 
ATOM      6  C   UNL     1      32.946  20.368  31.362  1.00  0.00     0.004 A 
ENDROOT
BRANCH   1   7
ATOM      7  C   UNL     1      31.768  24.000  29.381  1.00  0.00     0.075 C 
ATOM      8  O   UNL     1      32.469  24.475  28.449  1.00  0.00    -0.545 OA
ATOM      9  O   UNL     1      30.599  24.660  29.742  1.00  0.00    -0.545 OA
ENDBRANCH   1   7
BRANCH   2  10
ATOM     10  O   UNL     1      32.187  23.870  32.265  1.00  0.00    -0.507 OA
ATOM     11  H   UNL     1      32.005  24.774  31.845  1.00  0.00     0.293 HD
ENDBRANCH   2  10
TORSDOF 2
ENDMDL
MODEL 2
REMARK VINA RESULT:    -4.018     11.261     12.395
REMARK INTER + INTRA:          -4.610
REMARK INTER:                  -4.360
REMARK INTRA:                  -0.249
REMARK UNBOUND:                -0.240
REMARK SMILES O=C([O-])c1ccccc1O
REMARK SMILES IDX 4 1 9 2 5 3 8 4 6 5 7 6 2 7 1 8 3 9 10 10
REMARK H PARENT 10 11
REMARK Flexibility Score: inf
ROOT
ATOM      1  C   UNL     1      30.801  10.344  31.434  1.00  0.00     0.039 A 
ATOM      2  C   UNL     1      31.357  11.565  31.889  1.00  0.00     0.124 A 
ATOM      3  C   UNL     1      31.240   9.141  32.018  1.00  0.00     0.014 A 
ATOM      4  C   UNL     1      32.326  11.558  32.903  1.00  0.00     0.047 A 
ATOM      5  C   UNL     1      32.205   9.148  33.027  1.00  0.00     0.001 A 
ATOM      6  C   UNL     1      32.748  10.354  33.469  1.00  0.00     0.004 A 
ENDROOT
BRANCH   1   7
ATOM      7  C   UNL     1      29.773  10.299  30.364  1.00  0.00     0.075 C 
ATOM      8  O   UNL     1      28.804  11.104  30.359  1.00  0.00    -0.545 OA
ATOM      9  O   UNL     1      29.864   9.359  29.344  1.00  0.00    -0.545 OA
ENDBRANCH   1   7
BRANCH   2  10
ATOM     10  O   UNL     1      30.952  12.782  31.339  1.00  0.00    -0.507 OA
ATOM     11  H   UNL     1      31.606  13.398  30.870  1.00  0.00     0.293 HD
ENDBRANCH   2  10
TORSDOF 2
ENDMDL
MODEL 3
REMARK VINA RESULT:    -3.908      0.946      2.338
REMARK INTER + INTRA:          -4.490
REMARK INTER:                  -4.252
REMARK INTRA:                  -0.238
REMARK UNBOUND:                -0.240
REMARK SMILES O=C([O-])c1ccccc1O
REMARK SMILES IDX 4 1 9 2 5 3 8 4 6 5 7 6 2 7 1 8 3 9 10 10
REMARK H PARENT 10 11
REMARK Flexibility Score: inf
ROOT
ATOM      1  C   UNL     1      31.979  22.924  30.708  1.00  0.00     0.039 A 
ATOM      2  C   UNL     1      32.306  22.372  29.445  1.00  0.00     0.124 A 
ATOM      3  C   UNL     1      32.185  22.145  31.862  1.00  0.00     0.014 A 
ATOM      4  C   UNL     1      32.826  21.072  29.363  1.00  0.00     0.047 A 
ATOM      5  C   UNL     1      32.704  20.851  31.766  1.00  0.00     0.001 A 
ATOM      6  C   UNL     1      33.025  20.316  30.519  1.00  0.00     0.004 A 
ENDROOT
BRANCH   1   7
ATOM      7  C   UNL     1      31.425  24.295  30.847  1.00  0.00     0.075 C 
ATOM      8  O   UNL     1      31.701  25.008  31.849  1.00  0.00    -0.545 OA
ATOM      9  O   UNL     1      30.588  24.815  29.868  1.00  0.00    -0.545 OA
ENDBRANCH   1   7
BRANCH   2  10
ATOM     10  O   UNL     1      32.118  23.108  28.275  1.00  0.00    -0.507 OA
ATOM     11  H   UNL     1      31.532  23.934  28.253  1.00  0.00     0.293 HD
ENDBRANCH   2  10
TORSDOF 2
ENDMDL
MODEL 4
REMARK VINA RESULT:    -3.906     12.625     14.017
REMARK INTER + INTRA:          -4.489
REMARK INTER:                  -4.252
REMARK INTRA:                  -0.237
REMARK UNBOUND:                -0.240
REMARK SMILES O=C([O-])c1ccccc1O
REMARK SMILES IDX 4 1 9 2 5 3 8 4 6 5 7 6 2 7 1 8 3 9 10 10
REMARK H PARENT 10 11
REMARK Flexibility Score: inf
ROOT
ATOM      1  C   UNL     1      31.602   9.022  32.396  1.00  0.00     0.039 A 
ATOM      2  C   UNL     1      30.793   9.735  31.478  1.00  0.00     0.124 A 
ATOM      3  C   UNL     1      32.564   9.729  33.142  1.00  0.00     0.014 A 
ATOM      4  C   UNL     1      30.959  11.119  31.326  1.00  0.00     0.047 A 
ATOM      5  C   UNL     1      32.719  11.108  32.982  1.00  0.00     0.001 A 
ATOM      6  C   UNL     1      31.918  11.802  32.076  1.00  0.00     0.004 A 
ENDROOT
BRANCH   1   7
ATOM      7  C   UNL     1      31.465   7.556  32.592  1.00  0.00     0.075 C 
ATOM      8  O   UNL     1      31.176   6.796  31.630  1.00  0.00    -0.545 OA
ATOM      9  O   UNL     1      31.655   6.997  33.850  1.00  0.00    -0.545 OA
ENDBRANCH   1   7
BRANCH   2  10
ATOM     10  O   UNL     1      29.827   9.075  30.717  1.00  0.00    -0.507 OA
ATOM     11  H   UNL     1      29.063   8.568  31.148  1.00  0.00     0.293 HD
ENDBRANCH   2  10
TORSDOF 2
ENDMDL
MODEL 5
REMARK VINA RESULT:    -3.816     17.022     17.726
REMARK INTER + INTRA:          -4.390
REMARK INTER:                  -4.149
REMARK INTRA:                  -0.241
REMARK UNBOUND:                -0.240
REMARK SMILES O=C([O-])c1ccccc1O
REMARK SMILES IDX 4 1 9 2 5 3 8 4 6 5 7 6 2 7 1 8 3 9 10 10
REMARK H PARENT 10 11
REMARK Flexibility Score: inf
ROOT
ATOM      1  C   UNL     1      19.952  10.748  27.787  1.00  0.00     0.039 A 
ATOM      2  C   UNL     1      20.362  10.458  26.463  1.00  0.00     0.124 A 
ATOM      3  C   UNL     1      19.445  12.030  28.074  1.00  0.00     0.014 A 
ATOM      4  C   UNL     1      20.257  11.441  25.467  1.00  0.00     0.047 A 
ATOM      5  C   UNL     1      19.345  12.999  27.073  1.00  0.00     0.001 A 
ATOM      6  C   UNL     1      19.750  12.705  25.771  1.00  0.00     0.004 A 
ENDROOT
BRANCH   1   7
ATOM      7  C   UNL     1      20.044   9.743  28.877  1.00  0.00     0.075 C 
ATOM      8  O   UNL     1      21.144   9.207  29.174  1.00  0.00    -0.545 OA
ATOM      9  O   UNL     1      18.908   9.377  29.589  1.00  0.00    -0.545 OA
ENDBRANCH   1   7
BRANCH   2  10
ATOM     10  O   UNL     1      20.871   9.202  26.133  1.00  0.00    -0.507 OA
ATOM     11  H   UNL     1      21.079   8.508  26.841  1.00  0.00     0.293 HD
ENDBRANCH   2  10
TORSDOF 2
ENDMDL
MODEL 6
REMARK VINA RESULT:    -3.743     11.320     12.378
REMARK INTER + INTRA:          -4.311
REMARK INTER:                  -4.062
REMARK INTRA:                  -0.249
REMARK UNBOUND:                -0.240
REMARK SMILES O=C([O-])c1ccccc1O
REMARK SMILES IDX 4 1 9 2 5 3 8 4 6 5 7 6 2 7 1 8 3 9 10 10
REMARK H PARENT 10 11
REMARK Flexibility Score: inf
ROOT
ATOM      1  C   UNL     1      30.823  10.876  31.124  1.00  0.00     0.039 A 
ATOM      2  C   UNL     1      30.824   9.510  31.501  1.00  0.00     0.124 A 
ATOM      3  C   UNL     1      31.691  11.763  31.788  1.00  0.00     0.014 A 
ATOM      4  C   UNL     1      31.681   9.066  32.520  1.00  0.00     0.047 A 
ATOM      5  C   UNL     1      32.539  11.307  32.801  1.00  0.00     0.001 A 
ATOM      6  C   UNL     1      32.534   9.961  33.166  1.00  0.00     0.004 A 
ENDROOT
BRANCH   1   7
ATOM      7  C   UNL     1      29.936  11.395  30.053  1.00  0.00     0.075 C 
ATOM      8  O   UNL     1      30.348  12.252  29.227  1.00  0.00    -0.545 OA
ATOM      9  O   UNL     1      28.627  10.940  29.946  1.00  0.00    -0.545 OA
ENDBRANCH   1   7
BRANCH   2  10
ATOM     10  O   UNL     1      29.980   8.596  30.871  1.00  0.00    -0.507 OA
ATOM     11  H   UNL     1      30.339   7.879  30.250  1.00  0.00     0.293 HD
ENDBRANCH   2  10
TORSDOF 2
ENDMDL
MODEL 7
REMARK VINA RESULT:    -3.631     14.189     15.351
REMARK INTER + INTRA:          -4.189
REMARK INTER:                  -3.946
REMARK INTRA:                  -0.243
REMARK UNBOUND:                -0.240
REMARK SMILES O=C([O-])c1ccccc1O
REMARK SMILES IDX 4 1 9 2 5 3 8 4 6 5 7 6 2 7 1 8 3 9 10 10
REMARK H PARENT 10 11
REMARK Flexibility Score: inf
ROOT
ATOM      1  C   UNL     1      30.927   7.541  30.148  1.00  0.00     0.039 A 
ATOM      2  C   UNL     1      30.157   8.457  29.390  1.00  0.00     0.124 A 
ATOM      3  C   UNL     1      31.546   6.465  29.484  1.00  0.00     0.014 A 
ATOM      4  C   UNL     1      30.022   8.280  28.005  1.00  0.00     0.047 A 
ATOM      5  C   UNL     1      31.405   6.301  28.104  1.00  0.00     0.001 A 
ATOM      6  C   UNL     1      30.644   7.207  27.366  1.00  0.00     0.004 A 
ENDROOT
BRANCH   1   7
ATOM      7  C   UNL     1      31.099   7.684  31.616  1.00  0.00     0.075 C 
ATOM      8  O   UNL     1      31.570   8.741  32.114  1.00  0.00    -0.545 OA
ATOM      9  O   UNL     1      30.741   6.646  32.467  1.00  0.00    -0.545 OA
ENDBRANCH   1   7
BRANCH   2  10
ATOM     10  O   UNL     1      29.525   9.538  30.005  1.00  0.00    -0.507 OA
ATOM     11  H   UNL     1      29.629   9.722  30.996  1.00  0.00     0.293 HD
ENDBRANCH   2  10
TORSDOF 2
ENDMDL
MODEL 8
REMARK VINA RESULT:    -3.582     13.732     14.645
REMARK INTER + INTRA:          -4.135
REMARK INTER:                  -3.882
REMARK INTRA:                  -0.253
REMARK UNBOUND:                -0.240
REMARK SMILES O=C([O-])c1ccccc1O
REMARK SMILES IDX 4 1 9 2 5 3 8 4 6 5 7 6 2 7 1 8 3 9 10 10
REMARK H PARENT 10 11
REMARK Flexibility Score: inf
ROOT
ATOM      1  C   UNL     1      30.126   8.377  27.957  1.00  0.00     0.039 A 
ATOM      2  C   UNL     1      30.142   8.495  29.368  1.00  0.00     0.124 A 
ATOM      3  C   UNL     1      30.862   7.339  27.355  1.00  0.00     0.014 A 
ATOM      4  C   UNL     1      30.882   7.586  30.138  1.00  0.00     0.047 A 
ATOM      5  C   UNL     1      31.595   6.440  28.134  1.00  0.00     0.001 A 
ATOM      6  C   UNL     1      31.605   6.563  29.523  1.00  0.00     0.004 A 
ENDROOT
BRANCH   1   7
ATOM      7  C   UNL     1      29.359   9.315  27.097  1.00  0.00     0.075 C 
ATOM      8  O   UNL     1      28.579   8.887  26.206  1.00  0.00    -0.545 OA
ATOM      9  O   UNL     1      29.492  10.688  27.266  1.00  0.00    -0.545 OA
ENDBRANCH   1   7
BRANCH   2  10
ATOM     10  O   UNL     1      29.428   9.509  30.007  1.00  0.00    -0.507 OA
ATOM     11  H   UNL     1      29.201  10.378  29.538  1.00  0.00     0.293 HD
ENDBRANCH   2  10
TORSDOF 2
ENDMDL
MODEL 9
REMARK VINA RESULT:    -3.557     13.901     15.021
REMARK INTER + INTRA:          -4.109
REMARK INTER:                  -3.854
REMARK INTRA:                  -0.255
REMARK UNBOUND:                -0.240
REMARK SMILES O=C([O-])c1ccccc1O
REMARK SMILES IDX 4 1 9 2 5 3 8 4 6 5 7 6 2 7 1 8 3 9 10 10
REMARK H PARENT 10 11
REMARK Flexibility Score: inf
ROOT
ATOM      1  C   UNL     1      30.920   7.971  31.117  1.00  0.00     0.039 A 
ATOM      2  C   UNL     1      31.585   7.804  32.357  1.00  0.00     0.124 A 
ATOM      3  C   UNL     1      30.517   9.264  30.734  1.00  0.00     0.014 A 
ATOM      4  C   UNL     1      31.829   8.916  33.176  1.00  0.00     0.047 A 
ATOM      5  C   UNL     1      30.767  10.364  31.559  1.00  0.00     0.001 A 
ATOM      6  C   UNL     1      31.422  10.190  32.777  1.00  0.00     0.004 A 
ENDROOT
BRANCH   1   7
ATOM      7  C   UNL     1      30.638   6.826  30.215  1.00  0.00     0.075 C 
ATOM      8  O   UNL     1      29.496   6.663  29.710  1.00  0.00    -0.545 OA
ATOM      9  O   UNL     1      31.638   5.909  29.914  1.00  0.00    -0.545 OA
ENDBRANCH   1   7
BRANCH   2  10
ATOM     10  O   UNL     1      32.002   6.541  32.777  1.00  0.00    -0.507 OA
ATOM     11  H   UNL     1      32.742   6.037  32.301  1.00  0.00     0.293 HD
ENDBRANCH   2  10
TORSDOF 2
ENDMDL
