MODEL 1
REMARK VINA RESULT:    -7.679      0.000      0.000
REMARK INTER + INTRA:          -9.844
REMARK INTER:                  -9.475
REMARK INTRA:                  -0.369
REMARK UNBOUND:                -0.369
REMARK SMILES O=c1c(O)c(-c2cc(O)c(O)c(O)c2)oc2cc(O)cc(O)c12
REMARK SMILES IDX 5 1 3 2 2 3 1 4 23 5 21 6 20 7 18 8 17 9 16 10 15 11 6 12
REMARK SMILES IDX 7 13 8 14 14 15 10 16 12 17 9 18 11 20 13 22 4 24 22 26
REMARK SMILES IDX 19 28
REMARK H PARENT 9 19 11 21 13 23 4 25 22 27 19 29
REMARK Flexibility Score: inf
ROOT
ATOM      1  C   UNL     1     -11.943 -14.382 -34.232  1.00  0.00     0.180 A 
ATOM      2  C   UNL     1     -11.026 -13.672 -33.436  1.00  0.00     0.208 A 
ATOM      3  C   UNL     1     -10.576 -14.247 -32.237  1.00  0.00     0.238 A 
ATOM      4  O   UNL     1      -9.714 -13.632 -31.557  1.00  0.00    -0.285 OA
ATOM      5  C   UNL     1     -11.060 -15.517 -31.840  1.00  0.00     0.111 A 
ATOM      6  C   UNL     1     -10.703 -16.178 -30.626  1.00  0.00     0.134 A 
ATOM      7  C   UNL     1     -11.140 -17.488 -30.398  1.00  0.00     0.093 A 
ATOM      8  C   UNL     1     -11.975 -18.138 -31.311  1.00  0.00     0.123 A 
ATOM      9  C   UNL     1     -12.377 -17.480 -32.470  1.00  0.00     0.094 A 
ATOM     10  C   UNL     1     -11.928 -16.186 -32.743  1.00  0.00     0.146 A 
ATOM     11  O   UNL     1     -12.327 -15.598 -33.865  1.00  0.00    -0.452 OA
ENDROOT
BRANCH   1  12
ATOM     12  C   UNL     1     -12.481 -13.830 -35.496  1.00  0.00     0.029 A 
ATOM     13  C   UNL     1     -11.861 -14.156 -36.711  1.00  0.00     0.062 A 
ATOM     14  C   UNL     1     -12.363 -13.664 -37.924  1.00  0.00     0.162 A 
ATOM     15  C   UNL     1     -13.638 -13.031 -35.511  1.00  0.00     0.062 A 
ATOM     16  C   UNL     1     -13.508 -12.849 -37.928  1.00  0.00     0.200 A 
ATOM     17  C   UNL     1     -14.146 -12.538 -36.721  1.00  0.00     0.162 A 
BRANCH  14  18
ATOM     18  O   UNL     1     -11.730 -13.983 -39.124  1.00  0.00    -0.504 OA
ATOM     19  H   UNL     1     -11.302 -13.272 -39.704  1.00  0.00     0.293 HD
ENDBRANCH  14  18
BRANCH  16  20
ATOM     20  O   UNL     1     -14.026 -12.346 -39.122  1.00  0.00    -0.502 OA
ATOM     21  H   UNL     1     -13.444 -12.177 -39.933  1.00  0.00     0.293 HD
ENDBRANCH  16  20
BRANCH  17  22
ATOM     22  O   UNL     1     -15.289 -11.741 -36.730  1.00  0.00    -0.504 OA
ATOM     23  H   UNL     1     -16.216 -12.143 -36.816  1.00  0.00     0.293 HD
ENDBRANCH  17  22
ENDBRANCH   1  12
BRANCH   2  24
ATOM     24  O   UNL     1     -10.545 -12.429 -33.858  1.00  0.00    -0.502 OA
ATOM     25  H   UNL     1      -9.576 -12.156 -33.749  1.00  0.00     0.293 HD
ENDBRANCH   2  24
BRANCH   6  26
ATOM     26  O   UNL     1      -9.949 -15.585 -29.608  1.00  0.00    -0.507 OA
ATOM     27  H   UNL     1      -9.539 -16.082 -28.833  1.00  0.00     0.293 HD
ENDBRANCH   6  26
BRANCH   8  28
ATOM     28  O   UNL     1     -12.418 -19.436 -31.069  1.00  0.00    -0.508 OA
ATOM     29  H   UNL     1     -13.034 -19.915 -31.716  1.00  0.00     0.293 HD
ENDBRANCH   8  28
TORSDOF 7
ENDMDL
MODEL 2
REMARK VINA RESULT:    -7.624      2.895      8.668
REMARK INTER + INTRA:          -9.776
REMARK INTER:                  -9.436
REMARK INTRA:                  -0.340
REMARK UNBOUND:                -0.369
REMARK SMILES O=c1c(O)c(-c2cc(O)c(O)c(O)c2)oc2cc(O)cc(O)c12
REMARK SMILES IDX 5 1 3 2 2 3 1 4 23 5 21 6 20 7 18 8 17 9 16 10 15 11 6 12
REMARK SMILES IDX 7 13 8 14 14 15 10 16 12 17 9 18 11 20 13 22 4 24 22 26
REMARK SMILES IDX 19 28
REMARK H PARENT 9 19 11 21 13 23 4 25 22 27 19 29
REMARK Flexibility Score: inf
ROOT
ATOM      1  C   UNL     1     -10.644 -16.990 -30.311  1.00  0.00     0.180 A 
ATOM      2  C   UNL     1     -11.768 -17.247 -31.115  1.00  0.00     0.208 A 
ATOM      3  C   UNL     1     -12.062 -16.374 -32.175  1.00  0.00     0.238 A 
ATOM      4  O   UNL     1     -13.037 -16.639 -32.925  1.00  0.00    -0.285 OA
ATOM      5  C   UNL     1     -11.237 -15.247 -32.408  1.00  0.00     0.111 A 
ATOM      6  C   UNL     1     -11.463 -14.274 -33.428  1.00  0.00     0.134 A 
ATOM      7  C   UNL     1     -10.510 -13.273 -33.650  1.00  0.00     0.093 A 
ATOM      8  C   UNL     1      -9.371 -13.170 -32.847  1.00  0.00     0.123 A 
ATOM      9  C   UNL     1      -9.172 -14.079 -31.811  1.00  0.00     0.094 A 
ATOM     10  C   UNL     1     -10.086 -15.111 -31.587  1.00  0.00     0.146 A 
ATOM     11  O   UNL     1      -9.853 -15.963 -30.595  1.00  0.00    -0.452 OA
ENDROOT
BRANCH   1  12
ATOM     12  C   UNL     1     -10.285 -17.851 -29.161  1.00  0.00     0.029 A 
ATOM     13  C   UNL     1     -10.726 -17.505 -27.875  1.00  0.00     0.062 A 
ATOM     14  C   UNL     1     -10.418 -18.315 -26.773  1.00  0.00     0.162 A 
ATOM     15  C   UNL     1      -9.559 -19.042 -29.338  1.00  0.00     0.062 A 
ATOM     16  C   UNL     1      -9.674 -19.492 -26.955  1.00  0.00     0.200 A 
ATOM     17  C   UNL     1      -9.249 -19.856 -28.240  1.00  0.00     0.162 A 
BRANCH  14  18
ATOM     18  O   UNL     1     -10.849 -17.953 -25.497  1.00  0.00    -0.504 OA
ATOM     19  H   UNL     1     -11.776 -18.187 -25.164  1.00  0.00     0.293 HD
ENDBRANCH  14  18
BRANCH  16  20
ATOM     20  O   UNL     1      -9.352 -20.314 -25.874  1.00  0.00    -0.502 OA
ATOM     21  H   UNL     1      -9.841 -20.254 -24.989  1.00  0.00     0.293 HD
ENDBRANCH  16  20
BRANCH  17  22
ATOM     22  O   UNL     1      -8.524 -21.032 -28.419  1.00  0.00    -0.504 OA
ATOM     23  H   UNL     1      -8.904 -21.818 -28.934  1.00  0.00     0.293 HD
ENDBRANCH  17  22
ENDBRANCH   1  12
BRANCH   2  24
ATOM     24  O   UNL     1     -12.556 -18.378 -30.881  1.00  0.00    -0.502 OA
ATOM     25  H   UNL     1     -12.485 -18.924 -30.030  1.00  0.00     0.293 HD
ENDBRANCH   2  24
BRANCH   6  26
ATOM     26  O   UNL     1     -12.610 -14.232 -34.225  1.00  0.00    -0.507 OA
ATOM     27  H   UNL     1     -12.986 -13.398 -34.648  1.00  0.00     0.293 HD
ENDBRANCH   6  26
BRANCH   8  28
ATOM     28  O   UNL     1      -8.436 -12.162 -33.065  1.00  0.00    -0.508 OA
ATOM     29  H   UNL     1      -7.448 -12.366 -33.161  1.00  0.00     0.293 HD
ENDBRANCH   8  28
TORSDOF 7
ENDMDL
MODEL 3
REMARK VINA RESULT:    -7.588      0.140      1.755
REMARK INTER + INTRA:          -9.731
REMARK INTER:                  -9.376
REMARK INTRA:                  -0.355
REMARK UNBOUND:                -0.369
REMARK SMILES O=c1c(O)c(-c2cc(O)c(O)c(O)c2)oc2cc(O)cc(O)c12
REMARK SMILES IDX 5 1 3 2 2 3 1 4 23 5 21 6 20 7 18 8 17 9 16 10 15 11 6 12
REMARK SMILES IDX 7 13 8 14 14 15 10 16 12 17 9 18 11 20 13 22 4 24 22 26
REMARK SMILES IDX 19 28
REMARK H PARENT 9 19 11 21 13 23 4 25 22 27 19 29
REMARK Flexibility Score: inf
ROOT
ATOM      1  C   UNL     1     -11.908 -14.471 -34.207  1.00  0.00     0.180 A 
ATOM      2  C   UNL     1     -11.020 -13.706 -33.433  1.00  0.00     0.208 A 
ATOM      3  C   UNL     1     -10.558 -14.224 -32.212  1.00  0.00     0.238 A 
ATOM      4  O   UNL     1      -9.720 -13.558 -31.550  1.00  0.00    -0.285 OA
ATOM      5  C   UNL     1     -11.003 -15.495 -31.773  1.00  0.00     0.111 A 
ATOM      6  C   UNL     1     -10.632 -16.101 -30.535  1.00  0.00     0.134 A 
ATOM      7  C   UNL     1     -11.029 -17.416 -30.264  1.00  0.00     0.093 A 
ATOM      8  C   UNL     1     -11.837 -18.123 -31.157  1.00  0.00     0.123 A 
ATOM      9  C   UNL     1     -12.253 -17.519 -32.340  1.00  0.00     0.094 A 
ATOM     10  C   UNL     1     -11.845 -16.221 -32.656  1.00  0.00     0.146 A 
ATOM     11  O   UNL     1     -12.256 -15.686 -33.800  1.00  0.00    -0.452 OA
ENDROOT
BRANCH   1  12
ATOM     12  C   UNL     1     -12.457 -13.981 -35.492  1.00  0.00     0.029 A 
ATOM     13  C   UNL     1     -13.605 -13.175 -35.490  1.00  0.00     0.062 A 
ATOM     14  C   UNL     1     -14.132 -12.681 -36.692  1.00  0.00     0.162 A 
ATOM     15  C   UNL     1     -11.817 -14.257 -36.712  1.00  0.00     0.062 A 
ATOM     16  C   UNL     1     -13.498 -12.980 -37.909  1.00  0.00     0.200 A 
ATOM     17  C   UNL     1     -12.338 -13.764 -37.916  1.00  0.00     0.162 A 
BRANCH  14  18
ATOM     18  O   UNL     1     -15.283 -11.894 -36.679  1.00  0.00    -0.504 OA
ATOM     19  H   UNL     1     -15.622 -11.462 -35.828  1.00  0.00     0.293 HD
ENDBRANCH  14  18
BRANCH  16  20
ATOM     20  O   UNL     1     -14.004 -12.501 -39.118  1.00  0.00    -0.502 OA
ATOM     21  H   UNL     1     -14.965 -12.656 -39.399  1.00  0.00     0.293 HD
ENDBRANCH  16  20
BRANCH  17  22
ATOM     22  O   UNL     1     -11.704 -14.046 -39.125  1.00  0.00    -0.504 OA
ATOM     23  H   UNL     1     -11.421 -13.310 -39.762  1.00  0.00     0.293 HD
ENDBRANCH  17  22
ENDBRANCH   1  12
BRANCH   2  24
ATOM     24  O   UNL     1     -10.576 -12.463 -33.895  1.00  0.00    -0.502 OA
ATOM     25  H   UNL     1     -10.497 -12.246 -34.881  1.00  0.00     0.293 HD
ENDBRANCH   2  24
BRANCH   6  26
ATOM     26  O   UNL     1      -9.904 -15.449 -29.535  1.00  0.00    -0.507 OA
ATOM     27  H   UNL     1      -9.249 -15.900 -28.915  1.00  0.00     0.293 HD
ENDBRANCH   6  26
BRANCH   8  28
ATOM     28  O   UNL     1     -12.240 -19.425 -30.872  1.00  0.00    -0.508 OA
ATOM     29  H   UNL     1     -11.919 -20.213 -31.424  1.00  0.00     0.293 HD
ENDBRANCH   8  28
TORSDOF 7
ENDMDL
MODEL 4
REMARK VINA RESULT:    -7.583      1.265      7.096
REMARK INTER + INTRA:          -9.726
REMARK INTER:                  -9.394
REMARK INTRA:                  -0.331
REMARK UNBOUND:                -0.369
REMARK SMILES O=c1c(O)c(-c2cc(O)c(O)c(O)c2)oc2cc(O)cc(O)c12
REMARK SMILES IDX 5 1 3 2 2 3 1 4 23 5 21 6 20 7 18 8 17 9 16 10 15 11 6 12
REMARK SMILES IDX 7 13 8 14 14 15 10 16 12 17 9 18 11 20 13 22 4 24 22 26
REMARK SMILES IDX 19 28
REMARK H PARENT 9 19 11 21 13 23 4 25 22 27 19 29
REMARK Flexibility Score: inf
ROOT
ATOM      1  C   UNL     1     -11.639 -15.073 -34.417  1.00  0.00     0.180 A 
ATOM      2  C   UNL     1     -10.604 -15.083 -35.369  1.00  0.00     0.208 A 
ATOM      3  C   UNL     1     -10.768 -14.358 -36.561  1.00  0.00     0.238 A 
ATOM      4  O   UNL     1      -9.816 -14.326 -37.384  1.00  0.00    -0.285 OA
ATOM      5  C   UNL     1     -11.970 -13.647 -36.793  1.00  0.00     0.111 A 
ATOM      6  C   UNL     1     -12.260 -12.912 -37.981  1.00  0.00     0.134 A 
ATOM      7  C   UNL     1     -13.426 -12.139 -38.049  1.00  0.00     0.093 A 
ATOM      8  C   UNL     1     -14.343 -12.127 -36.995  1.00  0.00     0.123 A 
ATOM      9  C   UNL     1     -14.098 -12.888 -35.856  1.00  0.00     0.094 A 
ATOM     10  C   UNL     1     -12.927 -13.640 -35.744  1.00  0.00     0.146 A 
ATOM     11  O   UNL     1     -12.726 -14.344 -34.635  1.00  0.00    -0.452 OA
ENDROOT
BRANCH   1  12
ATOM     12  C   UNL     1     -11.549 -15.832 -33.149  1.00  0.00     0.029 A 
ATOM     13  C   UNL     1     -10.856 -15.280 -32.062  1.00  0.00     0.062 A 
ATOM     14  C   UNL     1     -10.774 -15.969 -30.843  1.00  0.00     0.162 A 
ATOM     15  C   UNL     1     -12.195 -17.071 -32.991  1.00  0.00     0.062 A 
ATOM     16  C   UNL     1     -11.405 -17.216 -30.701  1.00  0.00     0.200 A 
ATOM     17  C   UNL     1     -12.119 -17.763 -31.775  1.00  0.00     0.162 A 
BRANCH  14  18
ATOM     18  O   UNL     1     -10.069 -15.418 -29.774  1.00  0.00    -0.504 OA
ATOM     19  H   UNL     1     -10.199 -15.748 -28.826  1.00  0.00     0.293 HD
ENDBRANCH  14  18
BRANCH  16  20
ATOM     20  O   UNL     1     -11.337 -17.922 -29.499  1.00  0.00    -0.502 OA
ATOM     21  H   UNL     1     -12.109 -18.484 -29.160  1.00  0.00     0.293 HD
ENDBRANCH  16  20
BRANCH  17  22
ATOM     22  O   UNL     1     -12.756 -18.993 -31.625  1.00  0.00    -0.504 OA
ATOM     23  H   UNL     1     -13.024 -19.554 -32.425  1.00  0.00     0.293 HD
ENDBRANCH  17  22
ENDBRANCH   1  12
BRANCH   2  24
ATOM     24  O   UNL     1      -9.417 -15.774 -35.110  1.00  0.00    -0.502 OA
ATOM     25  H   UNL     1      -9.363 -16.526 -34.433  1.00  0.00     0.293 HD
ENDBRANCH   2  24
BRANCH   6  26
ATOM     26  O   UNL     1     -11.455 -12.929 -39.125  1.00  0.00    -0.507 OA
ATOM     27  H   UNL     1     -10.451 -13.020 -39.120  1.00  0.00     0.293 HD
ENDBRANCH   6  26
BRANCH   8  28
ATOM     28  O   UNL     1     -15.508 -11.368 -37.077  1.00  0.00    -0.508 OA
ATOM     29  H   UNL     1     -16.378 -11.765 -37.413  1.00  0.00     0.293 HD
ENDBRANCH   8  28
TORSDOF 7
ENDMDL
MODEL 5
REMARK VINA RESULT:    -7.569      1.256      7.076
REMARK INTER + INTRA:          -9.708
REMARK INTER:                  -9.387
REMARK INTRA:                  -0.322
REMARK UNBOUND:                -0.369
REMARK SMILES O=c1c(O)c(-c2cc(O)c(O)c(O)c2)oc2cc(O)cc(O)c12
REMARK SMILES IDX 5 1 3 2 2 3 1 4 23 5 21 6 20 7 18 8 17 9 16 10 15 11 6 12
REMARK SMILES IDX 7 13 8 14 14 15 10 16 12 17 9 18 11 20 13 22 4 24 22 26
REMARK SMILES IDX 19 28
REMARK H PARENT 9 19 11 21 13 23 4 25 22 27 19 29
REMARK Flexibility Score: inf
ROOT
ATOM      1  C   UNL     1     -11.658 -15.040 -34.366  1.00  0.00     0.180 A 
ATOM      2  C   UNL     1     -10.623 -15.079 -35.316  1.00  0.00     0.208 A 
ATOM      3  C   UNL     1     -10.782 -14.383 -36.526  1.00  0.00     0.238 A 
ATOM      4  O   UNL     1      -9.830 -14.376 -37.349  1.00  0.00    -0.285 OA
ATOM      5  C   UNL     1     -11.980 -13.671 -36.776  1.00  0.00     0.111 A 
ATOM      6  C   UNL     1     -12.266 -12.963 -37.983  1.00  0.00     0.134 A 
ATOM      7  C   UNL     1     -13.427 -12.186 -38.069  1.00  0.00     0.093 A 
ATOM      8  C   UNL     1     -14.345 -12.143 -37.018  1.00  0.00     0.123 A 
ATOM      9  C   UNL     1     -14.104 -12.877 -35.859  1.00  0.00     0.094 A 
ATOM     10  C   UNL     1     -12.937 -13.633 -35.728  1.00  0.00     0.146 A 
ATOM     11  O   UNL     1     -12.741 -14.310 -34.603  1.00  0.00    -0.452 OA
ENDROOT
BRANCH   1  12
ATOM     12  C   UNL     1     -11.574 -15.768 -33.080  1.00  0.00     0.029 A 
ATOM     13  C   UNL     1     -12.206 -17.014 -32.948  1.00  0.00     0.062 A 
ATOM     14  C   UNL     1     -12.123 -17.733 -31.748  1.00  0.00     0.162 A 
ATOM     15  C   UNL     1     -10.823 -15.265 -32.003  1.00  0.00     0.062 A 
ATOM     16  C   UNL     1     -11.388 -17.213 -30.669  1.00  0.00     0.200 A 
ATOM     17  C   UNL     1     -10.735 -15.981 -30.801  1.00  0.00     0.162 A 
BRANCH  14  18
ATOM     18  O   UNL     1     -12.768 -18.963 -31.624  1.00  0.00    -0.504 OA
ATOM     19  H   UNL     1     -13.543 -19.094 -30.986  1.00  0.00     0.293 HD
ENDBRANCH  14  18
BRANCH  16  20
ATOM     20  O   UNL     1     -11.292 -17.909 -29.464  1.00  0.00    -0.502 OA
ATOM     21  H   UNL     1     -11.779 -17.607 -28.628  1.00  0.00     0.293 HD
ENDBRANCH  16  20
BRANCH  17  22
ATOM     22  O   UNL     1      -9.995 -15.475 -29.734  1.00  0.00    -0.504 OA
ATOM     23  H   UNL     1      -9.501 -14.592 -29.801  1.00  0.00     0.293 HD
ENDBRANCH  17  22
ENDBRANCH   1  12
BRANCH   2  24
ATOM     24  O   UNL     1      -9.440 -15.770 -35.040  1.00  0.00    -0.502 OA
ATOM     25  H   UNL     1      -9.361 -16.427 -34.273  1.00  0.00     0.293 HD
ENDBRANCH   2  24
BRANCH   6  26
ATOM     26  O   UNL     1     -11.461 -13.013 -39.125  1.00  0.00    -0.507 OA
ATOM     27  H   UNL     1     -10.491 -13.289 -39.133  1.00  0.00     0.293 HD
ENDBRANCH   6  26
BRANCH   8  28
ATOM     28  O   UNL     1     -15.506 -11.380 -37.118  1.00  0.00    -0.508 OA
ATOM     29  H   UNL     1     -15.704 -10.628 -36.467  1.00  0.00     0.293 HD
ENDBRANCH   8  28
TORSDOF 7
ENDMDL
MODEL 6
REMARK VINA RESULT:    -7.288      4.218      7.453
REMARK INTER + INTRA:          -9.361
REMARK INTER:                  -9.011
REMARK INTRA:                  -0.350
REMARK UNBOUND:                -0.369
REMARK SMILES O=c1c(O)c(-c2cc(O)c(O)c(O)c2)oc2cc(O)cc(O)c12
REMARK SMILES IDX 5 1 3 2 2 3 1 4 23 5 21 6 20 7 18 8 17 9 16 10 15 11 6 12
REMARK SMILES IDX 7 13 8 14 14 15 10 16 12 17 9 18 11 20 13 22 4 24 22 26
REMARK SMILES IDX 19 28
REMARK H PARENT 9 19 11 21 13 23 4 25 22 27 19 29
REMARK Flexibility Score: inf
ROOT
ATOM      1  C   UNL     1     -10.261 -17.273 -28.297  1.00  0.00     0.180 A 
ATOM      2  C   UNL     1      -9.824 -18.589 -28.067  1.00  0.00     0.208 A 
ATOM      3  C   UNL     1      -9.888 -19.111 -26.765  1.00  0.00     0.238 A 
ATOM      4  O   UNL     1      -9.547 -20.307 -26.575  1.00  0.00    -0.285 OA
ATOM      5  C   UNL     1     -10.373 -18.304 -25.707  1.00  0.00     0.111 A 
ATOM      6  C   UNL     1     -10.444 -18.716 -24.342  1.00  0.00     0.134 A 
ATOM      7  C   UNL     1     -11.062 -17.883 -23.401  1.00  0.00     0.093 A 
ATOM      8  C   UNL     1     -11.553 -16.626 -23.763  1.00  0.00     0.123 A 
ATOM      9  C   UNL     1     -11.434 -16.192 -25.081  1.00  0.00     0.094 A 
ATOM     10  C   UNL     1     -10.855 -17.014 -26.050  1.00  0.00     0.146 A 
ATOM     11  O   UNL     1     -10.771 -16.565 -27.297  1.00  0.00    -0.452 OA
ENDROOT
BRANCH   1  12
ATOM     12  C   UNL     1     -10.201 -16.646 -29.637  1.00  0.00     0.029 A 
ATOM     13  C   UNL     1     -11.266 -16.829 -30.533  1.00  0.00     0.062 A 
ATOM     14  C   UNL     1     -11.243 -16.229 -31.800  1.00  0.00     0.162 A 
ATOM     15  C   UNL     1      -9.127 -15.821 -30.012  1.00  0.00     0.062 A 
ATOM     16  C   UNL     1     -10.155 -15.423 -32.174  1.00  0.00     0.200 A 
ATOM     17  C   UNL     1      -9.100 -15.217 -31.276  1.00  0.00     0.162 A 
BRANCH  14  18
ATOM     18  O   UNL     1     -12.300 -16.430 -32.688  1.00  0.00    -0.504 OA
ATOM     19  H   UNL     1     -12.485 -15.787 -33.447  1.00  0.00     0.293 HD
ENDBRANCH  14  18
BRANCH  16  20
ATOM     20  O   UNL     1     -10.108 -14.817 -33.430  1.00  0.00    -0.502 OA
ATOM     21  H   UNL     1      -9.351 -14.202 -33.703  1.00  0.00     0.293 HD
ENDBRANCH  16  20
BRANCH  17  22
ATOM     22  O   UNL     1      -8.029 -14.405 -31.645  1.00  0.00    -0.504 OA
ATOM     23  H   UNL     1      -7.306 -14.733 -32.277  1.00  0.00     0.293 HD
ENDBRANCH  17  22
ENDBRANCH   1  12
BRANCH   2  24
ATOM     24  O   UNL     1      -9.370 -19.374 -29.131  1.00  0.00    -0.502 OA
ATOM     25  H   UNL     1      -9.707 -20.315 -29.295  1.00  0.00     0.293 HD
ENDBRANCH   2  24
BRANCH   6  26
ATOM     26  O   UNL     1      -9.904 -19.911 -23.858  1.00  0.00    -0.507 OA
ATOM     27  H   UNL     1      -9.171 -20.435 -24.311  1.00  0.00     0.293 HD
ENDBRANCH   6  26
BRANCH   8  28
ATOM     28  O   UNL     1     -12.152 -15.798 -22.818  1.00  0.00    -0.508 OA
ATOM     29  H   UNL     1     -12.686 -16.176 -22.044  1.00  0.00     0.293 HD
ENDBRANCH   8  28
TORSDOF 7
ENDMDL
MODEL 7
REMARK VINA RESULT:    -7.236      1.999      3.070
REMARK INTER + INTRA:          -9.297
REMARK INTER:                  -9.008
REMARK INTRA:                  -0.289
REMARK UNBOUND:                -0.369
REMARK SMILES O=c1c(O)c(-c2cc(O)c(O)c(O)c2)oc2cc(O)cc(O)c12
REMARK SMILES IDX 5 1 3 2 2 3 1 4 23 5 21 6 20 7 18 8 17 9 16 10 15 11 6 12
REMARK SMILES IDX 7 13 8 14 14 15 10 16 12 17 9 18 11 20 13 22 4 24 22 26
REMARK SMILES IDX 19 28
REMARK H PARENT 9 19 11 21 13 23 4 25 22 27 19 29
REMARK Flexibility Score: inf
ROOT
ATOM      1  C   UNL     1     -10.851 -13.485 -35.099  1.00  0.00     0.180 A 
ATOM      2  C   UNL     1      -9.497 -13.509 -35.477  1.00  0.00     0.208 A 
ATOM      3  C   UNL     1      -8.539 -13.953 -34.551  1.00  0.00     0.238 A 
ATOM      4  O   UNL     1      -7.335 -14.024 -34.913  1.00  0.00    -0.285 OA
ATOM      5  C   UNL     1      -8.944 -14.352 -33.254  1.00  0.00     0.111 A 
ATOM      6  C   UNL     1      -8.056 -14.782 -32.224  1.00  0.00     0.134 A 
ATOM      7  C   UNL     1      -8.579 -15.278 -31.023  1.00  0.00     0.093 A 
ATOM      8  C   UNL     1      -9.957 -15.299 -30.792  1.00  0.00     0.123 A 
ATOM      9  C   UNL     1     -10.829 -14.826 -31.769  1.00  0.00     0.094 A 
ATOM     10  C   UNL     1     -10.339 -14.359 -32.991  1.00  0.00     0.146 A 
ATOM     11  O   UNL     1     -11.206 -13.927 -33.900  1.00  0.00    -0.452 OA
ENDROOT
BRANCH   1  12
ATOM     12  C   UNL     1     -11.914 -13.006 -36.012  1.00  0.00     0.029 A 
ATOM     13  C   UNL     1     -12.460 -11.727 -35.826  1.00  0.00     0.062 A 
ATOM     14  C   UNL     1     -13.453 -11.243 -36.689  1.00  0.00     0.162 A 
ATOM     15  C   UNL     1     -12.349 -13.784 -37.098  1.00  0.00     0.062 A 
ATOM     16  C   UNL     1     -13.897 -12.036 -37.760  1.00  0.00     0.200 A 
ATOM     17  C   UNL     1     -13.341 -13.304 -37.965  1.00  0.00     0.162 A 
BRANCH  14  18
ATOM     18  O   UNL     1     -13.998  -9.976 -36.485  1.00  0.00    -0.504 OA
ATOM     19  H   UNL     1     -13.883  -9.482 -35.608  1.00  0.00     0.293 HD
ENDBRANCH  14  18
BRANCH  16  20
ATOM     20  O   UNL     1     -14.886 -11.577 -38.631  1.00  0.00    -0.502 OA
ATOM     21  H   UNL     1     -14.723 -10.811 -39.275  1.00  0.00     0.293 HD
ENDBRANCH  16  20
BRANCH  17  22
ATOM     22  O   UNL     1     -13.774 -14.082 -39.037  1.00  0.00    -0.504 OA
ATOM     23  H   UNL     1     -13.799 -15.094 -38.984  1.00  0.00     0.293 HD
ENDBRANCH  17  22
ENDBRANCH   1  12
BRANCH   2  24
ATOM     24  O   UNL     1      -9.121 -13.131 -36.769  1.00  0.00    -0.502 OA
ATOM     25  H   UNL     1      -8.771 -13.794 -37.450  1.00  0.00     0.293 HD
ENDBRANCH   2  24
BRANCH   6  26
ATOM     26  O   UNL     1      -6.662 -14.717 -32.318  1.00  0.00    -0.507 OA
ATOM     27  H   UNL     1      -6.057 -15.513 -32.444  1.00  0.00     0.293 HD
ENDBRANCH   6  26
BRANCH   8  28
ATOM     28  O   UNL     1     -10.468 -15.779 -29.589  1.00  0.00    -0.508 OA
ATOM     29  H   UNL     1     -10.448 -16.767 -29.361  1.00  0.00     0.293 HD
ENDBRANCH   8  28
TORSDOF 7
ENDMDL
MODEL 8
REMARK VINA RESULT:    -7.145      2.872      4.395
REMARK INTER + INTRA:          -9.184
REMARK INTER:                  -8.841
REMARK INTRA:                  -0.343
REMARK UNBOUND:                -0.369
REMARK SMILES O=c1c(O)c(-c2cc(O)c(O)c(O)c2)oc2cc(O)cc(O)c12
REMARK SMILES IDX 5 1 3 2 2 3 1 4 23 5 21 6 20 7 18 8 17 9 16 10 15 11 6 12
REMARK SMILES IDX 7 13 8 14 14 15 10 16 12 17 9 18 11 20 13 22 4 24 22 26
REMARK SMILES IDX 19 28
REMARK H PARENT 9 19 11 21 13 23 4 25 22 27 19 29
REMARK Flexibility Score: inf
ROOT
ATOM      1  C   UNL     1     -10.548 -13.148 -35.363  1.00  0.00     0.180 A 
ATOM      2  C   UNL     1     -10.756 -13.766 -34.118  1.00  0.00     0.208 A 
ATOM      3  C   UNL     1      -9.643 -14.140 -33.347  1.00  0.00     0.238 A 
ATOM      4  O   UNL     1      -9.836 -14.643 -32.210  1.00  0.00    -0.285 OA
ATOM      5  C   UNL     1      -8.336 -13.905 -33.839  1.00  0.00     0.111 A 
ATOM      6  C   UNL     1      -7.137 -14.279 -33.162  1.00  0.00     0.134 A 
ATOM      7  C   UNL     1      -5.898 -13.880 -33.680  1.00  0.00     0.093 A 
ATOM      8  C   UNL     1      -5.814 -13.178 -34.884  1.00  0.00     0.123 A 
ATOM      9  C   UNL     1      -6.976 -12.861 -35.583  1.00  0.00     0.094 A 
ATOM     10  C   UNL     1      -8.228 -13.213 -35.074  1.00  0.00     0.146 A 
ATOM     11  O   UNL     1      -9.312 -12.882 -35.766  1.00  0.00    -0.452 OA
ENDROOT
BRANCH   1  12
ATOM     12  C   UNL     1     -11.671 -12.747 -36.241  1.00  0.00     0.029 A 
ATOM     13  C   UNL     1     -12.110 -13.626 -37.243  1.00  0.00     0.062 A 
ATOM     14  C   UNL     1     -13.185 -13.280 -38.074  1.00  0.00     0.162 A 
ATOM     15  C   UNL     1     -12.346 -11.529 -36.056  1.00  0.00     0.062 A 
ATOM     16  C   UNL     1     -13.841 -12.050 -37.896  1.00  0.00     0.200 A 
ATOM     17  C   UNL     1     -13.422 -11.178 -36.882  1.00  0.00     0.162 A 
BRANCH  14  18
ATOM     18  O   UNL     1     -13.603 -14.154 -39.076  1.00  0.00    -0.504 OA
ATOM     19  H   UNL     1     -13.051 -14.960 -39.343  1.00  0.00     0.293 HD
ENDBRANCH  14  18
BRANCH  16  20
ATOM     20  O   UNL     1     -14.911 -11.682 -38.711  1.00  0.00    -0.502 OA
ATOM     21  H   UNL     1     -14.886 -11.795 -39.717  1.00  0.00     0.293 HD
ENDBRANCH  16  20
BRANCH  17  22
ATOM     22  O   UNL     1     -14.084  -9.966 -36.699  1.00  0.00    -0.504 OA
ATOM     23  H   UNL     1     -13.631  -9.079 -36.885  1.00  0.00     0.293 HD
ENDBRANCH  17  22
ENDBRANCH   1  12
BRANCH   2  24
ATOM     24  O   UNL     1     -12.055 -13.968 -33.642  1.00  0.00    -0.502 OA
ATOM     25  H   UNL     1     -12.707 -13.206 -33.499  1.00  0.00     0.293 HD
ENDBRANCH   2  24
BRANCH   6  26
ATOM     26  O   UNL     1      -7.106 -15.058 -32.001  1.00  0.00    -0.507 OA
ATOM     27  H   UNL     1      -6.287 -15.212 -31.434  1.00  0.00     0.293 HD
ENDBRANCH   6  26
BRANCH   8  28
ATOM     28  O   UNL     1      -4.577 -12.799 -35.400  1.00  0.00    -0.508 OA
ATOM     29  H   UNL     1      -4.322 -12.993 -36.362  1.00  0.00     0.293 HD
ENDBRANCH   8  28
TORSDOF 7
ENDMDL
MODEL 9
REMARK VINA RESULT:    -6.947      1.819      7.077
REMARK INTER + INTRA:          -8.941
REMARK INTER:                  -8.617
REMARK INTRA:                  -0.324
REMARK UNBOUND:                -0.369
REMARK SMILES O=c1c(O)c(-c2cc(O)c(O)c(O)c2)oc2cc(O)cc(O)c12
REMARK SMILES IDX 5 1 3 2 2 3 1 4 23 5 21 6 20 7 18 8 17 9 16 10 15 11 6 12
REMARK SMILES IDX 7 13 8 14 14 15 10 16 12 17 9 18 11 20 13 22 4 24 22 26
REMARK SMILES IDX 19 28
REMARK H PARENT 9 19 11 21 13 23 4 25 22 27 19 29
REMARK Flexibility Score: inf
ROOT
ATOM      1  C   UNL     1     -11.427 -14.937 -34.316  1.00  0.00     0.180 A 
ATOM      2  C   UNL     1     -12.497 -14.108 -34.695  1.00  0.00     0.208 A 
ATOM      3  C   UNL     1     -12.427 -13.421 -35.918  1.00  0.00     0.238 A 
ATOM      4  O   UNL     1     -13.411 -12.723 -36.277  1.00  0.00    -0.285 OA
ATOM      5  C   UNL     1     -11.281 -13.558 -36.738  1.00  0.00     0.111 A 
ATOM      6  C   UNL     1     -11.085 -12.878 -37.977  1.00  0.00     0.134 A 
ATOM      7  C   UNL     1      -9.972 -13.189 -38.768  1.00  0.00     0.093 A 
ATOM      8  C   UNL     1      -9.015 -14.109 -38.334  1.00  0.00     0.123 A 
ATOM      9  C   UNL     1      -9.167 -14.734 -37.099  1.00  0.00     0.094 A 
ATOM     10  C   UNL     1     -10.284 -14.471 -36.304  1.00  0.00     0.146 A 
ATOM     11  O   UNL     1     -10.396 -15.097 -35.137  1.00  0.00    -0.452 OA
ENDROOT
BRANCH   1  12
ATOM     12  C   UNL     1     -11.418 -15.675 -33.032  1.00  0.00     0.029 A 
ATOM     13  C   UNL     1     -12.127 -16.880 -32.923  1.00  0.00     0.062 A 
ATOM     14  C   UNL     1     -12.118 -17.608 -31.725  1.00  0.00     0.162 A 
ATOM     15  C   UNL     1     -10.665 -15.223 -31.935  1.00  0.00     0.062 A 
ATOM     16  C   UNL     1     -11.379 -17.138 -30.626  1.00  0.00     0.200 A 
ATOM     17  C   UNL     1     -10.650 -15.947 -30.735  1.00  0.00     0.162 A 
BRANCH  14  18
ATOM     18  O   UNL     1     -12.839 -18.797 -31.624  1.00  0.00    -0.504 OA
ATOM     19  H   UNL     1     -12.964 -19.268 -30.736  1.00  0.00     0.293 HD
ENDBRANCH  14  18
BRANCH  16  20
ATOM     20  O   UNL     1     -11.355 -17.843 -29.423  1.00  0.00    -0.502 OA
ATOM     21  H   UNL     1     -11.258 -17.378 -28.528  1.00  0.00     0.293 HD
ENDBRANCH  16  20
BRANCH  17  22
ATOM     22  O   UNL     1      -9.907 -15.491 -29.648  1.00  0.00    -0.504 OA
ATOM     23  H   UNL     1      -9.175 -14.798 -29.757  1.00  0.00     0.293 HD
ENDBRANCH  17  22
ENDBRANCH   1  12
BRANCH   2  24
ATOM     24  O   UNL     1     -13.628 -14.004 -33.880  1.00  0.00    -0.502 OA
ATOM     25  H   UNL     1     -13.855 -13.159 -33.371  1.00  0.00     0.293 HD
ENDBRANCH   2  24
BRANCH   6  26
ATOM     26  O   UNL     1     -11.933 -11.876 -38.460  1.00  0.00    -0.507 OA
ATOM     27  H   UNL     1     -11.857 -10.898 -38.228  1.00  0.00     0.293 HD
ENDBRANCH   6  26
BRANCH   8  28
ATOM     28  O   UNL     1      -7.903 -14.402 -39.119  1.00  0.00    -0.508 OA
ATOM     29  H   UNL     1      -7.556 -13.748 -39.812  1.00  0.00     0.293 HD
ENDBRANCH   8  28
TORSDOF 7
ENDMDL
