MODEL 1
REMARK VINA RESULT:    -5.069      0.000      0.000
REMARK INTER + INTRA:         -10.760
REMARK INTER:                  -9.810
REMARK INTRA:                  -0.950
REMARK UNBOUND:                -0.950
REMARK SMILES CCCCCCCCCCCCCCCCCC(=O)[O-]
REMARK SMILES IDX 10 1 11 2 12 3 13 4 14 5 15 6 16 7 17 8 18 9 19 10 20 11
REMARK SMILES IDX 9 12 8 13 7 14 6 15 5 16 4 17 3 18 2 19 1 20
REMARK H PARENT
REMARK Flexibility Score: inf
ROOT
ATOM      1  C   UNL     1      94.582 123.090 124.984  1.00  0.00     0.000 C 
ENDROOT
BRANCH   1   2
ATOM      2  C   UNL     1      95.293 124.057 124.013  1.00  0.00     0.000 C 
BRANCH   2   3
ATOM      3  C   UNL     1      96.590 124.629 124.612  1.00  0.00     0.000 C 
BRANCH   3   4
ATOM      4  C   UNL     1      96.993 123.937 125.924  1.00  0.00     0.000 C 
BRANCH   4   5
ATOM      5  C   UNL     1      98.246 124.558 126.558  1.00  0.00     0.000 C 
BRANCH   5   6
ATOM      6  C   UNL     1      99.371 123.520 126.684  1.00  0.00     0.000 C 
BRANCH   6   7
ATOM      7  C   UNL     1      98.900 122.092 126.363  1.00  0.00     0.006 C 
BRANCH   7   8
ATOM      8  C   UNL     1      99.897 121.020 126.827  1.00  0.00     0.053 C 
BRANCH   8   9
ATOM      9  C   UNL     1     100.614 120.428 125.655  1.00  0.00     0.041 C 
ATOM     10  O   UNL     1      99.978 119.774 124.787  1.00  0.00    -0.550 OA
ATOM     11  O   UNL     1     101.978 120.641 125.495  1.00  0.00    -0.550 OA
ENDBRANCH   8   9
ENDBRANCH   7   8
ENDBRANCH   6   7
ENDBRANCH   5   6
ENDBRANCH   4   5
ENDBRANCH   3   4
ENDBRANCH   2   3
ENDBRANCH   1   2
BRANCH   1  12
ATOM     12  C   UNL     1      93.088 122.893 124.674  1.00  0.00     0.000 C 
BRANCH  12  13
ATOM     13  C   UNL     1      92.692 123.424 123.287  1.00  0.00    -0.000 C 
BRANCH  13  14
ATOM     14  C   UNL     1      92.487 122.304 122.251  1.00  0.00    -0.000 C 
BRANCH  14  15
ATOM     15  C   UNL     1      93.304 122.455 120.954  1.00  0.00    -0.000 C 
BRANCH  15  16
ATOM     16  C   UNL     1      92.607 121.842 119.731  1.00  0.00    -0.000 C 
BRANCH  16  17
ATOM     17  C   UNL     1      92.012 122.936 118.833  1.00  0.00    -0.000 C 
BRANCH  17  18
ATOM     18  C   UNL     1      91.721 122.449 117.402  1.00  0.00    -0.000 C 
BRANCH  18  19
ATOM     19  C   UNL     1      92.420 121.133 117.012  1.00  0.00    -0.003 C 
ATOM     20  C   UNL     1      92.159 120.725 115.564  1.00  0.00     0.004 C 
ENDBRANCH  18  19
ENDBRANCH  17  18
ENDBRANCH  16  17
ENDBRANCH  15  16
ENDBRANCH  14  15
ENDBRANCH  13  14
ENDBRANCH  12  13
ENDBRANCH   1  12
TORSDOF 16
ENDMDL
MODEL 2
REMARK VINA RESULT:    -4.832      4.097      9.504
REMARK INTER + INTRA:         -10.303
REMARK INTER:                  -9.483
REMARK INTRA:                  -0.819
REMARK UNBOUND:                -0.950
REMARK SMILES CCCCCCCCCCCCCCCCCC(=O)[O-]
REMARK SMILES IDX 10 1 11 2 12 3 13 4 14 5 15 6 16 7 17 8 18 9 19 10 20 11
REMARK SMILES IDX 9 12 8 13 7 14 6 15 5 16 4 17 3 18 2 19 1 20
REMARK H PARENT
REMARK Flexibility Score: inf
ROOT
ATOM      1  C   UNL     1      95.366 123.932 123.959  1.00  0.00     0.000 C 
ENDROOT
BRANCH   1   2
ATOM      2  C   UNL     1      94.404 123.107 124.840  1.00  0.00     0.000 C 
BRANCH   2   3
ATOM      3  C   UNL     1      92.982 123.052 124.252  1.00  0.00     0.000 C 
BRANCH   3   4
ATOM      4  C   UNL     1      92.945 123.413 122.758  1.00  0.00     0.000 C 
BRANCH   4   5
ATOM      5  C   UNL     1      92.358 122.287 121.894  1.00  0.00     0.000 C 
BRANCH   5   6
ATOM      6  C   UNL     1      93.192 122.080 120.620  1.00  0.00     0.000 C 
BRANCH   6   7
ATOM      7  C   UNL     1      92.353 122.190 119.337  1.00  0.00     0.006 C 
BRANCH   7   8
ATOM      8  C   UNL     1      93.032 121.534 118.127  1.00  0.00     0.053 C 
BRANCH   8   9
ATOM      9  C   UNL     1      92.116 121.540 116.944  1.00  0.00     0.041 C 
ATOM     10  O   UNL     1      91.968 120.499 116.251  1.00  0.00    -0.550 OA
ATOM     11  O   UNL     1      91.387 122.682 116.635  1.00  0.00    -0.550 OA
ENDBRANCH   8   9
ENDBRANCH   7   8
ENDBRANCH   6   7
ENDBRANCH   5   6
ENDBRANCH   4   5
ENDBRANCH   3   4
ENDBRANCH   2   3
ENDBRANCH   1   2
BRANCH   1  12
ATOM     12  C   UNL     1      96.532 124.560 124.742  1.00  0.00     0.000 C 
BRANCH  12  13
ATOM     13  C   UNL     1      96.640 124.027 126.180  1.00  0.00    -0.000 C 
BRANCH  13  14
ATOM     14  C   UNL     1      97.757 122.981 126.350  1.00  0.00    -0.000 C 
BRANCH  14  15
ATOM     15  C   UNL     1      99.176 123.558 126.508  1.00  0.00    -0.000 C 
BRANCH  15  16
ATOM     16  C   UNL     1     100.272 122.486 126.433  1.00  0.00    -0.000 C 
BRANCH  16  17
ATOM     17  C   UNL     1      99.717 121.107 126.816  1.00  0.00    -0.000 C 
BRANCH  17  18
ATOM     18  C   UNL     1     100.819 120.057 127.045  1.00  0.00    -0.000 C 
BRANCH  18  19
ATOM     19  C   UNL     1     102.090 120.257 126.199  1.00  0.00    -0.003 C 
ATOM     20  C   UNL     1     101.970 119.673 124.794  1.00  0.00     0.004 C 
ENDBRANCH  18  19
ENDBRANCH  17  18
ENDBRANCH  16  17
ENDBRANCH  15  16
ENDBRANCH  14  15
ENDBRANCH  13  14
ENDBRANCH  12  13
ENDBRANCH   1  12
TORSDOF 16
ENDMDL
MODEL 3
REMARK VINA RESULT:    -4.777      4.107      9.560
REMARK INTER + INTRA:         -10.196
REMARK INTER:                  -9.402
REMARK INTRA:                  -0.794
REMARK UNBOUND:                -0.950
REMARK SMILES CCCCCCCCCCCCCCCCCC(=O)[O-]
REMARK SMILES IDX 10 1 11 2 12 3 13 4 14 5 15 6 16 7 17 8 18 9 19 10 20 11
REMARK SMILES IDX 9 12 8 13 7 14 6 15 5 16 4 17 3 18 2 19 1 20
REMARK H PARENT
REMARK Flexibility Score: inf
ROOT
ATOM      1  C   UNL     1      93.143 122.928 124.647  1.00  0.00     0.000 C 
ENDROOT
BRANCH   1   2
ATOM      2  C   UNL     1      92.907 123.361 123.185  1.00  0.00     0.000 C 
BRANCH   2   3
ATOM      3  C   UNL     1      92.659 122.158 122.257  1.00  0.00     0.000 C 
BRANCH   3   4
ATOM      4  C   UNL     1      92.783 122.520 120.770  1.00  0.00     0.000 C 
BRANCH   4   5
ATOM      5  C   UNL     1      93.694 121.554 120.000  1.00  0.00     0.000 C 
BRANCH   5   6
ATOM      6  C   UNL     1      93.397 121.600 118.493  1.00  0.00     0.000 C 
BRANCH   6   7
ATOM      7  C   UNL     1      91.998 122.153 118.181  1.00  0.00     0.006 C 
BRANCH   7   8
ATOM      8  C   UNL     1      91.733 122.282 116.674  1.00  0.00     0.053 C 
BRANCH   8   9
ATOM      9  C   UNL     1      92.184 121.050 115.954  1.00  0.00     0.041 C 
ATOM     10  O   UNL     1      93.112 121.115 115.107  1.00  0.00    -0.550 OA
ATOM     11  O   UNL     1      91.612 119.820 116.256  1.00  0.00    -0.550 OA
ENDBRANCH   8   9
ENDBRANCH   7   8
ENDBRANCH   6   7
ENDBRANCH   5   6
ENDBRANCH   4   5
ENDBRANCH   3   4
ENDBRANCH   2   3
ENDBRANCH   1   2
BRANCH   1  12
ATOM     12  C   UNL     1      94.607 123.063 125.102  1.00  0.00     0.000 C 
BRANCH  12  13
ATOM     13  C   UNL     1      95.392 124.100 124.283  1.00  0.00    -0.000 C 
BRANCH  13  14
ATOM     14  C   UNL     1      96.764 124.435 124.895  1.00  0.00    -0.000 C 
BRANCH  14  15
ATOM     15  C   UNL     1      97.221 123.500 126.029  1.00  0.00    -0.000 C 
BRANCH  15  16
ATOM     16  C   UNL     1      98.495 123.987 126.733  1.00  0.00    -0.000 C 
BRANCH  16  17
ATOM     17  C   UNL     1      99.669 123.034 126.463  1.00  0.00    -0.000 C 
BRANCH  17  18
ATOM     18  C   UNL     1      99.256 121.551 126.479  1.00  0.00    -0.000 C 
BRANCH  18  19
ATOM     19  C   UNL     1     100.428 120.553 126.484  1.00  0.00    -0.003 C 
ATOM     20  C   UNL     1     101.684 121.104 125.813  1.00  0.00     0.004 C 
ENDBRANCH  18  19
ENDBRANCH  17  18
ENDBRANCH  16  17
ENDBRANCH  15  16
ENDBRANCH  14  15
ENDBRANCH  13  14
ENDBRANCH  12  13
ENDBRANCH   1  12
TORSDOF 16
ENDMDL
MODEL 4
REMARK VINA RESULT:    -4.765     11.859     14.714
REMARK INTER + INTRA:         -10.173
REMARK INTER:                  -8.010
REMARK INTRA:                  -2.164
REMARK UNBOUND:                -0.950
REMARK SMILES CCCCCCCCCCCCCCCCCC(=O)[O-]
REMARK SMILES IDX 10 1 11 2 12 3 13 4 14 5 15 6 16 7 17 8 18 9 19 10 20 11
REMARK SMILES IDX 9 12 8 13 7 14 6 15 5 16 4 17 3 18 2 19 1 20
REMARK H PARENT
REMARK Flexibility Score: inf
ROOT
ATOM      1  C   UNL     1      84.007 124.170 126.142  1.00  0.00     0.000 C 
ENDROOT
BRANCH   1   2
ATOM      2  C   UNL     1      84.514 123.029 125.234  1.00  0.00     0.000 C 
BRANCH   2   3
ATOM      3  C   UNL     1      83.359 122.199 124.647  1.00  0.00     0.000 C 
BRANCH   3   4
ATOM      4  C   UNL     1      83.404 120.727 125.084  1.00  0.00     0.000 C 
BRANCH   4   5
ATOM      5  C   UNL     1      84.203 120.521 126.379  1.00  0.00     0.000 C 
BRANCH   5   6
ATOM      6  C   UNL     1      83.266 120.413 127.592  1.00  0.00     0.000 C 
BRANCH   6   7
ATOM      7  C   UNL     1      83.832 121.105 128.843  1.00  0.00     0.006 C 
BRANCH   7   8
ATOM      8  C   UNL     1      85.301 121.518 128.678  1.00  0.00     0.053 C 
BRANCH   8   9
ATOM      9  C   UNL     1      86.184 120.670 129.538  1.00  0.00     0.041 C 
ATOM     10  O   UNL     1      87.078 121.203 130.248  1.00  0.00    -0.550 OA
ATOM     11  O   UNL     1      85.989 119.296 129.595  1.00  0.00    -0.550 OA
ENDBRANCH   8   9
ENDBRANCH   7   8
ENDBRANCH   6   7
ENDBRANCH   5   6
ENDBRANCH   4   5
ENDBRANCH   3   4
ENDBRANCH   2   3
ENDBRANCH   1   2
BRANCH   1  12
ATOM     12  C   UNL     1      82.515 124.056 126.500  1.00  0.00     0.000 C 
BRANCH  12  13
ATOM     13  C   UNL     1      82.238 124.322 127.988  1.00  0.00    -0.000 C 
BRANCH  13  14
ATOM     14  C   UNL     1      83.428 124.975 128.714  1.00  0.00    -0.000 C 
BRANCH  14  15
ATOM     15  C   UNL     1      83.101 125.589 130.088  1.00  0.00    -0.000 C 
BRANCH  15  16
ATOM     16  C   UNL     1      81.937 126.589 130.037  1.00  0.00    -0.000 C 
BRANCH  16  17
ATOM     17  C   UNL     1      82.280 127.869 130.813  1.00  0.00    -0.000 C 
BRANCH  17  18
ATOM     18  C   UNL     1      83.356 128.724 130.118  1.00  0.00    -0.000 C 
BRANCH  18  19
ATOM     19  C   UNL     1      84.620 128.981 130.957  1.00  0.00    -0.003 C 
ATOM     20  C   UNL     1      84.370 129.911 132.142  1.00  0.00     0.004 C 
ENDBRANCH  18  19
ENDBRANCH  17  18
ENDBRANCH  16  17
ENDBRANCH  15  16
ENDBRANCH  14  15
ENDBRANCH  13  14
ENDBRANCH  12  13
ENDBRANCH   1  12
TORSDOF 16
ENDMDL
MODEL 5
REMARK VINA RESULT:    -4.592     12.075     15.087
REMARK INTER + INTRA:          -9.837
REMARK INTER:                  -8.344
REMARK INTRA:                  -1.493
REMARK UNBOUND:                -0.950
REMARK SMILES CCCCCCCCCCCCCCCCCC(=O)[O-]
REMARK SMILES IDX 10 1 11 2 12 3 13 4 14 5 15 6 16 7 17 8 18 9 19 10 20 11
REMARK SMILES IDX 9 12 8 13 7 14 6 15 5 16 4 17 3 18 2 19 1 20
REMARK H PARENT
REMARK Flexibility Score: inf
ROOT
ATOM      1  C   UNL     1      83.936 124.574 128.432  1.00  0.00     0.000 C 
ENDROOT
BRANCH   1   2
ATOM      2  C   UNL     1      84.422 124.303 126.991  1.00  0.00     0.000 C 
BRANCH   2   3
ATOM      3  C   UNL     1      83.250 124.125 126.010  1.00  0.00     0.000 C 
BRANCH   3   4
ATOM      4  C   UNL     1      83.620 123.260 124.796  1.00  0.00     0.000 C 
BRANCH   4   5
ATOM      5  C   UNL     1      84.516 122.071 125.170  1.00  0.00     0.000 C 
BRANCH   5   6
ATOM      6  C   UNL     1      83.704 120.967 125.865  1.00  0.00     0.000 C 
BRANCH   6   7
ATOM      7  C   UNL     1      84.571 120.062 126.754  1.00  0.00     0.006 C 
BRANCH   7   8
ATOM      8  C   UNL     1      84.302 120.267 128.251  1.00  0.00     0.053 C 
BRANCH   8   9
ATOM      9  C   UNL     1      85.573 120.578 128.976  1.00  0.00     0.041 C 
ATOM     10  O   UNL     1      85.897 121.774 129.201  1.00  0.00    -0.550 OA
ATOM     11  O   UNL     1      86.376 119.547 129.447  1.00  0.00    -0.550 OA
ENDBRANCH   8   9
ENDBRANCH   7   8
ENDBRANCH   6   7
ENDBRANCH   5   6
ENDBRANCH   4   5
ENDBRANCH   3   4
ENDBRANCH   2   3
ENDBRANCH   1   2
BRANCH   1  12
ATOM     12  C   UNL     1      82.406 124.674 128.558  1.00  0.00     0.000 C 
BRANCH  12  13
ATOM     13  C   UNL     1      81.958 125.293 129.892  1.00  0.00    -0.000 C 
BRANCH  13  14
ATOM     14  C   UNL     1      83.084 125.338 130.942  1.00  0.00    -0.000 C 
BRANCH  14  15
ATOM     15  C   UNL     1      83.469 126.747 131.428  1.00  0.00    -0.000 C 
BRANCH  15  16
ATOM     16  C   UNL     1      83.021 127.858 130.467  1.00  0.00    -0.000 C 
BRANCH  16  17
ATOM     17  C   UNL     1      84.073 128.973 130.389  1.00  0.00    -0.000 C 
BRANCH  17  18
ATOM     18  C   UNL     1      84.810 129.200 131.721  1.00  0.00    -0.000 C 
BRANCH  18  19
ATOM     19  C   UNL     1      84.461 130.517 132.437  1.00  0.00    -0.003 C 
ATOM     20  C   UNL     1      83.189 131.169 131.900  1.00  0.00     0.004 C 
ENDBRANCH  18  19
ENDBRANCH  17  18
ENDBRANCH  16  17
ENDBRANCH  15  16
ENDBRANCH  14  15
ENDBRANCH  13  14
ENDBRANCH  12  13
ENDBRANCH   1  12
TORSDOF 16
ENDMDL
MODEL 6
REMARK VINA RESULT:    -4.444     12.899     15.954
REMARK INTER + INTRA:          -9.551
REMARK INTER:                  -8.060
REMARK INTRA:                  -1.491
REMARK UNBOUND:                -0.950
REMARK SMILES CCCCCCCCCCCCCCCCCC(=O)[O-]
REMARK SMILES IDX 10 1 11 2 12 3 13 4 14 5 15 6 16 7 17 8 18 9 19 10 20 11
REMARK SMILES IDX 9 12 8 13 7 14 6 15 5 16 4 17 3 18 2 19 1 20
REMARK H PARENT
REMARK Flexibility Score: inf
ROOT
ATOM      1  C   UNL     1      82.876 124.461 128.132  1.00  0.00     0.000 C 
ENDROOT
BRANCH   1   2
ATOM      2  C   UNL     1      84.207 123.727 128.399  1.00  0.00     0.000 C 
BRANCH   2   3
ATOM      3  C   UNL     1      84.071 122.661 129.501  1.00  0.00     0.000 C 
BRANCH   3   4
ATOM      4  C   UNL     1      84.590 121.284 129.060  1.00  0.00     0.000 C 
BRANCH   4   5
ATOM      5  C   UNL     1      84.860 121.210 127.551  1.00  0.00     0.000 C 
BRANCH   5   6
ATOM      6  C   UNL     1      84.310 119.904 126.957  1.00  0.00     0.000 C 
BRANCH   6   7
ATOM      7  C   UNL     1      83.398 120.141 125.743  1.00  0.00     0.006 C 
BRANCH   7   8
ATOM      8  C   UNL     1      82.606 121.453 125.844  1.00  0.00     0.053 C 
BRANCH   8   9
ATOM      9  C   UNL     1      82.848 122.306 124.639  1.00  0.00     0.041 C 
ATOM     10  O   UNL     1      83.506 123.374 124.741  1.00  0.00    -0.550 OA
ATOM     11  O   UNL     1      82.388 121.897 123.393  1.00  0.00    -0.550 OA
ENDBRANCH   8   9
ENDBRANCH   7   8
ENDBRANCH   6   7
ENDBRANCH   5   6
ENDBRANCH   4   5
ENDBRANCH   3   4
ENDBRANCH   2   3
ENDBRANCH   1   2
BRANCH   1  12
ATOM     12  C   UNL     1      82.225 125.037 129.402  1.00  0.00     0.000 C 
BRANCH  12  13
ATOM     13  C   UNL     1      83.023 126.205 130.003  1.00  0.00    -0.000 C 
BRANCH  13  14
ATOM     14  C   UNL     1      82.125 127.296 130.613  1.00  0.00    -0.000 C 
BRANCH  14  15
ATOM     15  C   UNL     1      82.679 128.730 130.517  1.00  0.00    -0.000 C 
BRANCH  15  16
ATOM     16  C   UNL     1      84.205 128.774 130.354  1.00  0.00    -0.000 C 
BRANCH  16  17
ATOM     17  C   UNL     1      84.876 129.325 131.621  1.00  0.00    -0.000 C 
BRANCH  17  18
ATOM     18  C   UNL     1      83.892 130.053 132.555  1.00  0.00    -0.000 C 
BRANCH  18  19
ATOM     19  C   UNL     1      83.987 131.589 132.524  1.00  0.00    -0.003 C 
ATOM     20  C   UNL     1      82.858 132.241 131.730  1.00  0.00     0.004 C 
ENDBRANCH  18  19
ENDBRANCH  17  18
ENDBRANCH  16  17
ENDBRANCH  15  16
ENDBRANCH  14  15
ENDBRANCH  13  14
ENDBRANCH  12  13
ENDBRANCH   1  12
TORSDOF 16
ENDMDL
MODEL 7
REMARK VINA RESULT:    -4.322     11.920     14.620
REMARK INTER + INTRA:          -9.316
REMARK INTER:                  -7.219
REMARK INTRA:                  -2.096
REMARK UNBOUND:                -0.950
REMARK SMILES CCCCCCCCCCCCCCCCCC(=O)[O-]
REMARK SMILES IDX 10 1 11 2 12 3 13 4 14 5 15 6 16 7 17 8 18 9 19 10 20 11
REMARK SMILES IDX 9 12 8 13 7 14 6 15 5 16 4 17 3 18 2 19 1 20
REMARK H PARENT
REMARK Flexibility Score: inf
ROOT
ATOM      1  C   UNL     1      83.789 124.847 128.426  1.00  0.00     0.000 C 
ENDROOT
BRANCH   1   2
ATOM      2  C   UNL     1      84.274 124.242 127.092  1.00  0.00     0.000 C 
BRANCH   2   3
ATOM      3  C   UNL     1      83.136 124.125 126.062  1.00  0.00     0.000 C 
BRANCH   3   4
ATOM      4  C   UNL     1      83.529 123.283 124.838  1.00  0.00     0.000 C 
BRANCH   4   5
ATOM      5  C   UNL     1      84.500 122.147 125.190  1.00  0.00     0.000 C 
BRANCH   5   6
ATOM      6  C   UNL     1      83.768 120.797 125.252  1.00  0.00     0.000 C 
BRANCH   6   7
ATOM      7  C   UNL     1      82.441 120.806 124.476  1.00  0.00     0.006 C 
BRANCH   7   8
ATOM      8  C   UNL     1      82.245 119.546 123.622  1.00  0.00     0.053 C 
BRANCH   8   9
ATOM      9  C   UNL     1      82.490 119.847 122.177  1.00  0.00     0.041 C 
ATOM     10  O   UNL     1      82.528 118.914 121.333  1.00  0.00    -0.550 OA
ATOM     11  O   UNL     1      82.626 121.164 121.755  1.00  0.00    -0.550 OA
ENDBRANCH   8   9
ENDBRANCH   7   8
ENDBRANCH   6   7
ENDBRANCH   5   6
ENDBRANCH   4   5
ENDBRANCH   3   4
ENDBRANCH   2   3
ENDBRANCH   1   2
BRANCH   1  12
ATOM     12  C   UNL     1      83.133 123.821 129.367  1.00  0.00     0.000 C 
BRANCH  12  13
ATOM     13  C   UNL     1      83.876 122.475 129.390  1.00  0.00    -0.000 C 
BRANCH  13  14
ATOM     14  C   UNL     1      83.025 121.311 128.851  1.00  0.00    -0.000 C 
BRANCH  14  15
ATOM     15  C   UNL     1      83.595 119.905 129.120  1.00  0.00    -0.000 C 
BRANCH  15  16
ATOM     16  C   UNL     1      84.871 119.611 128.320  1.00  0.00    -0.000 C 
BRANCH  16  17
ATOM     17  C   UNL     1      86.000 119.134 129.246  1.00  0.00    -0.000 C 
BRANCH  17  18
ATOM     18  C   UNL     1      85.680 119.335 130.738  1.00  0.00    -0.000 C 
BRANCH  18  19
ATOM     19  C   UNL     1      86.469 120.465 131.423  1.00  0.00    -0.003 C 
ATOM     20  C   UNL     1      87.491 121.124 130.500  1.00  0.00     0.004 C 
ENDBRANCH  18  19
ENDBRANCH  17  18
ENDBRANCH  16  17
ENDBRANCH  15  16
ENDBRANCH  14  15
ENDBRANCH  13  14
ENDBRANCH  12  13
ENDBRANCH   1  12
TORSDOF 16
ENDMDL
MODEL 8
REMARK VINA RESULT:    -3.828     12.235     15.052
REMARK INTER + INTRA:          -8.359
REMARK INTER:                  -6.799
REMARK INTRA:                  -1.560
REMARK UNBOUND:                -0.950
REMARK SMILES CCCCCCCCCCCCCCCCCC(=O)[O-]
REMARK SMILES IDX 10 1 11 2 12 3 13 4 14 5 15 6 16 7 17 8 18 9 19 10 20 11
REMARK SMILES IDX 9 12 8 13 7 14 6 15 5 16 4 17 3 18 2 19 1 20
REMARK H PARENT
REMARK Flexibility Score: inf
ROOT
ATOM      1  C   UNL     1      84.506 124.640 127.295  1.00  0.00     0.000 C 
ENDROOT
BRANCH   1   2
ATOM      2  C   UNL     1      85.540 123.525 127.560  1.00  0.00     0.000 C 
BRANCH   2   3
ATOM      3  C   UNL     1      84.869 122.192 127.940  1.00  0.00     0.000 C 
BRANCH   3   4
ATOM      4  C   UNL     1      84.498 121.344 126.714  1.00  0.00     0.000 C 
BRANCH   4   5
ATOM      5  C   UNL     1      84.413 119.846 127.037  1.00  0.00     0.000 C 
BRANCH   5   6
ATOM      6  C   UNL     1      83.370 119.150 126.147  1.00  0.00     0.000 C 
BRANCH   6   7
ATOM      7  C   UNL     1      82.479 120.146 125.388  1.00  0.00     0.006 C 
BRANCH   7   8
ATOM      8  C   UNL     1      82.474 119.902 123.873  1.00  0.00     0.053 C 
BRANCH   8   9
ATOM      9  C   UNL     1      82.554 121.199 123.131  1.00  0.00     0.041 C 
ATOM     10  O   UNL     1      82.572 121.209 121.873  1.00  0.00    -0.550 OA
ATOM     11  O   UNL     1      82.559 122.400 123.830  1.00  0.00    -0.550 OA
ENDBRANCH   8   9
ENDBRANCH   7   8
ENDBRANCH   6   7
ENDBRANCH   5   6
ENDBRANCH   4   5
ENDBRANCH   3   4
ENDBRANCH   2   3
ENDBRANCH   1   2
BRANCH   1  12
ATOM     12  C   UNL     1      83.225 124.507 128.137  1.00  0.00     0.000 C 
BRANCH  12  13
ATOM     13  C   UNL     1      83.303 125.277 129.465  1.00  0.00    -0.000 C 
BRANCH  13  14
ATOM     14  C   UNL     1      82.280 124.786 130.505  1.00  0.00    -0.000 C 
BRANCH  14  15
ATOM     15  C   UNL     1      82.342 123.281 130.825  1.00  0.00    -0.000 C 
BRANCH  15  16
ATOM     16  C   UNL     1      83.321 122.948 131.960  1.00  0.00    -0.000 C 
BRANCH  16  17
ATOM     17  C   UNL     1      84.445 122.028 131.462  1.00  0.00    -0.000 C 
BRANCH  17  18
ATOM     18  C   UNL     1      85.321 121.476 132.602  1.00  0.00    -0.000 C 
BRANCH  18  19
ATOM     19  C   UNL     1      86.425 120.502 132.155  1.00  0.00    -0.003 C 
ATOM     20  C   UNL     1      86.988 120.829 130.774  1.00  0.00     0.004 C 
ENDBRANCH  18  19
ENDBRANCH  17  18
ENDBRANCH  16  17
ENDBRANCH  15  16
ENDBRANCH  14  15
ENDBRANCH  13  14
ENDBRANCH  12  13
ENDBRANCH   1  12
TORSDOF 16
ENDMDL
