MODEL 1
REMARK VINA RESULT:    -3.536      0.000      0.000
REMARK INTER + INTRA:          -4.440
REMARK INTER:                  -4.983
REMARK INTRA:                   0.543
REMARK UNBOUND:                 0.543
REMARK SMILES CC1=CCC(=C(C)C)C(=O)CC(C)=CCC1
REMARK SMILES IDX 12 1 14 2 13 3 15 4 16 5 2 6 1 7 3 8 11 10 9 11 10 12 5 13
REMARK SMILES IDX 6 14 7 15 8 16 4 17
REMARK H PARENT
REMARK Flexibility Score: 60.00
ROOT
ATOM      1  C   UNL     1       1.009 -15.417   9.659  1.00  0.00    -0.070 C 
ATOM      2  C   UNL     1       2.051 -16.196  10.023  1.00  0.00    -0.027 C 
ATOM      3  C   UNL     1       0.155 -15.874   8.504  1.00  0.00     0.039 C 
ENDROOT
BRANCH   2   4
ATOM      4  C   UNL     1       2.959 -15.960  11.210  1.00  0.00     0.032 C 
BRANCH   4   5
ATOM      5  C   UNL     1       4.403 -15.551  10.849  1.00  0.00     0.034 C 
BRANCH   5   6
ATOM      6  C   UNL     1       4.639 -14.053  10.936  1.00  0.00    -0.077 C 
ATOM      7  C   UNL     1       5.347 -13.525  12.158  1.00  0.00     0.039 C 
ATOM      8  C   UNL     1       4.318 -13.172   9.958  1.00  0.00    -0.023 CG0
ATOM      9  G   UNL     1       3.592 -13.468   8.661  1.00  0.00     0.000 G0
ENDBRANCH   5   6
ENDBRANCH   4   5
ENDBRANCH   2   4
BRANCH   1  10
ATOM     10  C   UNL     1       0.607 -14.164  10.410  1.00  0.00     0.111 C 
BRANCH  10  11
ATOM     11  C   UNL     1       1.408 -12.968   9.966  1.00  0.00     0.163 C 
ATOM     12  O   UNL     1       1.487 -11.983  10.748  1.00  0.00    -0.294 OA
BRANCH  11  13
ATOM     13  C   UNL     1       2.155 -12.939   8.673  1.00  0.00    -0.002 C 
ATOM     14  C   UNL     1       1.603 -12.369   7.561  1.00  0.00    -0.069 C 
ATOM     15  C   UNL     1       2.391 -12.182   6.283  1.00  0.00     0.039 C 
ATOM     16  C   UNL     1       0.168 -11.892   7.553  1.00  0.00     0.039 C 
BRANCH  13  17
ATOM     17  C   UNL     1       3.576 -13.480   8.679  1.00  0.00     0.066 CG0
ATOM     18  G   UNL     1       4.305 -13.173   9.971  1.00  0.00     0.000 G0
ENDBRANCH  13  17
ENDBRANCH  11  13
ENDBRANCH  10  11
ENDBRANCH   1  10
TORSDOF 0
ENDMDL
MODEL 2
REMARK VINA RESULT:    -3.325      1.710      3.678
REMARK INTER + INTRA:          -4.142
REMARK INTER:                  -4.575
REMARK INTRA:                   0.433
REMARK UNBOUND:                 0.543
REMARK SMILES CC1=CCC(=C(C)C)C(=O)CC(C)=CCC1
REMARK SMILES IDX 12 1 14 2 13 3 15 4 16 5 2 6 1 7 3 8 11 10 9 11 10 12 5 13
REMARK SMILES IDX 6 14 7 15 8 16 4 17
REMARK H PARENT
REMARK Flexibility Score: 60.00
ROOT
ATOM      1  C   UNL     1       1.020 -12.885   8.320  1.00  0.00    -0.070 C 
ATOM      2  C   UNL     1       0.314 -13.835   8.973  1.00  0.00    -0.027 C 
ATOM      3  C   UNL     1       0.402 -12.266   7.092  1.00  0.00     0.039 C 
ENDROOT
BRANCH   2   4
ATOM      4  C   UNL     1       0.717 -14.500  10.271  1.00  0.00     0.032 C 
BRANCH   4   5
ATOM      5  C   UNL     1       1.254 -15.939  10.121  1.00  0.00     0.034 C 
BRANCH   5   6
ATOM      6  C   UNL     1       2.515 -16.194  10.927  1.00  0.00    -0.077 C 
ATOM      7  C   UNL     1       2.356 -16.761  12.317  1.00  0.00     0.039 C 
ATOM      8  C   UNL     1       3.773 -16.013  10.456  1.00  0.00    -0.023 CG0
ATOM      9  G   UNL     1       4.171 -15.443   9.110  1.00  0.00     0.000 G0
ENDBRANCH   5   6
ENDBRANCH   4   5
ENDBRANCH   2   4
BRANCH   1  10
ATOM     10  C   UNL     1       2.350 -12.352   8.812  1.00  0.00     0.111 C 
BRANCH  10  11
ATOM     11  C   UNL     1       3.506 -13.130   8.241  1.00  0.00     0.163 C 
ATOM     12  O   UNL     1       3.739 -13.027   7.006  1.00  0.00    -0.294 OA
BRANCH  11  13
ATOM     13  C   UNL     1       4.413 -13.958   9.090  1.00  0.00    -0.002 C 
ATOM     14  C   UNL     1       5.352 -13.370   9.890  1.00  0.00    -0.069 C 
ATOM     15  C   UNL     1       6.175 -14.168  10.878  1.00  0.00     0.039 C 
ATOM     16  C   UNL     1       5.613 -11.882   9.830  1.00  0.00     0.039 C 
BRANCH  13  17
ATOM     17  C   UNL     1       4.181 -15.461   9.095  1.00  0.00     0.066 CG0
ATOM     18  G   UNL     1       3.784 -15.979  10.462  1.00  0.00     0.000 G0
ENDBRANCH  13  17
ENDBRANCH  11  13
ENDBRANCH  10  11
ENDBRANCH   1  10
TORSDOF 0
ENDMDL
MODEL 3
REMARK VINA RESULT:    -3.306      1.554      2.755
REMARK INTER + INTRA:          -4.116
REMARK INTER:                  -4.289
REMARK INTRA:                   0.173
REMARK UNBOUND:                 0.543
REMARK SMILES CC1=CCC(=C(C)C)C(=O)CC(C)=CCC1
REMARK SMILES IDX 12 1 14 2 13 3 15 4 16 5 2 6 1 7 3 8 11 10 9 11 10 12 5 13
REMARK SMILES IDX 6 14 7 15 8 16 4 17
REMARK H PARENT
REMARK Flexibility Score: 60.00
ROOT
ATOM      1  C   UNL     1       2.906 -16.582  12.490  1.00  0.00    -0.070 C 
ATOM      2  C   UNL     1       4.181 -16.224  12.762  1.00  0.00    -0.027 C 
ATOM      3  C   UNL     1       2.125 -17.285  13.571  1.00  0.00     0.039 C 
ENDROOT
BRANCH   2   4
ATOM      4  C   UNL     1       5.089 -15.429  11.850  1.00  0.00     0.032 C 
BRANCH   4   5
ATOM      5  C   UNL     1       4.840 -13.906  11.857  1.00  0.00     0.034 C 
BRANCH   5   6
ATOM      6  C   UNL     1       4.885 -13.287  10.471  1.00  0.00    -0.077 C 
ATOM      7  C   UNL     1       6.208 -13.289   9.745  1.00  0.00     0.039 C 
ATOM      8  C   UNL     1       3.803 -12.798   9.817  1.00  0.00    -0.023 CG0
ATOM      9  G   UNL     1       2.390 -12.677  10.351  1.00  0.00     0.000 G0
ENDBRANCH   5   6
ENDBRANCH   4   5
ENDBRANCH   2   4
BRANCH   1  10
ATOM     10  C   UNL     1       2.202 -16.230  11.196  1.00  0.00     0.111 C 
BRANCH  10  11
ATOM     11  C   UNL     1       1.521 -14.889  11.281  1.00  0.00     0.163 C 
ATOM     12  O   UNL     1       0.972 -14.569  12.369  1.00  0.00    -0.294 OA
BRANCH  11  13
ATOM     13  C   UNL     1       1.531 -13.912  10.151  1.00  0.00    -0.002 C 
ATOM     14  C   UNL     1       0.756 -14.117   9.044  1.00  0.00    -0.069 C 
ATOM     15  C   UNL     1       0.622 -13.074   7.957  1.00  0.00     0.039 C 
ATOM     16  C   UNL     1      -0.015 -15.405   8.852  1.00  0.00     0.039 C 
BRANCH  13  17
ATOM     17  C   UNL     1       2.360 -12.650  10.329  1.00  0.00     0.066 CG0
ATOM     18  G   UNL     1       3.777 -12.814   9.820  1.00  0.00     0.000 G0
ENDBRANCH  13  17
ENDBRANCH  11  13
ENDBRANCH  10  11
ENDBRANCH   1  10
TORSDOF 0
ENDMDL
MODEL 4
REMARK VINA RESULT:    -3.127      1.953      3.783
REMARK INTER + INTRA:          -3.863
REMARK INTER:                  -4.187
REMARK INTRA:                   0.324
REMARK UNBOUND:                 0.543
REMARK SMILES CC1=CCC(=C(C)C)C(=O)CC(C)=CCC1
REMARK SMILES IDX 12 1 14 2 13 3 15 4 16 5 2 6 1 7 3 8 11 10 9 11 10 12 5 13
REMARK SMILES IDX 6 14 7 15 8 16 4 17
REMARK H PARENT
REMARK Flexibility Score: 60.00
ROOT
ATOM      1  C   UNL     1       2.525 -12.693   8.070  1.00  0.00    -0.070 C 
ATOM      2  C   UNL     1       3.709 -13.260   7.749  1.00  0.00    -0.027 C 
ATOM      3  C   UNL     1       1.620 -12.264   6.942  1.00  0.00     0.039 C 
ENDROOT
BRANCH   2   4
ATOM      4  C   UNL     1       4.704 -13.841   8.730  1.00  0.00     0.032 C 
BRANCH   4   5
ATOM      5  C   UNL     1       4.462 -15.320   9.096  1.00  0.00     0.034 C 
BRANCH   5   6
ATOM      6  C   UNL     1       4.720 -15.623  10.562  1.00  0.00    -0.077 C 
ATOM      7  C   UNL     1       6.154 -15.648  11.031  1.00  0.00     0.039 C 
ATOM      8  C   UNL     1       3.747 -15.804  11.487  1.00  0.00    -0.023 CG0
ATOM      9  G   UNL     1       2.251 -15.840  11.246  1.00  0.00     0.000 G0
ENDBRANCH   5   6
ENDBRANCH   4   5
ENDBRANCH   2   4
BRANCH   1  10
ATOM     10  C   UNL     1       2.027 -12.554   9.494  1.00  0.00     0.111 C 
BRANCH  10  11
ATOM     11  C   UNL     1       1.327 -13.803   9.962  1.00  0.00     0.163 C 
ATOM     12  O   UNL     1       0.494 -14.343   9.185  1.00  0.00    -0.294 OA
BRANCH  11  13
ATOM     13  C   UNL     1       1.629 -14.447  11.274  1.00  0.00    -0.002 C 
ATOM     14  C   UNL     1       1.282 -13.839  12.448  1.00  0.00    -0.069 C 
ATOM     15  C   UNL     1       1.431 -14.534  13.784  1.00  0.00     0.039 C 
ATOM     16  C   UNL     1       0.726 -12.433  12.469  1.00  0.00     0.039 C 
BRANCH  13  17
ATOM     17  C   UNL     1       2.247 -15.837  11.241  1.00  0.00     0.066 CG0
ATOM     18  G   UNL     1       3.738 -15.811  11.512  1.00  0.00     0.000 G0
ENDBRANCH  13  17
ENDBRANCH  11  13
ENDBRANCH  10  11
ENDBRANCH   1  10
TORSDOF 0
ENDMDL
MODEL 5
REMARK VINA RESULT:    -3.119      1.526      4.134
REMARK INTER + INTRA:          -3.852
REMARK INTER:                  -4.473
REMARK INTRA:                   0.621
REMARK UNBOUND:                 0.543
REMARK SMILES CC1=CCC(=C(C)C)C(=O)CC(C)=CCC1
REMARK SMILES IDX 12 1 14 2 13 3 15 4 16 5 2 6 1 7 3 8 11 10 9 11 10 12 5 13
REMARK SMILES IDX 6 14 7 15 8 16 4 17
REMARK H PARENT
REMARK Flexibility Score: 60.00
ROOT
ATOM      1  C   UNL     1       0.633 -15.525   9.374  1.00  0.00    -0.070 C 
ATOM      2  C   UNL     1       0.244 -14.342   8.850  1.00  0.00    -0.027 C 
ATOM      3  C   UNL     1       0.326 -16.778   8.594  1.00  0.00     0.039 C 
ENDROOT
BRANCH   2   4
ATOM      4  C   UNL     1       0.545 -12.977   9.430  1.00  0.00     0.032 C 
BRANCH   4   5
ATOM      5  C   UNL     1       1.221 -11.994   8.452  1.00  0.00     0.034 C 
BRANCH   5   6
ATOM      6  C   UNL     1       2.662 -12.357   8.140  1.00  0.00    -0.077 C 
ATOM      7  C   UNL     1       3.113 -12.267   6.703  1.00  0.00     0.039 C 
ATOM      8  C   UNL     1       3.586 -12.687   9.075  1.00  0.00    -0.023 CG0
ATOM      9  G   UNL     1       3.360 -12.857  10.564  1.00  0.00     0.000 G0
ENDBRANCH   5   6
ENDBRANCH   4   5
ENDBRANCH   2   4
BRANCH   1  10
ATOM     10  C   UNL     1       1.439 -15.644  10.652  1.00  0.00     0.111 C 
BRANCH  10  11
ATOM     11  C   UNL     1       2.905 -15.397  10.409  1.00  0.00     0.163 C 
ATOM     12  O   UNL     1       3.504 -16.143   9.588  1.00  0.00    -0.294 OA
BRANCH  11  13
ATOM     13  C   UNL     1       3.646 -14.273  11.054  1.00  0.00    -0.002 C 
ATOM     14  C   UNL     1       4.619 -14.518  11.981  1.00  0.00    -0.069 C 
ATOM     15  C   UNL     1       5.495 -13.414  12.534  1.00  0.00     0.039 C 
ATOM     16  C   UNL     1       4.874 -15.915  12.501  1.00  0.00     0.039 C 
BRANCH  13  17
ATOM     17  C   UNL     1       3.336 -12.866  10.567  1.00  0.00     0.066 CG0
ATOM     18  G   UNL     1       3.599 -12.698   9.084  1.00  0.00     0.000 G0
ENDBRANCH  13  17
ENDBRANCH  11  13
ENDBRANCH  10  11
ENDBRANCH   1  10
TORSDOF 0
ENDMDL
MODEL 6
REMARK VINA RESULT:    -3.101     14.638     16.581
REMARK INTER + INTRA:          -3.827
REMARK INTER:                  -4.051
REMARK INTRA:                   0.224
REMARK UNBOUND:                 0.543
REMARK SMILES CC1=CCC(=C(C)C)C(=O)CC(C)=CCC1
REMARK SMILES IDX 12 1 14 2 13 3 15 4 16 5 2 6 1 7 3 8 11 10 9 11 10 12 5 13
REMARK SMILES IDX 6 14 7 15 8 16 4 17
REMARK H PARENT
REMARK Flexibility Score: 60.00
ROOT
ATOM      1  C   UNL     1      -1.527 -30.650   8.558  1.00  0.00    -0.070 C 
ATOM      2  C   UNL     1      -0.235 -30.268   8.667  1.00  0.00    -0.027 C 
ATOM      3  C   UNL     1      -1.822 -31.938   7.831  1.00  0.00     0.039 C 
ENDROOT
BRANCH   2   4
ATOM      4  C   UNL     1       0.268 -29.067   9.438  1.00  0.00     0.032 C 
BRANCH   4   5
ATOM      5  C   UNL     1       0.390 -29.281  10.961  1.00  0.00     0.034 C 
BRANCH   5   6
ATOM      6  C   UNL     1      -0.117 -28.103  11.773  1.00  0.00    -0.077 C 
ATOM      7  C   UNL     1       0.647 -26.805  11.679  1.00  0.00     0.039 C 
ATOM      8  C   UNL     1      -1.248 -28.120  12.520  1.00  0.00    -0.023 CG0
ATOM      9  G   UNL     1      -2.158 -29.304  12.774  1.00  0.00     0.000 G0
ENDBRANCH   5   6
ENDBRANCH   4   5
ENDBRANCH   2   4
BRANCH   1  10
ATOM     10  C   UNL     1      -2.674 -29.902   9.205  1.00  0.00     0.111 C 
BRANCH  10  11
ATOM     11  C   UNL     1      -2.941 -30.395  10.603  1.00  0.00     0.163 C 
ATOM     12  O   UNL     1      -2.857 -31.634  10.821  1.00  0.00    -0.294 OA
BRANCH  11  13
ATOM     13  C   UNL     1      -3.237 -29.470  11.737  1.00  0.00    -0.002 C 
ATOM     14  C   UNL     1      -4.462 -28.874  11.851  1.00  0.00    -0.069 C 
ATOM     15  C   UNL     1      -4.845 -28.060  13.067  1.00  0.00     0.039 C 
ATOM     16  C   UNL     1      -5.502 -29.003  10.760  1.00  0.00     0.039 C 
BRANCH  13  17
ATOM     17  C   UNL     1      -2.159 -29.299  12.795  1.00  0.00     0.066 CG0
ATOM     18  G   UNL     1      -1.258 -28.113  12.515  1.00  0.00     0.000 G0
ENDBRANCH  13  17
ENDBRANCH  11  13
ENDBRANCH  10  11
ENDBRANCH   1  10
TORSDOF 0
ENDMDL
MODEL 7
REMARK VINA RESULT:    -2.970      1.910      4.161
REMARK INTER + INTRA:          -3.642
REMARK INTER:                  -3.943
REMARK INTRA:                   0.301
REMARK UNBOUND:                 0.543
REMARK SMILES CC1=CCC(=C(C)C)C(=O)CC(C)=CCC1
REMARK SMILES IDX 12 1 14 2 13 3 15 4 16 5 2 6 1 7 3 8 11 10 9 11 10 12 5 13
REMARK SMILES IDX 6 14 7 15 8 16 4 17
REMARK H PARENT
REMARK Flexibility Score: 60.00
ROOT
ATOM      1  C   UNL     1       0.976 -14.262   9.332  1.00  0.00    -0.070 C 
ATOM      2  C   UNL     1       1.653 -13.290   8.684  1.00  0.00    -0.027 C 
ATOM      3  C   UNL     1      -0.171 -14.925   8.611  1.00  0.00     0.039 C 
ENDROOT
BRANCH   2   4
ATOM      4  C   UNL     1       2.887 -12.579   9.197  1.00  0.00     0.032 C 
BRANCH   4   5
ATOM      5  C   UNL     1       4.212 -13.336   8.967  1.00  0.00     0.034 C 
BRANCH   5   6
ATOM      6  C   UNL     1       5.173 -13.228  10.137  1.00  0.00    -0.077 C 
ATOM      7  C   UNL     1       5.781 -11.877  10.423  1.00  0.00     0.039 C 
ATOM      8  C   UNL     1       5.466 -14.246  10.982  1.00  0.00    -0.023 CG0
ATOM      9  G   UNL     1       4.991 -15.682  10.882  1.00  0.00     0.000 G0
ENDBRANCH   5   6
ENDBRANCH   4   5
ENDBRANCH   2   4
BRANCH   1  10
ATOM     10  C   UNL     1       1.369 -14.779  10.701  1.00  0.00     0.111 C 
BRANCH  10  11
ATOM     11  C   UNL     1       2.423 -15.851  10.608  1.00  0.00     0.163 C 
ATOM     12  O   UNL     1       2.319 -16.709   9.691  1.00  0.00    -0.294 OA
BRANCH  11  13
ATOM     13  C   UNL     1       3.606 -15.892  11.518  1.00  0.00    -0.002 C 
ATOM     14  C   UNL     1       3.457 -16.183  12.845  1.00  0.00    -0.069 C 
ATOM     15  C   UNL     1       4.647 -16.387  13.758  1.00  0.00     0.039 C 
ATOM     16  C   UNL     1       2.087 -16.318  13.471  1.00  0.00     0.039 C 
BRANCH  13  17
ATOM     17  C   UNL     1       4.976 -15.691  10.888  1.00  0.00     0.066 CG0
ATOM     18  G   UNL     1       5.455 -14.258  10.995  1.00  0.00     0.000 G0
ENDBRANCH  13  17
ENDBRANCH  11  13
ENDBRANCH  10  11
ENDBRANCH   1  10
TORSDOF 0
ENDMDL
MODEL 8
REMARK VINA RESULT:    -2.850     15.791     17.686
REMARK INTER + INTRA:          -3.473
REMARK INTER:                  -3.655
REMARK INTRA:                   0.182
REMARK UNBOUND:                 0.543
REMARK SMILES CC1=CCC(=C(C)C)C(=O)CC(C)=CCC1
REMARK SMILES IDX 12 1 14 2 13 3 15 4 16 5 2 6 1 7 3 8 11 10 9 11 10 12 5 13
REMARK SMILES IDX 6 14 7 15 8 16 4 17
REMARK H PARENT
REMARK Flexibility Score: 60.00
ROOT
ATOM      1  C   UNL     1      -5.859 -29.381  11.361  1.00  0.00    -0.070 C 
ATOM      2  C   UNL     1      -5.480 -28.866  12.551  1.00  0.00    -0.027 C 
ATOM      3  C   UNL     1      -7.316 -29.720  11.170  1.00  0.00     0.039 C 
ENDROOT
BRANCH   2   4
ATOM      4  C   UNL     1      -4.092 -28.374  12.899  1.00  0.00     0.032 C 
BRANCH   4   5
ATOM      5  C   UNL     1      -3.055 -29.489  13.147  1.00  0.00     0.034 C 
BRANCH   5   6
ATOM      6  C   UNL     1      -1.772 -29.299  12.357  1.00  0.00    -0.077 C 
ATOM      7  C   UNL     1      -0.928 -28.089  12.672  1.00  0.00     0.039 C 
ATOM      8  C   UNL     1      -1.302 -30.178  11.439  1.00  0.00    -0.023 CG0
ATOM      9  G   UNL     1      -1.982 -31.442  10.952  1.00  0.00     0.000 G0
ENDBRANCH   5   6
ENDBRANCH   4   5
ENDBRANCH   2   4
BRANCH   1  10
ATOM     10  C   UNL     1      -4.915 -29.547  10.188  1.00  0.00     0.111 C 
BRANCH  10  11
ATOM     11  C   UNL     1      -4.352 -30.942  10.119  1.00  0.00     0.163 C 
ATOM     12  O   UNL     1      -5.139 -31.909  10.305  1.00  0.00    -0.294 OA
BRANCH  11  13
ATOM     13  C   UNL     1      -2.924 -31.214   9.780  1.00  0.00    -0.002 C 
ATOM     14  C   UNL     1      -2.491 -31.163   8.485  1.00  0.00    -0.069 C 
ATOM     15  C   UNL     1      -1.026 -31.276   8.126  1.00  0.00     0.039 C 
ATOM     16  C   UNL     1      -3.462 -30.985   7.339  1.00  0.00     0.039 C 
BRANCH  13  17
ATOM     17  C   UNL     1      -1.967 -31.454  10.938  1.00  0.00     0.066 CG0
ATOM     18  G   UNL     1      -1.304 -30.177  11.412  1.00  0.00     0.000 G0
ENDBRANCH  13  17
ENDBRANCH  11  13
ENDBRANCH  10  11
ENDBRANCH   1  10
TORSDOF 0
ENDMDL
MODEL 9
REMARK VINA RESULT:    -2.814      4.698      6.403
REMARK INTER + INTRA:          -3.423
REMARK INTER:                  -3.539
REMARK INTRA:                   0.116
REMARK UNBOUND:                 0.543
REMARK SMILES CC1=CCC(=C(C)C)C(=O)CC(C)=CCC1
REMARK SMILES IDX 12 1 14 2 13 3 15 4 16 5 2 6 1 7 3 8 11 10 9 11 10 12 5 13
REMARK SMILES IDX 6 14 7 15 8 16 4 17
REMARK H PARENT
REMARK Flexibility Score: 60.00
ROOT
ATOM      1  C   UNL     1       1.131 -18.339  14.883  1.00  0.00    -0.070 C 
ATOM      2  C   UNL     1       1.671 -19.391  15.536  1.00  0.00    -0.027 C 
ATOM      3  C   UNL     1      -0.099 -17.695  15.474  1.00  0.00     0.039 C 
ENDROOT
BRANCH   2   4
ATOM      4  C   UNL     1       2.951 -20.104  15.159  1.00  0.00     0.032 C 
BRANCH   4   5
ATOM      5  C   UNL     1       4.233 -19.497  15.768  1.00  0.00     0.034 C 
BRANCH   5   6
ATOM      6  C   UNL     1       5.364 -19.360  14.764  1.00  0.00    -0.077 C 
ATOM      7  C   UNL     1       6.092 -20.615  14.351  1.00  0.00     0.039 C 
ATOM      8  C   UNL     1       5.715 -18.196  14.164  1.00  0.00    -0.023 CG0
ATOM      9  G   UNL     1       5.142 -16.820  14.432  1.00  0.00     0.000 G0
ENDBRANCH   5   6
ENDBRANCH   4   5
ENDBRANCH   2   4
BRANCH   1  10
ATOM     10  C   UNL     1       1.750 -17.722  13.645  1.00  0.00     0.111 C 
BRANCH  10  11
ATOM     11  C   UNL     1       2.633 -16.552  13.990  1.00  0.00     0.163 C 
ATOM     12  O   UNL     1       2.183 -15.681  14.783  1.00  0.00    -0.294 OA
BRANCH  11  13
ATOM     13  C   UNL     1       4.031 -16.424  13.479  1.00  0.00    -0.002 C 
ATOM     14  C   UNL     1       4.276 -15.910  12.237  1.00  0.00    -0.069 C 
ATOM     15  C   UNL     1       5.681 -15.621  11.754  1.00  0.00     0.039 C 
ATOM     16  C   UNL     1       3.148 -15.598  11.279  1.00  0.00     0.039 C 
BRANCH  13  17
ATOM     17  C   UNL     1       5.156 -16.801  14.430  1.00  0.00     0.066 CG0
ATOM     18  G   UNL     1       5.695 -18.191  14.164  1.00  0.00     0.000 G0
ENDBRANCH  13  17
ENDBRANCH  11  13
ENDBRANCH  10  11
ENDBRANCH   1  10
TORSDOF 0
ENDMDL
