MODEL 1
REMARK VINA RESULT:    -3.335      0.000      0.000
REMARK INTER + INTRA:          -7.672
REMARK INTER:                  -5.772
REMARK INTRA:                  -1.900
REMARK UNBOUND:                -1.900
REMARK SMILES CCCCCCCCCCCCCCO
REMARK SMILES IDX 8 1 7 2 6 3 5 4 4 5 3 6 2 7 1 8 9 9 10 10 11 11 12 12 13 13
REMARK SMILES IDX 14 14 15 15
REMARK H PARENT 15 16
REMARK Flexibility Score: inf
ROOT
ATOM      1  C   UNL     1     -10.462  27.660 -35.902  1.00  0.00     0.000 C 
ENDROOT
BRANCH   1   2
ATOM      2  C   UNL     1     -10.035  28.743 -36.915  1.00  0.00    -0.000 C 
BRANCH   2   3
ATOM      3  C   UNL     1     -11.174  29.310 -37.784  1.00  0.00    -0.000 C 
BRANCH   3   4
ATOM      4  C   UNL     1     -11.442  28.535 -39.090  1.00  0.00    -0.000 C 
BRANCH   4   5
ATOM      5  C   UNL     1     -12.839  27.893 -39.188  1.00  0.00    -0.000 C 
BRANCH   5   6
ATOM      6  C   UNL     1     -12.882  26.376 -38.914  1.00  0.00    -0.000 C 
BRANCH   6   7
ATOM      7  C   UNL     1     -13.330  25.987 -37.495  1.00  0.00    -0.003 C 
ATOM      8  C   UNL     1     -14.051  27.120 -36.766  1.00  0.00     0.004 C 
ENDBRANCH   6   7
ENDBRANCH   5   6
ENDBRANCH   4   5
ENDBRANCH   3   4
ENDBRANCH   2   3
ENDBRANCH   1   2
BRANCH   1   9
ATOM      9  C   UNL     1      -9.827  26.275 -36.125  1.00  0.00     0.000 C 
BRANCH   9  10
ATOM     10  C   UNL     1      -9.318  26.076 -37.560  1.00  0.00     0.000 C 
BRANCH  10  11
ATOM     11  C   UNL     1      -9.659  24.669 -38.073  1.00  0.00     0.000 C 
BRANCH  11  12
ATOM     12  C   UNL     1     -10.260  23.770 -36.981  1.00  0.00     0.002 C 
BRANCH  12  13
ATOM     13  C   UNL     1      -9.325  22.616 -36.584  1.00  0.00     0.028 C 
BRANCH  13  14
ATOM     14  C   UNL     1      -8.772  22.798 -35.170  1.00  0.00     0.156 C 
BRANCH  14  15
ATOM     15  O   UNL     1      -7.452  22.330 -35.104  1.00  0.00    -0.396 OA
ATOM     16  H   UNL     1      -7.379  21.834 -34.248  1.00  0.00     0.210 HD
ENDBRANCH  14  15
ENDBRANCH  13  14
ENDBRANCH  12  13
ENDBRANCH  11  12
ENDBRANCH  10  11
ENDBRANCH   9  10
ENDBRANCH   1   9
TORSDOF 13
ENDMDL
MODEL 2
REMARK VINA RESULT:    -3.264      3.201      5.490
REMARK INTER + INTRA:          -7.548
REMARK INTER:                  -6.512
REMARK INTRA:                  -1.037
REMARK UNBOUND:                -1.900
REMARK SMILES CCCCCCCCCCCCCCO
REMARK SMILES IDX 8 1 7 2 6 3 5 4 4 5 3 6 2 7 1 8 9 9 10 10 11 11 12 12 13 13
REMARK SMILES IDX 14 14 15 15
REMARK H PARENT 15 16
REMARK Flexibility Score: inf
ROOT
ATOM      1  C   UNL     1     -12.704  30.102 -39.285  1.00  0.00     0.000 C 
ENDROOT
BRANCH   1   2
ATOM      2  C   UNL     1     -12.842  31.547 -38.765  1.00  0.00    -0.000 C 
BRANCH   2   3
ATOM      3  C   UNL     1     -12.250  31.797 -37.365  1.00  0.00    -0.000 C 
BRANCH   3   4
ATOM      4  C   UNL     1     -10.909  32.558 -37.354  1.00  0.00    -0.000 C 
BRANCH   4   5
ATOM      5  C   UNL     1      -9.781  31.875 -36.556  1.00  0.00    -0.000 C 
BRANCH   5   6
ATOM      6  C   UNL     1      -8.360  32.391 -36.861  1.00  0.00    -0.000 C 
BRANCH   6   7
ATOM      7  C   UNL     1      -8.297  33.821 -37.425  1.00  0.00    -0.003 C 
ATOM      8  C   UNL     1      -7.943  34.863 -36.365  1.00  0.00     0.004 C 
ENDBRANCH   6   7
ENDBRANCH   5   6
ENDBRANCH   4   5
ENDBRANCH   3   4
ENDBRANCH   2   3
ENDBRANCH   1   2
BRANCH   1   9
ATOM      9  C   UNL     1     -12.420  29.046 -38.200  1.00  0.00     0.000 C 
BRANCH   9  10
ATOM     10  C   UNL     1     -11.143  28.238 -38.474  1.00  0.00     0.000 C 
BRANCH  10  11
ATOM     11  C   UNL     1     -10.114  28.443 -37.353  1.00  0.00     0.000 C 
BRANCH  11  12
ATOM     12  C   UNL     1     -10.558  27.822 -36.019  1.00  0.00     0.002 C 
BRANCH  12  13
ATOM     13  C   UNL     1     -10.200  26.331 -35.912  1.00  0.00     0.028 C 
BRANCH  13  14
ATOM     14  C   UNL     1      -9.244  26.061 -34.748  1.00  0.00     0.156 C 
BRANCH  14  15
ATOM     15  O   UNL     1      -9.970  25.750 -33.590  1.00  0.00    -0.396 OA
ATOM     16  H   UNL     1     -10.813  25.328 -33.899  1.00  0.00     0.210 HD
ENDBRANCH  14  15
ENDBRANCH  13  14
ENDBRANCH  12  13
ENDBRANCH  11  12
ENDBRANCH  10  11
ENDBRANCH   9  10
ENDBRANCH   1   9
TORSDOF 13
ENDMDL
MODEL 3
REMARK VINA RESULT:    -3.178      4.245      6.436
REMARK INTER + INTRA:          -7.400
REMARK INTER:                  -6.776
REMARK INTRA:                  -0.625
REMARK UNBOUND:                -1.900
REMARK SMILES CCCCCCCCCCCCCCO
REMARK SMILES IDX 8 1 7 2 6 3 5 4 4 5 3 6 2 7 1 8 9 9 10 10 11 11 12 12 13 13
REMARK SMILES IDX 14 14 15 15
REMARK H PARENT 15 16
REMARK Flexibility Score: inf
ROOT
ATOM      1  C   UNL     1     -11.753  31.092 -37.843  1.00  0.00     0.000 C 
ENDROOT
BRANCH   1   2
ATOM      2  C   UNL     1     -10.528  31.206 -36.914  1.00  0.00    -0.000 C 
BRANCH   2   3
ATOM      3  C   UNL     1      -9.947  32.626 -36.769  1.00  0.00    -0.000 C 
BRANCH   3   4
ATOM      4  C   UNL     1      -8.410  32.692 -36.663  1.00  0.00    -0.000 C 
BRANCH   4   5
ATOM      5  C   UNL     1      -7.748  33.800 -37.505  1.00  0.00    -0.000 C 
BRANCH   5   6
ATOM      6  C   UNL     1      -7.868  35.223 -36.921  1.00  0.00    -0.000 C 
BRANCH   6   7
ATOM      7  C   UNL     1      -7.976  35.288 -35.388  1.00  0.00    -0.003 C 
ATOM      8  C   UNL     1      -7.111  36.388 -34.776  1.00  0.00     0.004 C 
ENDBRANCH   6   7
ENDBRANCH   5   6
ENDBRANCH   4   5
ENDBRANCH   3   4
ENDBRANCH   2   3
ENDBRANCH   1   2
BRANCH   1   9
ATOM      9  C   UNL     1     -12.425  29.707 -37.866  1.00  0.00     0.000 C 
BRANCH   9  10
ATOM     10  C   UNL     1     -11.601  28.656 -38.623  1.00  0.00     0.000 C 
BRANCH  10  11
ATOM     11  C   UNL     1     -11.261  27.466 -37.712  1.00  0.00     0.000 C 
BRANCH  11  12
ATOM     12  C   UNL     1     -10.011  27.714 -36.854  1.00  0.00     0.002 C 
BRANCH  12  13
ATOM     13  C   UNL     1     -10.281  27.536 -35.350  1.00  0.00     0.028 C 
BRANCH  13  14
ATOM     14  C   UNL     1      -9.739  26.203 -34.833  1.00  0.00     0.156 C 
BRANCH  14  15
ATOM     15  O   UNL     1     -10.260  25.932 -33.560  1.00  0.00    -0.396 OA
ATOM     16  H   UNL     1     -10.978  26.599 -33.409  1.00  0.00     0.210 HD
ENDBRANCH  14  15
ENDBRANCH  13  14
ENDBRANCH  12  13
ENDBRANCH  11  12
ENDBRANCH  10  11
ENDBRANCH   9  10
ENDBRANCH   1   9
TORSDOF 13
ENDMDL
MODEL 4
REMARK VINA RESULT:    -3.123      3.755      5.778
REMARK INTER + INTRA:          -7.305
REMARK INTER:                  -6.563
REMARK INTRA:                  -0.742
REMARK UNBOUND:                -1.900
REMARK SMILES CCCCCCCCCCCCCCO
REMARK SMILES IDX 8 1 7 2 6 3 5 4 4 5 3 6 2 7 1 8 9 9 10 10 11 11 12 12 13 13
REMARK SMILES IDX 14 14 15 15
REMARK H PARENT 15 16
REMARK Flexibility Score: inf
ROOT
ATOM      1  C   UNL     1     -11.478  29.964 -37.731  1.00  0.00     0.000 C 
ENDROOT
BRANCH   1   2
ATOM      2  C   UNL     1     -11.140  31.423 -37.365  1.00  0.00    -0.000 C 
BRANCH   2   3
ATOM      3  C   UNL     1      -9.925  31.598 -36.433  1.00  0.00    -0.000 C 
BRANCH   3   4
ATOM      4  C   UNL     1      -8.965  32.739 -36.823  1.00  0.00    -0.000 C 
BRANCH   4   5
ATOM      5  C   UNL     1      -9.152  34.046 -36.030  1.00  0.00    -0.000 C 
BRANCH   5   6
ATOM      6  C   UNL     1      -9.265  35.322 -36.889  1.00  0.00    -0.000 C 
BRANCH   6   7
ATOM      7  C   UNL     1      -9.786  35.096 -38.319  1.00  0.00    -0.003 C 
ATOM      8  C   UNL     1      -8.881  35.710 -39.386  1.00  0.00     0.004 C 
ENDBRANCH   6   7
ENDBRANCH   5   6
ENDBRANCH   4   5
ENDBRANCH   3   4
ENDBRANCH   2   3
ENDBRANCH   1   2
BRANCH   1   9
ATOM      9  C   UNL     1     -10.377  28.939 -37.400  1.00  0.00     0.000 C 
BRANCH   9  10
ATOM     10  C   UNL     1     -10.638  27.561 -38.025  1.00  0.00     0.000 C 
BRANCH  10  11
ATOM     11  C   UNL     1     -10.730  26.476 -36.941  1.00  0.00     0.000 C 
BRANCH  11  12
ATOM     12  C   UNL     1     -11.528  26.934 -35.711  1.00  0.00     0.002 C 
BRANCH  12  13
ATOM     13  C   UNL     1     -10.692  26.906 -34.420  1.00  0.00     0.028 C 
BRANCH  13  14
ATOM     14  C   UNL     1      -9.462  26.009 -34.562  1.00  0.00     0.156 C 
BRANCH  14  15
ATOM     15  O   UNL     1      -9.353  25.161 -33.451  1.00  0.00    -0.396 OA
ATOM     16  H   UNL     1      -8.583  25.497 -32.924  1.00  0.00     0.210 HD
ENDBRANCH  14  15
ENDBRANCH  13  14
ENDBRANCH  12  13
ENDBRANCH  11  12
ENDBRANCH  10  11
ENDBRANCH   9  10
ENDBRANCH   1   9
TORSDOF 13
ENDMDL
MODEL 5
REMARK VINA RESULT:    -3.102      4.715      6.737
REMARK INTER + INTRA:          -7.268
REMARK INTER:                  -6.662
REMARK INTRA:                  -0.605
REMARK UNBOUND:                -1.900
REMARK SMILES CCCCCCCCCCCCCCO
REMARK SMILES IDX 8 1 7 2 6 3 5 4 4 5 3 6 2 7 1 8 9 9 10 10 11 11 12 12 13 13
REMARK SMILES IDX 14 14 15 15
REMARK H PARENT 15 16
REMARK Flexibility Score: inf
ROOT
ATOM      1  C   UNL     1     -10.691  32.234 -36.876  1.00  0.00     0.000 C 
ENDROOT
BRANCH   1   2
ATOM      2  C   UNL     1      -9.268  32.341 -36.290  1.00  0.00    -0.000 C 
BRANCH   2   3
ATOM      3  C   UNL     1      -8.248  33.073 -37.183  1.00  0.00    -0.000 C 
BRANCH   3   4
ATOM      4  C   UNL     1      -7.980  34.541 -36.795  1.00  0.00    -0.000 C 
BRANCH   4   5
ATOM      5  C   UNL     1      -8.992  35.557 -37.359  1.00  0.00    -0.000 C 
BRANCH   5   6
ATOM      6  C   UNL     1      -9.230  35.465 -38.880  1.00  0.00    -0.000 C 
BRANCH   6   7
ATOM      7  C   UNL     1      -8.870  36.736 -39.670  1.00  0.00    -0.003 C 
ATOM      8  C   UNL     1      -8.841  36.508 -41.180  1.00  0.00     0.004 C 
ENDBRANCH   6   7
ENDBRANCH   5   6
ENDBRANCH   4   5
ENDBRANCH   3   4
ENDBRANCH   2   3
ENDBRANCH   1   2
BRANCH   1   9
ATOM      9  C   UNL     1     -11.085  30.831 -37.374  1.00  0.00     0.000 C 
BRANCH   9  10
ATOM     10  C   UNL     1     -10.061  29.752 -36.990  1.00  0.00     0.000 C 
BRANCH  10  11
ATOM     11  C   UNL     1     -10.758  28.417 -36.690  1.00  0.00     0.000 C 
BRANCH  11  12
ATOM     12  C   UNL     1      -9.914  27.201 -37.101  1.00  0.00     0.002 C 
BRANCH  12  13
ATOM     13  C   UNL     1      -9.712  26.204 -35.947  1.00  0.00     0.028 C 
BRANCH  13  14
ATOM     14  C   UNL     1     -10.077  26.821 -34.597  1.00  0.00     0.156 C 
BRANCH  14  15
ATOM     15  O   UNL     1     -10.171  25.821 -33.619  1.00  0.00    -0.396 OA
ATOM     16  H   UNL     1     -10.924  26.083 -33.029  1.00  0.00     0.210 HD
ENDBRANCH  14  15
ENDBRANCH  13  14
ENDBRANCH  12  13
ENDBRANCH  11  12
ENDBRANCH  10  11
ENDBRANCH   9  10
ENDBRANCH   1   9
TORSDOF 13
ENDMDL
MODEL 6
REMARK VINA RESULT:    -3.077      1.981      3.802
REMARK INTER + INTRA:          -7.224
REMARK INTER:                  -5.573
REMARK INTRA:                  -1.651
REMARK UNBOUND:                -1.900
REMARK SMILES CCCCCCCCCCCCCCO
REMARK SMILES IDX 8 1 7 2 6 3 5 4 4 5 3 6 2 7 1 8 9 9 10 10 11 11 12 12 13 13
REMARK SMILES IDX 14 14 15 15
REMARK H PARENT 15 16
REMARK Flexibility Score: inf
ROOT
ATOM      1  C   UNL     1     -13.352  25.408 -37.997  1.00  0.00     0.000 C 
ENDROOT
BRANCH   1   2
ATOM      2  C   UNL     1     -13.589  26.382 -36.825  1.00  0.00    -0.000 C 
BRANCH   2   3
ATOM      3  C   UNL     1     -13.685  27.868 -37.220  1.00  0.00    -0.000 C 
BRANCH   3   4
ATOM      4  C   UNL     1     -13.136  28.205 -38.621  1.00  0.00    -0.000 C 
BRANCH   4   5
ATOM      5  C   UNL     1     -11.731  28.837 -38.634  1.00  0.00    -0.000 C 
BRANCH   5   6
ATOM      6  C   UNL     1     -11.592  30.138 -37.817  1.00  0.00    -0.000 C 
BRANCH   6   7
ATOM      7  C   UNL     1     -10.401  30.168 -36.843  1.00  0.00    -0.003 C 
ATOM      8  C   UNL     1      -9.853  31.576 -36.617  1.00  0.00     0.004 C 
ENDBRANCH   6   7
ENDBRANCH   5   6
ENDBRANCH   4   5
ENDBRANCH   3   4
ENDBRANCH   2   3
ENDBRANCH   1   2
BRANCH   1   9
ATOM      9  C   UNL     1     -12.067  24.566 -37.893  1.00  0.00     0.000 C 
BRANCH   9  10
ATOM     10  C   UNL     1     -10.953  25.062 -38.826  1.00  0.00     0.000 C 
BRANCH  10  11
ATOM     11  C   UNL     1      -9.813  25.707 -38.024  1.00  0.00     0.000 C 
BRANCH  11  12
ATOM     12  C   UNL     1      -9.928  25.445 -36.514  1.00  0.00     0.002 C 
BRANCH  12  13
ATOM     13  C   UNL     1      -9.614  26.693 -35.672  1.00  0.00     0.028 C 
BRANCH  13  14
ATOM     14  C   UNL     1     -10.696  26.954 -34.623  1.00  0.00     0.156 C 
BRANCH  14  15
ATOM     15  O   UNL     1     -10.527  26.091 -33.531  1.00  0.00    -0.396 OA
ATOM     16  H   UNL     1     -11.265  26.298 -32.901  1.00  0.00     0.210 HD
ENDBRANCH  14  15
ENDBRANCH  13  14
ENDBRANCH  12  13
ENDBRANCH  11  12
ENDBRANCH  10  11
ENDBRANCH   9  10
ENDBRANCH   1   9
TORSDOF 13
ENDMDL
MODEL 7
REMARK VINA RESULT:    -3.022      1.967      3.765
REMARK INTER + INTRA:          -7.131
REMARK INTER:                  -5.411
REMARK INTRA:                  -1.719
REMARK UNBOUND:                -1.900
REMARK SMILES CCCCCCCCCCCCCCO
REMARK SMILES IDX 8 1 7 2 6 3 5 4 4 5 3 6 2 7 1 8 9 9 10 10 11 11 12 12 13 13
REMARK SMILES IDX 14 14 15 15
REMARK H PARENT 15 16
REMARK Flexibility Score: inf
ROOT
ATOM      1  C   UNL     1     -13.181  24.917 -37.199  1.00  0.00     0.000 C 
ENDROOT
BRANCH   1   2
ATOM      2  C   UNL     1     -14.253  26.012 -37.380  1.00  0.00    -0.000 C 
BRANCH   2   3
ATOM      3  C   UNL     1     -13.838  27.417 -36.902  1.00  0.00    -0.000 C 
BRANCH   3   4
ATOM      4  C   UNL     1     -14.213  28.566 -37.858  1.00  0.00    -0.000 C 
BRANCH   4   5
ATOM      5  C   UNL     1     -13.169  29.694 -37.960  1.00  0.00    -0.000 C 
BRANCH   5   6
ATOM      6  C   UNL     1     -11.847  29.301 -38.651  1.00  0.00    -0.000 C 
BRANCH   6   7
ATOM      7  C   UNL     1     -12.010  28.626 -40.024  1.00  0.00    -0.003 C 
ATOM      8  C   UNL     1     -10.861  27.675 -40.359  1.00  0.00     0.004 C 
ENDBRANCH   6   7
ENDBRANCH   5   6
ENDBRANCH   4   5
ENDBRANCH   3   4
ENDBRANCH   2   3
ENDBRANCH   1   2
BRANCH   1   9
ATOM      9  C   UNL     1     -11.847  25.189 -37.918  1.00  0.00     0.000 C 
BRANCH   9  10
ATOM     10  C   UNL     1     -10.667  24.430 -37.293  1.00  0.00     0.000 C 
BRANCH  10  11
ATOM     11  C   UNL     1      -9.538  25.395 -36.905  1.00  0.00     0.000 C 
BRANCH  11  12
ATOM     12  C   UNL     1     -10.001  26.859 -36.849  1.00  0.00     0.002 C 
BRANCH  12  13
ATOM     13  C   UNL     1      -9.931  27.449 -35.431  1.00  0.00     0.028 C 
BRANCH  13  14
ATOM     14  C   UNL     1     -11.018  26.871 -34.524  1.00  0.00     0.156 C 
BRANCH  14  15
ATOM     15  O   UNL     1     -10.444  26.047 -33.546  1.00  0.00    -0.396 OA
ATOM     16  H   UNL     1     -11.117  25.346 -33.348  1.00  0.00     0.210 HD
ENDBRANCH  14  15
ENDBRANCH  13  14
ENDBRANCH  12  13
ENDBRANCH  11  12
ENDBRANCH  10  11
ENDBRANCH   9  10
ENDBRANCH   1   9
TORSDOF 13
ENDMDL
MODEL 8
REMARK VINA RESULT:    -3.004      2.266      3.571
REMARK INTER + INTRA:          -7.098
REMARK INTER:                  -5.454
REMARK INTRA:                  -1.644
REMARK UNBOUND:                -1.900
REMARK SMILES CCCCCCCCCCCCCCO
REMARK SMILES IDX 8 1 7 2 6 3 5 4 4 5 3 6 2 7 1 8 9 9 10 10 11 11 12 12 13 13
REMARK SMILES IDX 14 14 15 15
REMARK H PARENT 15 16
REMARK Flexibility Score: inf
ROOT
ATOM      1  C   UNL     1     -11.199  27.790 -40.403  1.00  0.00     0.000 C 
ENDROOT
BRANCH   1   2
ATOM      2  C   UNL     1     -12.517  28.522 -40.727  1.00  0.00    -0.000 C 
BRANCH   2   3
ATOM      3  C   UNL     1     -13.735  27.605 -40.949  1.00  0.00    -0.000 C 
BRANCH   3   4
ATOM      4  C   UNL     1     -14.807  27.668 -39.842  1.00  0.00    -0.000 C 
BRANCH   4   5
ATOM      5  C   UNL     1     -14.460  28.586 -38.654  1.00  0.00    -0.000 C 
BRANCH   5   6
ATOM      6  C   UNL     1     -14.329  27.872 -37.294  1.00  0.00    -0.000 C 
BRANCH   6   7
ATOM      7  C   UNL     1     -14.435  26.339 -37.354  1.00  0.00    -0.003 C 
ATOM      8  C   UNL     1     -13.360  25.635 -36.526  1.00  0.00     0.004 C 
ENDBRANCH   6   7
ENDBRANCH   5   6
ENDBRANCH   4   5
ENDBRANCH   3   4
ENDBRANCH   2   3
ENDBRANCH   1   2
BRANCH   1   9
ATOM      9  C   UNL     1     -10.895  27.631 -38.902  1.00  0.00     0.000 C 
BRANCH   9  10
ATOM     10  C   UNL     1     -10.831  28.974 -38.160  1.00  0.00     0.000 C 
BRANCH  10  11
ATOM     11  C   UNL     1     -10.294  28.788 -36.733  1.00  0.00     0.000 C 
BRANCH  11  12
ATOM     12  C   UNL     1     -10.022  27.315 -36.390  1.00  0.00     0.002 C 
BRANCH  12  13
ATOM     13  C   UNL     1      -9.948  27.065 -34.875  1.00  0.00     0.028 C 
BRANCH  13  14
ATOM     14  C   UNL     1      -9.279  25.727 -34.555  1.00  0.00     0.156 C 
BRANCH  14  15
ATOM     15  O   UNL     1      -9.702  25.263 -33.302  1.00  0.00    -0.396 OA
ATOM     16  H   UNL     1     -10.369  24.551 -33.483  1.00  0.00     0.210 HD
ENDBRANCH  14  15
ENDBRANCH  13  14
ENDBRANCH  12  13
ENDBRANCH  11  12
ENDBRANCH  10  11
ENDBRANCH   9  10
ENDBRANCH   1   9
TORSDOF 13
ENDMDL
MODEL 9
REMARK VINA RESULT:    -2.974      8.591     11.189
REMARK INTER + INTRA:          -7.046
REMARK INTER:                  -5.931
REMARK INTRA:                  -1.115
REMARK UNBOUND:                -1.900
REMARK SMILES CCCCCCCCCCCCCCO
REMARK SMILES IDX 8 1 7 2 6 3 5 4 4 5 3 6 2 7 1 8 9 9 10 10 11 11 12 12 13 13
REMARK SMILES IDX 14 14 15 15
REMARK H PARENT 15 16
REMARK Flexibility Score: inf
ROOT
ATOM      1  C   UNL     1     -10.859  37.289 -40.142  1.00  0.00     0.000 C 
ENDROOT
BRANCH   1   2
ATOM      2  C   UNL     1     -11.899  37.080 -41.261  1.00  0.00    -0.000 C 
BRANCH   2   3
ATOM      3  C   UNL     1     -11.607  37.832 -42.574  1.00  0.00    -0.000 C 
BRANCH   3   4
ATOM      4  C   UNL     1     -11.097  36.948 -43.729  1.00  0.00    -0.000 C 
BRANCH   4   5
ATOM      5  C   UNL     1      -9.644  37.221 -44.164  1.00  0.00    -0.000 C 
BRANCH   5   6
ATOM      6  C   UNL     1      -8.564  36.724 -43.182  1.00  0.00    -0.000 C 
BRANCH   6   7
ATOM      7  C   UNL     1      -7.735  37.834 -42.513  1.00  0.00    -0.003 C 
ATOM      8  C   UNL     1      -6.540  38.275 -43.357  1.00  0.00     0.004 C 
ENDBRANCH   6   7
ENDBRANCH   5   6
ENDBRANCH   4   5
ENDBRANCH   3   4
ENDBRANCH   2   3
ENDBRANCH   1   2
BRANCH   1   9
ATOM      9  C   UNL     1     -10.388  36.001 -39.443  1.00  0.00     0.000 C 
BRANCH   9  10
ATOM     10  C   UNL     1      -8.889  35.731 -39.636  1.00  0.00     0.000 C 
BRANCH  10  11
ATOM     11  C   UNL     1      -8.080  36.248 -38.437  1.00  0.00     0.000 C 
BRANCH  11  12
ATOM     12  C   UNL     1      -8.110  35.284 -37.241  1.00  0.00     0.002 C 
BRANCH  12  13
ATOM     13  C   UNL     1      -7.760  33.840 -37.636  1.00  0.00     0.028 C 
BRANCH  13  14
ATOM     14  C   UNL     1      -8.582  32.823 -36.844  1.00  0.00     0.156 C 
BRANCH  14  15
ATOM     15  O   UNL     1      -7.831  31.659 -36.627  1.00  0.00    -0.396 OA
ATOM     16  H   UNL     1      -6.879  31.927 -36.709  1.00  0.00     0.210 HD
ENDBRANCH  14  15
ENDBRANCH  13  14
ENDBRANCH  12  13
ENDBRANCH  11  12
ENDBRANCH  10  11
ENDBRANCH   9  10
ENDBRANCH   1   9
TORSDOF 13
ENDMDL
