MODEL 1
REMARK VINA RESULT:    -4.518      0.000      0.000
REMARK INTER + INTRA:         -10.615
REMARK INTER:                  -8.215
REMARK INTRA:                  -2.401
REMARK UNBOUND:                -2.401
REMARK SMILES CCCCCCCCCCCCCC[C@@H](C)C(=O)[O-]
REMARK SMILES IDX 9 1 10 2 11 3 12 4 13 5 14 6 15 7 16 8 17 9 18 10 19 11 8 12
REMARK SMILES IDX 7 13 6 14 5 15 4 16 3 17 2 18 1 19
REMARK H PARENT
REMARK Flexibility Score: inf
ROOT
ATOM      1  C   UNL     1      44.192  33.402  17.614  1.00  0.00     0.000 C 
ENDROOT
BRANCH   1   2
ATOM      2  C   UNL     1      45.634  33.373  17.075  1.00  0.00     0.000 C 
BRANCH   2   3
ATOM      3  C   UNL     1      46.256  34.774  16.979  1.00  0.00     0.000 C 
BRANCH   3   4
ATOM      4  C   UNL     1      46.851  35.063  15.593  1.00  0.00     0.000 C 
BRANCH   4   5
ATOM      5  C   UNL     1      46.074  34.325  14.496  1.00  0.00     0.001 C 
BRANCH   5   6
ATOM      6  C   UNL     1      47.009  33.880  13.360  1.00  0.00     0.009 C 
BRANCH   6   7
ATOM      7  C   UNL     1      46.242  33.592  12.054  1.00  0.00     0.032 C 
ATOM      8  C   UNL     1      46.818  34.413  10.895  1.00  0.00     0.014 C 
BRANCH   7   9
ATOM      9  C   UNL     1      46.271  32.127  11.708  1.00  0.00     0.044 C 
ATOM     10  O   UNL     1      47.363  31.497  11.676  1.00  0.00    -0.550 OA
ATOM     11  O   UNL     1      45.088  31.459  11.423  1.00  0.00    -0.550 OA
ENDBRANCH   7   9
ENDBRANCH   6   7
ENDBRANCH   5   6
ENDBRANCH   4   5
ENDBRANCH   3   4
ENDBRANCH   2   3
ENDBRANCH   1   2
BRANCH   1  12
ATOM     12  C   UNL     1      43.298  32.334  16.965  1.00  0.00     0.000 C 
BRANCH  12  13
ATOM     13  C   UNL     1      42.774  32.760  15.586  1.00  0.00    -0.000 C 
BRANCH  13  14
ATOM     14  C   UNL     1      43.509  32.015  14.465  1.00  0.00    -0.000 C 
BRANCH  14  15
ATOM     15  C   UNL     1      43.136  30.524  14.459  1.00  0.00    -0.000 C 
BRANCH  15  16
ATOM     16  C   UNL     1      44.362  29.605  14.584  1.00  0.00    -0.000 C 
BRANCH  16  17
ATOM     17  C   UNL     1      45.667  30.387  14.809  1.00  0.00    -0.000 C 
BRANCH  17  18
ATOM     18  C   UNL     1      46.374  29.988  16.114  1.00  0.00    -0.003 C 
ATOM     19  C   UNL     1      45.412  29.434  17.166  1.00  0.00     0.004 C 
ENDBRANCH  17  18
ENDBRANCH  16  17
ENDBRANCH  15  16
ENDBRANCH  14  15
ENDBRANCH  13  14
ENDBRANCH  12  13
ENDBRANCH   1  12
TORSDOF 14
ENDMDL
MODEL 2
REMARK VINA RESULT:    -4.510      1.031      2.301
REMARK INTER + INTRA:         -10.602
REMARK INTER:                  -8.491
REMARK INTRA:                  -2.111
REMARK UNBOUND:                -2.401
REMARK SMILES CCCCCCCCCCCCCC[C@@H](C)C(=O)[O-]
REMARK SMILES IDX 9 1 10 2 11 3 12 4 13 5 14 6 15 7 16 8 17 9 18 10 19 11 8 12
REMARK SMILES IDX 7 13 6 14 5 15 4 16 3 17 2 18 1 19
REMARK H PARENT
REMARK Flexibility Score: inf
ROOT
ATOM      1  C   UNL     1      44.013  33.228  17.051  1.00  0.00     0.000 C 
ENDROOT
BRANCH   1   2
ATOM      2  C   UNL     1      45.426  33.783  17.302  1.00  0.00     0.000 C 
BRANCH   2   3
ATOM      3  C   UNL     1      46.066  34.366  16.033  1.00  0.00     0.000 C 
BRANCH   3   4
ATOM      4  C   UNL     1      45.501  33.745  14.747  1.00  0.00     0.000 C 
BRANCH   4   5
ATOM      5  C   UNL     1      46.234  34.279  13.511  1.00  0.00     0.001 C 
BRANCH   5   6
ATOM      6  C   UNL     1      45.650  33.681  12.221  1.00  0.00     0.009 C 
BRANCH   6   7
ATOM      7  C   UNL     1      46.632  33.781  11.036  1.00  0.00     0.032 C 
ATOM      8  C   UNL     1      47.776  34.749  11.362  1.00  0.00     0.014 C 
BRANCH   7   9
ATOM      9  C   UNL     1      47.191  32.433  10.667  1.00  0.00     0.044 C 
ATOM     10  O   UNL     1      48.402  32.309  10.340  1.00  0.00    -0.550 OA
ATOM     11  O   UNL     1      46.370  31.313  10.688  1.00  0.00    -0.550 OA
ENDBRANCH   7   9
ENDBRANCH   6   7
ENDBRANCH   5   6
ENDBRANCH   4   5
ENDBRANCH   3   4
ENDBRANCH   2   3
ENDBRANCH   1   2
BRANCH   1  12
ATOM     12  C   UNL     1      43.841  31.792  17.569  1.00  0.00     0.000 C 
BRANCH  12  13
ATOM     13  C   UNL     1      45.179  31.051  17.712  1.00  0.00    -0.000 C 
BRANCH  13  14
ATOM     14  C   UNL     1      45.212  29.801  16.824  1.00  0.00    -0.000 C 
BRANCH  14  15
ATOM     15  C   UNL     1      46.093  30.029  15.586  1.00  0.00    -0.000 C 
BRANCH  15  16
ATOM     16  C   UNL     1      45.275  30.353  14.326  1.00  0.00    -0.000 C 
BRANCH  16  17
ATOM     17  C   UNL     1      44.295  29.228  13.952  1.00  0.00    -0.000 C 
BRANCH  17  18
ATOM     18  C   UNL     1      42.847  29.727  13.832  1.00  0.00    -0.003 C 
ATOM     19  C   UNL     1      42.691  31.198  14.219  1.00  0.00     0.004 C 
ENDBRANCH  17  18
ENDBRANCH  16  17
ENDBRANCH  15  16
ENDBRANCH  14  15
ENDBRANCH  13  14
ENDBRANCH  12  13
ENDBRANCH   1  12
TORSDOF 14
ENDMDL
MODEL 3
REMARK VINA RESULT:    -4.502      0.734      1.108
REMARK INTER + INTRA:         -10.586
REMARK INTER:                  -8.011
REMARK INTRA:                  -2.575
REMARK UNBOUND:                -2.401
REMARK SMILES CCCCCCCCCCCCCC[C@@H](C)C(=O)[O-]
REMARK SMILES IDX 9 1 10 2 11 3 12 4 13 5 14 6 15 7 16 8 17 9 18 10 19 11 8 12
REMARK SMILES IDX 7 13 6 14 5 15 4 16 3 17 2 18 1 19
REMARK H PARENT
REMARK Flexibility Score: inf
ROOT
ATOM      1  C   UNL     1      44.715  33.729  17.740  1.00  0.00     0.000 C 
ENDROOT
BRANCH   1   2
ATOM      2  C   UNL     1      46.014  33.627  16.918  1.00  0.00     0.000 C 
BRANCH   2   3
ATOM      3  C   UNL     1      46.588  35.003  16.549  1.00  0.00     0.000 C 
BRANCH   3   4
ATOM      4  C   UNL     1      46.971  35.106  15.066  1.00  0.00     0.000 C 
BRANCH   4   5
ATOM      5  C   UNL     1      45.979  34.333  14.187  1.00  0.00     0.001 C 
BRANCH   5   6
ATOM      6  C   UNL     1      46.711  33.341  13.270  1.00  0.00     0.009 C 
BRANCH   6   7
ATOM      7  C   UNL     1      46.099  33.298  11.854  1.00  0.00     0.032 C 
ATOM      8  C   UNL     1      47.061  33.910  10.830  1.00  0.00     0.014 C 
BRANCH   7   9
ATOM      9  C   UNL     1      45.746  31.892  11.448  1.00  0.00     0.044 C 
ATOM     10  O   UNL     1      44.596  31.429  11.673  1.00  0.00    -0.550 OA
ATOM     11  O   UNL     1      46.692  31.095  10.817  1.00  0.00    -0.550 OA
ENDBRANCH   7   9
ENDBRANCH   6   7
ENDBRANCH   5   6
ENDBRANCH   4   5
ENDBRANCH   3   4
ENDBRANCH   2   3
ENDBRANCH   1   2
BRANCH   1  12
ATOM     12  C   UNL     1      43.635  32.748  17.261  1.00  0.00     0.000 C 
BRANCH  12  13
ATOM     13  C   UNL     1      43.019  33.157  15.915  1.00  0.00    -0.000 C 
BRANCH  13  14
ATOM     14  C   UNL     1      43.151  32.029  14.884  1.00  0.00    -0.000 C 
BRANCH  14  15
ATOM     15  C   UNL     1      43.749  30.767  15.524  1.00  0.00    -0.000 C 
BRANCH  15  16
ATOM     16  C   UNL     1      45.075  30.341  14.871  1.00  0.00    -0.000 C 
BRANCH  16  17
ATOM     17  C   UNL     1      46.203  30.144  15.898  1.00  0.00    -0.000 C 
BRANCH  17  18
ATOM     18  C   UNL     1      45.708  29.483  17.194  1.00  0.00    -0.003 C 
ATOM     19  C   UNL     1      46.174  30.218  18.451  1.00  0.00     0.004 C 
ENDBRANCH  17  18
ENDBRANCH  16  17
ENDBRANCH  15  16
ENDBRANCH  14  15
ENDBRANCH  13  14
ENDBRANCH  12  13
ENDBRANCH   1  12
TORSDOF 14
ENDMDL
MODEL 4
REMARK VINA RESULT:    -4.486      1.080      1.966
REMARK INTER + INTRA:         -10.559
REMARK INTER:                  -8.839
REMARK INTRA:                  -1.720
REMARK UNBOUND:                -2.401
REMARK SMILES CCCCCCCCCCCCCC[C@@H](C)C(=O)[O-]
REMARK SMILES IDX 9 1 10 2 11 3 12 4 13 5 14 6 15 7 16 8 17 9 18 10 19 11 8 12
REMARK SMILES IDX 7 13 6 14 5 15 4 16 3 17 2 18 1 19
REMARK H PARENT
REMARK Flexibility Score: inf
ROOT
ATOM      1  C   UNL     1      46.147  34.190  16.286  1.00  0.00     0.000 C 
ENDROOT
BRANCH   1   2
ATOM      2  C   UNL     1      46.994  35.196  15.485  1.00  0.00     0.000 C 
BRANCH   2   3
ATOM      3  C   UNL     1      46.920  34.954  13.970  1.00  0.00     0.000 C 
BRANCH   3   4
ATOM      4  C   UNL     1      47.685  36.015  13.164  1.00  0.00     0.000 C 
BRANCH   4   5
ATOM      5  C   UNL     1      47.602  35.728  11.660  1.00  0.00     0.001 C 
BRANCH   5   6
ATOM      6  C   UNL     1      46.514  34.686  11.355  1.00  0.00     0.009 C 
BRANCH   6   7
ATOM      7  C   UNL     1      47.062  33.492  10.546  1.00  0.00     0.032 C 
ATOM      8  C   UNL     1      48.595  33.498  10.544  1.00  0.00     0.014 C 
BRANCH   7   9
ATOM      9  C   UNL     1      46.555  32.181  11.084  1.00  0.00     0.044 C 
ATOM     10  O   UNL     1      47.327  31.190  11.188  1.00  0.00    -0.550 OA
ATOM     11  O   UNL     1      45.228  32.058  11.471  1.00  0.00    -0.550 OA
ENDBRANCH   7   9
ENDBRANCH   6   7
ENDBRANCH   5   6
ENDBRANCH   4   5
ENDBRANCH   3   4
ENDBRANCH   2   3
ENDBRANCH   1   2
BRANCH   1  12
ATOM     12  C   UNL     1      44.989  33.606  15.463  1.00  0.00     0.000 C 
BRANCH  12  13
ATOM     13  C   UNL     1      43.825  33.122  16.341  1.00  0.00    -0.000 C 
BRANCH  13  14
ATOM     14  C   UNL     1      42.666  32.603  15.480  1.00  0.00    -0.000 C 
BRANCH  14  15
ATOM     15  C   UNL     1      43.190  31.805  14.276  1.00  0.00    -0.000 C 
BRANCH  15  16
ATOM     16  C   UNL     1      43.319  30.302  14.570  1.00  0.00    -0.000 C 
BRANCH  16  17
ATOM     17  C   UNL     1      44.705  29.745  14.205  1.00  0.00    -0.000 C 
BRANCH  17  18
ATOM     18  C   UNL     1      45.754  30.018  15.294  1.00  0.00    -0.003 C 
ATOM     19  C   UNL     1      45.248  29.696  16.701  1.00  0.00     0.004 C 
ENDBRANCH  17  18
ENDBRANCH  16  17
ENDBRANCH  15  16
ENDBRANCH  14  15
ENDBRANCH  13  14
ENDBRANCH  12  13
ENDBRANCH   1  12
TORSDOF 14
ENDMDL
MODEL 5
REMARK VINA RESULT:    -4.448      8.842     11.037
REMARK INTER + INTRA:         -10.489
REMARK INTER:                  -9.247
REMARK INTRA:                  -1.242
REMARK UNBOUND:                -2.401
REMARK SMILES CCCCCCCCCCCCCC[C@@H](C)C(=O)[O-]
REMARK SMILES IDX 9 1 10 2 11 3 12 4 13 5 14 6 15 7 16 8 17 9 18 10 19 11 8 12
REMARK SMILES IDX 7 13 6 14 5 15 4 16 3 17 2 18 1 19
REMARK H PARENT
REMARK Flexibility Score: inf
ROOT
ATOM      1  C   UNL     1      43.337  26.655  19.924  1.00  0.00     0.000 C 
ENDROOT
BRANCH   1   2
ATOM      2  C   UNL     1      44.584  27.218  20.630  1.00  0.00     0.000 C 
BRANCH   2   3
ATOM      3  C   UNL     1      45.730  26.199  20.706  1.00  0.00     0.000 C 
BRANCH   3   4
ATOM      4  C   UNL     1      46.598  26.189  19.440  1.00  0.00     0.000 C 
BRANCH   4   5
ATOM      5  C   UNL     1      47.097  24.773  19.126  1.00  0.00     0.001 C 
BRANCH   5   6
ATOM      6  C   UNL     1      46.041  23.720  19.497  1.00  0.00     0.009 C 
BRANCH   6   7
ATOM      7  C   UNL     1      46.648  22.537  20.278  1.00  0.00     0.032 C 
ATOM      8  C   UNL     1      48.014  22.917  20.860  1.00  0.00     0.014 C 
BRANCH   7   9
ATOM      9  C   UNL     1      45.733  22.075  21.380  1.00  0.00     0.044 C 
ATOM     10  O   UNL     1      44.840  22.840  21.836  1.00  0.00    -0.550 OA
ATOM     11  O   UNL     1      45.868  20.796  21.903  1.00  0.00    -0.550 OA
ENDBRANCH   7   9
ENDBRANCH   6   7
ENDBRANCH   5   6
ENDBRANCH   4   5
ENDBRANCH   3   4
ENDBRANCH   2   3
ENDBRANCH   1   2
BRANCH   1  12
ATOM     12  C   UNL     1      42.835  25.351  20.563  1.00  0.00     0.000 C 
BRANCH  12  13
ATOM     13  C   UNL     1      41.450  24.934  20.048  1.00  0.00    -0.000 C 
BRANCH  13  14
ATOM     14  C   UNL     1      41.493  23.532  19.428  1.00  0.00    -0.000 C 
BRANCH  14  15
ATOM     15  C   UNL     1      40.576  23.447  18.197  1.00  0.00    -0.000 C 
BRANCH  15  16
ATOM     16  C   UNL     1      40.674  22.093  17.476  1.00  0.00    -0.000 C 
BRANCH  16  17
ATOM     17  C   UNL     1      39.320  21.621  16.918  1.00  0.00    -0.000 C 
BRANCH  17  18
ATOM     18  C   UNL     1      38.347  22.785  16.677  1.00  0.00    -0.003 C 
ATOM     19  C   UNL     1      37.071  22.676  17.513  1.00  0.00     0.004 C 
ENDBRANCH  17  18
ENDBRANCH  16  17
ENDBRANCH  15  16
ENDBRANCH  14  15
ENDBRANCH  13  14
ENDBRANCH  12  13
ENDBRANCH   1  12
TORSDOF 14
ENDMDL
MODEL 6
REMARK VINA RESULT:    -4.444      1.265      1.874
REMARK INTER + INTRA:         -10.481
REMARK INTER:                  -8.211
REMARK INTRA:                  -2.270
REMARK UNBOUND:                -2.401
REMARK SMILES CCCCCCCCCCCCCC[C@@H](C)C(=O)[O-]
REMARK SMILES IDX 9 1 10 2 11 3 12 4 13 5 14 6 15 7 16 8 17 9 18 10 19 11 8 12
REMARK SMILES IDX 7 13 6 14 5 15 4 16 3 17 2 18 1 19
REMARK H PARENT
REMARK Flexibility Score: inf
ROOT
ATOM      1  C   UNL     1      45.797  33.367  17.216  1.00  0.00     0.000 C 
ENDROOT
BRANCH   1   2
ATOM      2  C   UNL     1      46.157  34.854  17.038  1.00  0.00     0.000 C 
BRANCH   2   3
ATOM      3  C   UNL     1      46.929  35.122  15.737  1.00  0.00     0.000 C 
BRANCH   3   4
ATOM      4  C   UNL     1      46.854  33.946  14.752  1.00  0.00     0.000 C 
BRANCH   4   5
ATOM      5  C   UNL     1      45.923  34.270  13.578  1.00  0.00     0.001 C 
BRANCH   5   6
ATOM      6  C   UNL     1      46.118  33.273  12.425  1.00  0.00     0.009 C 
BRANCH   6   7
ATOM      7  C   UNL     1      46.634  33.958  11.144  1.00  0.00     0.032 C 
ATOM      8  C   UNL     1      46.315  35.457  11.166  1.00  0.00     0.014 C 
BRANCH   7   9
ATOM      9  C   UNL     1      48.114  33.752  10.965  1.00  0.00     0.044 C 
ATOM     10  O   UNL     1      48.549  32.849  10.201  1.00  0.00    -0.550 OA
ATOM     11  O   UNL     1      49.014  34.563  11.645  1.00  0.00    -0.550 OA
ENDBRANCH   7   9
ENDBRANCH   6   7
ENDBRANCH   5   6
ENDBRANCH   4   5
ENDBRANCH   3   4
ENDBRANCH   2   3
ENDBRANCH   1   2
BRANCH   1  12
ATOM     12  C   UNL     1      44.286  33.141  17.379  1.00  0.00     0.000 C 
BRANCH  12  13
ATOM     13  C   UNL     1      43.505  33.403  16.083  1.00  0.00    -0.000 C 
BRANCH  13  14
ATOM     14  C   UNL     1      42.690  32.170  15.674  1.00  0.00    -0.000 C 
BRANCH  14  15
ATOM     15  C   UNL     1      43.120  31.661  14.289  1.00  0.00    -0.000 C 
BRANCH  15  16
ATOM     16  C   UNL     1      43.114  30.127  14.191  1.00  0.00    -0.000 C 
BRANCH  16  17
ATOM     17  C   UNL     1      44.520  29.542  13.976  1.00  0.00    -0.000 C 
BRANCH  17  18
ATOM     18  C   UNL     1      45.599  30.304  14.761  1.00  0.00    -0.003 C 
ATOM     19  C   UNL     1      45.738  29.819  16.204  1.00  0.00     0.004 C 
ENDBRANCH  17  18
ENDBRANCH  16  17
ENDBRANCH  15  16
ENDBRANCH  14  15
ENDBRANCH  13  14
ENDBRANCH  12  13
ENDBRANCH   1  12
TORSDOF 14
ENDMDL
MODEL 7
REMARK VINA RESULT:    -4.420      8.148     11.086
REMARK INTER + INTRA:         -10.438
REMARK INTER:                  -8.785
REMARK INTRA:                  -1.654
REMARK UNBOUND:                -2.401
REMARK SMILES CCCCCCCCCCCCCC[C@@H](C)C(=O)[O-]
REMARK SMILES IDX 9 1 10 2 11 3 12 4 13 5 14 6 15 7 16 8 17 9 18 10 19 11 8 12
REMARK SMILES IDX 7 13 6 14 5 15 4 16 3 17 2 18 1 19
REMARK H PARENT
REMARK Flexibility Score: inf
ROOT
ATOM      1  C   UNL     1      44.250  20.943  21.769  1.00  0.00     0.000 C 
ENDROOT
BRANCH   1   2
ATOM      2  C   UNL     1      45.746  21.089  21.435  1.00  0.00     0.000 C 
BRANCH   2   3
ATOM      3  C   UNL     1      46.177  22.556  21.290  1.00  0.00     0.000 C 
BRANCH   3   4
ATOM      4  C   UNL     1      46.973  22.815  20.003  1.00  0.00     0.000 C 
BRANCH   4   5
ATOM      5  C   UNL     1      46.885  24.289  19.589  1.00  0.00     0.001 C 
BRANCH   5   6
ATOM      6  C   UNL     1      45.436  24.689  19.273  1.00  0.00     0.009 C 
BRANCH   6   7
ATOM      7  C   UNL     1      44.870  25.687  20.304  1.00  0.00     0.032 C 
ATOM      8  C   UNL     1      46.005  26.357  21.087  1.00  0.00     0.014 C 
BRANCH   7   9
ATOM      9  C   UNL     1      44.014  26.736  19.646  1.00  0.00     0.044 C 
ATOM     10  O   UNL     1      42.762  26.727  19.794  1.00  0.00    -0.550 OA
ATOM     11  O   UNL     1      44.604  27.724  18.869  1.00  0.00    -0.550 OA
ENDBRANCH   7   9
ENDBRANCH   6   7
ENDBRANCH   5   6
ENDBRANCH   4   5
ENDBRANCH   3   4
ENDBRANCH   2   3
ENDBRANCH   1   2
BRANCH   1  12
ATOM     12  C   UNL     1      43.409  22.113  21.237  1.00  0.00     0.000 C 
BRANCH  12  13
ATOM     13  C   UNL     1      42.770  21.810  19.873  1.00  0.00    -0.000 C 
BRANCH  13  14
ATOM     14  C   UNL     1      42.341  23.103  19.168  1.00  0.00    -0.000 C 
BRANCH  14  15
ATOM     15  C   UNL     1      41.035  23.649  19.767  1.00  0.00    -0.000 C 
BRANCH  15  16
ATOM     16  C   UNL     1      39.912  23.778  18.726  1.00  0.00    -0.000 C 
BRANCH  16  17
ATOM     17  C   UNL     1      40.075  22.795  17.555  1.00  0.00    -0.000 C 
BRANCH  17  18
ATOM     18  C   UNL     1      38.755  22.545  16.809  1.00  0.00    -0.003 C 
ATOM     19  C   UNL     1      37.537  23.090  17.557  1.00  0.00     0.004 C 
ENDBRANCH  17  18
ENDBRANCH  16  17
ENDBRANCH  15  16
ENDBRANCH  14  15
ENDBRANCH  13  14
ENDBRANCH  12  13
ENDBRANCH   1  12
TORSDOF 14
ENDMDL
MODEL 8
REMARK VINA RESULT:    -4.396      1.488      3.931
REMARK INTER + INTRA:         -10.395
REMARK INTER:                  -7.891
REMARK INTRA:                  -2.504
REMARK UNBOUND:                -2.401
REMARK SMILES CCCCCCCCCCCCCC[C@@H](C)C(=O)[O-]
REMARK SMILES IDX 9 1 10 2 11 3 12 4 13 5 14 6 15 7 16 8 17 9 18 10 19 11 8 12
REMARK SMILES IDX 7 13 6 14 5 15 4 16 3 17 2 18 1 19
REMARK H PARENT
REMARK Flexibility Score: inf
ROOT
ATOM      1  C   UNL     1      45.604  30.358  15.618  1.00  0.00     0.000 C 
ENDROOT
BRANCH   1   2
ATOM      2  C   UNL     1      44.448  29.684  14.857  1.00  0.00     0.000 C 
BRANCH   2   3
ATOM      3  C   UNL     1      44.390  30.104  13.380  1.00  0.00     0.000 C 
BRANCH   3   4
ATOM      4  C   UNL     1      44.723  31.588  13.174  1.00  0.00     0.000 C 
BRANCH   4   5
ATOM      5  C   UNL     1      45.000  31.890  11.696  1.00  0.00     0.001 C 
BRANCH   5   6
ATOM      6  C   UNL     1      46.420  31.457  11.300  1.00  0.00     0.009 C 
BRANCH   6   7
ATOM      7  C   UNL     1      47.157  32.545  10.493  1.00  0.00     0.032 C 
ATOM      8  C   UNL     1      46.730  33.943  10.955  1.00  0.00     0.014 C 
BRANCH   7   9
ATOM      9  C   UNL     1      48.651  32.402  10.608  1.00  0.00     0.044 C 
ATOM     10  O   UNL     1      49.158  31.381  11.148  1.00  0.00    -0.550 OA
ATOM     11  O   UNL     1      49.482  33.399  10.115  1.00  0.00    -0.550 OA
ENDBRANCH   7   9
ENDBRANCH   6   7
ENDBRANCH   5   6
ENDBRANCH   4   5
ENDBRANCH   3   4
ENDBRANCH   2   3
ENDBRANCH   1   2
BRANCH   1  12
ATOM     12  C   UNL     1      45.196  30.815  17.027  1.00  0.00     0.000 C 
BRANCH  12  13
ATOM     13  C   UNL     1      43.849  31.554  17.042  1.00  0.00    -0.000 C 
BRANCH  13  14
ATOM     14  C   UNL     1      44.025  33.025  16.643  1.00  0.00    -0.000 C 
BRANCH  14  15
ATOM     15  C   UNL     1      45.110  33.700  17.496  1.00  0.00    -0.000 C 
BRANCH  15  16
ATOM     16  C   UNL     1      46.106  34.515  16.654  1.00  0.00    -0.000 C 
BRANCH  16  17
ATOM     17  C   UNL     1      46.070  34.135  15.164  1.00  0.00    -0.000 C 
BRANCH  17  18
ATOM     18  C   UNL     1      47.464  34.150  14.520  1.00  0.00    -0.003 C 
ATOM     19  C   UNL     1      48.071  32.754  14.382  1.00  0.00     0.004 C 
ENDBRANCH  17  18
ENDBRANCH  16  17
ENDBRANCH  15  16
ENDBRANCH  14  15
ENDBRANCH  13  14
ENDBRANCH  12  13
ENDBRANCH   1  12
TORSDOF 14
ENDMDL
MODEL 9
REMARK VINA RESULT:    -4.367      1.557      3.254
REMARK INTER + INTRA:         -10.342
REMARK INTER:                  -7.708
REMARK INTRA:                  -2.634
REMARK UNBOUND:                -2.401
REMARK SMILES CCCCCCCCCCCCCC[C@@H](C)C(=O)[O-]
REMARK SMILES IDX 9 1 10 2 11 3 12 4 13 5 14 6 15 7 16 8 17 9 18 10 19 11 8 12
REMARK SMILES IDX 7 13 6 14 5 15 4 16 3 17 2 18 1 19
REMARK H PARENT
REMARK Flexibility Score: inf
ROOT
ATOM      1  C   UNL     1      47.247  32.367  15.483  1.00  0.00     0.000 C 
ENDROOT
BRANCH   1   2
ATOM      2  C   UNL     1      47.672  33.618  14.694  1.00  0.00     0.000 C 
BRANCH   2   3
ATOM      3  C   UNL     1      46.505  34.587  14.449  1.00  0.00     0.000 C 
BRANCH   3   4
ATOM      4  C   UNL     1      45.877  34.416  13.058  1.00  0.00     0.000 C 
BRANCH   4   5
ATOM      5  C   UNL     1      46.784  35.004  11.969  1.00  0.00     0.001 C 
BRANCH   5   6
ATOM      6  C   UNL     1      46.881  34.059  10.761  1.00  0.00     0.009 C 
BRANCH   6   7
ATOM      7  C   UNL     1      47.442  32.675  11.148  1.00  0.00     0.032 C 
ATOM      8  C   UNL     1      46.427  31.572  10.829  1.00  0.00     0.014 C 
BRANCH   7   9
ATOM      9  C   UNL     1      48.743  32.392  10.447  1.00  0.00     0.044 C 
ATOM     10  O   UNL     1      49.066  31.210  10.148  1.00  0.00    -0.550 OA
ATOM     11  O   UNL     1      49.598  33.437  10.124  1.00  0.00    -0.550 OA
ENDBRANCH   7   9
ENDBRANCH   6   7
ENDBRANCH   5   6
ENDBRANCH   4   5
ENDBRANCH   3   4
ENDBRANCH   2   3
ENDBRANCH   1   2
BRANCH   1  12
ATOM     12  C   UNL     1      46.954  31.165  14.572  1.00  0.00     0.000 C 
BRANCH  12  13
ATOM     13  C   UNL     1      45.815  30.283  15.104  1.00  0.00    -0.000 C 
BRANCH  13  14
ATOM     14  C   UNL     1      44.790  29.985  14.002  1.00  0.00    -0.000 C 
BRANCH  14  15
ATOM     15  C   UNL     1      43.999  31.248  13.631  1.00  0.00    -0.000 C 
BRANCH  15  16
ATOM     16  C   UNL     1      42.959  31.634  14.696  1.00  0.00    -0.000 C 
BRANCH  16  17
ATOM     17  C   UNL     1      43.285  32.970  15.384  1.00  0.00    -0.000 C 
BRANCH  17  18
ATOM     18  C   UNL     1      43.263  32.862  16.916  1.00  0.00    -0.003 C 
ATOM     19  C   UNL     1      44.560  33.346  17.565  1.00  0.00     0.004 C 
ENDBRANCH  17  18
ENDBRANCH  16  17
ENDBRANCH  15  16
ENDBRANCH  14  15
ENDBRANCH  13  14
ENDBRANCH  12  13
ENDBRANCH   1  12
TORSDOF 14
ENDMDL
