MODEL 1
REMARK VINA RESULT:    -3.593      0.000      0.000
REMARK INTER + INTRA:          -4.820
REMARK INTER:                  -4.644
REMARK INTRA:                  -0.176
REMARK UNBOUND:                -0.176
REMARK SMILES CCCCCCC(=O)[O-]
REMARK SMILES IDX 5 1 6 2 7 3 8 4 9 5 4 6 3 7 2 8 1 9
REMARK H PARENT
REMARK Flexibility Score: inf
ROOT
ATOM      1  C   UNL     1     -23.643 -13.379   4.071  1.00  0.00     0.006 C 
ENDROOT
BRANCH   1   2
ATOM      2  C   UNL     1     -23.156 -14.425   3.050  1.00  0.00     0.053 C 
BRANCH   2   3
ATOM      3  C   UNL     1     -24.135 -15.543   2.851  1.00  0.00     0.041 C 
ATOM      4  O   UNL     1     -24.003 -16.340   1.884  1.00  0.00    -0.550 OA
ATOM      5  O   UNL     1     -25.225 -15.673   3.701  1.00  0.00    -0.550 OA
ENDBRANCH   2   3
ENDBRANCH   1   2
BRANCH   1   6
ATOM      6  C   UNL     1     -22.544 -12.407   4.540  1.00  0.00     0.000 C 
BRANCH   6   7
ATOM      7  C   UNL     1     -21.201 -12.579   3.797  1.00  0.00    -0.000 C 
BRANCH   7   8
ATOM      8  C   UNL     1     -20.274 -11.361   3.945  1.00  0.00    -0.003 C 
ATOM      9  C   UNL     1     -21.053 -10.062   4.151  1.00  0.00     0.004 C 
ENDBRANCH   7   8
ENDBRANCH   6   7
ENDBRANCH   1   6
TORSDOF 5
ENDMDL
MODEL 2
REMARK VINA RESULT:    -3.572      3.500      5.269
REMARK INTER + INTRA:          -4.793
REMARK INTER:                  -4.622
REMARK INTRA:                  -0.170
REMARK UNBOUND:                -0.176
REMARK SMILES CCCCCCC(=O)[O-]
REMARK SMILES IDX 5 1 6 2 7 3 8 4 9 5 4 6 3 7 2 8 1 9
REMARK H PARENT
REMARK Flexibility Score: inf
ROOT
ATOM      1  C   UNL     1     -22.370 -12.267   4.448  1.00  0.00     0.006 C 
ENDROOT
BRANCH   1   2
ATOM      2  C   UNL     1     -20.962 -12.437   3.846  1.00  0.00     0.053 C 
BRANCH   2   3
ATOM      3  C   UNL     1     -20.149 -11.178   3.902  1.00  0.00     0.041 C 
ATOM      4  O   UNL     1     -20.701 -10.076   4.161  1.00  0.00    -0.550 OA
ATOM      5  O   UNL     1     -18.791 -11.213   3.614  1.00  0.00    -0.550 OA
ENDBRANCH   2   3
ENDBRANCH   1   2
BRANCH   1   6
ATOM      6  C   UNL     1     -23.353 -13.386   4.061  1.00  0.00     0.000 C 
BRANCH   6   7
ATOM      7  C   UNL     1     -22.830 -14.319   2.947  1.00  0.00    -0.000 C 
BRANCH   7   8
ATOM      8  C   UNL     1     -23.824 -15.433   2.581  1.00  0.00    -0.003 C 
ATOM      9  C   UNL     1     -25.017 -15.481   3.536  1.00  0.00     0.004 C 
ENDBRANCH   7   8
ENDBRANCH   6   7
ENDBRANCH   1   6
TORSDOF 5
ENDMDL
MODEL 3
REMARK VINA RESULT:    -3.565      9.496     10.140
REMARK INTER + INTRA:          -4.783
REMARK INTER:                  -4.539
REMARK INTRA:                  -0.244
REMARK UNBOUND:                -0.176
REMARK SMILES CCCCCCC(=O)[O-]
REMARK SMILES IDX 5 1 6 2 7 3 8 4 9 5 4 6 3 7 2 8 1 9
REMARK H PARENT
REMARK Flexibility Score: inf
ROOT
ATOM      1  C   UNL     1     -17.564 -17.288  -3.162  1.00  0.00     0.006 C 
ENDROOT
BRANCH   1   2
ATOM      2  C   UNL     1     -17.634 -18.081  -4.481  1.00  0.00     0.053 C 
BRANCH   2   3
ATOM      3  C   UNL     1     -18.603 -19.223  -4.422  1.00  0.00     0.041 C 
ATOM      4  O   UNL     1     -18.291 -20.347  -4.899  1.00  0.00    -0.550 OA
ATOM      5  O   UNL     1     -19.872 -19.033  -3.891  1.00  0.00    -0.550 OA
ENDBRANCH   2   3
ENDBRANCH   1   2
BRANCH   1   6
ATOM      6  C   UNL     1     -16.130 -16.980  -2.694  1.00  0.00     0.000 C 
BRANCH   6   7
ATOM      7  C   UNL     1     -15.383 -15.973  -3.596  1.00  0.00    -0.000 C 
BRANCH   7   8
ATOM      8  C   UNL     1     -16.149 -14.653  -3.783  1.00  0.00    -0.003 C 
ATOM      9  C   UNL     1     -16.289 -14.268  -5.256  1.00  0.00     0.004 C 
ENDBRANCH   7   8
ENDBRANCH   6   7
ENDBRANCH   1   6
TORSDOF 5
ENDMDL
MODEL 4
REMARK VINA RESULT:    -3.457      1.007      1.374
REMARK INTER + INTRA:          -4.644
REMARK INTER:                  -4.405
REMARK INTRA:                  -0.240
REMARK UNBOUND:                -0.176
REMARK SMILES CCCCCCC(=O)[O-]
REMARK SMILES IDX 5 1 6 2 7 3 8 4 9 5 4 6 3 7 2 8 1 9
REMARK H PARENT
REMARK Flexibility Score: inf
ROOT
ATOM      1  C   UNL     1     -23.142 -12.738   4.488  1.00  0.00     0.006 C 
ENDROOT
BRANCH   1   2
ATOM      2  C   UNL     1     -22.608 -13.731   3.439  1.00  0.00     0.053 C 
BRANCH   2   3
ATOM      3  C   UNL     1     -23.598 -14.804   3.096  1.00  0.00     0.041 C 
ATOM      4  O   UNL     1     -23.214 -15.877   2.560  1.00  0.00    -0.550 OA
ATOM      5  O   UNL     1     -24.953 -14.597   3.319  1.00  0.00    -0.550 OA
ENDBRANCH   2   3
ENDBRANCH   1   2
BRANCH   1   6
ATOM      6  C   UNL     1     -22.057 -11.833   5.099  1.00  0.00     0.000 C 
BRANCH   6   7
ATOM      7  C   UNL     1     -21.883 -10.484   4.368  1.00  0.00    -0.000 C 
BRANCH   7   8
ATOM      8  C   UNL     1     -20.419 -10.180   4.009  1.00  0.00    -0.003 C 
ATOM      9  C   UNL     1     -19.603 -11.453   3.780  1.00  0.00     0.004 C 
ENDBRANCH   7   8
ENDBRANCH   6   7
ENDBRANCH   1   6
TORSDOF 5
ENDMDL
MODEL 5
REMARK VINA RESULT:    -3.428      9.790     11.137
REMARK INTER + INTRA:          -4.607
REMARK INTER:                  -4.440
REMARK INTRA:                  -0.167
REMARK UNBOUND:                -0.176
REMARK SMILES CCCCCCC(=O)[O-]
REMARK SMILES IDX 5 1 6 2 7 3 8 4 9 5 4 6 3 7 2 8 1 9
REMARK H PARENT
REMARK Flexibility Score: inf
ROOT
ATOM      1  C   UNL     1     -17.270 -16.199  -2.852  1.00  0.00     0.006 C 
ENDROOT
BRANCH   1   2
ATOM      2  C   UNL     1     -15.873 -15.734  -3.306  1.00  0.00     0.053 C 
BRANCH   2   3
ATOM      3  C   UNL     1     -15.854 -15.248  -4.724  1.00  0.00     0.041 C 
ATOM      4  O   UNL     1     -15.315 -15.941  -5.627  1.00  0.00    -0.550 OA
ATOM      5  O   UNL     1     -16.384 -14.004  -5.040  1.00  0.00    -0.550 OA
ENDBRANCH   2   3
ENDBRANCH   1   2
BRANCH   1   6
ATOM      6  C   UNL     1     -17.530 -17.700  -3.071  1.00  0.00     0.000 C 
BRANCH   6   7
ATOM      7  C   UNL     1     -18.113 -18.036  -4.461  1.00  0.00    -0.000 C 
BRANCH   7   8
ATOM      8  C   UNL     1     -18.739 -19.439  -4.526  1.00  0.00    -0.003 C 
ATOM      9  C   UNL     1     -19.728 -19.686  -3.386  1.00  0.00     0.004 C 
ENDBRANCH   7   8
ENDBRANCH   6   7
ENDBRANCH   1   6
TORSDOF 5
ENDMDL
MODEL 6
REMARK VINA RESULT:    -3.398      9.688     10.253
REMARK INTER + INTRA:          -4.568
REMARK INTER:                  -4.429
REMARK INTRA:                  -0.139
REMARK UNBOUND:                -0.176
REMARK SMILES CCCCCCC(=O)[O-]
REMARK SMILES IDX 5 1 6 2 7 3 8 4 9 5 4 6 3 7 2 8 1 9
REMARK H PARENT
REMARK Flexibility Score: inf
ROOT
ATOM      1  C   UNL     1     -17.839 -18.102  -4.141  1.00  0.00     0.006 C 
ENDROOT
BRANCH   1   2
ATOM      2  C   UNL     1     -19.005 -19.033  -3.755  1.00  0.00     0.053 C 
BRANCH   2   3
ATOM      3  C   UNL     1     -19.119 -20.226  -4.656  1.00  0.00     0.041 C 
ATOM      4  O   UNL     1     -20.243 -20.747  -4.882  1.00  0.00    -0.550 OA
ATOM      5  O   UNL     1     -17.978 -20.797  -5.203  1.00  0.00    -0.550 OA
ENDBRANCH   2   3
ENDBRANCH   1   2
BRANCH   1   6
ATOM      6  C   UNL     1     -17.587 -16.967  -3.132  1.00  0.00     0.000 C 
BRANCH   6   7
ATOM      7  C   UNL     1     -16.133 -16.902  -2.616  1.00  0.00    -0.000 C 
BRANCH   7   8
ATOM      8  C   UNL     1     -15.297 -15.816  -3.314  1.00  0.00    -0.003 C 
ATOM      9  C   UNL     1     -16.165 -14.696  -3.888  1.00  0.00     0.004 C 
ENDBRANCH   7   8
ENDBRANCH   6   7
ENDBRANCH   1   6
TORSDOF 5
ENDMDL
MODEL 7
REMARK VINA RESULT:    -3.280      3.613      5.105
REMARK INTER + INTRA:          -4.415
REMARK INTER:                  -4.153
REMARK INTRA:                  -0.262
REMARK UNBOUND:                -0.176
REMARK SMILES CCCCCCC(=O)[O-]
REMARK SMILES IDX 5 1 6 2 7 3 8 4 9 5 4 6 3 7 2 8 1 9
REMARK H PARENT
REMARK Flexibility Score: inf
ROOT
ATOM      1  C   UNL     1     -21.913 -12.224   4.945  1.00  0.00     0.006 C 
ENDROOT
BRANCH   1   2
ATOM      2  C   UNL     1     -20.934 -12.320   3.760  1.00  0.00     0.053 C 
BRANCH   2   3
ATOM      3  C   UNL     1     -19.939 -11.199   3.734  1.00  0.00     0.041 C 
ATOM      4  O   UNL     1     -18.728 -11.428   3.472  1.00  0.00    -0.550 OA
ATOM      5  O   UNL     1     -20.337  -9.907   4.054  1.00  0.00    -0.550 OA
ENDBRANCH   2   3
ENDBRANCH   1   2
BRANCH   1   6
ATOM      6  C   UNL     1     -23.395 -12.289   4.536  1.00  0.00     0.000 C 
BRANCH   6   7
ATOM      7  C   UNL     1     -24.058 -13.657   4.809  1.00  0.00    -0.000 C 
BRANCH   7   8
ATOM      8  C   UNL     1     -24.589 -14.332   3.532  1.00  0.00    -0.003 C 
ATOM      9  C   UNL     1     -23.469 -14.955   2.698  1.00  0.00     0.004 C 
ENDBRANCH   7   8
ENDBRANCH   6   7
ENDBRANCH   1   6
TORSDOF 5
ENDMDL
MODEL 8
REMARK VINA RESULT:    -3.247      3.298      4.900
REMARK INTER + INTRA:          -4.373
REMARK INTER:                  -4.086
REMARK INTRA:                  -0.287
REMARK UNBOUND:                -0.176
REMARK SMILES CCCCCCC(=O)[O-]
REMARK SMILES IDX 5 1 6 2 7 3 8 4 9 5 4 6 3 7 2 8 1 9
REMARK H PARENT
REMARK Flexibility Score: inf
ROOT
ATOM      1  C   UNL     1     -21.960 -10.236   5.106  1.00  0.00     0.006 C 
ENDROOT
BRANCH   1   2
ATOM      2  C   UNL     1     -20.771 -10.027   4.149  1.00  0.00     0.053 C 
BRANCH   2   3
ATOM      3  C   UNL     1     -20.094 -11.311   3.773  1.00  0.00     0.041 C 
ATOM      4  O   UNL     1     -18.877 -11.317   3.450  1.00  0.00    -0.550 OA
ATOM      5  O   UNL     1     -20.820 -12.494   3.728  1.00  0.00    -0.550 OA
ENDBRANCH   2   3
ENDBRANCH   1   2
BRANCH   1   6
ATOM      6  C   UNL     1     -23.330  -9.918   4.478  1.00  0.00     0.000 C 
BRANCH   6   7
ATOM      7  C   UNL     1     -24.427 -10.951   4.816  1.00  0.00    -0.000 C 
BRANCH   7   8
ATOM      8  C   UNL     1     -23.856 -12.298   5.293  1.00  0.00    -0.003 C 
ATOM      9  C   UNL     1     -24.159 -13.434   4.316  1.00  0.00     0.004 C 
ENDBRANCH   7   8
ENDBRANCH   6   7
ENDBRANCH   1   6
TORSDOF 5
ENDMDL
MODEL 9
REMARK VINA RESULT:    -3.133     10.063     11.295
REMARK INTER + INTRA:          -4.225
REMARK INTER:                  -4.143
REMARK INTRA:                  -0.082
REMARK UNBOUND:                -0.176
REMARK SMILES CCCCCCC(=O)[O-]
REMARK SMILES IDX 5 1 6 2 7 3 8 4 9 5 4 6 3 7 2 8 1 9
REMARK H PARENT
REMARK Flexibility Score: inf
ROOT
ATOM      1  C   UNL     1     -17.837 -17.419  -3.587  1.00  0.00     0.006 C 
ENDROOT
BRANCH   1   2
ATOM      2  C   UNL     1     -16.841 -16.639  -4.465  1.00  0.00     0.053 C 
BRANCH   2   3
ATOM      3  C   UNL     1     -16.063 -15.615  -3.693  1.00  0.00     0.041 C 
ATOM      4  O   UNL     1     -16.348 -14.392  -3.792  1.00  0.00    -0.550 OA
ATOM      5  O   UNL     1     -14.988 -16.006  -2.905  1.00  0.00    -0.550 OA
ENDBRANCH   2   3
ENDBRANCH   1   2
BRANCH   1   6
ATOM      6  C   UNL     1     -18.333 -18.731  -4.223  1.00  0.00     0.000 C 
BRANCH   6   7
ATOM      7  C   UNL     1     -19.407 -19.462  -3.388  1.00  0.00    -0.000 C 
BRANCH   7   8
ATOM      8  C   UNL     1     -19.848 -20.796  -4.013  1.00  0.00    -0.003 C 
ATOM      9  C   UNL     1     -20.832 -20.598  -5.167  1.00  0.00     0.004 C 
ENDBRANCH   7   8
ENDBRANCH   6   7
ENDBRANCH   1   6
TORSDOF 5
ENDMDL
