MODEL 1
REMARK VINA RESULT:    -4.552      0.000      0.000
REMARK INTER + INTRA:          -8.651
REMARK INTER:                  -7.746
REMARK INTRA:                  -0.906
REMARK UNBOUND:                -0.906
REMARK SMILES CCCCCCCCCCCCCC(=O)[O-]
REMARK SMILES IDX 8 1 9 2 10 3 11 4 12 5 13 6 14 7 15 8 16 9 7 10 6 11 5 12
REMARK SMILES IDX 4 13 3 14 2 15 1 16
REMARK H PARENT
REMARK Flexibility Score: inf
ROOT
ATOM      1  C   UNL     1      17.359  20.555 -12.334  1.00  0.00     0.000 C 
ENDROOT
BRANCH   1   2
ATOM      2  C   UNL     1      15.871  20.172 -12.219  1.00  0.00     0.000 C 
BRANCH   2   3
ATOM      3  C   UNL     1      14.926  21.342 -11.891  1.00  0.00     0.000 C 
BRANCH   3   4
ATOM      4  C   UNL     1      15.259  22.615 -12.686  1.00  0.00     0.000 C 
BRANCH   4   5
ATOM      5  C   UNL     1      14.006  23.308 -13.244  1.00  0.00     0.006 C 
BRANCH   5   6
ATOM      6  C   UNL     1      12.718  22.533 -12.937  1.00  0.00     0.053 C 
BRANCH   6   7
ATOM      7  C   UNL     1      11.854  23.309 -11.994  1.00  0.00     0.041 C 
ATOM      8  O   UNL     1      12.344  24.250 -11.315  1.00  0.00    -0.550 OA
ATOM      9  O   UNL     1      10.497  23.026 -11.900  1.00  0.00    -0.550 OA
ENDBRANCH   6   7
ENDBRANCH   5   6
ENDBRANCH   4   5
ENDBRANCH   3   4
ENDBRANCH   2   3
ENDBRANCH   1   2
BRANCH   1  10
ATOM     10  C   UNL     1      18.069  20.058 -13.609  1.00  0.00     0.000 C 
BRANCH  10  11
ATOM     11  C   UNL     1      19.288  19.151 -13.366  1.00  0.00    -0.000 C 
BRANCH  11  12
ATOM     12  C   UNL     1      18.908  17.669 -13.211  1.00  0.00    -0.000 C 
BRANCH  12  13
ATOM     13  C   UNL     1      19.418  17.063 -11.893  1.00  0.00    -0.000 C 
BRANCH  13  14
ATOM     14  C   UNL     1      19.620  18.123 -10.796  1.00  0.00    -0.000 C 
BRANCH  14  15
ATOM     15  C   UNL     1      20.908  17.898  -9.990  1.00  0.00    -0.003 C 
ATOM     16  C   UNL     1      21.947  17.074 -10.750  1.00  0.00     0.004 C 
ENDBRANCH  14  15
ENDBRANCH  13  14
ENDBRANCH  12  13
ENDBRANCH  11  12
ENDBRANCH  10  11
ENDBRANCH   1  10
TORSDOF 12
ENDMDL
MODEL 2
REMARK VINA RESULT:    -4.495      3.571      8.173
REMARK INTER + INTRA:          -8.555
REMARK INTER:                  -7.870
REMARK INTRA:                  -0.684
REMARK UNBOUND:                -0.906
REMARK SMILES CCCCCCCCCCCCCC(=O)[O-]
REMARK SMILES IDX 8 1 9 2 10 3 11 4 12 5 13 6 14 7 15 8 16 9 7 10 6 11 5 12
REMARK SMILES IDX 4 13 3 14 2 15 1 16
REMARK H PARENT
REMARK Flexibility Score: inf
ROOT
ATOM      1  C   UNL     1      16.821  20.585 -12.084  1.00  0.00     0.000 C 
ENDROOT
BRANCH   1   2
ATOM      2  C   UNL     1      17.708  20.444 -13.336  1.00  0.00     0.000 C 
BRANCH   2   3
ATOM      3  C   UNL     1      17.508  19.137 -14.125  1.00  0.00     0.000 C 
BRANCH   3   4
ATOM      4  C   UNL     1      18.723  18.198 -14.036  1.00  0.00     0.000 C 
BRANCH   4   5
ATOM      5  C   UNL     1      19.745  18.653 -12.982  1.00  0.00     0.006 C 
BRANCH   5   6
ATOM      6  C   UNL     1      20.131  17.529 -12.012  1.00  0.00     0.053 C 
BRANCH   6   7
ATOM      7  C   UNL     1      19.866  17.947 -10.600  1.00  0.00     0.041 C 
ATOM      8  O   UNL     1      18.851  18.640 -10.324  1.00  0.00    -0.550 OA
ATOM      9  O   UNL     1      20.713  17.529  -9.580  1.00  0.00    -0.550 OA
ENDBRANCH   6   7
ENDBRANCH   5   6
ENDBRANCH   4   5
ENDBRANCH   3   4
ENDBRANCH   2   3
ENDBRANCH   1   2
BRANCH   1  10
ATOM     10  C   UNL     1      15.493  21.338 -12.301  1.00  0.00     0.000 C 
BRANCH  10  11
ATOM     11  C   UNL     1      15.637  22.767 -12.855  1.00  0.00    -0.000 C 
BRANCH  11  12
ATOM     12  C   UNL     1      14.375  23.619 -12.640  1.00  0.00    -0.000 C 
BRANCH  12  13
ATOM     13  C   UNL     1      13.369  23.487 -13.795  1.00  0.00    -0.000 C 
BRANCH  13  14
ATOM     14  C   UNL     1      12.187  22.565 -13.444  1.00  0.00    -0.000 C 
BRANCH  14  15
ATOM     15  C   UNL     1      11.343  23.109 -12.282  1.00  0.00    -0.003 C 
ATOM     16  C   UNL     1      10.399  24.232 -12.708  1.00  0.00     0.004 C 
ENDBRANCH  14  15
ENDBRANCH  13  14
ENDBRANCH  12  13
ENDBRANCH  11  12
ENDBRANCH  10  11
ENDBRANCH   1  10
TORSDOF 12
ENDMDL
MODEL 3
REMARK VINA RESULT:    -4.433      1.136      1.835
REMARK INTER + INTRA:          -8.449
REMARK INTER:                  -7.526
REMARK INTRA:                  -0.922
REMARK UNBOUND:                -0.906
REMARK SMILES CCCCCCCCCCCCCC(=O)[O-]
REMARK SMILES IDX 8 1 9 2 10 3 11 4 12 5 13 6 14 7 15 8 16 9 7 10 6 11 5 12
REMARK SMILES IDX 4 13 3 14 2 15 1 16
REMARK H PARENT
REMARK Flexibility Score: inf
ROOT
ATOM      1  C   UNL     1      18.774  19.786 -14.125  1.00  0.00     0.000 C 
ENDROOT
BRANCH   1   2
ATOM      2  C   UNL     1      17.974  20.842 -13.339  1.00  0.00     0.000 C 
BRANCH   2   3
ATOM      3  C   UNL     1      16.872  20.272 -12.428  1.00  0.00     0.000 C 
BRANCH   3   4
ATOM      4  C   UNL     1      15.711  21.258 -12.212  1.00  0.00     0.000 C 
BRANCH   4   5
ATOM      5  C   UNL     1      15.866  22.543 -13.041  1.00  0.00     0.006 C 
BRANCH   5   6
ATOM      6  C   UNL     1      14.520  23.215 -13.342  1.00  0.00     0.053 C 
BRANCH   6   7
ATOM      7  C   UNL     1      13.725  23.374 -12.085  1.00  0.00     0.041 C 
ATOM      8  O   UNL     1      14.044  24.251 -11.240  1.00  0.00    -0.550 OA
ATOM      9  O   UNL     1      12.601  22.586 -11.868  1.00  0.00    -0.550 OA
ENDBRANCH   6   7
ENDBRANCH   5   6
ENDBRANCH   4   5
ENDBRANCH   3   4
ENDBRANCH   2   3
ENDBRANCH   1   2
BRANCH   1  10
ATOM     10  C   UNL     1      18.198  18.356 -14.078  1.00  0.00     0.000 C 
BRANCH  10  11
ATOM     11  C   UNL     1      19.200  17.262 -13.665  1.00  0.00    -0.000 C 
BRANCH  11  12
ATOM     12  C   UNL     1      20.157  17.719 -12.553  1.00  0.00    -0.000 C 
BRANCH  12  13
ATOM     13  C   UNL     1      19.475  17.781 -11.175  1.00  0.00    -0.000 C 
BRANCH  13  14
ATOM     14  C   UNL     1      20.471  18.065 -10.037  1.00  0.00    -0.000 C 
BRANCH  14  15
ATOM     15  C   UNL     1      21.822  17.365 -10.250  1.00  0.00    -0.003 C 
ATOM     16  C   UNL     1      22.162  16.379  -9.133  1.00  0.00     0.004 C 
ENDBRANCH  14  15
ENDBRANCH  13  14
ENDBRANCH  12  13
ENDBRANCH  11  12
ENDBRANCH  10  11
ENDBRANCH   1  10
TORSDOF 12
ENDMDL
MODEL 4
REMARK VINA RESULT:    -4.341      2.064      4.198
REMARK INTER + INTRA:          -8.292
REMARK INTER:                  -7.451
REMARK INTRA:                  -0.841
REMARK UNBOUND:                -0.906
REMARK SMILES CCCCCCCCCCCCCC(=O)[O-]
REMARK SMILES IDX 8 1 9 2 10 3 11 4 12 5 13 6 14 7 15 8 16 9 7 10 6 11 5 12
REMARK SMILES IDX 4 13 3 14 2 15 1 16
REMARK H PARENT
REMARK Flexibility Score: inf
ROOT
ATOM      1  C   UNL     1      19.283  17.103 -11.715  1.00  0.00     0.000 C 
ENDROOT
BRANCH   1   2
ATOM      2  C   UNL     1      19.027  17.419 -13.201  1.00  0.00     0.000 C 
BRANCH   2   3
ATOM      3  C   UNL     1      19.077  18.915 -13.562  1.00  0.00     0.000 C 
BRANCH   3   4
ATOM      4  C   UNL     1      17.691  19.494 -13.890  1.00  0.00     0.000 C 
BRANCH   4   5
ATOM      5  C   UNL     1      17.366  20.751 -13.066  1.00  0.00     0.006 C 
BRANCH   5   6
ATOM      6  C   UNL     1      16.207  20.529 -12.085  1.00  0.00     0.053 C 
BRANCH   6   7
ATOM      7  C   UNL     1      15.221  21.650 -12.182  1.00  0.00     0.041 C 
ATOM      8  O   UNL     1      14.138  21.598 -11.542  1.00  0.00    -0.550 OA
ATOM      9  O   UNL     1      15.518  22.775 -12.943  1.00  0.00    -0.550 OA
ENDBRANCH   6   7
ENDBRANCH   5   6
ENDBRANCH   4   5
ENDBRANCH   3   4
ENDBRANCH   2   3
ENDBRANCH   1   2
BRANCH   1  10
ATOM     10  C   UNL     1      19.700  18.309 -10.849  1.00  0.00     0.000 C 
BRANCH  10  11
ATOM     11  C   UNL     1      20.919  18.069  -9.940  1.00  0.00    -0.000 C 
BRANCH  11  12
ATOM     12  C   UNL     1      21.410  16.613  -9.974  1.00  0.00    -0.000 C 
BRANCH  12  13
ATOM     13  C   UNL     1      22.926  16.506 -10.212  1.00  0.00    -0.000 C 
BRANCH  13  14
ATOM     14  C   UNL     1      23.695  16.100  -8.943  1.00  0.00    -0.000 C 
BRANCH  14  15
ATOM     15  C   UNL     1      22.761  15.803  -7.760  1.00  0.00    -0.003 C 
ATOM     16  C   UNL     1      22.783  14.333  -7.341  1.00  0.00     0.004 C 
ENDBRANCH  14  15
ENDBRANCH  13  14
ENDBRANCH  12  13
ENDBRANCH  11  12
ENDBRANCH  10  11
ENDBRANCH   1  10
TORSDOF 12
ENDMDL
MODEL 5
REMARK VINA RESULT:    -4.300      1.385      2.962
REMARK INTER + INTRA:          -8.221
REMARK INTER:                  -7.303
REMARK INTRA:                  -0.919
REMARK UNBOUND:                -0.906
REMARK SMILES CCCCCCCCCCCCCC(=O)[O-]
REMARK SMILES IDX 8 1 9 2 10 3 11 4 12 5 13 6 14 7 15 8 16 9 7 10 6 11 5 12
REMARK SMILES IDX 4 13 3 14 2 15 1 16
REMARK H PARENT
REMARK Flexibility Score: inf
ROOT
ATOM      1  C   UNL     1      15.636  22.674 -12.613  1.00  0.00     0.000 C 
ENDROOT
BRANCH   1   2
ATOM      2  C   UNL     1      14.458  23.652 -12.794  1.00  0.00     0.000 C 
BRANCH   2   3
ATOM      3  C   UNL     1      13.602  23.406 -14.050  1.00  0.00     0.000 C 
BRANCH   3   4
ATOM      4  C   UNL     1      12.193  22.889 -13.717  1.00  0.00     0.000 C 
BRANCH   4   5
ATOM      5  C   UNL     1      11.840  23.055 -12.230  1.00  0.00     0.006 C 
BRANCH   5   6
ATOM      6  C   UNL     1      10.854  24.206 -11.984  1.00  0.00     0.053 C 
BRANCH   6   7
ATOM      7  C   UNL     1      11.192  24.918 -10.713  1.00  0.00     0.041 C 
ATOM      8  O   UNL     1      12.390  25.185 -10.435  1.00  0.00    -0.550 OA
ATOM      9  O   UNL     1      10.178  25.329  -9.856  1.00  0.00    -0.550 OA
ENDBRANCH   6   7
ENDBRANCH   5   6
ENDBRANCH   4   5
ENDBRANCH   3   4
ENDBRANCH   2   3
ENDBRANCH   1   2
BRANCH   1  10
ATOM     10  C   UNL     1      15.252  21.271 -12.103  1.00  0.00     0.000 C 
BRANCH  10  11
ATOM     11  C   UNL     1      16.358  20.207 -12.225  1.00  0.00    -0.000 C 
BRANCH  11  12
ATOM     12  C   UNL     1      17.547  20.679 -13.078  1.00  0.00    -0.000 C 
BRANCH  12  13
ATOM     13  C   UNL     1      18.108  19.564 -13.977  1.00  0.00    -0.000 C 
BRANCH  13  14
ATOM     14  C   UNL     1      18.514  18.312 -13.180  1.00  0.00    -0.000 C 
BRANCH  14  15
ATOM     15  C   UNL     1      19.702  18.573 -12.241  1.00  0.00    -0.003 C 
ATOM     16  C   UNL     1      19.348  18.380 -10.767  1.00  0.00     0.004 C 
ENDBRANCH  14  15
ENDBRANCH  13  14
ENDBRANCH  12  13
ENDBRANCH  11  12
ENDBRANCH  10  11
ENDBRANCH   1  10
TORSDOF 12
ENDMDL
MODEL 6
REMARK VINA RESULT:    -4.257      3.593      8.420
REMARK INTER + INTRA:          -8.149
REMARK INTER:                  -7.032
REMARK INTRA:                  -1.118
REMARK UNBOUND:                -0.906
REMARK SMILES CCCCCCCCCCCCCC(=O)[O-]
REMARK SMILES IDX 8 1 9 2 10 3 11 4 12 5 13 6 14 7 15 8 16 9 7 10 6 11 5 12
REMARK SMILES IDX 4 13 3 14 2 15 1 16
REMARK H PARENT
REMARK Flexibility Score: inf
ROOT
ATOM      1  C   UNL     1      13.493  22.232 -12.224  1.00  0.00     0.000 C 
ENDROOT
BRANCH   1   2
ATOM      2  C   UNL     1      14.856  21.532 -12.063  1.00  0.00     0.000 C 
BRANCH   2   3
ATOM      3  C   UNL     1      16.011  22.178 -12.848  1.00  0.00     0.000 C 
BRANCH   3   4
ATOM      4  C   UNL     1      17.208  21.230 -13.032  1.00  0.00     0.000 C 
BRANCH   4   5
ATOM      5  C   UNL     1      16.954  19.836 -12.435  1.00  0.00     0.006 C 
BRANCH   5   6
ATOM      6  C   UNL     1      18.085  18.847 -12.746  1.00  0.00     0.053 C 
BRANCH   6   7
ATOM      7  C   UNL     1      18.650  18.288 -11.479  1.00  0.00     0.041 C 
ATOM      8  O   UNL     1      18.528  18.921 -10.397  1.00  0.00    -0.550 OA
ATOM      9  O   UNL     1      19.270  17.044 -11.483  1.00  0.00    -0.550 OA
ENDBRANCH   6   7
ENDBRANCH   5   6
ENDBRANCH   4   5
ENDBRANCH   3   4
ENDBRANCH   2   3
ENDBRANCH   1   2
BRANCH   1  10
ATOM     10  C   UNL     1      13.381  23.181 -13.434  1.00  0.00     0.000 C 
BRANCH  10  11
ATOM     11  C   UNL     1      13.454  24.681 -13.096  1.00  0.00    -0.000 C 
BRANCH  11  12
ATOM     12  C   UNL     1      13.418  24.954 -11.583  1.00  0.00    -0.000 C 
BRANCH  12  13
ATOM     13  C   UNL     1      12.334  25.973 -11.193  1.00  0.00    -0.000 C 
BRANCH  13  14
ATOM     14  C   UNL     1      11.108  25.309 -10.541  1.00  0.00    -0.000 C 
BRANCH  14  15
ATOM     15  C   UNL     1      10.067  24.854 -11.576  1.00  0.00    -0.003 C 
ATOM     16  C   UNL     1       9.937  23.334 -11.659  1.00  0.00     0.004 C 
ENDBRANCH  14  15
ENDBRANCH  13  14
ENDBRANCH  12  13
ENDBRANCH  11  12
ENDBRANCH  10  11
ENDBRANCH   1  10
TORSDOF 12
ENDMDL
MODEL 7
REMARK VINA RESULT:    -4.241      2.252      4.364
REMARK INTER + INTRA:          -8.122
REMARK INTER:                  -6.910
REMARK INTRA:                  -1.212
REMARK UNBOUND:                -0.906
REMARK SMILES CCCCCCCCCCCCCC(=O)[O-]
REMARK SMILES IDX 8 1 9 2 10 3 11 4 12 5 13 6 14 7 15 8 16 9 7 10 6 11 5 12
REMARK SMILES IDX 4 13 3 14 2 15 1 16
REMARK H PARENT
REMARK Flexibility Score: inf
ROOT
ATOM      1  C   UNL     1      19.132  17.887 -11.131  1.00  0.00     0.000 C 
ENDROOT
BRANCH   1   2
ATOM      2  C   UNL     1      19.113  17.354 -12.577  1.00  0.00     0.000 C 
BRANCH   2   3
ATOM      3  C   UNL     1      18.571  18.344 -13.623  1.00  0.00     0.000 C 
BRANCH   3   4
ATOM      4  C   UNL     1      18.889  19.808 -13.277  1.00  0.00     0.000 C 
BRANCH   4   5
ATOM      5  C   UNL     1      17.659  20.723 -13.393  1.00  0.00     0.006 C 
BRANCH   5   6
ATOM      6  C   UNL     1      16.650  20.501 -12.258  1.00  0.00     0.053 C 
BRANCH   6   7
ATOM      7  C   UNL     1      15.613  21.579 -12.265  1.00  0.00     0.041 C 
ATOM      8  O   UNL     1      15.769  22.604 -12.980  1.00  0.00    -0.550 OA
ATOM      9  O   UNL     1      14.451  21.431 -11.517  1.00  0.00    -0.550 OA
ENDBRANCH   6   7
ENDBRANCH   5   6
ENDBRANCH   4   5
ENDBRANCH   3   4
ENDBRANCH   2   3
ENDBRANCH   1   2
BRANCH   1  10
ATOM     10  C   UNL     1      20.467  17.705 -10.381  1.00  0.00     0.000 C 
BRANCH  10  11
ATOM     11  C   UNL     1      21.634  17.189 -11.242  1.00  0.00    -0.000 C 
BRANCH  11  12
ATOM     12  C   UNL     1      22.349  15.981 -10.615  1.00  0.00    -0.000 C 
BRANCH  12  13
ATOM     13  C   UNL     1      21.502  15.289  -9.533  1.00  0.00    -0.000 C 
BRANCH  13  14
ATOM     14  C   UNL     1      21.000  13.903  -9.975  1.00  0.00    -0.000 C 
BRANCH  14  15
ATOM     15  C   UNL     1      19.838  13.991 -10.977  1.00  0.00    -0.003 C 
ATOM     16  C   UNL     1      18.708  13.011 -10.663  1.00  0.00     0.004 C 
ENDBRANCH  14  15
ENDBRANCH  13  14
ENDBRANCH  12  13
ENDBRANCH  11  12
ENDBRANCH  10  11
ENDBRANCH   1  10
TORSDOF 12
ENDMDL
MODEL 8
REMARK VINA RESULT:    -4.162     10.840     12.658
REMARK INTER + INTRA:          -7.987
REMARK INTER:                  -5.972
REMARK INTRA:                  -2.015
REMARK UNBOUND:                -0.906
REMARK SMILES CCCCCCCCCCCCCC(=O)[O-]
REMARK SMILES IDX 8 1 9 2 10 3 11 4 12 5 13 6 14 7 15 8 16 9 7 10 6 11 5 12
REMARK SMILES IDX 4 13 3 14 2 15 1 16
REMARK H PARENT
REMARK Flexibility Score: inf
ROOT
ATOM      1  C   UNL     1       5.465  12.306 -11.077  1.00  0.00     0.000 C 
ENDROOT
BRANCH   1   2
ATOM      2  C   UNL     1       4.501  12.874 -10.018  1.00  0.00     0.000 C 
BRANCH   2   3
ATOM      3  C   UNL     1       4.591  14.396  -9.811  1.00  0.00     0.000 C 
BRANCH   3   4
ATOM      4  C   UNL     1       4.672  14.791  -8.327  1.00  0.00     0.000 C 
BRANCH   4   5
ATOM      5  C   UNL     1       5.068  16.263  -8.128  1.00  0.00     0.006 C 
BRANCH   5   6
ATOM      6  C   UNL     1       5.082  16.675  -6.650  1.00  0.00     0.053 C 
BRANCH   6   7
ATOM      7  C   UNL     1       6.309  17.475  -6.344  1.00  0.00     0.041 C 
ATOM      8  O   UNL     1       6.251  18.438  -5.535  1.00  0.00    -0.550 OA
ATOM      9  O   UNL     1       7.527  17.127  -6.916  1.00  0.00    -0.550 OA
ENDBRANCH   6   7
ENDBRANCH   5   6
ENDBRANCH   4   5
ENDBRANCH   3   4
ENDBRANCH   2   3
ENDBRANCH   1   2
BRANCH   1  10
ATOM     10  C   UNL     1       6.576  11.389 -10.530  1.00  0.00     0.000 C 
BRANCH  10  11
ATOM     11  C   UNL     1       7.106  11.766  -9.134  1.00  0.00    -0.000 C 
BRANCH  11  12
ATOM     12  C   UNL     1       8.370  12.638  -9.193  1.00  0.00    -0.000 C 
BRANCH  12  13
ATOM     13  C   UNL     1       8.143  14.046  -8.616  1.00  0.00    -0.000 C 
BRANCH  13  14
ATOM     14  C   UNL     1       8.395  15.155  -9.653  1.00  0.00    -0.000 C 
BRANCH  14  15
ATOM     15  C   UNL     1       8.417  14.619 -11.093  1.00  0.00    -0.003 C 
ATOM     16  C   UNL     1       7.445  15.354 -12.015  1.00  0.00     0.004 C 
ENDBRANCH  14  15
ENDBRANCH  13  14
ENDBRANCH  12  13
ENDBRANCH  11  12
ENDBRANCH  10  11
ENDBRANCH   1  10
TORSDOF 12
ENDMDL
MODEL 9
REMARK VINA RESULT:    -4.145      3.693      7.848
REMARK INTER + INTRA:          -7.958
REMARK INTER:                  -6.691
REMARK INTRA:                  -1.267
REMARK UNBOUND:                -0.906
REMARK SMILES CCCCCCCCCCCCCC(=O)[O-]
REMARK SMILES IDX 8 1 9 2 10 3 11 4 12 5 13 6 14 7 15 8 16 9 7 10 6 11 5 12
REMARK SMILES IDX 4 13 3 14 2 15 1 16
REMARK H PARENT
REMARK Flexibility Score: inf
ROOT
ATOM      1  C   UNL     1      12.772  22.379 -12.698  1.00  0.00     0.000 C 
ENDROOT
BRANCH   1   2
ATOM      2  C   UNL     1      14.149  21.944 -12.161  1.00  0.00     0.000 C 
BRANCH   2   3
ATOM      3  C   UNL     1      15.338  22.767 -12.689  1.00  0.00     0.000 C 
BRANCH   3   4
ATOM      4  C   UNL     1      16.556  21.895 -13.036  1.00  0.00     0.000 C 
BRANCH   4   5
ATOM      5  C   UNL     1      16.573  20.568 -12.260  1.00  0.00     0.006 C 
BRANCH   5   6
ATOM      6  C   UNL     1      17.382  19.477 -12.974  1.00  0.00     0.053 C 
BRANCH   6   7
ATOM      7  C   UNL     1      18.443  18.938 -12.069  1.00  0.00     0.041 C 
ATOM      8  O   UNL     1      19.613  18.757 -12.500  1.00  0.00    -0.550 OA
ATOM      9  O   UNL     1      18.153  18.679 -10.735  1.00  0.00    -0.550 OA
ENDBRANCH   6   7
ENDBRANCH   5   6
ENDBRANCH   4   5
ENDBRANCH   3   4
ENDBRANCH   2   3
ENDBRANCH   1   2
BRANCH   1  10
ATOM     10  C   UNL     1      12.809  23.431 -13.825  1.00  0.00     0.000 C 
BRANCH  10  11
ATOM     11  C   UNL     1      11.820  24.600 -13.659  1.00  0.00    -0.000 C 
BRANCH  11  12
ATOM     12  C   UNL     1      12.470  25.847 -13.039  1.00  0.00    -0.000 C 
BRANCH  12  13
ATOM     13  C   UNL     1      12.444  25.825 -11.502  1.00  0.00    -0.000 C 
BRANCH  13  14
ATOM     14  C   UNL     1      13.841  25.614 -10.891  1.00  0.00    -0.000 C 
BRANCH  14  15
ATOM     15  C   UNL     1      14.855  26.664 -11.370  1.00  0.00    -0.003 C 
ATOM     16  C   UNL     1      16.247  26.079 -11.607  1.00  0.00     0.004 C 
ENDBRANCH  14  15
ENDBRANCH  13  14
ENDBRANCH  12  13
ENDBRANCH  11  12
ENDBRANCH  10  11
ENDBRANCH   1  10
TORSDOF 12
ENDMDL
