MODEL 1
REMARK VINA RESULT:    -7.282      0.000      0.000
REMARK INTER + INTRA:         -11.905
REMARK INTER:                 -10.688
REMARK INTRA:                  -1.217
REMARK UNBOUND:                -1.217
REMARK SMILES O=c1c(O[C@H]2O[C@H](CO)[C@@H](O)[C@H](O)[C@H]2O)c(-c2ccc(O)c(O)c2)oc2cc(O)cc(O)c12
REMARK SMILES IDX 4 1 3 2 16 3 25 4 2 5 26 6 1 7 33 8 27 9 31 10 28 11 30 12
REMARK SMILES IDX 17 13 18 14 19 15 20 16 24 17 22 18 21 19 23 21 32 23 29 25
REMARK SMILES IDX 5 27 14 28 6 29 12 30 7 31 10 32 15 33 13 35 8 37 9 38 11 40
REMARK H PARENT 21 20 23 22 32 24 29 26 15 34 13 36 9 39 11 41
REMARK Flexibility Score: inf
ROOT
ATOM      1  O   UNL     1     -37.911   5.448  81.740  1.00  0.00    -0.454 OA
ENDROOT
BRANCH   1   2
ATOM      2  C   UNL     1     -38.662   4.966  80.660  1.00  0.00     0.214 A 
ATOM      3  C   UNL     1     -38.148   4.936  79.348  1.00  0.00     0.180 A 
ATOM      4  O   UNL     1     -38.859   4.383  78.371  1.00  0.00    -0.452 OA
ATOM      5  C   UNL     1     -39.954   4.482  80.890  1.00  0.00     0.239 A 
ATOM      6  C   UNL     1     -40.076   3.882  78.552  1.00  0.00     0.146 A 
ATOM      7  O   UNL     1     -40.432   4.537  82.056  1.00  0.00    -0.285 OA
ATOM      8  C   UNL     1     -40.690   3.922  79.827  1.00  0.00     0.111 A 
ATOM      9  C   UNL     1     -40.751   3.320  77.464  1.00  0.00     0.094 A 
ATOM     10  C   UNL     1     -41.993   3.394  79.981  1.00  0.00     0.134 A 
ATOM     11  C   UNL     1     -42.036   2.800  77.620  1.00  0.00     0.123 A 
ATOM     12  C   UNL     1     -42.655   2.837  78.876  1.00  0.00     0.093 A 
BRANCH   3  13
ATOM     13  C   UNL     1     -36.836   5.523  79.008  1.00  0.00     0.025 A 
ATOM     14  C   UNL     1     -36.743   6.827  78.502  1.00  0.00     0.016 A 
ATOM     15  C   UNL     1     -35.498   7.369  78.178  1.00  0.00     0.051 A 
ATOM     16  C   UNL     1     -34.330   6.616  78.335  1.00  0.00     0.157 A 
ATOM     17  C   UNL     1     -35.672   4.754  79.142  1.00  0.00     0.062 A 
ATOM     18  C   UNL     1     -34.418   5.288  78.818  1.00  0.00     0.158 A 
BRANCH  16  19
ATOM     19  O   UNL     1     -33.115   7.219  78.002  1.00  0.00    -0.504 OA
ATOM     20  H   UNL     1     -32.225   6.742  78.018  1.00  0.00     0.293 HD
ENDBRANCH  16  19
BRANCH  18  21
ATOM     21  O   UNL     1     -33.298   4.472  78.991  1.00  0.00    -0.504 OA
ATOM     22  H   UNL     1     -33.323   3.464  78.951  1.00  0.00     0.293 HD
ENDBRANCH  18  21
ENDBRANCH   3  13
BRANCH  10  23
ATOM     23  O   UNL     1     -42.635   3.416  81.220  1.00  0.00    -0.507 OA
ATOM     24  H   UNL     1     -42.126   3.575  82.082  1.00  0.00     0.293 HD
ENDBRANCH  10  23
BRANCH  11  25
ATOM     25  O   UNL     1     -42.692   2.246  76.522  1.00  0.00    -0.508 OA
ATOM     26  H   UNL     1     -43.030   1.291  76.534  1.00  0.00     0.293 HD
ENDBRANCH  11  25
ENDBRANCH   1   2
BRANCH   1  27
ATOM     27  C   UNL     1     -36.959   4.644  82.444  1.00  0.00     0.339 C 
ATOM     28  C   UNL     1     -37.229   4.689  83.978  1.00  0.00     0.214 C 
ATOM     29  O   UNL     1     -35.642   5.030  82.075  1.00  0.00    -0.332 OA
ATOM     30  C   UNL     1     -35.909   4.652  84.781  1.00  0.00     0.180 C 
ATOM     31  C   UNL     1     -35.203   6.149  82.817  1.00  0.00     0.179 C 
ATOM     32  C   UNL     1     -34.895   5.721  84.275  1.00  0.00     0.177 C 
BRANCH  28  33
ATOM     33  O   UNL     1     -37.950   5.851  84.306  1.00  0.00    -0.384 OA
ATOM     34  H   UNL     1     -37.523   6.604  83.818  1.00  0.00     0.211 HD
ENDBRANCH  28  33
BRANCH  30  35
ATOM     35  O   UNL     1     -35.347   3.362  84.743  1.00  0.00    -0.387 OA
ATOM     36  H   UNL     1     -35.739   2.877  83.970  1.00  0.00     0.211 HD
ENDBRANCH  30  35
BRANCH  31  37
ATOM     37  C   UNL     1     -33.974   6.760  82.127  1.00  0.00     0.191 C 
BRANCH  37  38
ATOM     38  O   UNL     1     -32.990   7.100  83.068  1.00  0.00    -0.394 OA
ATOM     39  H   UNL     1     -32.957   6.367  83.736  1.00  0.00     0.210 HD
ENDBRANCH  37  38
ENDBRANCH  31  37
BRANCH  32  40
ATOM     40  O   UNL     1     -34.877   6.842  85.125  1.00  0.00    -0.387 OA
ATOM     41  H   UNL     1     -35.012   6.520  86.054  1.00  0.00     0.211 HD
ENDBRANCH  32  40
ENDBRANCH   1  27
TORSDOF 12
ENDMDL
MODEL 2
REMARK VINA RESULT:    -6.937      1.978      6.377
REMARK INTER + INTRA:         -11.399
REMARK INTER:                  -9.755
REMARK INTRA:                  -1.644
REMARK UNBOUND:                -1.217
REMARK SMILES O=c1c(O[C@H]2O[C@H](CO)[C@@H](O)[C@H](O)[C@H]2O)c(-c2ccc(O)c(O)c2)oc2cc(O)cc(O)c12
REMARK SMILES IDX 4 1 3 2 16 3 25 4 2 5 26 6 1 7 33 8 27 9 31 10 28 11 30 12
REMARK SMILES IDX 17 13 18 14 19 15 20 16 24 17 22 18 21 19 23 21 32 23 29 25
REMARK SMILES IDX 5 27 14 28 6 29 12 30 7 31 10 32 15 33 13 35 8 37 9 38 11 40
REMARK H PARENT 21 20 23 22 32 24 29 26 15 34 13 36 9 39 11 41
REMARK Flexibility Score: inf
ROOT
ATOM      1  O   UNL     1     -36.937   4.929  81.615  1.00  0.00    -0.454 OA
ENDROOT
BRANCH   1   2
ATOM      2  C   UNL     1     -36.409   5.710  80.578  1.00  0.00     0.214 A 
ATOM      3  C   UNL     1     -36.934   5.668  79.270  1.00  0.00     0.180 A 
ATOM      4  O   UNL     1     -36.464   6.495  78.341  1.00  0.00    -0.452 OA
ATOM      5  C   UNL     1     -35.342   6.573  80.850  1.00  0.00     0.239 A 
ATOM      6  C   UNL     1     -35.475   7.353  78.566  1.00  0.00     0.146 A 
ATOM      7  O   UNL     1     -34.847   6.591  82.010  1.00  0.00    -0.285 OA
ATOM      8  C   UNL     1     -34.854   7.422  79.836  1.00  0.00     0.111 A 
ATOM      9  C   UNL     1     -35.045   8.184  77.527  1.00  0.00     0.094 A 
ATOM     10  C   UNL     1     -33.792   8.335  80.036  1.00  0.00     0.134 A 
ATOM     11  C   UNL     1     -33.998   9.085  77.729  1.00  0.00     0.123 A 
ATOM     12  C   UNL     1     -33.374   9.159  78.980  1.00  0.00     0.093 A 
BRANCH   3  13
ATOM     13  C   UNL     1     -37.988   4.710  78.880  1.00  0.00     0.025 A 
ATOM     14  C   UNL     1     -39.328   5.114  78.794  1.00  0.00     0.016 A 
ATOM     15  C   UNL     1     -40.317   4.198  78.432  1.00  0.00     0.051 A 
ATOM     16  C   UNL     1     -39.990   2.864  78.166  1.00  0.00     0.157 A 
ATOM     17  C   UNL     1     -37.659   3.369  78.642  1.00  0.00     0.062 A 
ATOM     18  C   UNL     1     -38.644   2.441  78.278  1.00  0.00     0.158 A 
BRANCH  16  19
ATOM     19  O   UNL     1     -41.024   2.000  77.798  1.00  0.00    -0.504 OA
ATOM     20  H   UNL     1     -41.076   1.529  76.906  1.00  0.00     0.293 HD
ENDBRANCH  16  19
BRANCH  18  21
ATOM     21  O   UNL     1     -38.244   1.125  78.040  1.00  0.00    -0.504 OA
ATOM     22  H   UNL     1     -37.738   0.829  77.217  1.00  0.00     0.293 HD
ENDBRANCH  18  21
ENDBRANCH   3  13
BRANCH  10  23
ATOM     23  O   UNL     1     -33.152   8.433  81.272  1.00  0.00    -0.507 OA
ATOM     24  H   UNL     1     -32.326   9.005  81.401  1.00  0.00     0.293 HD
ENDBRANCH  10  23
BRANCH  11  25
ATOM     25  O   UNL     1     -33.585   9.903  76.680  1.00  0.00    -0.508 OA
ATOM     26  H   UNL     1     -32.617  10.186  76.579  1.00  0.00     0.293 HD
ENDBRANCH  11  25
ENDBRANCH   1   2
BRANCH   1  27
ATOM     27  C   UNL     1     -37.930   5.415  82.525  1.00  0.00     0.339 C 
ATOM     28  C   UNL     1     -37.536   5.083  83.996  1.00  0.00     0.214 C 
ATOM     29  O   UNL     1     -39.208   4.927  82.142  1.00  0.00    -0.332 OA
ATOM     30  C   UNL     1     -38.782   4.751  84.848  1.00  0.00     0.180 C 
ATOM     31  C   UNL     1     -39.435   3.623  82.634  1.00  0.00     0.179 C 
ATOM     32  C   UNL     1     -39.682   3.679  84.164  1.00  0.00     0.177 C 
BRANCH  28  33
ATOM     33  O   UNL     1     -36.644   3.996  84.021  1.00  0.00    -0.384 OA
ATOM     34  H   UNL     1     -37.130   3.212  83.652  1.00  0.00     0.211 HD
ENDBRANCH  28  33
BRANCH  30  35
ATOM     35  O   UNL     1     -39.512   5.923  85.125  1.00  0.00    -0.387 OA
ATOM     36  H   UNL     1     -40.443   5.661  85.350  1.00  0.00     0.211 HD
ENDBRANCH  30  35
BRANCH  31  37
ATOM     37  C   UNL     1     -40.621   3.001  81.885  1.00  0.00     0.191 C 
BRANCH  37  38
ATOM     38  O   UNL     1     -41.643   2.640  82.777  1.00  0.00    -0.394 OA
ATOM     39  H   UNL     1     -41.613   3.282  83.533  1.00  0.00     0.210 HD
ENDBRANCH  37  38
ENDBRANCH  31  37
BRANCH  32  40
ATOM     40  O   UNL     1     -39.483   2.411  84.742  1.00  0.00    -0.387 OA
ATOM     41  H   UNL     1     -38.533   2.352  85.023  1.00  0.00     0.211 HD
ENDBRANCH  32  40
ENDBRANCH   1  27
TORSDOF 12
ENDMDL
MODEL 3
REMARK VINA RESULT:    -6.784      2.077      5.668
REMARK INTER + INTRA:         -11.174
REMARK INTER:                 -10.020
REMARK INTRA:                  -1.153
REMARK UNBOUND:                -1.217
REMARK SMILES O=c1c(O[C@H]2O[C@H](CO)[C@@H](O)[C@H](O)[C@H]2O)c(-c2ccc(O)c(O)c2)oc2cc(O)cc(O)c12
REMARK SMILES IDX 4 1 3 2 16 3 25 4 2 5 26 6 1 7 33 8 27 9 31 10 28 11 30 12
REMARK SMILES IDX 17 13 18 14 19 15 20 16 24 17 22 18 21 19 23 21 32 23 29 25
REMARK SMILES IDX 5 27 14 28 6 29 12 30 7 31 10 32 15 33 13 35 8 37 9 38 11 40
REMARK H PARENT 21 20 23 22 32 24 29 26 15 34 13 36 9 39 11 41
REMARK Flexibility Score: inf
ROOT
ATOM      1  O   UNL     1     -37.993   5.758  81.714  1.00  0.00    -0.454 OA
ENDROOT
BRANCH   1   2
ATOM      2  C   UNL     1     -37.287   6.320  80.642  1.00  0.00     0.214 A 
ATOM      3  C   UNL     1     -37.574   5.984  79.303  1.00  0.00     0.180 A 
ATOM      4  O   UNL     1     -36.944   6.611  78.314  1.00  0.00    -0.452 OA
ATOM      5  C   UNL     1     -36.282   7.256  80.903  1.00  0.00     0.239 A 
ATOM      6  C   UNL     1     -36.006   7.531  78.518  1.00  0.00     0.146 A 
ATOM      7  O   UNL     1     -35.999   7.535  82.100  1.00  0.00    -0.285 OA
ATOM      8  C   UNL     1     -35.619   7.887  79.832  1.00  0.00     0.111 A 
ATOM      9  C   UNL     1     -35.397   8.138  77.415  1.00  0.00     0.094 A 
ATOM     10  C   UNL     1     -34.606   8.858  80.012  1.00  0.00     0.134 A 
ATOM     11  C   UNL     1     -34.398   9.095  77.598  1.00  0.00     0.123 A 
ATOM     12  C   UNL     1     -34.005   9.453  78.893  1.00  0.00     0.093 A 
BRANCH   3  13
ATOM     13  C   UNL     1     -38.546   4.930  78.951  1.00  0.00     0.025 A 
ATOM     14  C   UNL     1     -39.925   5.176  79.015  1.00  0.00     0.016 A 
ATOM     15  C   UNL     1     -40.835   4.171  78.687  1.00  0.00     0.051 A 
ATOM     16  C   UNL     1     -40.388   2.901  78.305  1.00  0.00     0.157 A 
ATOM     17  C   UNL     1     -38.093   3.652  78.596  1.00  0.00     0.062 A 
ATOM     18  C   UNL     1     -38.998   2.636  78.265  1.00  0.00     0.158 A 
BRANCH  16  19
ATOM     19  O   UNL     1     -41.350   1.941  77.979  1.00  0.00    -0.504 OA
ATOM     20  H   UNL     1     -41.401   1.475  77.085  1.00  0.00     0.293 HD
ENDBRANCH  16  19
BRANCH  18  21
ATOM     21  O   UNL     1     -38.478   1.391  77.906  1.00  0.00    -0.504 OA
ATOM     22  H   UNL     1     -37.852   0.852  78.487  1.00  0.00     0.293 HD
ENDBRANCH  18  21
ENDBRANCH   3  13
BRANCH  10  23
ATOM     23  O   UNL     1     -34.193   9.236  81.290  1.00  0.00    -0.507 OA
ATOM     24  H   UNL     1     -33.212   9.307  81.535  1.00  0.00     0.293 HD
ENDBRANCH  10  23
BRANCH  11  25
ATOM     25  O   UNL     1     -33.803   9.687  76.486  1.00  0.00    -0.508 OA
ATOM     26  H   UNL     1     -33.059   9.226  75.975  1.00  0.00     0.293 HD
ENDBRANCH  11  25
ENDBRANCH   1   2
BRANCH   1  27
ATOM     27  C   UNL     1     -37.857   4.386  82.100  1.00  0.00     0.339 C 
ATOM     28  C   UNL     1     -38.186   4.205  83.612  1.00  0.00     0.214 C 
ATOM     29  O   UNL     1     -36.571   3.910  81.724  1.00  0.00    -0.332 OA
ATOM     30  C   UNL     1     -37.285   3.126  84.256  1.00  0.00     0.180 C 
ATOM     31  C   UNL     1     -35.592   4.248  82.684  1.00  0.00     0.179 C 
ATOM     32  C   UNL     1     -35.778   3.373  83.951  1.00  0.00     0.177 C 
BRANCH  28  33
ATOM     33  O   UNL     1     -38.018   5.426  84.291  1.00  0.00    -0.384 OA
ATOM     34  H   UNL     1     -37.983   6.139  83.600  1.00  0.00     0.211 HD
ENDBRANCH  28  33
BRANCH  30  35
ATOM     35  O   UNL     1     -37.684   1.842  83.838  1.00  0.00    -0.387 OA
ATOM     36  H   UNL     1     -38.321   1.946  83.084  1.00  0.00     0.211 HD
ENDBRANCH  30  35
BRANCH  31  37
ATOM     37  C   UNL     1     -34.198   4.072  82.065  1.00  0.00     0.191 C 
BRANCH  37  38
ATOM     38  O   UNL     1     -33.367   3.320  82.910  1.00  0.00    -0.394 OA
ATOM     39  H   UNL     1     -33.391   2.382  82.585  1.00  0.00     0.210 HD
ENDBRANCH  37  38
ENDBRANCH  31  37
BRANCH  32  40
ATOM     40  O   UNL     1     -35.128   3.956  85.053  1.00  0.00    -0.387 OA
ATOM     41  H   UNL     1     -35.212   4.942  84.967  1.00  0.00     0.211 HD
ENDBRANCH  32  40
ENDBRANCH   1  27
TORSDOF 12
ENDMDL
MODEL 4
REMARK VINA RESULT:    -6.397      2.932      5.418
REMARK INTER + INTRA:         -10.605
REMARK INTER:                  -9.041
REMARK INTRA:                  -1.564
REMARK UNBOUND:                -1.217
REMARK SMILES O=c1c(O[C@H]2O[C@H](CO)[C@@H](O)[C@H](O)[C@H]2O)c(-c2ccc(O)c(O)c2)oc2cc(O)cc(O)c12
REMARK SMILES IDX 4 1 3 2 16 3 25 4 2 5 26 6 1 7 33 8 27 9 31 10 28 11 30 12
REMARK SMILES IDX 17 13 18 14 19 15 20 16 24 17 22 18 21 19 23 21 32 23 29 25
REMARK SMILES IDX 5 27 14 28 6 29 12 30 7 31 10 32 15 33 13 35 8 37 9 38 11 40
REMARK H PARENT 21 20 23 22 32 24 29 26 15 34 13 36 9 39 11 41
REMARK Flexibility Score: inf
ROOT
ATOM      1  O   UNL     1     -38.652   5.897  79.371  1.00  0.00    -0.454 OA
ENDROOT
BRANCH   1   2
ATOM      2  C   UNL     1     -38.441   4.908  80.343  1.00  0.00     0.214 A 
ATOM      3  C   UNL     1     -37.155   4.609  80.836  1.00  0.00     0.180 A 
ATOM      4  O   UNL     1     -37.013   3.732  81.825  1.00  0.00    -0.452 OA
ATOM      5  C   UNL     1     -39.540   4.210  80.854  1.00  0.00     0.239 A 
ATOM      6  C   UNL     1     -38.033   3.071  82.362  1.00  0.00     0.146 A 
ATOM      7  O   UNL     1     -40.689   4.450  80.392  1.00  0.00    -0.285 OA
ATOM      8  C   UNL     1     -39.352   3.270  81.887  1.00  0.00     0.111 A 
ATOM      9  C   UNL     1     -37.788   2.165  83.398  1.00  0.00     0.094 A 
ATOM     10  C   UNL     1     -40.412   2.538  82.470  1.00  0.00     0.134 A 
ATOM     11  C   UNL     1     -38.837   1.445  83.971  1.00  0.00     0.123 A 
ATOM     12  C   UNL     1     -40.145   1.631  83.507  1.00  0.00     0.093 A 
BRANCH   3  13
ATOM     13  C   UNL     1     -35.938   5.228  80.275  1.00  0.00     0.025 A 
ATOM     14  C   UNL     1     -35.503   4.910  78.980  1.00  0.00     0.016 A 
ATOM     15  C   UNL     1     -34.347   5.496  78.462  1.00  0.00     0.051 A 
ATOM     16  C   UNL     1     -33.597   6.393  79.230  1.00  0.00     0.157 A 
ATOM     17  C   UNL     1     -35.175   6.105  81.059  1.00  0.00     0.062 A 
ATOM     18  C   UNL     1     -34.013   6.697  80.549  1.00  0.00     0.158 A 
BRANCH  16  19
ATOM     19  O   UNL     1     -32.456   6.953  78.651  1.00  0.00    -0.504 OA
ATOM     20  H   UNL     1     -32.268   6.951  77.658  1.00  0.00     0.293 HD
ENDBRANCH  16  19
BRANCH  18  21
ATOM     21  O   UNL     1     -33.310   7.573  81.378  1.00  0.00    -0.504 OA
ATOM     22  H   UNL     1     -32.422   7.354  81.808  1.00  0.00     0.293 HD
ENDBRANCH  18  21
ENDBRANCH   3  13
BRANCH  10  23
ATOM     23  O   UNL     1     -41.726   2.703  82.029  1.00  0.00    -0.507 OA
ATOM     24  H   UNL     1     -42.457   3.039  82.646  1.00  0.00     0.293 HD
ENDBRANCH  10  23
BRANCH  11  25
ATOM     25  O   UNL     1     -38.571   0.546  85.002  1.00  0.00    -0.508 OA
ATOM     26  H   UNL     1     -39.016   0.633  85.908  1.00  0.00     0.293 HD
ENDBRANCH  11  25
ENDBRANCH   1   2
BRANCH   1  27
ATOM     27  C   UNL     1     -38.721   7.291  79.686  1.00  0.00     0.339 C 
ATOM     28  C   UNL     1     -40.204   7.746  79.837  1.00  0.00     0.214 C 
ATOM     29  O   UNL     1     -37.982   8.035  78.727  1.00  0.00    -0.332 OA
ATOM     30  C   UNL     1     -40.407   9.184  79.305  1.00  0.00     0.180 C 
ATOM     31  C   UNL     1     -38.744   8.287  77.564  1.00  0.00     0.179 C 
ATOM     32  C   UNL     1     -39.824   9.356  77.871  1.00  0.00     0.177 C 
BRANCH  28  33
ATOM     33  O   UNL     1     -41.052   6.863  79.145  1.00  0.00    -0.384 OA
ATOM     34  H   UNL     1     -40.602   6.640  78.288  1.00  0.00     0.211 HD
ENDBRANCH  28  33
BRANCH  30  35
ATOM     35  O   UNL     1     -39.847  10.120  80.196  1.00  0.00    -0.387 OA
ATOM     36  H   UNL     1     -38.896   9.875  80.344  1.00  0.00     0.211 HD
ENDBRANCH  30  35
BRANCH  31  37
ATOM     37  C   UNL     1     -37.805   8.727  76.432  1.00  0.00     0.191 C 
BRANCH  37  38
ATOM     38  O   UNL     1     -38.154  10.003  75.961  1.00  0.00    -0.394 OA
ATOM     39  H   UNL     1     -37.333  10.558  75.984  1.00  0.00     0.210 HD
ENDBRANCH  37  38
ENDBRANCH  31  37
BRANCH  32  40
ATOM     40  O   UNL     1     -40.845   9.318  76.903  1.00  0.00    -0.387 OA
ATOM     41  H   UNL     1     -40.529   9.824  76.110  1.00  0.00     0.211 HD
ENDBRANCH  32  40
ENDBRANCH   1  27
TORSDOF 12
ENDMDL
MODEL 5
REMARK VINA RESULT:    -6.380      2.521      5.432
REMARK INTER + INTRA:         -10.581
REMARK INTER:                  -9.519
REMARK INTRA:                  -1.062
REMARK UNBOUND:                -1.217
REMARK SMILES O=c1c(O[C@H]2O[C@H](CO)[C@@H](O)[C@H](O)[C@H]2O)c(-c2ccc(O)c(O)c2)oc2cc(O)cc(O)c12
REMARK SMILES IDX 4 1 3 2 16 3 25 4 2 5 26 6 1 7 33 8 27 9 31 10 28 11 30 12
REMARK SMILES IDX 17 13 18 14 19 15 20 16 24 17 22 18 21 19 23 21 32 23 29 25
REMARK SMILES IDX 5 27 14 28 6 29 12 30 7 31 10 32 15 33 13 35 8 37 9 38 11 40
REMARK H PARENT 21 20 23 22 32 24 29 26 15 34 13 36 9 39 11 41
REMARK Flexibility Score: inf
ROOT
ATOM      1  O   UNL     1     -38.588   5.394  77.943  1.00  0.00    -0.454 OA
ENDROOT
BRANCH   1   2
ATOM      2  C   UNL     1     -38.740   4.973  79.271  1.00  0.00     0.214 A 
ATOM      3  C   UNL     1     -37.693   5.076  80.210  1.00  0.00     0.180 A 
ATOM      4  O   UNL     1     -37.910   4.754  81.481  1.00  0.00    -0.452 OA
ATOM      5  C   UNL     1     -39.970   4.454  79.686  1.00  0.00     0.239 A 
ATOM      6  C   UNL     1     -39.073   4.288  81.924  1.00  0.00     0.146 A 
ATOM      7  O   UNL     1     -40.900   4.329  78.842  1.00  0.00    -0.285 OA
ATOM      8  C   UNL     1     -40.160   4.102  81.037  1.00  0.00     0.111 A 
ATOM      9  C   UNL     1     -39.209   3.974  83.280  1.00  0.00     0.094 A 
ATOM     10  C   UNL     1     -41.379   3.589  81.539  1.00  0.00     0.134 A 
ATOM     11  C   UNL     1     -40.414   3.469  83.771  1.00  0.00     0.123 A 
ATOM     12  C   UNL     1     -41.495   3.277  82.902  1.00  0.00     0.093 A 
BRANCH   3  13
ATOM     13  C   UNL     1     -36.337   5.516  79.825  1.00  0.00     0.025 A 
ATOM     14  C   UNL     1     -35.439   4.625  79.220  1.00  0.00     0.016 A 
ATOM     15  C   UNL     1     -34.157   5.050  78.867  1.00  0.00     0.051 A 
ATOM     16  C   UNL     1     -33.744   6.361  79.126  1.00  0.00     0.157 A 
ATOM     17  C   UNL     1     -35.919   6.822  80.112  1.00  0.00     0.062 A 
ATOM     18  C   UNL     1     -34.634   7.259  79.763  1.00  0.00     0.158 A 
BRANCH  16  19
ATOM     19  O   UNL     1     -32.452   6.727  78.739  1.00  0.00    -0.504 OA
ATOM     20  H   UNL     1     -31.764   6.078  78.386  1.00  0.00     0.293 HD
ENDBRANCH  16  19
BRANCH  18  21
ATOM     21  O   UNL     1     -34.290   8.578  80.064  1.00  0.00    -0.504 OA
ATOM     22  H   UNL     1     -34.876   9.374  79.861  1.00  0.00     0.293 HD
ENDBRANCH  18  21
ENDBRANCH   3  13
BRANCH  10  23
ATOM     23  O   UNL     1     -42.474   3.388  80.698  1.00  0.00    -0.507 OA
ATOM     24  H   UNL     1     -42.667   4.004  79.917  1.00  0.00     0.293 HD
ENDBRANCH  10  23
BRANCH  11  25
ATOM     25  O   UNL     1     -40.528   3.160  85.125  1.00  0.00    -0.508 OA
ATOM     26  H   UNL     1     -39.718   2.916  85.683  1.00  0.00     0.293 HD
ENDBRANCH  11  25
ENDBRANCH   1   2
BRANCH   1  27
ATOM     27  C   UNL     1     -39.345   6.470  77.378  1.00  0.00     0.339 C 
ATOM     28  C   UNL     1     -38.541   7.168  76.239  1.00  0.00     0.214 C 
ATOM     29  O   UNL     1     -39.769   7.349  78.411  1.00  0.00    -0.332 OA
ATOM     30  C   UNL     1     -38.806   8.690  76.218  1.00  0.00     0.180 C 
ATOM     31  C   UNL     1     -38.759   8.275  78.753  1.00  0.00     0.179 C 
ATOM     32  C   UNL     1     -38.615   9.330  77.626  1.00  0.00     0.177 C 
BRANCH  28  33
ATOM     33  O   UNL     1     -37.165   6.930  76.407  1.00  0.00    -0.384 OA
ATOM     34  H   UNL     1     -36.718   7.817  76.430  1.00  0.00     0.211 HD
ENDBRANCH  28  33
BRANCH  30  35
ATOM     35  O   UNL     1     -40.092   8.957  75.711  1.00  0.00    -0.387 OA
ATOM     36  H   UNL     1     -39.995   9.282  74.777  1.00  0.00     0.211 HD
ENDBRANCH  30  35
BRANCH  31  37
ATOM     37  C   UNL     1     -39.103   8.921  80.102  1.00  0.00     0.191 C 
BRANCH  37  38
ATOM     38  O   UNL     1     -39.486   7.948  81.040  1.00  0.00    -0.394 OA
ATOM     39  H   UNL     1     -38.658   7.497  81.349  1.00  0.00     0.210 HD
ENDBRANCH  37  38
ENDBRANCH  31  37
BRANCH  32  40
ATOM     40  O   UNL     1     -37.373   9.985  77.718  1.00  0.00    -0.387 OA
ATOM     41  H   UNL     1     -37.550  10.958  77.810  1.00  0.00     0.211 HD
ENDBRANCH  32  40
ENDBRANCH   1  27
TORSDOF 12
ENDMDL
MODEL 6
REMARK VINA RESULT:    -6.377      2.329      7.052
REMARK INTER + INTRA:         -10.576
REMARK INTER:                  -9.595
REMARK INTRA:                  -0.981
REMARK UNBOUND:                -1.217
REMARK SMILES O=c1c(O[C@H]2O[C@H](CO)[C@@H](O)[C@H](O)[C@H]2O)c(-c2ccc(O)c(O)c2)oc2cc(O)cc(O)c12
REMARK SMILES IDX 4 1 3 2 16 3 25 4 2 5 26 6 1 7 33 8 27 9 31 10 28 11 30 12
REMARK SMILES IDX 17 13 18 14 19 15 20 16 24 17 22 18 21 19 23 21 32 23 29 25
REMARK SMILES IDX 5 27 14 28 6 29 12 30 7 31 10 32 15 33 13 35 8 37 9 38 11 40
REMARK H PARENT 21 20 23 22 32 24 29 26 15 34 13 36 9 39 11 41
REMARK Flexibility Score: inf
ROOT
ATOM      1  O   UNL     1     -39.333   6.981  80.871  1.00  0.00    -0.454 OA
ENDROOT
BRANCH   1   2
ATOM      2  C   UNL     1     -38.287   6.146  81.286  1.00  0.00     0.214 A 
ATOM      3  C   UNL     1     -38.175   4.813  80.841  1.00  0.00     0.180 A 
ATOM      4  O   UNL     1     -37.115   4.088  81.185  1.00  0.00    -0.452 OA
ATOM      5  C   UNL     1     -37.313   6.654  82.151  1.00  0.00     0.239 A 
ATOM      6  C   UNL     1     -36.150   4.542  81.978  1.00  0.00     0.146 A 
ATOM      7  O   UNL     1     -37.426   7.835  82.579  1.00  0.00    -0.285 OA
ATOM      8  C   UNL     1     -36.213   5.851  82.514  1.00  0.00     0.111 A 
ATOM      9  C   UNL     1     -35.073   3.706  82.287  1.00  0.00     0.094 A 
ATOM     10  C   UNL     1     -35.177   6.296  83.368  1.00  0.00     0.134 A 
ATOM     11  C   UNL     1     -34.052   4.150  83.129  1.00  0.00     0.123 A 
ATOM     12  C   UNL     1     -34.106   5.441  83.668  1.00  0.00     0.093 A 
BRANCH   3  13
ATOM     13  C   UNL     1     -39.216   4.174  80.012  1.00  0.00     0.025 A 
ATOM     14  C   UNL     1     -38.933   3.750  78.706  1.00  0.00     0.016 A 
ATOM     15  C   UNL     1     -39.927   3.154  77.929  1.00  0.00     0.051 A 
ATOM     16  C   UNL     1     -41.221   2.985  78.432  1.00  0.00     0.157 A 
ATOM     17  C   UNL     1     -40.517   4.033  80.512  1.00  0.00     0.062 A 
ATOM     18  C   UNL     1     -41.523   3.437  79.740  1.00  0.00     0.158 A 
BRANCH  16  19
ATOM     19  O   UNL     1     -42.167   2.373  77.608  1.00  0.00    -0.504 OA
ATOM     20  H   UNL     1     -41.935   1.755  76.844  1.00  0.00     0.293 HD
ENDBRANCH  16  19
BRANCH  18  21
ATOM     21  O   UNL     1     -42.793   3.313  80.306  1.00  0.00    -0.504 OA
ATOM     22  H   UNL     1     -42.976   2.849  81.184  1.00  0.00     0.293 HD
ENDBRANCH  18  21
ENDBRANCH   3  13
BRANCH  10  23
ATOM     23  O   UNL     1     -35.202   7.578  83.918  1.00  0.00    -0.507 OA
ATOM     24  H   UNL     1     -35.895   8.264  83.643  1.00  0.00     0.293 HD
ENDBRANCH  10  23
BRANCH  11  25
ATOM     25  O   UNL     1     -32.988   3.301  83.426  1.00  0.00    -0.508 OA
ATOM     26  H   UNL     1     -32.841   2.438  82.915  1.00  0.00     0.293 HD
ENDBRANCH  11  25
ENDBRANCH   1   2
BRANCH   1  27
ATOM     27  C   UNL     1     -39.135   8.103  80.004  1.00  0.00     0.339 C 
ATOM     28  C   UNL     1     -40.347   8.272  79.039  1.00  0.00     0.214 C 
ATOM     29  O   UNL     1     -37.881   7.982  79.346  1.00  0.00    -0.332 OA
ATOM     30  C   UNL     1     -39.889   8.766  77.647  1.00  0.00     0.180 C 
ATOM     31  C   UNL     1     -37.971   7.152  78.207  1.00  0.00     0.179 C 
ATOM     32  C   UNL     1     -38.729   7.897  77.077  1.00  0.00     0.177 C 
BRANCH  28  33
ATOM     33  O   UNL     1     -41.029   7.050  78.905  1.00  0.00    -0.384 OA
ATOM     34  H   UNL     1     -41.983   7.225  79.121  1.00  0.00     0.211 HD
ENDBRANCH  28  33
BRANCH  30  35
ATOM     35  O   UNL     1     -39.524  10.125  77.706  1.00  0.00    -0.387 OA
ATOM     36  H   UNL     1     -39.569  10.417  78.653  1.00  0.00     0.211 HD
ENDBRANCH  30  35
BRANCH  31  37
ATOM     37  C   UNL     1     -36.558   6.739  77.772  1.00  0.00     0.191 C 
BRANCH  37  38
ATOM     38  O   UNL     1     -36.035   5.761  78.634  1.00  0.00    -0.394 OA
ATOM     39  H   UNL     1     -35.525   6.236  79.340  1.00  0.00     0.210 HD
ENDBRANCH  37  38
ENDBRANCH  31  37
BRANCH  32  40
ATOM     40  O   UNL     1     -39.206   6.985  76.118  1.00  0.00    -0.387 OA
ATOM     41  H   UNL     1     -39.387   7.491  75.283  1.00  0.00     0.211 HD
ENDBRANCH  32  40
ENDBRANCH   1  27
TORSDOF 12
ENDMDL
MODEL 7
REMARK VINA RESULT:    -6.367      2.150      7.069
REMARK INTER + INTRA:         -10.561
REMARK INTER:                  -9.008
REMARK INTRA:                  -1.553
REMARK UNBOUND:                -1.217
REMARK SMILES O=c1c(O[C@H]2O[C@H](CO)[C@@H](O)[C@H](O)[C@H]2O)c(-c2ccc(O)c(O)c2)oc2cc(O)cc(O)c12
REMARK SMILES IDX 4 1 3 2 16 3 25 4 2 5 26 6 1 7 33 8 27 9 31 10 28 11 30 12
REMARK SMILES IDX 17 13 18 14 19 15 20 16 24 17 22 18 21 19 23 21 32 23 29 25
REMARK SMILES IDX 5 27 14 28 6 29 12 30 7 31 10 32 15 33 13 35 8 37 9 38 11 40
REMARK H PARENT 21 20 23 22 32 24 29 26 15 34 13 36 9 39 11 41
REMARK Flexibility Score: inf
ROOT
ATOM      1  O   UNL     1     -38.477   5.921  81.412  1.00  0.00    -0.454 OA
ENDROOT
BRANCH   1   2
ATOM      2  C   UNL     1     -37.168   6.414  81.483  1.00  0.00     0.214 A 
ATOM      3  C   UNL     1     -36.588   7.148  80.427  1.00  0.00     0.180 A 
ATOM      4  O   UNL     1     -35.378   7.678  80.576  1.00  0.00    -0.452 OA
ATOM      5  C   UNL     1     -36.417   6.191  82.642  1.00  0.00     0.239 A 
ATOM      6  C   UNL     1     -34.645   7.518  81.673  1.00  0.00     0.146 A 
ATOM      7  O   UNL     1     -36.918   5.507  83.576  1.00  0.00    -0.285 OA
ATOM      8  C   UNL     1     -35.128   6.749  82.758  1.00  0.00     0.111 A 
ATOM      9  C   UNL     1     -33.381   8.112  81.739  1.00  0.00     0.094 A 
ATOM     10  C   UNL     1     -34.315   6.586  83.904  1.00  0.00     0.134 A 
ATOM     11  C   UNL     1     -32.582   7.950  82.871  1.00  0.00     0.123 A 
ATOM     12  C   UNL     1     -33.048   7.188  83.950  1.00  0.00     0.093 A 
BRANCH   3  13
ATOM     13  C   UNL     1     -37.277   7.336  79.135  1.00  0.00     0.025 A 
ATOM     14  C   UNL     1     -37.011   6.487  78.050  1.00  0.00     0.016 A 
ATOM     15  C   UNL     1     -37.662   6.679  76.831  1.00  0.00     0.051 A 
ATOM     16  C   UNL     1     -38.575   7.726  76.667  1.00  0.00     0.157 A 
ATOM     17  C   UNL     1     -38.169   8.403  78.968  1.00  0.00     0.062 A 
ATOM     18  C   UNL     1     -38.827   8.605  77.748  1.00  0.00     0.158 A 
BRANCH  16  19
ATOM     19  O   UNL     1     -39.201   7.858  75.425  1.00  0.00    -0.504 OA
ATOM     20  H   UNL     1     -38.985   8.586  74.759  1.00  0.00     0.293 HD
ENDBRANCH  16  19
BRANCH  18  21
ATOM     21  O   UNL     1     -39.715   9.679  77.656  1.00  0.00    -0.504 OA
ATOM     22  H   UNL     1     -39.794  10.277  76.846  1.00  0.00     0.293 HD
ENDBRANCH  18  21
ENDBRANCH   3  13
BRANCH  10  23
ATOM     23  O   UNL     1     -34.753   5.835  84.995  1.00  0.00    -0.507 OA
ATOM     24  H   UNL     1     -34.904   4.834  84.927  1.00  0.00     0.293 HD
ENDBRANCH  10  23
BRANCH  11  25
ATOM     25  O   UNL     1     -31.325   8.549  82.917  1.00  0.00    -0.508 OA
ATOM     26  H   UNL     1     -30.475   7.997  82.923  1.00  0.00     0.293 HD
ENDBRANCH  11  25
ENDBRANCH   1   2
BRANCH   1  27
ATOM     27  C   UNL     1     -38.808   4.687  80.766  1.00  0.00     0.339 C 
ATOM     28  C   UNL     1     -39.917   4.908  79.694  1.00  0.00     0.214 C 
ATOM     29  O   UNL     1     -39.132   3.708  81.743  1.00  0.00    -0.332 OA
ATOM     30  C   UNL     1     -40.880   3.700  79.627  1.00  0.00     0.180 C 
ATOM     31  C   UNL     1     -40.476   3.817  82.161  1.00  0.00     0.179 C 
ATOM     32  C   UNL     1     -41.415   3.308  81.036  1.00  0.00     0.177 C 
BRANCH  28  33
ATOM     33  O   UNL     1     -40.645   6.076  79.988  1.00  0.00    -0.384 OA
ATOM     34  H   UNL     1     -40.656   6.626  79.161  1.00  0.00     0.211 HD
ENDBRANCH  28  33
BRANCH  30  35
ATOM     35  O   UNL     1     -40.251   2.607  79.001  1.00  0.00    -0.387 OA
ATOM     36  H   UNL     1     -40.586   2.550  78.068  1.00  0.00     0.211 HD
ENDBRANCH  30  35
BRANCH  31  37
ATOM     37  C   UNL     1     -40.665   3.028  83.464  1.00  0.00     0.191 C 
BRANCH  37  38
ATOM     38  O   UNL     1     -41.796   2.200  83.390  1.00  0.00    -0.394 OA
ATOM     39  H   UNL     1     -41.938   1.815  84.293  1.00  0.00     0.210 HD
ENDBRANCH  37  38
ENDBRANCH  31  37
BRANCH  32  40
ATOM     40  O   UNL     1     -42.723   3.789  81.231  1.00  0.00    -0.387 OA
ATOM     41  H   UNL     1     -42.663   4.760  81.427  1.00  0.00     0.211 HD
ENDBRANCH  32  40
ENDBRANCH   1  27
TORSDOF 12
ENDMDL
MODEL 8
REMARK VINA RESULT:    -6.338      2.103      6.963
REMARK INTER + INTRA:         -10.520
REMARK INTER:                  -8.905
REMARK INTRA:                  -1.615
REMARK UNBOUND:                -1.217
REMARK SMILES O=c1c(O[C@H]2O[C@H](CO)[C@@H](O)[C@H](O)[C@H]2O)c(-c2ccc(O)c(O)c2)oc2cc(O)cc(O)c12
REMARK SMILES IDX 4 1 3 2 16 3 25 4 2 5 26 6 1 7 33 8 27 9 31 10 28 11 30 12
REMARK SMILES IDX 17 13 18 14 19 15 20 16 24 17 22 18 21 19 23 21 32 23 29 25
REMARK SMILES IDX 5 27 14 28 6 29 12 30 7 31 10 32 15 33 13 35 8 37 9 38 11 40
REMARK H PARENT 21 20 23 22 32 24 29 26 15 34 13 36 9 39 11 41
REMARK Flexibility Score: inf
ROOT
ATOM      1  O   UNL     1     -37.368   4.322  81.286  1.00  0.00    -0.454 OA
ENDROOT
BRANCH   1   2
ATOM      2  C   UNL     1     -36.260   5.109  81.630  1.00  0.00     0.214 A 
ATOM      3  C   UNL     1     -35.881   6.235  80.871  1.00  0.00     0.180 A 
ATOM      4  O   UNL     1     -34.882   7.008  81.288  1.00  0.00    -0.452 OA
ATOM      5  C   UNL     1     -35.519   4.782  82.770  1.00  0.00     0.239 A 
ATOM      6  C   UNL     1     -34.173   6.752  82.382  1.00  0.00     0.146 A 
ATOM      7  O   UNL     1     -35.833   3.756  83.433  1.00  0.00    -0.285 OA
ATOM      8  C   UNL     1     -34.452   5.611  83.171  1.00  0.00     0.111 A 
ATOM      9  C   UNL     1     -33.139   7.621  82.742  1.00  0.00     0.094 A 
ATOM     10  C   UNL     1     -33.667   5.359  84.321  1.00  0.00     0.134 A 
ATOM     11  C   UNL     1     -32.367   7.370  83.877  1.00  0.00     0.123 A 
ATOM     12  C   UNL     1     -32.631   6.242  84.663  1.00  0.00     0.093 A 
BRANCH   3  13
ATOM     13  C   UNL     1     -36.548   6.584  79.601  1.00  0.00     0.025 A 
ATOM     14  C   UNL     1     -36.203   5.934  78.408  1.00  0.00     0.016 A 
ATOM     15  C   UNL     1     -36.836   6.277  77.212  1.00  0.00     0.051 A 
ATOM     16  C   UNL     1     -37.808   7.282  77.182  1.00  0.00     0.157 A 
ATOM     17  C   UNL     1     -37.501   7.611  79.573  1.00  0.00     0.062 A 
ATOM     18  C   UNL     1     -38.141   7.964  78.377  1.00  0.00     0.158 A 
BRANCH  16  19
ATOM     19  O   UNL     1     -38.410   7.572  75.955  1.00  0.00    -0.504 OA
ATOM     20  H   UNL     1     -39.066   8.326  75.813  1.00  0.00     0.293 HD
ENDBRANCH  16  19
BRANCH  18  21
ATOM     21  O   UNL     1     -39.092   8.985  78.423  1.00  0.00    -0.504 OA
ATOM     22  H   UNL     1     -38.944   9.873  78.881  1.00  0.00     0.293 HD
ENDBRANCH  18  21
ENDBRANCH   3  13
BRANCH  10  23
ATOM     23  O   UNL     1     -33.907   4.244  85.125  1.00  0.00    -0.507 OA
ATOM     24  H   UNL     1     -33.368   3.391  85.029  1.00  0.00     0.293 HD
ENDBRANCH  10  23
BRANCH  11  25
ATOM     25  O   UNL     1     -31.340   8.248  84.217  1.00  0.00    -0.508 OA
ATOM     26  H   UNL     1     -30.687   8.035  84.962  1.00  0.00     0.293 HD
ENDBRANCH  11  25
ENDBRANCH   1   2
BRANCH   1  27
ATOM     27  C   UNL     1     -38.660   4.500  81.877  1.00  0.00     0.339 C 
ATOM     28  C   UNL     1     -39.280   3.123  82.265  1.00  0.00     0.214 C 
ATOM     29  O   UNL     1     -39.475   5.281  81.015  1.00  0.00    -0.332 OA
ATOM     30  C   UNL     1     -40.811   3.119  82.052  1.00  0.00     0.180 C 
ATOM     31  C   UNL     1     -40.074   4.491  80.009  1.00  0.00     0.179 C 
ATOM     32  C   UNL     1     -41.198   3.621  80.629  1.00  0.00     0.177 C 
BRANCH  28  33
ATOM     33  O   UNL     1     -38.693   2.098  81.500  1.00  0.00    -0.384 OA
ATOM     34  H   UNL     1     -38.053   1.624  82.093  1.00  0.00     0.211 HD
ENDBRANCH  28  33
BRANCH  30  35
ATOM     35  O   UNL     1     -41.447   3.882  83.050  1.00  0.00    -0.387 OA
ATOM     36  H   UNL     1     -42.168   4.413  82.621  1.00  0.00     0.211 HD
ENDBRANCH  30  35
BRANCH  31  37
ATOM     37  C   UNL     1     -40.606   5.407  78.898  1.00  0.00     0.191 C 
BRANCH  37  38
ATOM     38  O   UNL     1     -40.991   6.653  79.419  1.00  0.00    -0.394 OA
ATOM     39  H   UNL     1     -40.940   7.309  78.676  1.00  0.00     0.210 HD
ENDBRANCH  37  38
ENDBRANCH  31  37
BRANCH  32  40
ATOM     40  O   UNL     1     -41.512   2.543  79.782  1.00  0.00    -0.387 OA
ATOM     41  H   UNL     1     -41.456   2.868  78.845  1.00  0.00     0.211 HD
ENDBRANCH  32  40
ENDBRANCH   1  27
TORSDOF 12
ENDMDL
MODEL 9
REMARK VINA RESULT:    -6.270      2.613      5.392
REMARK INTER + INTRA:         -10.419
REMARK INTER:                  -8.927
REMARK INTRA:                  -1.492
REMARK UNBOUND:                -1.217
REMARK SMILES O=c1c(O[C@H]2O[C@H](CO)[C@@H](O)[C@H](O)[C@H]2O)c(-c2ccc(O)c(O)c2)oc2cc(O)cc(O)c12
REMARK SMILES IDX 4 1 3 2 16 3 25 4 2 5 26 6 1 7 33 8 27 9 31 10 28 11 30 12
REMARK SMILES IDX 17 13 18 14 19 15 20 16 24 17 22 18 21 19 23 21 32 23 29 25
REMARK SMILES IDX 5 27 14 28 6 29 12 30 7 31 10 32 15 33 13 35 8 37 9 38 11 40
REMARK H PARENT 21 20 23 22 32 24 29 26 15 34 13 36 9 39 11 41
REMARK Flexibility Score: inf
ROOT
ATOM      1  O   UNL     1     -36.472   6.897  80.459  1.00  0.00    -0.454 OA
ENDROOT
BRANCH   1   2
ATOM      2  C   UNL     1     -37.355   5.896  80.888  1.00  0.00     0.214 A 
ATOM      3  C   UNL     1     -38.639   5.743  80.326  1.00  0.00     0.180 A 
ATOM      4  O   UNL     1     -39.406   4.723  80.696  1.00  0.00    -0.452 OA
ATOM      5  C   UNL     1     -36.946   5.010  81.890  1.00  0.00     0.239 A 
ATOM      6  C   UNL     1     -39.043   3.839  81.620  1.00  0.00     0.146 A 
ATOM      7  O   UNL     1     -35.812   5.164  82.420  1.00  0.00    -0.285 OA
ATOM      8  C   UNL     1     -37.794   3.952  82.275  1.00  0.00     0.111 A 
ATOM      9  C   UNL     1     -39.917   2.798  81.947  1.00  0.00     0.094 A 
ATOM     10  C   UNL     1     -37.446   3.004  83.266  1.00  0.00     0.134 A 
ATOM     11  C   UNL     1     -39.571   1.864  82.924  1.00  0.00     0.123 A 
ATOM     12  C   UNL     1     -38.339   1.968  83.581  1.00  0.00     0.093 A 
BRANCH   3  13
ATOM     13  C   UNL     1     -39.181   6.699  79.340  1.00  0.00     0.025 A 
ATOM     14  C   UNL     1     -40.035   7.737  79.741  1.00  0.00     0.016 A 
ATOM     15  C   UNL     1     -40.547   8.630  78.799  1.00  0.00     0.051 A 
ATOM     16  C   UNL     1     -40.230   8.496  77.443  1.00  0.00     0.157 A 
ATOM     17  C   UNL     1     -38.882   6.543  77.979  1.00  0.00     0.062 A 
ATOM     18  C   UNL     1     -39.392   7.434  77.026  1.00  0.00     0.158 A 
BRANCH  16  19
ATOM     19  O   UNL     1     -40.767   9.428  76.552  1.00  0.00    -0.504 OA
ATOM     20  H   UNL     1     -40.270  10.243  76.221  1.00  0.00     0.293 HD
ENDBRANCH  16  19
BRANCH  18  21
ATOM     21  O   UNL     1     -39.042   7.229  75.690  1.00  0.00    -0.504 OA
ATOM     22  H   UNL     1     -38.167   7.530  75.283  1.00  0.00     0.293 HD
ENDBRANCH  18  21
ENDBRANCH   3  13
BRANCH  10  23
ATOM     23  O   UNL     1     -36.225   3.081  83.936  1.00  0.00    -0.507 OA
ATOM     24  H   UNL     1     -35.566   3.831  83.761  1.00  0.00     0.293 HD
ENDBRANCH  10  23
BRANCH  11  25
ATOM     25  O   UNL     1     -40.457   0.835  83.236  1.00  0.00    -0.508 OA
ATOM     26  H   UNL     1     -41.373   0.778  82.809  1.00  0.00     0.293 HD
ENDBRANCH  11  25
ENDBRANCH   1   2
BRANCH   1  27
ATOM     27  C   UNL     1     -35.381   6.639  79.568  1.00  0.00     0.339 C 
ATOM     28  C   UNL     1     -34.020   6.945  80.264  1.00  0.00     0.214 C 
ATOM     29  O   UNL     1     -35.582   7.345  78.351  1.00  0.00    -0.332 OA
ATOM     30  C   UNL     1     -33.000   7.535  79.264  1.00  0.00     0.180 C 
ATOM     31  C   UNL     1     -35.148   8.685  78.451  1.00  0.00     0.179 C 
ATOM     32  C   UNL     1     -33.598   8.732  78.467  1.00  0.00     0.177 C 
BRANCH  28  33
ATOM     33  O   UNL     1     -34.215   7.845  81.328  1.00  0.00    -0.384 OA
ATOM     34  H   UNL     1     -33.871   8.727  81.027  1.00  0.00     0.211 HD
ENDBRANCH  28  33
BRANCH  30  35
ATOM     35  O   UNL     1     -32.528   6.533  78.396  1.00  0.00    -0.387 OA
ATOM     36  H   UNL     1     -32.482   5.680  78.903  1.00  0.00     0.211 HD
ENDBRANCH  30  35
BRANCH  31  37
ATOM     37  C   UNL     1     -35.734   9.492  77.283  1.00  0.00     0.191 C 
BRANCH  37  38
ATOM     38  O   UNL     1     -34.714   9.971  76.445  1.00  0.00    -0.394 OA
ATOM     39  H   UNL     1     -35.020   9.843  75.510  1.00  0.00     0.210 HD
ENDBRANCH  37  38
ENDBRANCH  31  37
BRANCH  32  40
ATOM     40  O   UNL     1     -33.148   9.960  78.986  1.00  0.00    -0.387 OA
ATOM     41  H   UNL     1     -33.161   9.893  79.977  1.00  0.00     0.211 HD
ENDBRANCH  32  40
ENDBRANCH   1  27
TORSDOF 12
ENDMDL
