MODEL 1
REMARK VINA RESULT:    -4.232      0.000      0.000
REMARK INTER + INTRA:          -5.100
REMARK INTER:                  -4.974
REMARK INTRA:                  -0.126
REMARK UNBOUND:                -0.126
REMARK SMILES O=C([O-])C=Cc1ccc(O)c(O)c1
REMARK SMILES IDX 6 1 13 2 7 3 11 4 8 5 9 6 5 7 4 8 2 9 1 10 3 11 12 12 10 14
REMARK H PARENT 12 13 10 15
REMARK Flexibility Score: inf
ROOT
ATOM      1  C   UNL     1      42.228  20.160  -2.515  1.00  0.00    -0.022 A 
ATOM      2  C   UNL     1      41.153  19.272  -2.681  1.00  0.00     0.058 A 
ATOM      3  C   UNL     1      42.220  21.041  -1.415  1.00  0.00     0.012 A 
ATOM      4  C   UNL     1      40.099  19.242  -1.755  1.00  0.00     0.157 A 
ATOM      5  C   UNL     1      41.169  21.011  -0.493  1.00  0.00     0.051 A 
ATOM      6  C   UNL     1      40.109  20.112  -0.658  1.00  0.00     0.157 A 
ENDROOT
BRANCH   1   7
ATOM      7  C   UNL     1      43.312  20.159  -3.529  1.00  0.00     0.010 C 
ATOM      8  C   UNL     1      43.244  20.819  -4.693  1.00  0.00     0.025 C 
BRANCH   8   9
ATOM      9  C   UNL     1      44.349  20.799  -5.664  1.00  0.00     0.064 C 
ATOM     10  O   UNL     1      44.792  21.884  -6.123  1.00  0.00    -0.545 OA
ATOM     11  O   UNL     1      44.913  19.600  -6.085  1.00  0.00    -0.545 OA
ENDBRANCH   8   9
ENDBRANCH   1   7
BRANCH   4  12
ATOM     12  O   UNL     1      39.040  18.352  -1.920  1.00  0.00    -0.504 OA
ATOM     13  H   UNL     1      38.515  18.305  -2.786  1.00  0.00     0.293 HD
ENDBRANCH   4  12
BRANCH   6  14
ATOM     14  O   UNL     1      39.062  20.079   0.260  1.00  0.00    -0.504 OA
ATOM     15  H   UNL     1      38.800  20.899   0.794  1.00  0.00     0.293 HD
ENDBRANCH   6  14
TORSDOF 4
ENDMDL
MODEL 2
REMARK VINA RESULT:    -4.124      2.319      2.784
REMARK INTER + INTRA:          -4.973
REMARK INTER:                  -4.845
REMARK INTRA:                  -0.129
REMARK UNBOUND:                -0.126
REMARK SMILES O=C([O-])C=Cc1ccc(O)c(O)c1
REMARK SMILES IDX 6 1 13 2 7 3 11 4 8 5 9 6 5 7 4 8 2 9 1 10 3 11 12 12 10 14
REMARK H PARENT 12 13 10 15
REMARK Flexibility Score: inf
ROOT
ATOM      1  C   UNL     1      42.570  19.148  -2.288  1.00  0.00    -0.022 A 
ATOM      2  C   UNL     1      41.219  18.761  -2.267  1.00  0.00     0.058 A 
ATOM      3  C   UNL     1      42.971  20.257  -1.516  1.00  0.00     0.012 A 
ATOM      4  C   UNL     1      40.289  19.448  -1.474  1.00  0.00     0.157 A 
ATOM      5  C   UNL     1      42.043  20.941  -0.726  1.00  0.00     0.051 A 
ATOM      6  C   UNL     1      40.703  20.538  -0.699  1.00  0.00     0.157 A 
ENDROOT
BRANCH   1   7
ATOM      7  C   UNL     1      43.511  18.395  -3.153  1.00  0.00     0.010 C 
ATOM      8  C   UNL     1      44.191  17.313  -2.748  1.00  0.00     0.025 C 
BRANCH   8   9
ATOM      9  C   UNL     1      45.106  16.590  -3.644  1.00  0.00     0.064 C 
ATOM     10  O   UNL     1      45.569  17.171  -4.661  1.00  0.00    -0.545 OA
ATOM     11  O   UNL     1      45.469  15.272  -3.389  1.00  0.00    -0.545 OA
ENDBRANCH   8   9
ENDBRANCH   1   7
BRANCH   4  12
ATOM     12  O   UNL     1      38.953  19.052  -1.450  1.00  0.00    -0.504 OA
ATOM     13  H   UNL     1      38.251  19.519  -2.013  1.00  0.00     0.293 HD
ENDBRANCH   4  12
BRANCH   6  14
ATOM     14  O   UNL     1      39.776  21.218   0.089  1.00  0.00    -0.504 OA
ATOM     15  H   UNL     1      39.304  22.050  -0.247  1.00  0.00     0.293 HD
ENDBRANCH   6  14
TORSDOF 4
ENDMDL
MODEL 3
REMARK VINA RESULT:    -4.085      8.727     10.910
REMARK INTER + INTRA:          -4.927
REMARK INTER:                  -4.797
REMARK INTRA:                  -0.130
REMARK UNBOUND:                -0.126
REMARK SMILES O=C([O-])C=Cc1ccc(O)c(O)c1
REMARK SMILES IDX 6 1 13 2 7 3 11 4 8 5 9 6 5 7 4 8 2 9 1 10 3 11 12 12 10 14
REMARK H PARENT 12 13 10 15
REMARK Flexibility Score: inf
ROOT
ATOM      1  C   UNL     1      49.392  13.770  -3.811  1.00  0.00    -0.022 A 
ATOM      2  C   UNL     1      48.720  14.988  -4.003  1.00  0.00     0.058 A 
ATOM      3  C   UNL     1      50.657  13.589  -4.407  1.00  0.00     0.012 A 
ATOM      4  C   UNL     1      49.306  16.019  -4.752  1.00  0.00     0.157 A 
ATOM      5  C   UNL     1      51.240  14.617  -5.153  1.00  0.00     0.051 A 
ATOM      6  C   UNL     1      50.569  15.834  -5.326  1.00  0.00     0.157 A 
ENDROOT
BRANCH   1   7
ATOM      7  C   UNL     1      48.724  12.707  -3.020  1.00  0.00     0.010 C 
ATOM      8  C   UNL     1      47.829  12.951  -2.052  1.00  0.00     0.025 C 
BRANCH   8   9
ATOM      9  C   UNL     1      47.181  11.865  -1.300  1.00  0.00     0.064 C 
ATOM     10  O   UNL     1      46.004  11.525  -1.589  1.00  0.00    -0.545 OA
ATOM     11  O   UNL     1      47.848  11.206  -0.273  1.00  0.00    -0.545 OA
ENDBRANCH   8   9
ENDBRANCH   1   7
BRANCH   4  12
ATOM     12  O   UNL     1      48.638  17.229  -4.930  1.00  0.00    -0.504 OA
ATOM     13  H   UNL     1      47.644  17.318  -4.753  1.00  0.00     0.293 HD
ENDBRANCH   4  12
BRANCH   6  14
ATOM     14  O   UNL     1      51.149  16.861  -6.068  1.00  0.00    -0.504 OA
ATOM     15  H   UNL     1      51.551  16.691  -6.984  1.00  0.00     0.293 HD
ENDBRANCH   6  14
TORSDOF 4
ENDMDL
MODEL 4
REMARK VINA RESULT:    -4.083      2.566      3.187
REMARK INTER + INTRA:          -4.926
REMARK INTER:                  -4.794
REMARK INTRA:                  -0.131
REMARK UNBOUND:                -0.126
REMARK SMILES O=C([O-])C=Cc1ccc(O)c(O)c1
REMARK SMILES IDX 6 1 13 2 7 3 11 4 8 5 9 6 5 7 4 8 2 9 1 10 3 11 12 12 10 14
REMARK H PARENT 12 13 10 15
REMARK Flexibility Score: inf
ROOT
ATOM      1  C   UNL     1      43.348  19.230  -3.472  1.00  0.00    -0.022 A 
ATOM      2  C   UNL     1      42.902  18.556  -2.323  1.00  0.00     0.058 A 
ATOM      3  C   UNL     1      43.066  20.604  -3.608  1.00  0.00     0.012 A 
ATOM      4  C   UNL     1      42.209  19.242  -1.314  1.00  0.00     0.157 A 
ATOM      5  C   UNL     1      42.377  21.287  -2.602  1.00  0.00     0.051 A 
ATOM      6  C   UNL     1      41.949  20.611  -1.453  1.00  0.00     0.157 A 
ENDROOT
BRANCH   1   7
ATOM      7  C   UNL     1      44.067  18.456  -4.515  1.00  0.00     0.010 C 
ATOM      8  C   UNL     1      44.709  17.304  -4.277  1.00  0.00     0.025 C 
BRANCH   8   9
ATOM      9  C   UNL     1      45.398  16.564  -5.345  1.00  0.00     0.064 C 
ATOM     10  O   UNL     1      44.732  15.834  -6.125  1.00  0.00    -0.545 OA
ATOM     11  O   UNL     1      46.776  16.654  -5.507  1.00  0.00    -0.545 OA
ENDBRANCH   8   9
ENDBRANCH   1   7
BRANCH   4  12
ATOM     12  O   UNL     1      41.778  18.570  -0.173  1.00  0.00    -0.504 OA
ATOM     13  H   UNL     1      42.424  18.061   0.420  1.00  0.00     0.293 HD
ENDBRANCH   4  12
BRANCH   6  14
ATOM     14  O   UNL     1      41.262  21.289  -0.449  1.00  0.00    -0.504 OA
ATOM     15  H   UNL     1      41.179  22.300  -0.453  1.00  0.00     0.293 HD
ENDBRANCH   6  14
TORSDOF 4
ENDMDL
MODEL 5
REMARK VINA RESULT:    -4.022      8.823     11.147
REMARK INTER + INTRA:          -4.853
REMARK INTER:                  -4.722
REMARK INTRA:                  -0.131
REMARK UNBOUND:                -0.126
REMARK SMILES O=C([O-])C=Cc1ccc(O)c(O)c1
REMARK SMILES IDX 6 1 13 2 7 3 11 4 8 5 9 6 5 7 4 8 2 9 1 10 3 11 12 12 10 14
REMARK H PARENT 12 13 10 15
REMARK Flexibility Score: inf
ROOT
ATOM      1  C   UNL     1      48.597  13.938  -3.508  1.00  0.00    -0.022 A 
ATOM      2  C   UNL     1      49.820  13.360  -3.885  1.00  0.00     0.058 A 
ATOM      3  C   UNL     1      48.355  15.289  -3.829  1.00  0.00     0.012 A 
ATOM      4  C   UNL     1      50.777  14.104  -4.591  1.00  0.00     0.157 A 
ATOM      5  C   UNL     1      49.309  16.030  -4.533  1.00  0.00     0.051 A 
ATOM      6  C   UNL     1      50.519  15.441  -4.918  1.00  0.00     0.157 A 
ENDROOT
BRANCH   1   7
ATOM      7  C   UNL     1      47.624  13.111  -2.753  1.00  0.00     0.010 C 
ATOM      8  C   UNL     1      47.947  12.371  -1.683  1.00  0.00     0.025 C 
BRANCH   8   9
ATOM      9  C   UNL     1      46.946  11.574  -0.957  1.00  0.00     0.064 C 
ATOM     10  O   UNL     1      45.943  11.127  -1.573  1.00  0.00    -0.545 OA
ATOM     11  O   UNL     1      47.088  11.306   0.400  1.00  0.00    -0.545 OA
ENDBRANCH   8   9
ENDBRANCH   1   7
BRANCH   4  12
ATOM     12  O   UNL     1      51.984  13.522  -4.971  1.00  0.00    -0.504 OA
ATOM     13  H   UNL     1      52.743  13.395  -4.311  1.00  0.00     0.293 HD
ENDBRANCH   4  12
BRANCH   6  14
ATOM     14  O   UNL     1      51.471  16.177  -5.621  1.00  0.00    -0.504 OA
ATOM     15  H   UNL     1      52.456  15.943  -5.581  1.00  0.00     0.293 HD
ENDBRANCH   6  14
TORSDOF 4
ENDMDL
MODEL 6
REMARK VINA RESULT:    -4.013      6.790      9.097
REMARK INTER + INTRA:          -4.843
REMARK INTER:                  -4.711
REMARK INTRA:                  -0.132
REMARK UNBOUND:                -0.126
REMARK SMILES O=C([O-])C=Cc1ccc(O)c(O)c1
REMARK SMILES IDX 6 1 13 2 7 3 11 4 8 5 9 6 5 7 4 8 2 9 1 10 3 11 12 12 10 14
REMARK H PARENT 12 13 10 15
REMARK Flexibility Score: inf
ROOT
ATOM      1  C   UNL     1      47.440  15.521  -3.884  1.00  0.00    -0.022 A 
ATOM      2  C   UNL     1      47.728  14.281  -3.291  1.00  0.00     0.058 A 
ATOM      3  C   UNL     1      48.466  16.202  -4.569  1.00  0.00     0.012 A 
ATOM      4  C   UNL     1      49.007  13.715  -3.399  1.00  0.00     0.157 A 
ATOM      5  C   UNL     1      49.740  15.637  -4.677  1.00  0.00     0.051 A 
ATOM      6  C   UNL     1      50.013  14.394  -4.096  1.00  0.00     0.157 A 
ENDROOT
BRANCH   1   7
ATOM      7  C   UNL     1      46.074  16.081  -3.730  1.00  0.00     0.010 C 
ATOM      8  C   UNL     1      45.232  15.732  -2.748  1.00  0.00     0.025 C 
BRANCH   8   9
ATOM      9  C   UNL     1      43.890  16.322  -2.628  1.00  0.00     0.064 C 
ATOM     10  O   UNL     1      42.899  15.574  -2.420  1.00  0.00    -0.545 OA
ATOM     11  O   UNL     1      43.696  17.694  -2.742  1.00  0.00    -0.545 OA
ENDBRANCH   8   9
ENDBRANCH   1   7
BRANCH   4  12
ATOM     12  O   UNL     1      49.283  12.479  -2.817  1.00  0.00    -0.504 OA
ATOM     13  H   UNL     1      49.952  12.386  -2.062  1.00  0.00     0.293 HD
ENDBRANCH   4  12
BRANCH   6  14
ATOM     14  O   UNL     1      51.282  13.828  -4.203  1.00  0.00    -0.504 OA
ATOM     15  H   UNL     1      51.868  13.990  -5.015  1.00  0.00     0.293 HD
ENDBRANCH   6  14
TORSDOF 4
ENDMDL
MODEL 7
REMARK VINA RESULT:    -3.944      3.578      4.225
REMARK INTER + INTRA:          -4.762
REMARK INTER:                  -4.621
REMARK INTRA:                  -0.141
REMARK UNBOUND:                -0.126
REMARK SMILES O=C([O-])C=Cc1ccc(O)c(O)c1
REMARK SMILES IDX 6 1 13 2 7 3 11 4 8 5 9 6 5 7 4 8 2 9 1 10 3 11 12 12 10 14
REMARK H PARENT 12 13 10 15
REMARK Flexibility Score: inf
ROOT
ATOM      1  C   UNL     1      44.122  17.034  -2.949  1.00  0.00    -0.022 A 
ATOM      2  C   UNL     1      43.250  16.187  -2.245  1.00  0.00     0.058 A 
ATOM      3  C   UNL     1      43.727  18.365  -3.193  1.00  0.00     0.012 A 
ATOM      4  C   UNL     1      42.018  16.661  -1.770  1.00  0.00     0.157 A 
ATOM      5  C   UNL     1      42.499  18.837  -2.719  1.00  0.00     0.051 A 
ATOM      6  C   UNL     1      41.644  17.989  -2.006  1.00  0.00     0.157 A 
ENDROOT
BRANCH   1   7
ATOM      7  C   UNL     1      45.408  16.480  -3.439  1.00  0.00     0.010 C 
ATOM      8  C   UNL     1      46.122  17.025  -4.434  1.00  0.00     0.025 C 
BRANCH   8   9
ATOM      9  C   UNL     1      47.400  16.447  -4.880  1.00  0.00     0.064 C 
ATOM     10  O   UNL     1      47.551  15.197  -4.877  1.00  0.00    -0.545 OA
ATOM     11  O   UNL     1      48.446  17.259  -5.303  1.00  0.00    -0.545 OA
ENDBRANCH   8   9
ENDBRANCH   1   7
BRANCH   4  12
ATOM     12  O   UNL     1      41.162  15.818  -1.064  1.00  0.00    -0.504 OA
ATOM     13  H   UNL     1      41.260  14.809  -1.101  1.00  0.00     0.293 HD
ENDBRANCH   4  12
BRANCH   6  14
ATOM     14  O   UNL     1      40.420  18.457  -1.531  1.00  0.00    -0.504 OA
ATOM     15  H   UNL     1      39.714  17.824  -1.172  1.00  0.00     0.293 HD
ENDBRANCH   6  14
TORSDOF 4
ENDMDL
MODEL 8
REMARK VINA RESULT:    -3.837      6.662      9.605
REMARK INTER + INTRA:          -4.636
REMARK INTER:                  -4.503
REMARK INTRA:                  -0.133
REMARK UNBOUND:                -0.126
REMARK SMILES O=C([O-])C=Cc1ccc(O)c(O)c1
REMARK SMILES IDX 6 1 13 2 7 3 11 4 8 5 9 6 5 7 4 8 2 9 1 10 3 11 12 12 10 14
REMARK H PARENT 12 13 10 15
REMARK Flexibility Score: inf
ROOT
ATOM      1  C   UNL     1      48.201  16.286  -4.736  1.00  0.00    -0.022 A 
ATOM      2  C   UNL     1      48.985  15.271  -4.162  1.00  0.00     0.058 A 
ATOM      3  C   UNL     1      48.778  17.120  -5.715  1.00  0.00     0.012 A 
ATOM      4  C   UNL     1      50.312  15.073  -4.572  1.00  0.00     0.157 A 
ATOM      5  C   UNL     1      50.100  16.921  -6.123  1.00  0.00     0.051 A 
ATOM      6  C   UNL     1      50.869  15.898  -5.556  1.00  0.00     0.157 A 
ENDROOT
BRANCH   1   7
ATOM      7  C   UNL     1      46.806  16.461  -4.260  1.00  0.00     0.010 C 
ATOM      8  C   UNL     1      46.244  15.703  -3.308  1.00  0.00     0.025 C 
BRANCH   8   9
ATOM      9  C   UNL     1      44.860  15.920  -2.858  1.00  0.00     0.064 C 
ATOM     10  O   UNL     1      44.083  14.937  -2.741  1.00  0.00    -0.545 OA
ATOM     11  O   UNL     1      44.394  17.196  -2.559  1.00  0.00    -0.545 OA
ENDBRANCH   8   9
ENDBRANCH   1   7
BRANCH   4  12
ATOM     12  O   UNL     1      51.081  14.059  -4.005  1.00  0.00    -0.504 OA
ATOM     13  H   UNL     1      50.778  13.091  -4.020  1.00  0.00     0.293 HD
ENDBRANCH   4  12
BRANCH   6  14
ATOM     14  O   UNL     1      52.186  15.697  -5.962  1.00  0.00    -0.504 OA
ATOM     15  H   UNL     1      52.681  14.838  -5.748  1.00  0.00     0.293 HD
ENDBRANCH   6  14
TORSDOF 4
ENDMDL
MODEL 9
REMARK VINA RESULT:    -3.836      7.355     10.128
REMARK INTER + INTRA:          -4.635
REMARK INTER:                  -4.493
REMARK INTRA:                  -0.142
REMARK UNBOUND:                -0.126
REMARK SMILES O=C([O-])C=Cc1ccc(O)c(O)c1
REMARK SMILES IDX 6 1 13 2 7 3 11 4 8 5 9 6 5 7 4 8 2 9 1 10 3 11 12 12 10 14
REMARK H PARENT 12 13 10 15
REMARK Flexibility Score: inf
ROOT
ATOM      1  C   UNL     1      48.628  15.333  -4.210  1.00  0.00    -0.022 A 
ATOM      2  C   UNL     1      49.432  16.192  -4.978  1.00  0.00     0.058 A 
ATOM      3  C   UNL     1      49.130  14.062  -3.863  1.00  0.00     0.012 A 
ATOM      4  C   UNL     1      50.722  15.806  -5.372  1.00  0.00     0.157 A 
ATOM      5  C   UNL     1      50.415  13.678  -4.256  1.00  0.00     0.051 A 
ATOM      6  C   UNL     1      51.214  14.547  -5.008  1.00  0.00     0.157 A 
ENDROOT
BRANCH   1   7
ATOM      7  C   UNL     1      47.268  15.785  -3.829  1.00  0.00     0.010 C 
ATOM      8  C   UNL     1      46.357  14.996  -3.244  1.00  0.00     0.025 C 
BRANCH   8   9
ATOM      9  C   UNL     1      45.022  15.491  -2.872  1.00  0.00     0.064 C 
ATOM     10  O   UNL     1      44.852  16.721  -2.664  1.00  0.00    -0.545 OA
ATOM     11  O   UNL     1      43.943  14.623  -2.744  1.00  0.00    -0.545 OA
ENDBRANCH   8   9
ENDBRANCH   1   7
BRANCH   4  12
ATOM     12  O   UNL     1      51.517  16.667  -6.125  1.00  0.00    -0.504 OA
ATOM     13  H   UNL     1      52.377  16.352  -6.559  1.00  0.00     0.293 HD
ENDBRANCH   4  12
BRANCH   6  14
ATOM     14  O   UNL     1      52.496  14.167  -5.400  1.00  0.00    -0.504 OA
ATOM     15  H   UNL     1      52.694  13.873  -6.350  1.00  0.00     0.293 HD
ENDBRANCH   6  14
TORSDOF 4
ENDMDL
