MODEL 1
REMARK VINA RESULT:    -6.732      0.000      0.000
REMARK INTER + INTRA:         -13.085
REMARK INTER:                 -10.668
REMARK INTRA:                  -2.417
REMARK UNBOUND:                -2.417
REMARK SMILES C[C@H]1O[C@H](O[C@H]2CC[C@]3(C)[C@@H](CC[C@@]4(C)[C@@H]3C=C[C@@]35OC[C@]6(CCC(C)(C)C[C@@H]63)[C@H](O)C[C@]45C)[C@@]2(C)CO)[C@@H](O)[C@@H](O[C@H]2O[C@H](CO)[C@@H](O)[C@@H](O)[C@@H]2O)[C@@H]1O
REMARK SMILES IDX 1 1 2 2 54 3 41 4 39 5 4 6 3 7 55 8 42 10 43 11 52 12 44 13
REMARK SMILES IDX 50 14 45 15 48 16 53 17 51 19 46 21 47 22 49 24 5 26 6 27
REMARK SMILES IDX 7 28 35 29 8 30 11 31 36 32 9 33 12 34 10 35 16 36 13 37
REMARK SMILES IDX 14 38 17 39 15 40 33 41 18 42 19 43 32 44 34 45 29 46 20 47
REMARK SMILES IDX 30 48 22 49 28 50 21 51 23 52 25 53 24 54 26 55 27 56 37 57
REMARK SMILES IDX 38 58 31 60 40 62
REMARK H PARENT 55 9 53 18 51 20 47 23 49 25 38 59 31 61 40 63
REMARK Flexibility Score: inf
ROOT
ATOM      1  C   UNL     1      -7.466  94.415 -16.975  1.00  0.00     0.041 C 
ATOM      2  C   UNL     1      -7.101  93.539 -15.590  1.00  0.00     0.150 C 
ATOM      3  C   UNL     1      -5.806  93.602 -14.600  1.00  0.00     0.175 C 
ATOM      4  C   UNL     1      -4.840  92.399 -14.897  1.00  0.00     0.186 C 
ATOM      5  C   UNL     1      -5.531  91.097 -14.563  1.00  0.00     0.202 C 
ATOM      6  C   UNL     1      -7.040  91.165 -14.875  1.00  0.00     0.282 C 
ATOM      7  O   UNL     1      -7.489  92.171 -15.813  1.00  0.00    -0.344 OA
ENDROOT
BRANCH   3   8
ATOM      8  O   UNL     1      -6.155  93.491 -13.249  1.00  0.00    -0.388 OA
ATOM      9  H   UNL     1      -5.546  92.851 -12.809  1.00  0.00     0.211 HD
ENDBRANCH   3   8
BRANCH   4  10
ATOM     10  O   UNL     1      -4.742  92.593 -16.286  1.00  0.00    -0.341 OA
BRANCH  10  11
ATOM     11  C   UNL     1      -3.621  92.910 -17.072  1.00  0.00     0.282 C 
ATOM     12  C   UNL     1      -4.044  93.664 -18.434  1.00  0.00     0.202 C 
ATOM     13  O   UNL     1      -2.993  91.601 -17.203  1.00  0.00    -0.341 OA
ATOM     14  C   UNL     1      -4.190  92.848 -19.801  1.00  0.00     0.179 C 
ATOM     15  C   UNL     1      -3.129  91.000 -18.506  1.00  0.00     0.178 C 
ATOM     16  C   UNL     1      -4.575  91.365 -19.121  1.00  0.00     0.177 C 
BRANCH  12  17
ATOM     17  O   UNL     1      -3.195  94.731 -18.614  1.00  0.00    -0.385 OA
ATOM     18  H   UNL     1      -3.085  94.727 -19.600  1.00  0.00     0.211 HD
ENDBRANCH  12  17
BRANCH  14  19
ATOM     19  O   UNL     1      -5.243  93.369 -20.557  1.00  0.00    -0.387 OA
ATOM     20  H   UNL     1      -6.031  93.506 -19.977  1.00  0.00     0.211 HD
ENDBRANCH  14  19
BRANCH  15  21
ATOM     21  C   UNL     1      -1.875  90.359 -19.387  1.00  0.00     0.191 C 
BRANCH  21  22
ATOM     22  O   UNL     1      -2.036  89.425 -20.497  1.00  0.00    -0.394 OA
ATOM     23  H   UNL     1      -3.029  89.251 -20.923  1.00  0.00     0.210 HD
ENDBRANCH  21  22
ENDBRANCH  15  21
BRANCH  16  24
ATOM     24  O   UNL     1      -5.884  91.040 -18.265  1.00  0.00    -0.387 OA
ATOM     25  H   UNL     1      -6.514  90.194 -17.757  1.00  0.00     0.211 HD
ENDBRANCH  16  24
ENDBRANCH  10  11
ENDBRANCH   4  10
BRANCH   6  26
ATOM     26  O   UNL     1      -7.704  91.084 -13.594  1.00  0.00    -0.346 OA
BRANCH  26  27
ATOM     27  C   UNL     1      -9.106  91.112 -13.765  1.00  0.00     0.130 C 
ATOM     28  C   UNL     1      -9.592  89.624 -13.779  1.00  0.00     0.033 C 
ATOM     29  C   UNL     1      -9.833  92.059 -12.757  1.00  0.00     0.020 C 
ATOM     30  C   UNL     1     -10.020  89.127 -12.386  1.00  0.00     0.010 C 
ATOM     31  C   UNL     1      -9.361  91.605 -11.340  1.00  0.00     0.006 C 
ATOM     32  C   UNL     1     -11.393  91.879 -13.009  1.00  0.00     0.017 C 
ATOM     33  C   UNL     1      -9.535  89.991 -11.150  1.00  0.00    -0.022 C 
ATOM     34  C   UNL     1      -7.895  92.219 -10.910  1.00  0.00     0.005 C 
ATOM     35  C   UNL     1     -10.623  89.743 -10.042  1.00  0.00     0.012 C 
ATOM     36  C   UNL     1      -8.119  89.446 -10.777  1.00  0.00     0.024 C 
ATOM     37  C   UNL     1      -6.782  91.384 -10.132  1.00  0.00     0.008 C 
ATOM     38  C   UNL     1      -7.429  90.101  -9.459  1.00  0.00    -0.017 C 
ATOM     39  C   UNL     1      -7.276  88.427 -11.607  1.00  0.00    -0.024 C 
ATOM     40  C   UNL     1      -8.282  90.865  -8.342  1.00  0.00     0.013 C 
ATOM     41  C   UNL     1      -6.475  88.914  -8.770  1.00  0.00     0.009 C 
ATOM     42  C   UNL     1      -6.416  87.652 -10.968  1.00  0.00     0.005 C 
ATOM     43  C   UNL     1      -6.647  87.514  -9.527  1.00  0.00     0.096 C 
ATOM     44  C   UNL     1      -6.898  88.495  -7.270  1.00  0.00     0.043 C 
ATOM     45  C   UNL     1      -5.002  89.465  -8.767  1.00  0.00     0.015 C 
ATOM     46  C   UNL     1      -5.918  86.280  -8.968  1.00  0.00     0.037 C 
ATOM     47  O   UNL     1      -8.045  87.184  -9.445  1.00  0.00    -0.369 OA
ATOM     48  C   UNL     1      -6.905  86.959  -6.748  1.00  0.00     0.124 C 
ATOM     49  C   UNL     1      -6.899  85.885  -7.910  1.00  0.00     0.026 C 
ATOM     50  C   UNL     1      -4.498  86.353  -8.385  1.00  0.00     0.014 C 
ATOM     51  C   UNL     1      -8.186  85.996  -8.717  1.00  0.00     0.171 C 
ATOM     52  C   UNL     1      -6.626  84.417  -7.499  1.00  0.00     0.013 C 
ATOM     53  C   UNL     1      -4.007  84.995  -7.851  1.00  0.00    -0.035 C 
ATOM     54  C   UNL     1      -5.154  84.186  -7.088  1.00  0.00     0.007 C 
ATOM     55  C   UNL     1      -2.848  85.245  -6.832  1.00  0.00     0.011 C 
ATOM     56  C   UNL     1      -3.392  84.150  -9.005  1.00  0.00     0.011 C 
BRANCH  29  57
ATOM     57  C   UNL     1      -9.549  93.669 -12.903  1.00  0.00     0.165 C 
BRANCH  57  58
ATOM     58  O   UNL     1     -10.078  94.221 -14.089  1.00  0.00    -0.396 OA
ATOM     59  H   UNL     1     -10.292  95.157 -13.869  1.00  0.00     0.210 HD
ENDBRANCH  57  58
ENDBRANCH  29  57
BRANCH  48  60
ATOM     60  O   UNL     1      -8.017  86.663  -5.887  1.00  0.00    -0.392 OA
ATOM     61  H   UNL     1      -7.816  85.866  -5.320  1.00  0.00     0.210 HD
ENDBRANCH  48  60
ENDBRANCH  26  27
ENDBRANCH   6  26
BRANCH   5  62
ATOM     62  O   UNL     1      -4.944  90.012 -15.255  1.00  0.00    -0.385 OA
ATOM     63  H   UNL     1      -4.515  90.371 -16.087  1.00  0.00     0.211 HD
ENDBRANCH   5  62
TORSDOF 14
ENDMDL
MODEL 2
REMARK VINA RESULT:    -6.263      4.136      9.494
REMARK INTER + INTRA:         -12.342
REMARK INTER:                  -9.581
REMARK INTRA:                  -2.761
REMARK UNBOUND:                -2.417
REMARK SMILES C[C@H]1O[C@H](O[C@H]2CC[C@]3(C)[C@@H](CC[C@@]4(C)[C@@H]3C=C[C@@]35OC[C@]6(CCC(C)(C)C[C@@H]63)[C@H](O)C[C@]45C)[C@@]2(C)CO)[C@@H](O)[C@@H](O[C@H]2O[C@H](CO)[C@@H](O)[C@@H](O)[C@@H]2O)[C@@H]1O
REMARK SMILES IDX 1 1 2 2 54 3 41 4 39 5 4 6 3 7 55 8 42 10 43 11 52 12 44 13
REMARK SMILES IDX 50 14 45 15 48 16 53 17 51 19 46 21 47 22 49 24 5 26 6 27
REMARK SMILES IDX 7 28 35 29 8 30 11 31 36 32 9 33 12 34 10 35 16 36 13 37
REMARK SMILES IDX 14 38 17 39 15 40 33 41 18 42 19 43 32 44 34 45 29 46 20 47
REMARK SMILES IDX 30 48 22 49 28 50 21 51 23 52 25 53 24 54 26 55 27 56 37 57
REMARK SMILES IDX 38 58 31 60 40 62
REMARK H PARENT 55 9 53 18 51 20 47 23 49 25 38 59 31 61 40 63
REMARK Flexibility Score: inf
ROOT
ATOM      1  C   UNL     1      -3.669  87.317  -7.877  1.00  0.00     0.041 C 
ATOM      2  C   UNL     1      -5.056  88.172  -8.281  1.00  0.00     0.150 C 
ATOM      3  C   UNL     1      -6.412  88.470  -7.425  1.00  0.00     0.175 C 
ATOM      4  C   UNL     1      -7.572  87.525  -7.904  1.00  0.00     0.186 C 
ATOM      5  C   UNL     1      -7.930  87.847  -9.337  1.00  0.00     0.202 C 
ATOM      6  C   UNL     1      -6.685  88.262 -10.148  1.00  0.00     0.282 C 
ATOM      7  O   UNL     1      -5.389  87.861  -9.646  1.00  0.00    -0.344 OA
ENDROOT
BRANCH   3   8
ATOM      8  O   UNL     1      -6.882  89.777  -7.597  1.00  0.00    -0.388 OA
ATOM      9  H   UNL     1      -6.727  90.056  -8.531  1.00  0.00     0.211 HD
ENDBRANCH   3   8
BRANCH   4  10
ATOM     10  O   UNL     1      -6.864  86.315  -7.806  1.00  0.00    -0.341 OA
BRANCH  10  11
ATOM     11  C   UNL     1      -7.236  85.104  -7.199  1.00  0.00     0.282 C 
ATOM     12  C   UNL     1      -6.000  84.069  -7.133  1.00  0.00     0.202 C 
ATOM     13  O   UNL     1      -8.381  84.722  -8.015  1.00  0.00    -0.341 OA
ATOM     14  C   UNL     1      -5.840  82.925  -8.239  1.00  0.00     0.179 C 
ATOM     15  C   UNL     1      -8.133  83.630  -8.921  1.00  0.00     0.178 C 
ATOM     16  C   UNL     1      -6.625  83.728  -9.485  1.00  0.00     0.177 C 
BRANCH  12  17
ATOM     17  O   UNL     1      -5.977  83.509  -5.876  1.00  0.00    -0.385 OA
ATOM     18  H   UNL     1      -6.940  83.514  -5.643  1.00  0.00     0.211 HD
ENDBRANCH  12  17
BRANCH  14  19
ATOM     19  O   UNL     1      -4.487  82.718  -8.518  1.00  0.00    -0.387 OA
ATOM     20  H   UNL     1      -3.939  83.058  -7.769  1.00  0.00     0.211 HD
ENDBRANCH  14  19
BRANCH  15  21
ATOM     21  C   UNL     1      -9.100  82.286  -9.071  1.00  0.00     0.191 C 
BRANCH  21  22
ATOM     22  O   UNL     1      -9.841  81.930 -10.277  1.00  0.00    -0.394 OA
ATOM     23  H   UNL     1     -10.891  81.636 -10.203  1.00  0.00     0.210 HD
ENDBRANCH  21  22
ENDBRANCH  15  21
BRANCH  16  24
ATOM     24  O   UNL     1      -6.143  85.086 -10.172  1.00  0.00    -0.387 OA
ATOM     25  H   UNL     1      -6.478  86.017 -10.799  1.00  0.00     0.211 HD
ENDBRANCH  16  24
ENDBRANCH  10  11
ENDBRANCH   4  10
BRANCH   6  26
ATOM     26  O   UNL     1      -6.885  89.655 -10.478  1.00  0.00    -0.346 OA
BRANCH  26  27
ATOM     27  C   UNL     1      -6.267  89.962 -11.711  1.00  0.00     0.130 C 
ATOM     28  C   UNL     1      -7.057  89.190 -12.820  1.00  0.00     0.033 C 
ATOM     29  C   UNL     1      -6.082  91.495 -11.945  1.00  0.00     0.020 C 
ATOM     30  C   UNL     1      -8.175  90.040 -13.451  1.00  0.00     0.010 C 
ATOM     31  C   UNL     1      -7.499  92.123 -11.755  1.00  0.00     0.006 C 
ATOM     32  C   UNL     1      -5.490  91.663 -13.411  1.00  0.00     0.017 C 
ATOM     33  C   UNL     1      -8.617  91.332 -12.648  1.00  0.00    -0.022 C 
ATOM     34  C   UNL     1      -7.897  92.378 -10.179  1.00  0.00     0.005 C 
ATOM     35  C   UNL     1      -9.152  92.320 -13.749  1.00  0.00     0.012 C 
ATOM     36  C   UNL     1      -9.713  90.855 -11.642  1.00  0.00     0.024 C 
ATOM     37  C   UNL     1      -9.350  92.113  -9.581  1.00  0.00     0.008 C 
ATOM     38  C   UNL     1     -10.417  92.021 -10.752  1.00  0.00    -0.017 C 
ATOM     39  C   UNL     1     -10.106  89.375 -11.340  1.00  0.00    -0.024 C 
ATOM     40  C   UNL     1     -10.381  93.560 -11.184  1.00  0.00     0.013 C 
ATOM     41  C   UNL     1     -11.985  91.523 -10.455  1.00  0.00     0.009 C 
ATOM     42  C   UNL     1     -11.339  89.119 -10.938  1.00  0.00     0.005 C 
ATOM     43  C   UNL     1     -12.324  90.164 -11.232  1.00  0.00     0.096 C 
ATOM     44  C   UNL     1     -13.126  92.497 -11.049  1.00  0.00     0.043 C 
ATOM     45  C   UNL     1     -12.138  91.424  -8.892  1.00  0.00     0.015 C 
ATOM     46  C   UNL     1     -13.756  89.610 -11.154  1.00  0.00     0.037 C 
ATOM     47  O   UNL     1     -12.111  90.438 -12.629  1.00  0.00    -0.369 OA
ATOM     48  C   UNL     1     -14.476  91.950 -11.763  1.00  0.00     0.124 C 
ATOM     49  C   UNL     1     -14.390  90.439 -12.225  1.00  0.00     0.026 C 
ATOM     50  C   UNL     1     -14.594  89.662  -9.866  1.00  0.00     0.014 C 
ATOM     51  C   UNL     1     -13.327  90.294 -13.307  1.00  0.00     0.171 C 
ATOM     52  C   UNL     1     -15.718  89.768 -12.657  1.00  0.00     0.013 C 
ATOM     53  C   UNL     1     -16.008  89.084 -10.056  1.00  0.00    -0.035 C 
ATOM     54  C   UNL     1     -16.654  89.494 -11.459  1.00  0.00     0.007 C 
ATOM     55  C   UNL     1     -16.935  89.643  -8.928  1.00  0.00     0.011 C 
ATOM     56  C   UNL     1     -15.990  87.538  -9.872  1.00  0.00     0.011 C 
BRANCH  29  57
ATOM     57  C   UNL     1      -5.034  92.283 -10.957  1.00  0.00     0.165 C 
BRANCH  57  58
ATOM     58  O   UNL     1      -4.674  91.534  -9.816  1.00  0.00    -0.396 OA
ATOM     59  H   UNL     1      -5.482  91.026  -9.573  1.00  0.00     0.210 HD
ENDBRANCH  57  58
ENDBRANCH  29  57
BRANCH  48  60
ATOM     60  O   UNL     1     -14.867  92.733 -12.902  1.00  0.00    -0.392 OA
ATOM     61  H   UNL     1     -14.761  92.205 -13.742  1.00  0.00     0.210 HD
ENDBRANCH  48  60
ENDBRANCH  26  27
ENDBRANCH   6  26
BRANCH   5  62
ATOM     62  O   UNL     1      -8.571  86.753  -9.965  1.00  0.00    -0.385 OA
ATOM     63  H   UNL     1      -8.316  85.920  -9.469  1.00  0.00     0.211 HD
ENDBRANCH   5  62
TORSDOF 14
ENDMDL
MODEL 3
REMARK VINA RESULT:    -6.162      3.748      5.615
REMARK INTER + INTRA:         -12.182
REMARK INTER:                  -8.919
REMARK INTRA:                  -3.263
REMARK UNBOUND:                -2.417
REMARK SMILES C[C@H]1O[C@H](O[C@H]2CC[C@]3(C)[C@@H](CC[C@@]4(C)[C@@H]3C=C[C@@]35OC[C@]6(CCC(C)(C)C[C@@H]63)[C@H](O)C[C@]45C)[C@@]2(C)CO)[C@@H](O)[C@@H](O[C@H]2O[C@H](CO)[C@@H](O)[C@@H](O)[C@@H]2O)[C@@H]1O
REMARK SMILES IDX 1 1 2 2 54 3 41 4 39 5 4 6 3 7 55 8 42 10 43 11 52 12 44 13
REMARK SMILES IDX 50 14 45 15 48 16 53 17 51 19 46 21 47 22 49 24 5 26 6 27
REMARK SMILES IDX 7 28 35 29 8 30 11 31 36 32 9 33 12 34 10 35 16 36 13 37
REMARK SMILES IDX 14 38 17 39 15 40 33 41 18 42 19 43 32 44 34 45 29 46 20 47
REMARK SMILES IDX 30 48 22 49 28 50 21 51 23 52 25 53 24 54 26 55 27 56 37 57
REMARK SMILES IDX 38 58 31 60 40 62
REMARK H PARENT 55 9 53 18 51 20 47 23 49 25 38 59 31 61 40 63
REMARK Flexibility Score: inf
ROOT
ATOM      1  C   UNL     1      -8.702  95.405 -12.853  1.00  0.00     0.041 C 
ATOM      2  C   UNL     1      -9.378  94.231 -11.861  1.00  0.00     0.150 C 
ATOM      3  C   UNL     1      -8.855  93.598 -10.451  1.00  0.00     0.175 C 
ATOM      4  C   UNL     1      -8.224  92.181 -10.696  1.00  0.00     0.186 C 
ATOM      5  C   UNL     1      -9.289  91.228 -11.187  1.00  0.00     0.202 C 
ATOM      6  C   UNL     1     -10.316  91.947 -12.086  1.00  0.00     0.282 C 
ATOM      7  O   UNL     1      -9.916  93.194 -12.701  1.00  0.00    -0.344 OA
ENDROOT
BRANCH   3   8
ATOM      8  O   UNL     1      -9.892  93.405  -9.530  1.00  0.00    -0.388 OA
ATOM      9  H   UNL     1      -9.540  92.924  -8.743  1.00  0.00     0.211 HD
ENDBRANCH   3   8
BRANCH   4  10
ATOM     10  O   UNL     1      -7.348  92.556 -11.728  1.00  0.00    -0.341 OA
BRANCH  10  11
ATOM     11  C   UNL     1      -5.964  92.348 -11.852  1.00  0.00     0.282 C 
ATOM     12  C   UNL     1      -5.307  93.346 -12.936  1.00  0.00     0.202 C 
ATOM     13  O   UNL     1      -5.920  90.922 -12.148  1.00  0.00    -0.341 OA
ATOM     14  C   UNL     1      -5.042  92.855 -14.434  1.00  0.00     0.179 C 
ATOM     15  C   UNL     1      -5.598  90.604 -13.516  1.00  0.00     0.178 C 
ATOM     16  C   UNL     1      -6.258  91.702 -14.496  1.00  0.00     0.177 C 
BRANCH  12  17
ATOM     17  O   UNL     1      -4.148  93.858 -12.400  1.00  0.00    -0.385 OA
ATOM     18  H   UNL     1      -3.556  93.064 -12.423  1.00  0.00     0.211 HD
ENDBRANCH  12  17
BRANCH  14  19
ATOM     19  O   UNL     1      -5.268  93.905 -15.327  1.00  0.00    -0.387 OA
ATOM     20  H   UNL     1      -4.437  94.427 -15.443  1.00  0.00     0.211 HD
ENDBRANCH  14  19
BRANCH  15  21
ATOM     21  C   UNL     1      -4.433  89.515 -13.985  1.00  0.00     0.191 C 
BRANCH  21  22
ATOM     22  O   UNL     1      -3.030  89.848 -14.205  1.00  0.00    -0.394 OA
ATOM     23  H   UNL     1      -2.379  89.144 -14.731  1.00  0.00     0.210 HD
ENDBRANCH  21  22
ENDBRANCH  15  21
BRANCH  16  24
ATOM     24  O   UNL     1      -7.826  91.990 -14.389  1.00  0.00    -0.387 OA
ATOM     25  H   UNL     1      -8.672  92.777 -14.576  1.00  0.00     0.211 HD
ENDBRANCH  16  24
ENDBRANCH  10  11
ENDBRANCH   4  10
BRANCH   6  26
ATOM     26  O   UNL     1     -11.561  91.919 -11.352  1.00  0.00    -0.346 OA
BRANCH  26  27
ATOM     27  C   UNL     1     -12.645  92.199 -12.212  1.00  0.00     0.130 C 
ATOM     28  C   UNL     1     -12.822  90.952 -13.142  1.00  0.00     0.033 C 
ATOM     29  C   UNL     1     -13.927  92.675 -11.457  1.00  0.00     0.020 C 
ATOM     30  C   UNL     1     -13.842  89.941 -12.590  1.00  0.00     0.010 C 
ATOM     31  C   UNL     1     -14.215  91.576 -10.386  1.00  0.00     0.006 C 
ATOM     32  C   UNL     1     -15.069  92.828 -12.552  1.00  0.00     0.017 C 
ATOM     33  C   UNL     1     -14.221  90.086 -11.058  1.00  0.00    -0.022 C 
ATOM     34  C   UNL     1     -13.310  91.739  -9.021  1.00  0.00     0.005 C 
ATOM     35  C   UNL     1     -15.679  89.508 -10.953  1.00  0.00     0.012 C 
ATOM     36  C   UNL     1     -13.154  89.256 -10.274  1.00  0.00     0.024 C 
ATOM     37  C   UNL     1     -12.669  90.509  -8.236  1.00  0.00     0.008 C 
ATOM     38  C   UNL     1     -13.374  89.155  -8.666  1.00  0.00    -0.017 C 
ATOM     39  C   UNL     1     -11.860  88.621 -10.871  1.00  0.00    -0.024 C 
ATOM     40  C   UNL     1     -14.791  89.436  -7.981  1.00  0.00     0.013 C 
ATOM     41  C   UNL     1     -12.766  87.673  -8.187  1.00  0.00     0.009 C 
ATOM     42  C   UNL     1     -11.364  87.539 -10.295  1.00  0.00     0.005 C 
ATOM     43  C   UNL     1     -12.299  86.798  -9.444  1.00  0.00     0.096 C 
ATOM     44  C   UNL     1     -13.851  86.682  -7.521  1.00  0.00     0.043 C 
ATOM     45  C   UNL     1     -11.619  87.971  -7.152  1.00  0.00     0.015 C 
ATOM     46  C   UNL     1     -11.803  85.364  -9.199  1.00  0.00     0.037 C 
ATOM     47  O   UNL     1     -13.462  86.648 -10.279  1.00  0.00    -0.369 OA
ATOM     48  C   UNL     1     -13.904  85.091  -7.829  1.00  0.00     0.124 C 
ATOM     49  C   UNL     1     -13.123  84.663  -9.138  1.00  0.00     0.026 C 
ATOM     50  C   UNL     1     -10.937  84.984  -7.987  1.00  0.00     0.014 C 
ATOM     51  C   UNL     1     -13.788  85.288 -10.358  1.00  0.00     0.171 C 
ATOM     52  C   UNL     1     -12.895  83.146  -9.346  1.00  0.00     0.013 C 
ATOM     53  C   UNL     1     -10.607  83.481  -7.942  1.00  0.00    -0.035 C 
ATOM     54  C   UNL     1     -11.849  82.569  -8.366  1.00  0.00     0.007 C 
ATOM     55  C   UNL     1     -10.216  83.096  -6.478  1.00  0.00     0.011 C 
ATOM     56  C   UNL     1      -9.356  83.174  -8.818  1.00  0.00     0.011 C 
BRANCH  29  57
ATOM     57  C   UNL     1     -13.852  94.128 -10.697  1.00  0.00     0.165 C 
BRANCH  57  58
ATOM     58  O   UNL     1     -12.546  94.658 -10.635  1.00  0.00    -0.396 OA
ATOM     59  H   UNL     1     -11.962  93.957 -11.007  1.00  0.00     0.210 HD
ENDBRANCH  57  58
ENDBRANCH  29  57
BRANCH  48  60
ATOM     60  O   UNL     1     -15.244  84.583  -7.936  1.00  0.00    -0.392 OA
ATOM     61  H   UNL     1     -15.319  83.956  -8.708  1.00  0.00     0.210 HD
ENDBRANCH  48  60
ENDBRANCH  26  27
ENDBRANCH   6  26
BRANCH   5  62
ATOM     62  O   UNL     1      -8.721  90.136 -11.883  1.00  0.00    -0.385 OA
ATOM     63  H   UNL     1      -8.869  90.284 -12.864  1.00  0.00     0.211 HD
ENDBRANCH   5  62
TORSDOF 14
ENDMDL
MODEL 4
REMARK VINA RESULT:    -6.160      4.434     10.829
REMARK INTER + INTRA:         -12.178
REMARK INTER:                 -10.182
REMARK INTRA:                  -1.996
REMARK UNBOUND:                -2.417
REMARK SMILES C[C@H]1O[C@H](O[C@H]2CC[C@]3(C)[C@@H](CC[C@@]4(C)[C@@H]3C=C[C@@]35OC[C@]6(CCC(C)(C)C[C@@H]63)[C@H](O)C[C@]45C)[C@@]2(C)CO)[C@@H](O)[C@@H](O[C@H]2O[C@H](CO)[C@@H](O)[C@@H](O)[C@@H]2O)[C@@H]1O
REMARK SMILES IDX 1 1 2 2 54 3 41 4 39 5 4 6 3 7 55 8 42 10 43 11 52 12 44 13
REMARK SMILES IDX 50 14 45 15 48 16 53 17 51 19 46 21 47 22 49 24 5 26 6 27
REMARK SMILES IDX 7 28 35 29 8 30 11 31 36 32 9 33 12 34 10 35 16 36 13 37
REMARK SMILES IDX 14 38 17 39 15 40 33 41 18 42 19 43 32 44 34 45 29 46 20 47
REMARK SMILES IDX 30 48 22 49 28 50 21 51 23 52 25 53 24 54 26 55 27 56 37 57
REMARK SMILES IDX 38 58 31 60 40 62
REMARK H PARENT 55 9 53 18 51 20 47 23 49 25 38 59 31 61 40 63
REMARK Flexibility Score: inf
ROOT
ATOM      1  C   UNL     1     -15.086  85.177  -6.442  1.00  0.00     0.041 C 
ATOM      2  C   UNL     1     -14.576  85.975  -7.828  1.00  0.00     0.150 C 
ATOM      3  C   UNL     1     -14.364  85.433  -9.352  1.00  0.00     0.175 C 
ATOM      4  C   UNL     1     -12.836  85.207  -9.637  1.00  0.00     0.186 C 
ATOM      5  C   UNL     1     -12.107  86.529  -9.582  1.00  0.00     0.202 C 
ATOM      6  C   UNL     1     -12.717  87.464  -8.517  1.00  0.00     0.282 C 
ATOM      7  O   UNL     1     -13.503  86.860  -7.462  1.00  0.00    -0.344 OA
ENDROOT
BRANCH   3   8
ATOM      8  O   UNL     1     -14.805  86.348 -10.315  1.00  0.00    -0.388 OA
ATOM      9  H   UNL     1     -14.772  87.258  -9.935  1.00  0.00     0.211 HD
ENDBRANCH   3   8
BRANCH   4  10
ATOM     10  O   UNL     1     -12.563  84.416  -8.508  1.00  0.00    -0.341 OA
BRANCH  10  11
ATOM     11  C   UNL     1     -11.577  83.434  -8.316  1.00  0.00     0.282 C 
ATOM     12  C   UNL     1     -11.447  82.464  -9.598  1.00  0.00     0.202 C 
ATOM     13  O   UNL     1     -12.024  82.829  -7.067  1.00  0.00    -0.341 OA
ATOM     14  C   UNL     1     -12.190  81.048  -9.624  1.00  0.00     0.179 C 
ATOM     15  C   UNL     1     -12.610  81.521  -7.211  1.00  0.00     0.178 C 
ATOM     16  C   UNL     1     -13.447  81.452  -8.589  1.00  0.00     0.177 C 
BRANCH  12  17
ATOM     17  O   UNL     1     -10.110  82.294  -9.873  1.00  0.00    -0.385 OA
ATOM     18  H   UNL     1      -9.696  82.618  -9.032  1.00  0.00     0.211 HD
ENDBRANCH  12  17
BRANCH  14  19
ATOM     19  O   UNL     1     -12.643  80.770 -10.916  1.00  0.00    -0.387 OA
ATOM     20  H   UNL     1     -13.441  80.191 -10.870  1.00  0.00     0.211 HD
ENDBRANCH  14  19
BRANCH  15  21
ATOM     21  C   UNL     1     -12.189  80.191  -6.308  1.00  0.00     0.191 C 
BRANCH  21  22
ATOM     22  O   UNL     1     -11.481  79.026  -6.830  1.00  0.00    -0.394 OA
ATOM     23  H   UNL     1     -10.488  78.775  -6.447  1.00  0.00     0.210 HD
ENDBRANCH  21  22
ENDBRANCH  15  21
BRANCH  16  24
ATOM     24  O   UNL     1     -14.570  82.553  -8.867  1.00  0.00    -0.387 OA
ATOM     25  H   UNL     1     -15.467  83.147  -8.406  1.00  0.00     0.211 HD
ENDBRANCH  16  24
ENDBRANCH  10  11
ENDBRANCH   4  10
BRANCH   6  26
ATOM     26  O   UNL     1     -13.297  88.564  -9.253  1.00  0.00    -0.346 OA
BRANCH  26  27
ATOM     27  C   UNL     1     -13.771  89.554  -8.364  1.00  0.00     0.130 C 
ATOM     28  C   UNL     1     -12.513  90.209  -7.701  1.00  0.00     0.033 C 
ATOM     29  C   UNL     1     -14.787  90.540  -9.023  1.00  0.00     0.020 C 
ATOM     30  C   UNL     1     -12.033  91.464  -8.452  1.00  0.00     0.010 C 
ATOM     31  C   UNL     1     -14.069  91.098 -10.292  1.00  0.00     0.006 C 
ATOM     32  C   UNL     1     -15.121  91.646  -7.930  1.00  0.00     0.017 C 
ATOM     33  C   UNL     1     -12.576  91.654  -9.928  1.00  0.00    -0.022 C 
ATOM     34  C   UNL     1     -14.157  90.089 -11.590  1.00  0.00     0.005 C 
ATOM     35  C   UNL     1     -12.563  93.209 -10.159  1.00  0.00     0.012 C 
ATOM     36  C   UNL     1     -11.588  90.870 -10.850  1.00  0.00     0.024 C 
ATOM     37  C   UNL     1     -12.947  89.838 -12.596  1.00  0.00     0.008 C 
ATOM     38  C   UNL     1     -11.863  90.987 -12.449  1.00  0.00    -0.017 C 
ATOM     39  C   UNL     1     -10.449  89.912 -10.378  1.00  0.00    -0.024 C 
ATOM     40  C   UNL     1     -12.734  92.172 -13.078  1.00  0.00     0.013 C 
ATOM     41  C   UNL     1     -10.377  90.876 -13.206  1.00  0.00     0.009 C 
ATOM     42  C   UNL     1      -9.387  89.765 -11.152  1.00  0.00     0.005 C 
ATOM     43  C   UNL     1      -9.181  90.827 -12.142  1.00  0.00     0.096 C 
ATOM     44  C   UNL     1      -9.958  92.175 -14.065  1.00  0.00     0.043 C 
ATOM     45  C   UNL     1     -10.446  89.619 -14.151  1.00  0.00     0.015 C 
ATOM     46  C   UNL     1      -7.734  90.823 -12.661  1.00  0.00     0.037 C 
ATOM     47  O   UNL     1      -9.290  92.033 -11.363  1.00  0.00    -0.369 OA
ATOM     48  C   UNL     1      -8.454  92.783 -14.077  1.00  0.00     0.124 C 
ATOM     49  C   UNL     1      -7.553  92.293 -12.872  1.00  0.00     0.026 C 
ATOM     50  C   UNL     1      -7.307  90.044 -13.916  1.00  0.00     0.014 C 
ATOM     51  C   UNL     1      -8.135  92.801 -11.558  1.00  0.00     0.171 C 
ATOM     52  C   UNL     1      -6.038  92.602 -12.965  1.00  0.00     0.013 C 
ATOM     53  C   UNL     1      -5.818  90.235 -14.254  1.00  0.00    -0.035 C 
ATOM     54  C   UNL     1      -5.326  91.739 -14.030  1.00  0.00     0.007 C 
ATOM     55  C   UNL     1      -5.596  89.884 -15.761  1.00  0.00     0.011 C 
ATOM     56  C   UNL     1      -4.946  89.229 -13.444  1.00  0.00     0.011 C 
BRANCH  29  57
ATOM     57  C   UNL     1     -16.239  89.926  -9.480  1.00  0.00     0.165 C 
BRANCH  57  58
ATOM     58  O   UNL     1     -16.341  88.532  -9.282  1.00  0.00    -0.396 OA
ATOM     59  H   UNL     1     -16.866  88.198 -10.044  1.00  0.00     0.210 HD
ENDBRANCH  57  58
ENDBRANCH  29  57
BRANCH  48  60
ATOM     60  O   UNL     1      -8.427  94.219 -14.086  1.00  0.00    -0.392 OA
ATOM     61  H   UNL     1      -9.203  94.580 -14.599  1.00  0.00     0.210 HD
ENDBRANCH  48  60
ENDBRANCH  26  27
ENDBRANCH   6  26
BRANCH   5  62
ATOM     62  O   UNL     1     -10.727  86.346  -9.329  1.00  0.00    -0.385 OA
ATOM     63  H   UNL     1     -10.334  87.240  -9.100  1.00  0.00     0.211 HD
ENDBRANCH   5  62
TORSDOF 14
ENDMDL
MODEL 5
REMARK VINA RESULT:    -6.117      3.515      9.203
REMARK INTER + INTRA:         -12.109
REMARK INTER:                  -9.865
REMARK INTRA:                  -2.244
REMARK UNBOUND:                -2.417
REMARK SMILES C[C@H]1O[C@H](O[C@H]2CC[C@]3(C)[C@@H](CC[C@@]4(C)[C@@H]3C=C[C@@]35OC[C@]6(CCC(C)(C)C[C@@H]63)[C@H](O)C[C@]45C)[C@@]2(C)CO)[C@@H](O)[C@@H](O[C@H]2O[C@H](CO)[C@@H](O)[C@@H](O)[C@@H]2O)[C@@H]1O
REMARK SMILES IDX 1 1 2 2 54 3 41 4 39 5 4 6 3 7 55 8 42 10 43 11 52 12 44 13
REMARK SMILES IDX 50 14 45 15 48 16 53 17 51 19 46 21 47 22 49 24 5 26 6 27
REMARK SMILES IDX 7 28 35 29 8 30 11 31 36 32 9 33 12 34 10 35 16 36 13 37
REMARK SMILES IDX 14 38 17 39 15 40 33 41 18 42 19 43 32 44 34 45 29 46 20 47
REMARK SMILES IDX 30 48 22 49 28 50 21 51 23 52 25 53 24 54 26 55 27 56 37 57
REMARK SMILES IDX 38 58 31 60 40 62
REMARK H PARENT 55 9 53 18 51 20 47 23 49 25 38 59 31 61 40 63
REMARK Flexibility Score: inf
ROOT
ATOM      1  C   UNL     1      -4.531  90.364  -8.424  1.00  0.00     0.041 C 
ATOM      2  C   UNL     1      -6.046  89.939  -9.008  1.00  0.00     0.150 C 
ATOM      3  C   UNL     1      -7.323  89.251  -8.259  1.00  0.00     0.175 C 
ATOM      4  C   UNL     1      -7.408  87.726  -8.629  1.00  0.00     0.186 C 
ATOM      5  C   UNL     1      -7.688  87.576 -10.106  1.00  0.00     0.202 C 
ATOM      6  C   UNL     1      -6.996  88.685 -10.926  1.00  0.00     0.282 C 
ATOM      7  O   UNL     1      -5.875  89.370 -10.319  1.00  0.00    -0.344 OA
ENDROOT
BRANCH   3   8
ATOM      8  O   UNL     1      -8.544  89.812  -8.651  1.00  0.00    -0.388 OA
ATOM      9  H   UNL     1      -9.170  89.789  -7.888  1.00  0.00     0.211 HD
ENDBRANCH   3   8
BRANCH   4  10
ATOM     10  O   UNL     1      -6.079  87.396  -8.316  1.00  0.00    -0.341 OA
BRANCH  10  11
ATOM     11  C   UNL     1      -5.535  86.893  -7.123  1.00  0.00     0.282 C 
ATOM     12  C   UNL     1      -3.926  87.013  -7.106  1.00  0.00     0.202 C 
ATOM     13  O   UNL     1      -6.102  85.550  -7.101  1.00  0.00    -0.341 OA
ATOM     14  C   UNL     1      -3.015  85.760  -7.501  1.00  0.00     0.179 C 
ATOM     15  C   UNL     1      -5.164  84.499  -7.401  1.00  0.00     0.178 C 
ATOM     16  C   UNL     1      -4.118  85.010  -8.518  1.00  0.00     0.177 C 
BRANCH  12  17
ATOM     17  O   UNL     1      -3.546  87.497  -5.875  1.00  0.00    -0.385 OA
ATOM     18  H   UNL     1      -2.558  87.473  -5.954  1.00  0.00     0.211 HD
ENDBRANCH  12  17
BRANCH  14  19
ATOM     19  O   UNL     1      -1.879  86.195  -8.188  1.00  0.00    -0.387 OA
ATOM     20  H   UNL     1      -1.156  86.389  -7.544  1.00  0.00     0.211 HD
ENDBRANCH  14  19
BRANCH  15  21
ATOM     21  C   UNL     1      -4.956  83.127  -6.486  1.00  0.00     0.191 C 
BRANCH  21  22
ATOM     22  O   UNL     1      -4.182  81.963  -6.905  1.00  0.00    -0.394 OA
ATOM     23  H   UNL     1      -4.160  81.069  -6.275  1.00  0.00     0.210 HD
ENDBRANCH  21  22
ENDBRANCH  15  21
BRANCH  16  24
ATOM     24  O   UNL     1      -4.681  85.606  -9.889  1.00  0.00    -0.387 OA
ATOM     25  H   UNL     1      -4.844  86.580 -10.517  1.00  0.00     0.211 HD
ENDBRANCH  16  24
ENDBRANCH  10  11
ENDBRANCH   4  10
BRANCH   6  26
ATOM     26  O   UNL     1      -8.066  89.486 -11.475  1.00  0.00    -0.346 OA
BRANCH  26  27
ATOM     27  C   UNL     1      -7.819  89.766 -12.838  1.00  0.00     0.130 C 
ATOM     28  C   UNL     1      -8.863  88.946 -13.667  1.00  0.00     0.033 C 
ATOM     29  C   UNL     1      -7.747  91.295 -13.151  1.00  0.00     0.020 C 
ATOM     30  C   UNL     1     -10.134  89.754 -13.986  1.00  0.00     0.010 C 
ATOM     31  C   UNL     1      -9.074  91.900 -12.594  1.00  0.00     0.006 C 
ATOM     32  C   UNL     1      -7.586  91.429 -14.728  1.00  0.00     0.017 C 
ATOM     33  C   UNL     1     -10.372  91.062 -13.124  1.00  0.00    -0.022 C 
ATOM     34  C   UNL     1      -9.029  92.196 -10.975  1.00  0.00     0.005 C 
ATOM     35  C   UNL     1     -11.216  92.004 -14.058  1.00  0.00     0.012 C 
ATOM     36  C   UNL     1     -11.136  90.595 -11.843  1.00  0.00     0.024 C 
ATOM     37  C   UNL     1     -10.254  91.923  -9.994  1.00  0.00     0.008 C 
ATOM     38  C   UNL     1     -11.599  91.773 -10.823  1.00  0.00    -0.017 C 
ATOM     39  C   UNL     1     -11.391  89.117 -11.409  1.00  0.00    -0.024 C 
ATOM     40  C   UNL     1     -11.724  93.299 -11.285  1.00  0.00     0.013 C 
ATOM     41  C   UNL     1     -13.011  91.255 -10.093  1.00  0.00     0.009 C 
ATOM     42  C   UNL     1     -12.458  88.850 -10.676  1.00  0.00     0.005 C 
ATOM     43  C   UNL     1     -13.513  89.867 -10.713  1.00  0.00     0.096 C 
ATOM     44  C   UNL     1     -14.297  92.189 -10.372  1.00  0.00     0.043 C 
ATOM     45  C   UNL     1     -12.725  91.201  -8.546  1.00  0.00     0.015 C 
ATOM     46  C   UNL     1     -14.854  89.288 -10.229  1.00  0.00     0.037 C 
ATOM     47  O   UNL     1     -13.700  90.102 -12.120  1.00  0.00    -0.369 OA
ATOM     48  C   UNL     1     -15.775  91.594 -10.673  1.00  0.00     0.124 C 
ATOM     49  C   UNL     1     -15.780  90.071 -11.104  1.00  0.00     0.026 C 
ATOM     50  C   UNL     1     -15.306  89.364  -8.762  1.00  0.00     0.014 C 
ATOM     51  C   UNL     1     -15.052  89.913 -12.433  1.00  0.00     0.171 C 
ATOM     52  C   UNL     1     -17.157  89.362 -11.136  1.00  0.00     0.013 C 
ATOM     53  C   UNL     1     -16.702  88.753  -8.540  1.00  0.00    -0.035 C 
ATOM     54  C   UNL     1     -17.720  89.107  -9.720  1.00  0.00     0.007 C 
ATOM     55  C   UNL     1     -17.297  89.329  -7.215  1.00  0.00     0.011 C 
ATOM     56  C   UNL     1     -16.592  87.214  -8.331  1.00  0.00     0.011 C 
BRANCH  29  57
ATOM     57  C   UNL     1      -6.489  92.132 -12.511  1.00  0.00     0.165 C 
BRANCH  57  58
ATOM     58  O   UNL     1      -5.310  91.366 -12.399  1.00  0.00    -0.396 OA
ATOM     59  H   UNL     1      -5.367  90.692 -13.114  1.00  0.00     0.210 HD
ENDBRANCH  57  58
ENDBRANCH  29  57
BRANCH  48  60
ATOM     60  O   UNL     1     -16.486  92.334 -11.678  1.00  0.00    -0.392 OA
ATOM     61  H   UNL     1     -16.980  91.714 -12.284  1.00  0.00     0.210 HD
ENDBRANCH  48  60
ENDBRANCH  26  27
ENDBRANCH   6  26
BRANCH   5  62
ATOM     62  O   UNL     1      -7.285  86.306 -10.579  1.00  0.00    -0.385 OA
ATOM     63  H   UNL     1      -7.693  85.610  -9.983  1.00  0.00     0.211 HD
ENDBRANCH   5  62
TORSDOF 14
ENDMDL
MODEL 6
REMARK VINA RESULT:    -6.115      2.524      5.025
REMARK INTER + INTRA:         -12.107
REMARK INTER:                 -10.069
REMARK INTRA:                  -2.038
REMARK UNBOUND:                -2.417
REMARK SMILES C[C@H]1O[C@H](O[C@H]2CC[C@]3(C)[C@@H](CC[C@@]4(C)[C@@H]3C=C[C@@]35OC[C@]6(CCC(C)(C)C[C@@H]63)[C@H](O)C[C@]45C)[C@@]2(C)CO)[C@@H](O)[C@@H](O[C@H]2O[C@H](CO)[C@@H](O)[C@@H](O)[C@@H]2O)[C@@H]1O
REMARK SMILES IDX 1 1 2 2 54 3 41 4 39 5 4 6 3 7 55 8 42 10 43 11 52 12 44 13
REMARK SMILES IDX 50 14 45 15 48 16 53 17 51 19 46 21 47 22 49 24 5 26 6 27
REMARK SMILES IDX 7 28 35 29 8 30 11 31 36 32 9 33 12 34 10 35 16 36 13 37
REMARK SMILES IDX 14 38 17 39 15 40 33 41 18 42 19 43 32 44 34 45 29 46 20 47
REMARK SMILES IDX 30 48 22 49 28 50 21 51 23 52 25 53 24 54 26 55 27 56 37 57
REMARK SMILES IDX 38 58 31 60 40 62
REMARK H PARENT 55 9 53 18 51 20 47 23 49 25 38 59 31 61 40 63
REMARK Flexibility Score: inf
ROOT
ATOM      1  C   UNL     1      -4.522  90.583 -15.493  1.00  0.00     0.041 C 
ATOM      2  C   UNL     1      -5.696  91.483 -14.700  1.00  0.00     0.150 C 
ATOM      3  C   UNL     1      -7.259  91.765 -15.078  1.00  0.00     0.175 C 
ATOM      4  C   UNL     1      -7.416  93.203 -15.690  1.00  0.00     0.186 C 
ATOM      5  C   UNL     1      -7.068  94.240 -14.647  1.00  0.00     0.202 C 
ATOM      6  C   UNL     1      -5.932  93.751 -13.724  1.00  0.00     0.282 C 
ATOM      7  O   UNL     1      -5.080  92.688 -14.211  1.00  0.00    -0.344 OA
ENDROOT
BRANCH   3   8
ATOM      8  O   UNL     1      -8.098  91.727 -13.959  1.00  0.00    -0.388 OA
ATOM      9  H   UNL     1      -8.984  92.087 -14.206  1.00  0.00     0.211 HD
ENDBRANCH   3   8
BRANCH   4  10
ATOM     10  O   UNL     1      -6.410  93.089 -16.665  1.00  0.00    -0.341 OA
BRANCH  10  11
ATOM     11  C   UNL     1      -6.521  92.916 -18.054  1.00  0.00     0.282 C 
ATOM     12  C   UNL     1      -5.603  91.697 -18.577  1.00  0.00     0.202 C 
ATOM     13  O   UNL     1      -6.187  94.253 -18.530  1.00  0.00    -0.341 OA
ATOM     14  C   UNL     1      -4.157  91.979 -19.198  1.00  0.00     0.179 C 
ATOM     15  C   UNL     1      -4.885  94.363 -19.138  1.00  0.00     0.178 C 
ATOM     16  C   UNL     1      -3.845  93.402 -18.367  1.00  0.00     0.177 C 
BRANCH  12  17
ATOM     17  O   UNL     1      -6.349  90.944 -19.454  1.00  0.00    -0.385 OA
ATOM     18  H   UNL     1      -5.833  90.098 -19.471  1.00  0.00     0.211 HD
ENDBRANCH  12  17
BRANCH  14  19
ATOM     19  O   UNL     1      -3.276  90.957 -18.839  1.00  0.00    -0.387 OA
ATOM     20  H   UNL     1      -2.747  91.236 -18.053  1.00  0.00     0.211 HD
ENDBRANCH  14  19
BRANCH  15  21
ATOM     21  C   UNL     1      -4.587  95.068 -20.613  1.00  0.00     0.191 C 
BRANCH  21  22
ATOM     22  O   UNL     1      -5.427  94.900 -21.795  1.00  0.00    -0.394 OA
ATOM     23  H   UNL     1      -6.505  94.755 -21.681  1.00  0.00     0.210 HD
ENDBRANCH  21  22
ENDBRANCH  15  21
BRANCH  16  24
ATOM     24  O   UNL     1      -3.688  93.544 -16.784  1.00  0.00    -0.387 OA
ATOM     25  H   UNL     1      -3.926  94.211 -15.851  1.00  0.00     0.211 HD
ENDBRANCH  16  24
ENDBRANCH  10  11
ENDBRANCH   4  10
BRANCH   6  26
ATOM     26  O   UNL     1      -6.534  93.597 -12.419  1.00  0.00    -0.346 OA
BRANCH  26  27
ATOM     27  C   UNL     1      -6.087  94.616 -11.549  1.00  0.00     0.130 C 
ATOM     28  C   UNL     1      -7.320  95.055 -10.691  1.00  0.00     0.033 C 
ATOM     29  C   UNL     1      -4.802  94.228 -10.751  1.00  0.00     0.020 C 
ATOM     30  C   UNL     1      -7.412  94.296  -9.355  1.00  0.00     0.010 C 
ATOM     31  C   UNL     1      -5.138  92.876 -10.047  1.00  0.00     0.006 C 
ATOM     32  C   UNL     1      -4.512  95.427  -9.746  1.00  0.00     0.017 C 
ATOM     33  C   UNL     1      -6.554  92.970  -9.237  1.00  0.00    -0.022 C 
ATOM     34  C   UNL     1      -4.964  91.566 -11.028  1.00  0.00     0.005 C 
ATOM     35  C   UNL     1      -6.250  92.829  -7.701  1.00  0.00     0.012 C 
ATOM     36  C   UNL     1      -7.454  91.828  -9.810  1.00  0.00     0.024 C 
ATOM     37  C   UNL     1      -5.967  90.328 -11.035  1.00  0.00     0.008 C 
ATOM     38  C   UNL     1      -6.843  90.324  -9.711  1.00  0.00    -0.017 C 
ATOM     39  C   UNL     1      -8.814  92.011 -10.554  1.00  0.00    -0.024 C 
ATOM     40  C   UNL     1      -5.669  89.947  -8.692  1.00  0.00     0.013 C 
ATOM     41  C   UNL     1      -8.140  89.284  -9.537  1.00  0.00     0.009 C 
ATOM     42  C   UNL     1      -9.704  91.036 -10.490  1.00  0.00     0.005 C 
ATOM     43  C   UNL     1      -9.517  90.087  -9.389  1.00  0.00     0.096 C 
ATOM     44  C   UNL     1      -8.142  88.434  -8.165  1.00  0.00     0.043 C 
ATOM     45  C   UNL     1      -8.098  88.301 -10.765  1.00  0.00     0.015 C 
ATOM     46  C   UNL     1     -10.806  89.293  -9.120  1.00  0.00     0.037 C 
ATOM     47  O   UNL     1      -9.362  90.938  -8.239  1.00  0.00    -0.369 OA
ATOM     48  C   UNL     1      -9.484  88.160  -7.295  1.00  0.00     0.124 C 
ATOM     49  C   UNL     1     -10.683  89.134  -7.638  1.00  0.00     0.026 C 
ATOM     50  C   UNL     1     -11.096  87.936  -9.784  1.00  0.00     0.014 C 
ATOM     51  C   UNL     1     -10.302  90.563  -7.271  1.00  0.00     0.171 C 
ATOM     52  C   UNL     1     -12.069  88.762  -7.057  1.00  0.00     0.013 C 
ATOM     53  C   UNL     1     -12.429  87.323  -9.319  1.00  0.00    -0.035 C 
ATOM     54  C   UNL     1     -12.687  87.530  -7.756  1.00  0.00     0.007 C 
ATOM     55  C   UNL     1     -12.396  85.784  -9.593  1.00  0.00     0.011 C 
ATOM     56  C   UNL     1     -13.609  87.886 -10.166  1.00  0.00     0.011 C 
BRANCH  29  57
ATOM     57  C   UNL     1      -3.417  94.032 -11.609  1.00  0.00     0.165 C 
BRANCH  57  58
ATOM     58  O   UNL     1      -2.461  95.040 -11.360  1.00  0.00    -0.396 OA
ATOM     59  H   UNL     1      -2.058  95.239 -12.236  1.00  0.00     0.210 HD
ENDBRANCH  57  58
ENDBRANCH  29  57
BRANCH  48  60
ATOM     60  O   UNL     1      -9.258  88.227  -5.878  1.00  0.00    -0.392 OA
ATOM     61  H   UNL     1      -9.402  89.157  -5.546  1.00  0.00     0.210 HD
ENDBRANCH  48  60
ENDBRANCH  26  27
ENDBRANCH   6  26
BRANCH   5  62
ATOM     62  O   UNL     1      -6.706  95.469 -15.246  1.00  0.00    -0.385 OA
ATOM     63  H   UNL     1      -6.437  95.284 -16.194  1.00  0.00     0.211 HD
ENDBRANCH   5  62
TORSDOF 14
ENDMDL
MODEL 7
REMARK VINA RESULT:    -5.816      4.206     10.124
REMARK INTER + INTRA:         -11.633
REMARK INTER:                  -8.738
REMARK INTRA:                  -2.895
REMARK UNBOUND:                -2.417
REMARK SMILES C[C@H]1O[C@H](O[C@H]2CC[C@]3(C)[C@@H](CC[C@@]4(C)[C@@H]3C=C[C@@]35OC[C@]6(CCC(C)(C)C[C@@H]63)[C@H](O)C[C@]45C)[C@@]2(C)CO)[C@@H](O)[C@@H](O[C@H]2O[C@H](CO)[C@@H](O)[C@@H](O)[C@@H]2O)[C@@H]1O
REMARK SMILES IDX 1 1 2 2 54 3 41 4 39 5 4 6 3 7 55 8 42 10 43 11 52 12 44 13
REMARK SMILES IDX 50 14 45 15 48 16 53 17 51 19 46 21 47 22 49 24 5 26 6 27
REMARK SMILES IDX 7 28 35 29 8 30 11 31 36 32 9 33 12 34 10 35 16 36 13 37
REMARK SMILES IDX 14 38 17 39 15 40 33 41 18 42 19 43 32 44 34 45 29 46 20 47
REMARK SMILES IDX 30 48 22 49 28 50 21 51 23 52 25 53 24 54 26 55 27 56 37 57
REMARK SMILES IDX 38 58 31 60 40 62
REMARK H PARENT 55 9 53 18 51 20 47 23 49 25 38 59 31 61 40 63
REMARK Flexibility Score: inf
ROOT
ATOM      1  C   UNL     1      -5.462  87.759  -8.910  1.00  0.00     0.041 C 
ATOM      2  C   UNL     1      -6.938  88.534  -9.106  1.00  0.00     0.150 C 
ATOM      3  C   UNL     1      -8.126  88.851  -8.032  1.00  0.00     0.175 C 
ATOM      4  C   UNL     1      -9.308  87.834  -8.219  1.00  0.00     0.186 C 
ATOM      5  C   UNL     1      -9.940  88.032  -9.577  1.00  0.00     0.202 C 
ATOM      6  C   UNL     1      -8.888  88.425 -10.635  1.00  0.00     0.282 C 
ATOM      7  O   UNL     1      -7.504  88.107 -10.358  1.00  0.00    -0.344 OA
ENDROOT
BRANCH   3   8
ATOM      8  O   UNL     1      -8.681  90.124  -8.204  1.00  0.00    -0.388 OA
ATOM      9  H   UNL     1      -8.295  90.539  -9.012  1.00  0.00     0.211 HD
ENDBRANCH   3   8
BRANCH   4  10
ATOM     10  O   UNL     1      -8.538  86.659  -8.171  1.00  0.00    -0.341 OA
BRANCH  10  11
ATOM     11  C   UNL     1      -8.743  85.479  -7.438  1.00  0.00     0.282 C 
ATOM     12  C   UNL     1      -7.366  84.670  -7.214  1.00  0.00     0.202 C 
ATOM     13  O   UNL     1      -9.774  84.829  -8.238  1.00  0.00    -0.341 OA
ATOM     14  C   UNL     1      -6.974  83.452  -8.173  1.00  0.00     0.179 C 
ATOM     15  C   UNL     1      -9.314  83.697  -9.002  1.00  0.00     0.178 C 
ATOM     16  C   UNL     1      -7.814  83.974  -9.528  1.00  0.00     0.177 C 
BRANCH  12  17
ATOM     17  O   UNL     1      -7.316  84.265  -5.900  1.00  0.00    -0.385 OA
ATOM     18  H   UNL     1      -8.245  84.445  -5.605  1.00  0.00     0.211 HD
ENDBRANCH  12  17
BRANCH  14  19
ATOM     19  O   UNL     1      -5.594  83.436  -8.384  1.00  0.00    -0.387 OA
ATOM     20  H   UNL     1      -5.181  84.212  -7.933  1.00  0.00     0.211 HD
ENDBRANCH  14  19
BRANCH  15  21
ATOM     21  C   UNL     1     -10.050  82.207  -9.022  1.00  0.00     0.191 C 
BRANCH  21  22
ATOM     22  O   UNL     1     -10.666  81.604 -10.200  1.00  0.00    -0.394 OA
ATOM     23  H   UNL     1     -11.221  82.230 -10.904  1.00  0.00     0.210 HD
ENDBRANCH  21  22
ENDBRANCH  15  21
BRANCH  16  24
ATOM     24  O   UNL     1      -7.519  85.308 -10.354  1.00  0.00    -0.387 OA
ATOM     25  H   UNL     1      -7.936  86.357 -10.666  1.00  0.00     0.211 HD
ENDBRANCH  16  24
ENDBRANCH  10  11
ENDBRANCH   4  10
BRANCH   6  26
ATOM     26  O   UNL     1      -9.211  89.781 -11.017  1.00  0.00    -0.346 OA
BRANCH  26  27
ATOM     27  C   UNL     1      -8.794  90.030 -12.343  1.00  0.00     0.130 C 
ATOM     28  C   UNL     1      -9.771  89.247 -13.283  1.00  0.00     0.033 C 
ATOM     29  C   UNL     1      -8.613  91.549 -12.659  1.00  0.00     0.020 C 
ATOM     30  C   UNL     1     -10.955  90.108 -13.756  1.00  0.00     0.010 C 
ATOM     31  C   UNL     1      -9.965  92.223 -12.267  1.00  0.00     0.006 C 
ATOM     32  C   UNL     1      -8.262  91.653 -14.207  1.00  0.00     0.017 C 
ATOM     33  C   UNL     1     -11.231  91.437 -12.940  1.00  0.00    -0.022 C 
ATOM     34  C   UNL     1     -10.097  92.540 -10.657  1.00  0.00     0.005 C 
ATOM     35  C   UNL     1     -11.914  92.404 -13.975  1.00  0.00     0.012 C 
ATOM     36  C   UNL     1     -12.161  91.024 -11.753  1.00  0.00     0.024 C 
ATOM     37  C   UNL     1     -11.440  92.336  -9.825  1.00  0.00     0.008 C 
ATOM     38  C   UNL     1     -12.684  92.237 -10.805  1.00  0.00    -0.017 C 
ATOM     39  C   UNL     1     -12.534  89.566 -11.340  1.00  0.00    -0.024 C 
ATOM     40  C   UNL     1     -12.682  93.760 -11.292  1.00  0.00     0.013 C 
ATOM     41  C   UNL     1     -14.195  91.795 -10.242  1.00  0.00     0.009 C 
ATOM     42  C   UNL     1     -13.692  89.359 -10.735  1.00  0.00     0.005 C 
ATOM     43  C   UNL     1     -14.686  90.423 -10.904  1.00  0.00     0.096 C 
ATOM     44  C   UNL     1     -15.393  92.782 -10.679  1.00  0.00     0.043 C 
ATOM     45  C   UNL     1     -14.095  91.750  -8.672  1.00  0.00     0.015 C 
ATOM     46  C   UNL     1     -16.100  89.913 -10.577  1.00  0.00     0.037 C 
ATOM     47  O   UNL     1     -14.696  90.646 -12.326  1.00  0.00    -0.369 OA
ATOM     48  C   UNL     1     -16.853  92.252 -11.146  1.00  0.00     0.124 C 
ATOM     49  C   UNL     1     -16.879  90.725 -11.562  1.00  0.00     0.026 C 
ATOM     50  C   UNL     1     -16.717  90.030  -9.174  1.00  0.00     0.014 C 
ATOM     51  C   UNL     1     -16.009  90.515 -12.795  1.00  0.00     0.171 C 
ATOM     52  C   UNL     1     -18.275  90.080 -11.750  1.00  0.00     0.013 C 
ATOM     53  C   UNL     1     -18.156  89.488  -9.113  1.00  0.00    -0.035 C 
ATOM     54  C   UNL     1     -19.011  89.871 -10.408  1.00  0.00     0.007 C 
ATOM     55  C   UNL     1     -18.876  90.109  -7.872  1.00  0.00     0.011 C 
ATOM     56  C   UNL     1     -18.145  87.948  -8.879  1.00  0.00     0.011 C 
BRANCH  29  57
ATOM     57  C   UNL     1      -7.401  92.337 -11.882  1.00  0.00     0.165 C 
BRANCH  57  58
ATOM     58  O   UNL     1      -6.710  91.523 -10.959  1.00  0.00    -0.396 OA
ATOM     59  H   UNL     1      -6.862  90.599 -11.261  1.00  0.00     0.210 HD
ENDBRANCH  57  58
ENDBRANCH  29  57
BRANCH  48  60
ATOM     60  O   UNL     1     -17.405  93.010 -12.235  1.00  0.00    -0.392 OA
ATOM     61  H   UNL     1     -16.766  93.037 -13.001  1.00  0.00     0.210 HD
ENDBRANCH  48  60
ENDBRANCH  26  27
ENDBRANCH   6  26
BRANCH   5  62
ATOM     62  O   UNL     1     -10.633  86.872  -9.996  1.00  0.00    -0.385 OA
ATOM     63  H   UNL     1     -10.047  86.079  -9.813  1.00  0.00     0.211 HD
ENDBRANCH   5  62
TORSDOF 14
ENDMDL
MODEL 8
REMARK VINA RESULT:    -5.815      2.816      9.649
REMARK INTER + INTRA:         -11.631
REMARK INTER:                  -9.608
REMARK INTRA:                  -2.022
REMARK UNBOUND:                -2.417
REMARK SMILES C[C@H]1O[C@H](O[C@H]2CC[C@]3(C)[C@@H](CC[C@@]4(C)[C@@H]3C=C[C@@]35OC[C@]6(CCC(C)(C)C[C@@H]63)[C@H](O)C[C@]45C)[C@@]2(C)CO)[C@@H](O)[C@@H](O[C@H]2O[C@H](CO)[C@@H](O)[C@@H](O)[C@@H]2O)[C@@H]1O
REMARK SMILES IDX 1 1 2 2 54 3 41 4 39 5 4 6 3 7 55 8 42 10 43 11 52 12 44 13
REMARK SMILES IDX 50 14 45 15 48 16 53 17 51 19 46 21 47 22 49 24 5 26 6 27
REMARK SMILES IDX 7 28 35 29 8 30 11 31 36 32 9 33 12 34 10 35 16 36 13 37
REMARK SMILES IDX 14 38 17 39 15 40 33 41 18 42 19 43 32 44 34 45 29 46 20 47
REMARK SMILES IDX 30 48 22 49 28 50 21 51 23 52 25 53 24 54 26 55 27 56 37 57
REMARK SMILES IDX 38 58 31 60 40 62
REMARK H PARENT 55 9 53 18 51 20 47 23 49 25 38 59 31 61 40 63
REMARK Flexibility Score: inf
ROOT
ATOM      1  C   UNL     1      -8.723  83.599  -7.819  1.00  0.00     0.041 C 
ATOM      2  C   UNL     1      -8.349  85.152  -8.337  1.00  0.00     0.150 C 
ATOM      3  C   UNL     1      -7.265  85.675  -9.438  1.00  0.00     0.175 C 
ATOM      4  C   UNL     1      -5.995  86.251  -8.715  1.00  0.00     0.186 C 
ATOM      5  C   UNL     1      -6.376  87.479  -7.920  1.00  0.00     0.202 C 
ATOM      6  C   UNL     1      -7.794  87.347  -7.326  1.00  0.00     0.282 C 
ATOM      7  O   UNL     1      -8.344  86.017  -7.187  1.00  0.00    -0.344 OA
ENDROOT
BRANCH   3   8
ATOM      8  O   UNL     1      -7.763  86.716 -10.232  1.00  0.00    -0.388 OA
ATOM      9  H   UNL     1      -7.032  87.076 -10.788  1.00  0.00     0.211 HD
ENDBRANCH   3   8
BRANCH   4  10
ATOM     10  O   UNL     1      -5.753  85.147  -7.880  1.00  0.00    -0.341 OA
BRANCH  10  11
ATOM     11  C   UNL     1      -4.589  84.786  -7.182  1.00  0.00     0.282 C 
ATOM     12  C   UNL     1      -3.357  84.508  -8.186  1.00  0.00     0.202 C 
ATOM     13  O   UNL     1      -5.073  83.658  -6.395  1.00  0.00    -0.341 OA
ATOM     14  C   UNL     1      -2.992  83.016  -8.630  1.00  0.00     0.179 C 
ATOM     15  C   UNL     1      -4.615  82.370  -6.850  1.00  0.00     0.178 C 
ATOM     16  C   UNL     1      -4.528  82.365  -8.461  1.00  0.00     0.177 C 
BRANCH  12  17
ATOM     17  O   UNL     1      -2.240  85.130  -7.675  1.00  0.00    -0.385 OA
ATOM     18  H   UNL     1      -2.556  85.384  -6.770  1.00  0.00     0.211 HD
ENDBRANCH  12  17
BRANCH  14  19
ATOM     19  O   UNL     1      -2.560  83.006  -9.958  1.00  0.00    -0.387 OA
ATOM     20  H   UNL     1      -2.814  82.151 -10.382  1.00  0.00     0.211 HD
ENDBRANCH  14  19
BRANCH  15  21
ATOM     21  C   UNL     1      -3.931  81.211  -5.875  1.00  0.00     0.191 C 
BRANCH  21  22
ATOM     22  O   UNL     1      -2.672  80.530  -6.158  1.00  0.00    -0.394 OA
ATOM     23  H   UNL     1      -2.682  79.542  -6.628  1.00  0.00     0.210 HD
ENDBRANCH  21  22
ENDBRANCH  15  21
BRANCH  16  24
ATOM     24  O   UNL     1      -5.818  82.781  -9.306  1.00  0.00    -0.387 OA
ATOM     25  H   UNL     1      -6.329  82.744 -10.358  1.00  0.00     0.211 HD
ENDBRANCH  16  24
ENDBRANCH  10  11
ENDBRANCH   4  10
BRANCH   6  26
ATOM     26  O   UNL     1      -8.590  88.346  -8.002  1.00  0.00    -0.346 OA
BRANCH  26  27
ATOM     27  C   UNL     1      -9.078  89.295  -7.076  1.00  0.00     0.130 C 
ATOM     28  C   UNL     1      -8.044  90.470  -7.043  1.00  0.00     0.033 C 
ATOM     29  C   UNL     1     -10.565  89.699  -7.330  1.00  0.00     0.020 C 
ATOM     30  C   UNL     1      -8.405  91.604  -8.020  1.00  0.00     0.010 C 
ATOM     31  C   UNL     1     -10.626  90.157  -8.821  1.00  0.00     0.006 C 
ATOM     32  C   UNL     1     -10.908  90.848  -6.285  1.00  0.00     0.017 C 
ATOM     33  C   UNL     1      -9.459  91.253  -9.149  1.00  0.00    -0.022 C 
ATOM     34  C   UNL     1     -10.750  88.908  -9.885  1.00  0.00     0.005 C 
ATOM     35  C   UNL     1     -10.153  92.623  -9.484  1.00  0.00     0.012 C 
ATOM     36  C   UNL     1      -8.631  90.659 -10.334  1.00  0.00     0.024 C 
ATOM     37  C   UNL     1      -9.979  88.855 -11.279  1.00  0.00     0.008 C 
ATOM     38  C   UNL     1      -9.472  90.304 -11.681  1.00  0.00    -0.017 C 
ATOM     39  C   UNL     1      -7.118  90.279 -10.302  1.00  0.00    -0.024 C 
ATOM     40  C   UNL     1     -10.905  90.946 -11.983  1.00  0.00     0.013 C 
ATOM     41  C   UNL     1      -8.435  90.529 -12.972  1.00  0.00     0.009 C 
ATOM     42  C   UNL     1      -6.432  90.325 -11.431  1.00  0.00     0.005 C 
ATOM     43  C   UNL     1      -7.031  91.134 -12.496  1.00  0.00     0.096 C 
ATOM     44  C   UNL     1      -8.904  91.659 -14.025  1.00  0.00     0.043 C 
ATOM     45  C   UNL     1      -8.320  89.142 -13.705  1.00  0.00     0.015 C 
ATOM     46  C   UNL     1      -5.987  91.500 -13.565  1.00  0.00     0.037 C 
ATOM     47  O   UNL     1      -7.334  92.378 -11.838  1.00  0.00    -0.369 OA
ATOM     48  C   UNL     1      -7.880  92.718 -14.703  1.00  0.00     0.124 C 
ATOM     49  C   UNL     1      -6.498  92.853 -13.943  1.00  0.00     0.026 C 
ATOM     50  C   UNL     1      -5.753  90.643 -14.819  1.00  0.00     0.014 C 
ATOM     51  C   UNL     1      -6.734  93.423 -12.550  1.00  0.00     0.171 C 
ATOM     52  C   UNL     1      -5.374  93.626 -14.677  1.00  0.00     0.013 C 
ATOM     53  C   UNL     1      -4.688  91.242 -15.755  1.00  0.00    -0.035 C 
ATOM     54  C   UNL     1      -4.798  92.832 -15.870  1.00  0.00     0.007 C 
ATOM     55  C   UNL     1      -4.888  90.650 -17.188  1.00  0.00     0.011 C 
ATOM     56  C   UNL     1      -3.262  90.806 -15.303  1.00  0.00     0.011 C 
BRANCH  29  57
ATOM     57  C   UNL     1     -11.706  88.543  -7.099  1.00  0.00     0.165 C 
BRANCH  57  58
ATOM     58  O   UNL     1     -11.163  87.283  -6.769  1.00  0.00    -0.396 OA
ATOM     59  H   UNL     1     -10.452  87.469  -6.114  1.00  0.00     0.210 HD
ENDBRANCH  57  58
ENDBRANCH  29  57
BRANCH  48  60
ATOM     60  O   UNL     1      -8.437  94.036 -14.832  1.00  0.00    -0.392 OA
ATOM     61  H   UNL     1      -7.929  94.686 -14.271  1.00  0.00     0.210 HD
ENDBRANCH  48  60
ENDBRANCH  26  27
ENDBRANCH   6  26
BRANCH   5  62
ATOM     62  O   UNL     1      -5.443  87.732  -6.887  1.00  0.00    -0.385 OA
ATOM     63  H   UNL     1      -5.870  88.361  -6.233  1.00  0.00     0.211 HD
ENDBRANCH   5  62
TORSDOF 14
ENDMDL
MODEL 9
REMARK VINA RESULT:    -5.751      3.472      9.243
REMARK INTER + INTRA:         -11.530
REMARK INTER:                  -8.311
REMARK INTRA:                  -3.219
REMARK UNBOUND:                -2.417
REMARK SMILES C[C@H]1O[C@H](O[C@H]2CC[C@]3(C)[C@@H](CC[C@@]4(C)[C@@H]3C=C[C@@]35OC[C@]6(CCC(C)(C)C[C@@H]63)[C@H](O)C[C@]45C)[C@@]2(C)CO)[C@@H](O)[C@@H](O[C@H]2O[C@H](CO)[C@@H](O)[C@@H](O)[C@@H]2O)[C@@H]1O
REMARK SMILES IDX 1 1 2 2 54 3 41 4 39 5 4 6 3 7 55 8 42 10 43 11 52 12 44 13
REMARK SMILES IDX 50 14 45 15 48 16 53 17 51 19 46 21 47 22 49 24 5 26 6 27
REMARK SMILES IDX 7 28 35 29 8 30 11 31 36 32 9 33 12 34 10 35 16 36 13 37
REMARK SMILES IDX 14 38 17 39 15 40 33 41 18 42 19 43 32 44 34 45 29 46 20 47
REMARK SMILES IDX 30 48 22 49 28 50 21 51 23 52 25 53 24 54 26 55 27 56 37 57
REMARK SMILES IDX 38 58 31 60 40 62
REMARK H PARENT 55 9 53 18 51 20 47 23 49 25 38 59 31 61 40 63
REMARK Flexibility Score: inf
ROOT
ATOM      1  C   UNL     1     -14.552  91.662  -7.631  1.00  0.00     0.041 C 
ATOM      2  C   UNL     1     -12.978  92.042  -8.074  1.00  0.00     0.150 C 
ATOM      3  C   UNL     1     -12.249  93.487  -8.285  1.00  0.00     0.175 C 
ATOM      4  C   UNL     1     -12.127  93.812  -9.816  1.00  0.00     0.186 C 
ATOM      5  C   UNL     1     -11.212  92.807 -10.478  1.00  0.00     0.202 C 
ATOM      6  C   UNL     1     -11.358  91.409  -9.842  1.00  0.00     0.282 C 
ATOM      7  O   UNL     1     -12.573  91.127  -9.108  1.00  0.00    -0.344 OA
ENDROOT
BRANCH   3   8
ATOM      8  O   UNL     1     -10.944  93.510  -7.779  1.00  0.00    -0.388 OA
ATOM      9  H   UNL     1     -10.922  93.028  -6.918  1.00  0.00     0.211 HD
ENDBRANCH   3   8
BRANCH   4  10
ATOM     10  O   UNL     1     -13.473  93.587 -10.151  1.00  0.00    -0.341 OA
BRANCH  10  11
ATOM     11  C   UNL     1     -14.414  94.458 -10.725  1.00  0.00     0.282 C 
ATOM     12  C   UNL     1     -15.902  93.837 -10.683  1.00  0.00     0.202 C 
ATOM     13  O   UNL     1     -13.823  94.682 -12.039  1.00  0.00    -0.341 OA
ATOM     14  C   UNL     1     -16.507  93.092 -11.962  1.00  0.00     0.179 C 
ATOM     15  C   UNL     1     -14.502  94.016 -13.121  1.00  0.00     0.178 C 
ATOM     16  C   UNL     1     -15.049  92.585 -12.618  1.00  0.00     0.177 C 
BRANCH  12  17
ATOM     17  O   UNL     1     -16.766  94.823 -10.265  1.00  0.00    -0.385 OA
ATOM     18  H   UNL     1     -17.138  95.135 -11.129  1.00  0.00     0.211 HD
ENDBRANCH  12  17
BRANCH  14  19
ATOM     19  O   UNL     1     -17.302  92.018 -11.556  1.00  0.00    -0.387 OA
ATOM     20  H   UNL     1     -16.771  91.185 -11.578  1.00  0.00     0.211 HD
ENDBRANCH  14  19
BRANCH  15  21
ATOM     21  C   UNL     1     -14.974  94.751 -14.536  1.00  0.00     0.191 C 
BRANCH  21  22
ATOM     22  O   UNL     1     -16.109  94.328 -15.349  1.00  0.00    -0.394 OA
ATOM     23  H   UNL     1     -16.091  93.352 -15.843  1.00  0.00     0.210 HD
ENDBRANCH  21  22
ENDBRANCH  15  21
BRANCH  16  24
ATOM     24  O   UNL     1     -14.027  91.560 -11.944  1.00  0.00    -0.387 OA
ATOM     25  H   UNL     1     -12.898  91.290 -11.792  1.00  0.00     0.211 HD
ENDBRANCH  16  24
ENDBRANCH  10  11
ENDBRANCH   4  10
BRANCH   6  26
ATOM     26  O   UNL     1     -10.094  91.146  -9.193  1.00  0.00    -0.346 OA
BRANCH  26  27
ATOM     27  C   UNL     1     -10.079  89.838  -8.658  1.00  0.00     0.130 C 
ATOM     28  C   UNL     1     -10.204  88.851  -9.867  1.00  0.00     0.033 C 
ATOM     29  C   UNL     1      -8.884  89.581  -7.686  1.00  0.00     0.020 C 
ATOM     30  C   UNL     1      -8.835  88.384 -10.394  1.00  0.00     0.010 C 
ATOM     31  C   UNL     1      -7.602  89.968  -8.486  1.00  0.00     0.006 C 
ATOM     32  C   UNL     1      -8.954  88.045  -7.277  1.00  0.00     0.017 C 
ATOM     33  C   UNL     1      -7.579  89.242  -9.950  1.00  0.00    -0.022 C 
ATOM     34  C   UNL     1      -7.295  91.585  -8.488  1.00  0.00     0.005 C 
ATOM     35  C   UNL     1      -6.377  88.229  -9.976  1.00  0.00     0.012 C 
ATOM     36  C   UNL     1      -7.456  90.393 -11.000  1.00  0.00     0.024 C 
ATOM     37  C   UNL     1      -6.767  92.382  -9.763  1.00  0.00     0.008 C 
ATOM     38  C   UNL     1      -6.170  91.373 -10.833  1.00  0.00    -0.017 C 
ATOM     39  C   UNL     1      -8.499  90.747 -12.106  1.00  0.00    -0.024 C 
ATOM     40  C   UNL     1      -4.873  90.941 -10.003  1.00  0.00     0.013 C 
ATOM     41  C   UNL     1      -5.751  91.889 -12.367  1.00  0.00     0.009 C 
ATOM     42  C   UNL     1      -8.070  91.319 -13.218  1.00  0.00     0.005 C 
ATOM     43  C   UNL     1      -6.637  91.167 -13.488  1.00  0.00     0.096 C 
ATOM     44  C   UNL     1      -4.268  91.463 -12.840  1.00  0.00     0.043 C 
ATOM     45  C   UNL     1      -5.872  93.458 -12.364  1.00  0.00     0.015 C 
ATOM     46  C   UNL     1      -6.322  91.447 -14.967  1.00  0.00     0.037 C 
ATOM     47  O   UNL     1      -6.415  89.755 -13.325  1.00  0.00    -0.369 OA
ATOM     48  C   UNL     1      -3.930  90.946 -14.340  1.00  0.00     0.124 C 
ATOM     49  C   UNL     1      -5.201  90.476 -15.159  1.00  0.00     0.026 C 
ATOM     50  C   UNL     1      -5.921  92.840 -15.479  1.00  0.00     0.014 C 
ATOM     51  C   UNL     1      -5.818  89.255 -14.489  1.00  0.00     0.171 C 
ATOM     52  C   UNL     1      -5.000  90.236 -16.676  1.00  0.00     0.013 C 
ATOM     53  C   UNL     1      -5.615  92.851 -16.987  1.00  0.00    -0.035 C 
ATOM     54  C   UNL     1      -4.810  91.554 -17.459  1.00  0.00     0.007 C 
ATOM     55  C   UNL     1      -4.730  94.099 -17.311  1.00  0.00     0.011 C 
ATOM     56  C   UNL     1      -6.928  93.030 -17.805  1.00  0.00     0.011 C 
BRANCH  29  57
ATOM     57  C   UNL     1      -8.878  90.410  -6.270  1.00  0.00     0.165 C 
BRANCH  57  58
ATOM     58  O   UNL     1      -9.960  91.308  -6.146  1.00  0.00    -0.396 OA
ATOM     59  H   UNL     1     -10.518  90.945  -5.419  1.00  0.00     0.210 HD
ENDBRANCH  57  58
ENDBRANCH  29  57
BRANCH  48  60
ATOM     60  O   UNL     1      -2.974  89.874 -14.364  1.00  0.00    -0.392 OA
ATOM     61  H   UNL     1      -2.987  89.376 -13.500  1.00  0.00     0.210 HD
ENDBRANCH  48  60
ENDBRANCH  26  27
ENDBRANCH   6  26
BRANCH   5  62
ATOM     62  O   UNL     1     -11.453  92.730 -11.870  1.00  0.00    -0.385 OA
ATOM     63  H   UNL     1     -11.252  91.794 -12.167  1.00  0.00     0.211 HD
ENDBRANCH   5  62
TORSDOF 14
ENDMDL
