MODEL 1
REMARK VINA RESULT:    -5.442      0.000      0.000
REMARK INTER + INTRA:         -11.628
REMARK INTER:                  -9.895
REMARK INTRA:                  -1.733
REMARK UNBOUND:                -1.733
REMARK SMILES CCCCCC=CCC=CCCCCCCCC(=O)[O-]
REMARK SMILES IDX 11 1 12 2 13 3 14 4 15 5 16 6 17 7 18 8 19 9 20 10 10 11
REMARK SMILES IDX 9 12 8 13 7 14 6 15 5 16 4 17 3 18 2 19 1 20
REMARK H PARENT
REMARK Flexibility Score: inf
ROOT
ATOM      1  C   UNL     1      18.438  40.975   1.596  1.00  0.00     0.027 C 
ENDROOT
BRANCH   1   2
ATOM      2  C   UNL     1      17.345  42.056   1.654  1.00  0.00     0.004 C 
BRANCH   2   3
ATOM      3  C   UNL     1      17.815  43.400   2.239  1.00  0.00     0.000 C 
BRANCH   3   4
ATOM      4  C   UNL     1      17.739  43.441   3.773  1.00  0.00     0.000 C 
BRANCH   4   5
ATOM      5  C   UNL     1      19.145  43.409   4.392  1.00  0.00     0.000 C 
BRANCH   5   6
ATOM      6  C   UNL     1      19.462  42.071   5.084  1.00  0.00     0.006 C 
BRANCH   6   7
ATOM      7  C   UNL     1      18.242  41.159   5.287  1.00  0.00     0.053 C 
BRANCH   7   8
ATOM      8  C   UNL     1      18.639  39.736   5.531  1.00  0.00     0.041 C 
ATOM      9  O   UNL     1      18.933  39.350   6.693  1.00  0.00    -0.550 OA
ATOM     10  O   UNL     1      18.717  38.844   4.469  1.00  0.00    -0.550 OA
ENDBRANCH   7   8
ENDBRANCH   6   7
ENDBRANCH   5   6
ENDBRANCH   4   5
ENDBRANCH   3   4
ENDBRANCH   2   3
ENDBRANCH   1   2
BRANCH   1  11
ATOM     11  C   UNL     1      19.757  41.510   1.109  1.00  0.00    -0.031 C 
ATOM     12  C   UNL     1      20.908  41.226   1.737  1.00  0.00    -0.027 C 
BRANCH  12  13
ATOM     13  C   UNL     1      22.222  41.766   1.247  1.00  0.00     0.054 C 
BRANCH  13  14
ATOM     14  C   UNL     1      23.288  40.706   1.267  1.00  0.00    -0.027 C 
ATOM     15  C   UNL     1      23.051  39.489   0.755  1.00  0.00    -0.031 C 
BRANCH  15  16
ATOM     16  C   UNL     1      24.099  38.408   0.766  1.00  0.00     0.027 C 
BRANCH  16  17
ATOM     17  C   UNL     1      23.633  37.142   1.501  1.00  0.00     0.004 C 
BRANCH  17  18
ATOM     18  C   UNL     1      24.588  35.940   1.361  1.00  0.00     0.000 C 
BRANCH  18  19
ATOM     19  C   UNL     1      24.529  35.262  -0.024  1.00  0.00    -0.003 C 
ATOM     20  C   UNL     1      23.099  35.124  -0.546  1.00  0.00     0.004 C 
ENDBRANCH  18  19
ENDBRANCH  17  18
ENDBRANCH  16  17
ENDBRANCH  15  16
ENDBRANCH  13  14
ENDBRANCH  12  13
ENDBRANCH   1  11
TORSDOF 14
ENDMDL
MODEL 2
REMARK VINA RESULT:    -5.366      2.685      3.660
REMARK INTER + INTRA:         -11.490
REMARK INTER:                  -9.148
REMARK INTRA:                  -2.342
REMARK UNBOUND:                -1.733
REMARK SMILES CCCCCC=CCC=CCCCCCCCC(=O)[O-]
REMARK SMILES IDX 11 1 12 2 13 3 14 4 15 5 16 6 17 7 18 8 19 9 20 10 10 11
REMARK SMILES IDX 9 12 8 13 7 14 6 15 5 16 4 17 3 18 2 19 1 20
REMARK H PARENT
REMARK Flexibility Score: inf
ROOT
ATOM      1  C   UNL     1      19.309  42.185   4.253  1.00  0.00     0.027 C 
ENDROOT
BRANCH   1   2
ATOM      2  C   UNL     1      18.828  40.927   4.996  1.00  0.00     0.004 C 
BRANCH   2   3
ATOM      3  C   UNL     1      18.889  39.637   4.160  1.00  0.00     0.000 C 
BRANCH   3   4
ATOM      4  C   UNL     1      19.854  38.593   4.742  1.00  0.00     0.000 C 
BRANCH   4   5
ATOM      5  C   UNL     1      21.249  38.727   4.114  1.00  0.00     0.000 C 
BRANCH   5   6
ATOM      6  C   UNL     1      22.190  39.629   4.933  1.00  0.00     0.006 C 
BRANCH   6   7
ATOM      7  C   UNL     1      23.626  39.702   4.393  1.00  0.00     0.053 C 
BRANCH   7   8
ATOM      8  C   UNL     1      24.547  38.769   5.116  1.00  0.00     0.041 C 
ATOM      9  O   UNL     1      25.456  39.224   5.859  1.00  0.00    -0.550 OA
ATOM     10  O   UNL     1      24.422  37.395   4.944  1.00  0.00    -0.550 OA
ENDBRANCH   7   8
ENDBRANCH   6   7
ENDBRANCH   5   6
ENDBRANCH   4   5
ENDBRANCH   3   4
ENDBRANCH   2   3
ENDBRANCH   1   2
BRANCH   1  11
ATOM     11  C   UNL     1      19.641  41.914   2.810  1.00  0.00    -0.031 C 
ATOM     12  C   UNL     1      20.905  41.948   2.360  1.00  0.00    -0.027 C 
BRANCH  12  13
ATOM     13  C   UNL     1      21.229  41.679   0.917  1.00  0.00     0.054 C 
BRANCH  13  14
ATOM     14  C   UNL     1      21.919  40.353   0.752  1.00  0.00    -0.027 C 
ATOM     15  C   UNL     1      23.242  40.243   0.941  1.00  0.00    -0.031 C 
BRANCH  15  16
ATOM     16  C   UNL     1      23.958  38.929   0.777  1.00  0.00     0.027 C 
BRANCH  16  17
ATOM     17  C   UNL     1      23.078  37.727   1.157  1.00  0.00     0.004 C 
BRANCH  17  18
ATOM     18  C   UNL     1      23.867  36.452   1.512  1.00  0.00     0.000 C 
BRANCH  18  19
ATOM     19  C   UNL     1      24.299  35.629   0.281  1.00  0.00    -0.003 C 
ATOM     20  C   UNL     1      23.107  35.141  -0.543  1.00  0.00     0.004 C 
ENDBRANCH  18  19
ENDBRANCH  17  18
ENDBRANCH  16  17
ENDBRANCH  15  16
ENDBRANCH  13  14
ENDBRANCH  12  13
ENDBRANCH   1  11
TORSDOF 14
ENDMDL
MODEL 3
REMARK VINA RESULT:    -5.262      1.003      1.464
REMARK INTER + INTRA:         -11.301
REMARK INTER:                  -9.745
REMARK INTRA:                  -1.556
REMARK UNBOUND:                -1.733
REMARK SMILES CCCCCC=CCC=CCCCCCCCC(=O)[O-]
REMARK SMILES IDX 11 1 12 2 13 3 14 4 15 5 16 6 17 7 18 8 19 9 20 10 10 11
REMARK SMILES IDX 9 12 8 13 7 14 6 15 5 16 4 17 3 18 2 19 1 20
REMARK H PARENT
REMARK Flexibility Score: inf
ROOT
ATOM      1  C   UNL     1      18.285  41.326   2.394  1.00  0.00     0.027 C 
ENDROOT
BRANCH   1   2
ATOM      2  C   UNL     1      17.788  42.780   2.449  1.00  0.00     0.004 C 
BRANCH   2   3
ATOM      3  C   UNL     1      17.765  43.387   3.864  1.00  0.00     0.000 C 
BRANCH   3   4
ATOM      4  C   UNL     1      18.625  42.600   4.864  1.00  0.00     0.000 C 
BRANCH   4   5
ATOM      5  C   UNL     1      17.742  41.795   5.830  1.00  0.00     0.000 C 
BRANCH   5   6
ATOM      6  C   UNL     1      18.133  40.307   5.897  1.00  0.00     0.006 C 
BRANCH   6   7
ATOM      7  C   UNL     1      19.639  40.041   5.744  1.00  0.00     0.053 C 
BRANCH   7   8
ATOM      8  C   UNL     1      19.917  38.901   4.815  1.00  0.00     0.041 C 
ATOM      9  O   UNL     1      19.222  37.852   4.871  1.00  0.00    -0.550 OA
ATOM     10  O   UNL     1      20.966  38.983   3.907  1.00  0.00    -0.550 OA
ENDBRANCH   7   8
ENDBRANCH   6   7
ENDBRANCH   5   6
ENDBRANCH   4   5
ENDBRANCH   3   4
ENDBRANCH   2   3
ENDBRANCH   1   2
BRANCH   1  11
ATOM     11  C   UNL     1      19.469  41.152   1.481  1.00  0.00    -0.031 C 
ATOM     12  C   UNL     1      20.573  41.905   1.607  1.00  0.00    -0.027 C 
BRANCH  12  13
ATOM     13  C   UNL     1      21.750  41.728   0.690  1.00  0.00     0.054 C 
BRANCH  13  14
ATOM     14  C   UNL     1      22.243  40.307   0.704  1.00  0.00    -0.027 C 
ATOM     15  C   UNL     1      23.544  40.038   0.887  1.00  0.00    -0.031 C 
BRANCH  15  16
ATOM     16  C   UNL     1      24.064  38.625   0.901  1.00  0.00     0.027 C 
BRANCH  16  17
ATOM     17  C   UNL     1      22.979  37.600   1.265  1.00  0.00     0.004 C 
BRANCH  17  18
ATOM     18  C   UNL     1      23.513  36.177   1.521  1.00  0.00     0.000 C 
BRANCH  18  19
ATOM     19  C   UNL     1      24.208  35.547   0.296  1.00  0.00    -0.003 C 
ATOM     20  C   UNL     1      23.211  35.040  -0.746  1.00  0.00     0.004 C 
ENDBRANCH  18  19
ENDBRANCH  17  18
ENDBRANCH  16  17
ENDBRANCH  15  16
ENDBRANCH  13  14
ENDBRANCH  12  13
ENDBRANCH   1  11
TORSDOF 14
ENDMDL
MODEL 4
REMARK VINA RESULT:    -5.234      1.825      2.956
REMARK INTER + INTRA:         -11.249
REMARK INTER:                  -9.470
REMARK INTRA:                  -1.780
REMARK UNBOUND:                -1.733
REMARK SMILES CCCCCC=CCC=CCCCCCCCC(=O)[O-]
REMARK SMILES IDX 11 1 12 2 13 3 14 4 15 5 16 6 17 7 18 8 19 9 20 10 10 11
REMARK SMILES IDX 9 12 8 13 7 14 6 15 5 16 4 17 3 18 2 19 1 20
REMARK H PARENT
REMARK Flexibility Score: inf
ROOT
ATOM      1  C   UNL     1      19.247  39.717   4.378  1.00  0.00     0.027 C 
ENDROOT
BRANCH   1   2
ATOM      2  C   UNL     1      19.075  40.715   5.535  1.00  0.00     0.004 C 
BRANCH   2   3
ATOM      3  C   UNL     1      17.758  41.511   5.492  1.00  0.00     0.000 C 
BRANCH   3   4
ATOM      4  C   UNL     1      17.968  43.021   5.677  1.00  0.00     0.000 C 
BRANCH   4   5
ATOM      5  C   UNL     1      17.449  43.800   4.459  1.00  0.00     0.000 C 
BRANCH   5   6
ATOM      6  C   UNL     1      18.300  43.571   3.197  1.00  0.00     0.006 C 
BRANCH   6   7
ATOM      7  C   UNL     1      17.494  43.154   1.957  1.00  0.00     0.053 C 
BRANCH   7   8
ATOM      8  C   UNL     1      18.072  41.945   1.290  1.00  0.00     0.041 C 
ATOM      9  O   UNL     1      19.130  42.038   0.615  1.00  0.00    -0.550 OA
ATOM     10  O   UNL     1      17.423  40.720   1.387  1.00  0.00    -0.550 OA
ENDBRANCH   7   8
ENDBRANCH   6   7
ENDBRANCH   5   6
ENDBRANCH   4   5
ENDBRANCH   3   4
ENDBRANCH   2   3
ENDBRANCH   1   2
BRANCH   1  11
ATOM     11  C   UNL     1      20.409  40.059   3.484  1.00  0.00    -0.031 C 
ATOM     12  C   UNL     1      21.031  41.246   3.560  1.00  0.00    -0.027 C 
BRANCH  12  13
ATOM     13  C   UNL     1      22.188  41.583   2.663  1.00  0.00     0.054 C 
BRANCH  13  14
ATOM     14  C   UNL     1      22.968  40.351   2.294  1.00  0.00    -0.027 C 
ATOM     15  C   UNL     1      23.399  40.166   1.038  1.00  0.00    -0.031 C 
BRANCH  15  16
ATOM     16  C   UNL     1      24.178  38.940   0.641  1.00  0.00     0.027 C 
BRANCH  16  17
ATOM     17  C   UNL     1      24.210  37.877   1.751  1.00  0.00     0.004 C 
BRANCH  17  18
ATOM     18  C   UNL     1      23.450  36.581   1.407  1.00  0.00     0.000 C 
BRANCH  18  19
ATOM     19  C   UNL     1      24.252  35.614   0.510  1.00  0.00    -0.003 C 
ATOM     20  C   UNL     1      23.399  35.008  -0.605  1.00  0.00     0.004 C 
ENDBRANCH  18  19
ENDBRANCH  17  18
ENDBRANCH  16  17
ENDBRANCH  15  16
ENDBRANCH  13  14
ENDBRANCH  12  13
ENDBRANCH   1  11
TORSDOF 14
ENDMDL
MODEL 5
REMARK VINA RESULT:    -5.199      2.346      3.154
REMARK INTER + INTRA:         -11.187
REMARK INTER:                 -10.106
REMARK INTRA:                  -1.081
REMARK UNBOUND:                -1.733
REMARK SMILES CCCCCC=CCC=CCCCCCCCC(=O)[O-]
REMARK SMILES IDX 11 1 12 2 13 3 14 4 15 5 16 6 17 7 18 8 19 9 20 10 10 11
REMARK SMILES IDX 9 12 8 13 7 14 6 15 5 16 4 17 3 18 2 19 1 20
REMARK H PARENT
REMARK Flexibility Score: inf
ROOT
ATOM      1  C   UNL     1      18.240  41.234   2.452  1.00  0.00     0.027 C 
ENDROOT
BRANCH   1   2
ATOM      2  C   UNL     1      18.305  41.638   3.935  1.00  0.00     0.004 C 
BRANCH   2   3
ATOM      3  C   UNL     1      19.474  41.006   4.712  1.00  0.00     0.000 C 
BRANCH   3   4
ATOM      4  C   UNL     1      19.078  39.711   5.435  1.00  0.00     0.000 C 
BRANCH   4   5
ATOM      5  C   UNL     1      19.546  38.478   4.647  1.00  0.00     0.000 C 
BRANCH   5   6
ATOM      6  C   UNL     1      18.839  37.183   5.087  1.00  0.00     0.006 C 
BRANCH   6   7
ATOM      7  C   UNL     1      19.724  35.928   5.030  1.00  0.00     0.053 C 
BRANCH   7   8
ATOM      8  C   UNL     1      19.019  34.718   5.559  1.00  0.00     0.041 C 
ATOM      9  O   UNL     1      19.245  34.313   6.729  1.00  0.00    -0.550 OA
ATOM     10  O   UNL     1      18.136  34.017   4.746  1.00  0.00    -0.550 OA
ENDBRANCH   7   8
ENDBRANCH   6   7
ENDBRANCH   5   6
ENDBRANCH   4   5
ENDBRANCH   3   4
ENDBRANCH   2   3
ENDBRANCH   1   2
BRANCH   1  11
ATOM     11  C   UNL     1      19.596  40.926   1.876  1.00  0.00    -0.031 C 
ATOM     12  C   UNL     1      20.336  41.868   1.272  1.00  0.00    -0.027 C 
BRANCH  12  13
ATOM     13  C   UNL     1      21.688  41.552   0.696  1.00  0.00     0.054 C 
BRANCH  13  14
ATOM     14  C   UNL     1      22.242  40.279   1.274  1.00  0.00    -0.027 C 
ATOM     15  C   UNL     1      23.467  39.851   0.933  1.00  0.00    -0.031 C 
BRANCH  15  16
ATOM     16  C   UNL     1      24.044  38.579   1.494  1.00  0.00     0.027 C 
BRANCH  16  17
ATOM     17  C   UNL     1      23.620  37.336   0.695  1.00  0.00     0.004 C 
BRANCH  17  18
ATOM     18  C   UNL     1      24.451  36.074   1.000  1.00  0.00     0.000 C 
BRANCH  18  19
ATOM     19  C   UNL     1      24.419  35.026  -0.132  1.00  0.00    -0.003 C 
ATOM     20  C   UNL     1      23.063  34.965  -0.835  1.00  0.00     0.004 C 
ENDBRANCH  18  19
ENDBRANCH  17  18
ENDBRANCH  16  17
ENDBRANCH  15  16
ENDBRANCH  13  14
ENDBRANCH  12  13
ENDBRANCH   1  11
TORSDOF 14
ENDMDL
MODEL 6
REMARK VINA RESULT:    -4.971      2.851      7.685
REMARK INTER + INTRA:         -10.771
REMARK INTER:                  -9.387
REMARK INTRA:                  -1.384
REMARK UNBOUND:                -1.733
REMARK SMILES CCCCCC=CCC=CCCCCCCCC(=O)[O-]
REMARK SMILES IDX 11 1 12 2 13 3 14 4 15 5 16 6 17 7 18 8 19 9 20 10 10 11
REMARK SMILES IDX 9 12 8 13 7 14 6 15 5 16 4 17 3 18 2 19 1 20
REMARK H PARENT
REMARK Flexibility Score: inf
ROOT
ATOM      1  C   UNL     1      21.920  40.187   3.264  1.00  0.00     0.027 C 
ENDROOT
BRANCH   1   2
ATOM      2  C   UNL     1      21.146  40.214   1.934  1.00  0.00     0.004 C 
BRANCH   2   3
ATOM      3  C   UNL     1      22.027  40.025   0.687  1.00  0.00     0.000 C 
BRANCH   3   4
ATOM      4  C   UNL     1      23.525  39.947   1.020  1.00  0.00     0.000 C 
BRANCH   4   5
ATOM      5  C   UNL     1      24.108  38.588   0.603  1.00  0.00     0.000 C 
BRANCH   5   6
ATOM      6  C   UNL     1      23.433  37.403   1.317  1.00  0.00     0.006 C 
BRANCH   6   7
ATOM      7  C   UNL     1      24.149  36.057   1.125  1.00  0.00     0.053 C 
BRANCH   7   8
ATOM      8  C   UNL     1      23.912  35.485  -0.238  1.00  0.00     0.041 C 
ATOM      9  O   UNL     1      22.794  34.986  -0.531  1.00  0.00    -0.550 OA
ATOM     10  O   UNL     1      24.939  35.471  -1.175  1.00  0.00    -0.550 OA
ENDBRANCH   7   8
ENDBRANCH   6   7
ENDBRANCH   5   6
ENDBRANCH   4   5
ENDBRANCH   3   4
ENDBRANCH   2   3
ENDBRANCH   1   2
BRANCH   1  11
ATOM     11  C   UNL     1      21.030  39.919   4.447  1.00  0.00    -0.031 C 
ATOM     12  C   UNL     1      19.855  39.286   4.316  1.00  0.00    -0.027 C 
BRANCH  12  13
ATOM     13  C   UNL     1      18.970  39.024   5.502  1.00  0.00     0.054 C 
BRANCH  13  14
ATOM     14  C   UNL     1      18.267  40.278   5.945  1.00  0.00    -0.027 C 
ATOM     15  C   UNL     1      18.163  41.329   5.120  1.00  0.00    -0.031 C 
BRANCH  15  16
ATOM     16  C   UNL     1      17.469  42.598   5.540  1.00  0.00     0.027 C 
BRANCH  16  17
ATOM     17  C   UNL     1      17.650  43.734   4.521  1.00  0.00     0.004 C 
BRANCH  17  18
ATOM     18  C   UNL     1      18.440  43.333   3.259  1.00  0.00     0.000 C 
BRANCH  18  19
ATOM     19  C   UNL     1      17.568  43.236   1.989  1.00  0.00    -0.003 C 
ATOM     20  C   UNL     1      17.336  41.790   1.548  1.00  0.00     0.004 C 
ENDBRANCH  18  19
ENDBRANCH  17  18
ENDBRANCH  16  17
ENDBRANCH  15  16
ENDBRANCH  13  14
ENDBRANCH  12  13
ENDBRANCH   1  11
TORSDOF 14
ENDMDL
MODEL 7
REMARK VINA RESULT:    -4.963      1.262      2.308
REMARK INTER + INTRA:         -10.758
REMARK INTER:                  -8.884
REMARK INTRA:                  -1.874
REMARK UNBOUND:                -1.733
REMARK SMILES CCCCCC=CCC=CCCCCCCCC(=O)[O-]
REMARK SMILES IDX 11 1 12 2 13 3 14 4 15 5 16 6 17 7 18 8 19 9 20 10 10 11
REMARK SMILES IDX 9 12 8 13 7 14 6 15 5 16 4 17 3 18 2 19 1 20
REMARK H PARENT
REMARK Flexibility Score: inf
ROOT
ATOM      1  C   UNL     1      22.212  43.643   3.405  1.00  0.00     0.027 C 
ENDROOT
BRANCH   1   2
ATOM      2  C   UNL     1      21.495  43.381   4.740  1.00  0.00     0.004 C 
BRANCH   2   3
ATOM      3  C   UNL     1      20.007  43.774   4.746  1.00  0.00     0.000 C 
BRANCH   3   4
ATOM      4  C   UNL     1      19.086  42.615   5.156  1.00  0.00     0.000 C 
BRANCH   4   5
ATOM      5  C   UNL     1      18.311  42.076   3.944  1.00  0.00     0.000 C 
BRANCH   5   6
ATOM      6  C   UNL     1      18.788  40.679   3.504  1.00  0.00     0.006 C 
BRANCH   6   7
ATOM      7  C   UNL     1      19.808  40.031   4.454  1.00  0.00     0.053 C 
BRANCH   7   8
ATOM      8  C   UNL     1      19.184  38.974   5.312  1.00  0.00     0.041 C 
ATOM      9  O   UNL     1      18.861  37.863   4.816  1.00  0.00    -0.550 OA
ATOM     10  O   UNL     1      18.927  39.230   6.654  1.00  0.00    -0.550 OA
ENDBRANCH   7   8
ENDBRANCH   6   7
ENDBRANCH   5   6
ENDBRANCH   4   5
ENDBRANCH   3   4
ENDBRANCH   2   3
ENDBRANCH   1   2
BRANCH   1  11
ATOM     11  C   UNL     1      22.275  42.420   2.531  1.00  0.00    -0.031 C 
ATOM     12  C   UNL     1      21.457  42.262   1.480  1.00  0.00    -0.027 C 
BRANCH  12  13
ATOM     13  C   UNL     1      21.523  41.036   0.613  1.00  0.00     0.054 C 
BRANCH  13  14
ATOM     14  C   UNL     1      22.351  39.958   1.256  1.00  0.00    -0.027 C 
ATOM     15  C   UNL     1      23.484  39.532   0.678  1.00  0.00    -0.031 C 
BRANCH  15  16
ATOM     16  C   UNL     1      24.330  38.452   1.298  1.00  0.00     0.027 C 
BRANCH  16  17
ATOM     17  C   UNL     1      23.610  37.095   1.347  1.00  0.00     0.004 C 
BRANCH  17  18
ATOM     18  C   UNL     1      24.547  35.877   1.232  1.00  0.00     0.000 C 
BRANCH  18  19
ATOM     19  C   UNL     1      24.503  35.191  -0.150  1.00  0.00    -0.003 C 
ATOM     20  C   UNL     1      23.081  35.079  -0.701  1.00  0.00     0.004 C 
ENDBRANCH  18  19
ENDBRANCH  17  18
ENDBRANCH  16  17
ENDBRANCH  15  16
ENDBRANCH  13  14
ENDBRANCH  12  13
ENDBRANCH   1  11
TORSDOF 14
ENDMDL
MODEL 8
REMARK VINA RESULT:    -4.941      1.698      2.262
REMARK INTER + INTRA:         -10.717
REMARK INTER:                  -8.596
REMARK INTRA:                  -2.121
REMARK UNBOUND:                -1.733
REMARK SMILES CCCCCC=CCC=CCCCCCCCC(=O)[O-]
REMARK SMILES IDX 11 1 12 2 13 3 14 4 15 5 16 6 17 7 18 8 19 9 20 10 10 11
REMARK SMILES IDX 9 12 8 13 7 14 6 15 5 16 4 17 3 18 2 19 1 20
REMARK H PARENT
REMARK Flexibility Score: inf
ROOT
ATOM      1  C   UNL     1      20.038  43.967   2.258  1.00  0.00     0.027 C 
ENDROOT
BRANCH   1   2
ATOM      2  C   UNL     1      18.745  43.744   1.455  1.00  0.00     0.004 C 
BRANCH   2   3
ATOM      3  C   UNL     1      17.682  42.908   2.190  1.00  0.00     0.000 C 
BRANCH   3   4
ATOM      4  C   UNL     1      17.333  41.606   1.453  1.00  0.00     0.000 C 
BRANCH   4   5
ATOM      5  C   UNL     1      18.180  40.436   1.977  1.00  0.00     0.000 C 
BRANCH   5   6
ATOM      6  C   UNL     1      18.617  40.624   3.441  1.00  0.00     0.006 C 
BRANCH   6   7
ATOM      7  C   UNL     1      19.893  39.858   3.823  1.00  0.00     0.053 C 
BRANCH   7   8
ATOM      8  C   UNL     1      20.823  40.691   4.649  1.00  0.00     0.041 C 
ATOM      9  O   UNL     1      20.476  41.839   5.033  1.00  0.00    -0.550 OA
ATOM     10  O   UNL     1      22.090  40.214   4.966  1.00  0.00    -0.550 OA
ENDBRANCH   7   8
ENDBRANCH   6   7
ENDBRANCH   5   6
ENDBRANCH   4   5
ENDBRANCH   3   4
ENDBRANCH   2   3
ENDBRANCH   1   2
BRANCH   1  11
ATOM     11  C   UNL     1      21.167  43.087   1.794  1.00  0.00    -0.031 C 
ATOM     12  C   UNL     1      21.017  42.224   0.779  1.00  0.00    -0.027 C 
BRANCH  12  13
ATOM     13  C   UNL     1      22.148  41.346   0.323  1.00  0.00     0.054 C 
BRANCH  13  14
ATOM     14  C   UNL     1      22.433  40.261   1.325  1.00  0.00    -0.027 C 
ATOM     15  C   UNL     1      23.605  39.609   1.310  1.00  0.00    -0.031 C 
BRANCH  15  16
ATOM     16  C   UNL     1      23.915  38.516   2.298  1.00  0.00     0.027 C 
BRANCH  16  17
ATOM     17  C   UNL     1      23.071  37.253   2.064  1.00  0.00     0.004 C 
BRANCH  17  18
ATOM     18  C   UNL     1      22.980  36.817   0.589  1.00  0.00     0.000 C 
BRANCH  18  19
ATOM     19  C   UNL     1      23.942  35.667   0.223  1.00  0.00    -0.003 C 
ATOM     20  C   UNL     1      23.384  34.766  -0.878  1.00  0.00     0.004 C 
ENDBRANCH  18  19
ENDBRANCH  17  18
ENDBRANCH  16  17
ENDBRANCH  15  16
ENDBRANCH  13  14
ENDBRANCH  12  13
ENDBRANCH   1  11
TORSDOF 14
ENDMDL
MODEL 9
REMARK VINA RESULT:    -4.935      3.253      7.761
REMARK INTER + INTRA:         -10.707
REMARK INTER:                  -9.455
REMARK INTRA:                  -1.252
REMARK UNBOUND:                -1.733
REMARK SMILES CCCCCC=CCC=CCCCCCCCC(=O)[O-]
REMARK SMILES IDX 11 1 12 2 13 3 14 4 15 5 16 6 17 7 18 8 19 9 20 10 10 11
REMARK SMILES IDX 9 12 8 13 7 14 6 15 5 16 4 17 3 18 2 19 1 20
REMARK H PARENT
REMARK Flexibility Score: inf
ROOT
ATOM      1  C   UNL     1      21.016  40.453   2.144  1.00  0.00     0.027 C 
ENDROOT
BRANCH   1   2
ATOM      2  C   UNL     1      22.086  41.074   1.231  1.00  0.00     0.004 C 
BRANCH   2   3
ATOM      3  C   UNL     1      23.317  40.180   0.999  1.00  0.00     0.000 C 
BRANCH   3   4
ATOM      4  C   UNL     1      22.950  38.703   0.789  1.00  0.00     0.000 C 
BRANCH   4   5
ATOM      5  C   UNL     1      24.128  37.788   1.155  1.00  0.00     0.000 C 
BRANCH   5   6
ATOM      6  C   UNL     1      23.700  36.327   1.385  1.00  0.00     0.006 C 
BRANCH   6   7
ATOM      7  C   UNL     1      23.578  35.494   0.099  1.00  0.00     0.053 C 
BRANCH   7   8
ATOM      8  C   UNL     1      24.917  35.130  -0.463  1.00  0.00     0.041 C 
ATOM      9  O   UNL     1      25.757  34.514   0.245  1.00  0.00    -0.550 OA
ATOM     10  O   UNL     1      25.251  35.501  -1.760  1.00  0.00    -0.550 OA
ENDBRANCH   7   8
ENDBRANCH   6   7
ENDBRANCH   5   6
ENDBRANCH   4   5
ENDBRANCH   3   4
ENDBRANCH   2   3
ENDBRANCH   1   2
BRANCH   1  11
ATOM     11  C   UNL     1      19.632  40.960   1.844  1.00  0.00    -0.031 C 
ATOM     12  C   UNL     1      19.430  42.109   1.182  1.00  0.00    -0.027 C 
BRANCH  12  13
ATOM     13  C   UNL     1      18.045  42.611   0.888  1.00  0.00     0.054 C 
BRANCH  13  14
ATOM     14  C   UNL     1      17.350  43.059   2.144  1.00  0.00    -0.027 C 
ATOM     15  C   UNL     1      18.044  43.618   3.146  1.00  0.00    -0.031 C 
BRANCH  15  16
ATOM     16  C   UNL     1      17.374  44.071   4.416  1.00  0.00     0.027 C 
BRANCH  16  17
ATOM     17  C   UNL     1      17.739  43.191   5.622  1.00  0.00     0.004 C 
BRANCH  17  18
ATOM     18  C   UNL     1      18.636  41.986   5.277  1.00  0.00     0.000 C 
BRANCH  18  19
ATOM     19  C   UNL     1      18.125  40.650   5.858  1.00  0.00    -0.003 C 
ATOM     20  C   UNL     1      18.876  39.443   5.294  1.00  0.00     0.004 C 
ENDBRANCH  18  19
ENDBRANCH  17  18
ENDBRANCH  16  17
ENDBRANCH  15  16
ENDBRANCH  13  14
ENDBRANCH  12  13
ENDBRANCH   1  11
TORSDOF 14
ENDMDL
