MODEL 1
REMARK VINA RESULT:    -3.957      0.000      0.000
REMARK INTER + INTRA:          -5.127
REMARK INTER:                  -5.114
REMARK INTRA:                  -0.013
REMARK UNBOUND:                -0.013
REMARK SMILES CCCCCCC(=O)[O-]
REMARK SMILES IDX 5 1 6 2 7 3 8 4 9 5 4 6 3 7 2 8 1 9
REMARK H PARENT
REMARK Flexibility Score: inf
ROOT
ATOM      1  C   UNL     1     -31.124   7.737   5.848  1.00  0.00     0.006 C 
ENDROOT
BRANCH   1   2
ATOM      2  C   UNL     1     -30.192   6.657   5.274  1.00  0.00     0.053 C 
BRANCH   2   3
ATOM      3  C   UNL     1     -29.123   6.245   6.241  1.00  0.00     0.041 C 
ATOM      4  O   UNL     1     -27.919   6.201   5.873  1.00  0.00    -0.550 OA
ATOM      5  O   UNL     1     -29.459   5.877   7.538  1.00  0.00    -0.550 OA
ENDBRANCH   2   3
ENDBRANCH   1   2
BRANCH   1   6
ATOM      6  C   UNL     1     -32.535   7.740   5.230  1.00  0.00     0.000 C 
BRANCH   6   7
ATOM      7  C   UNL     1     -32.913   6.394   4.591  1.00  0.00    -0.000 C 
BRANCH   7   8
ATOM      8  C   UNL     1     -32.928   6.455   3.055  1.00  0.00    -0.003 C 
ATOM      9  C   UNL     1     -31.722   5.761   2.422  1.00  0.00     0.004 C 
ENDBRANCH   7   8
ENDBRANCH   6   7
ENDBRANCH   1   6
TORSDOF 5
ENDMDL
MODEL 2
REMARK VINA RESULT:    -3.863      2.880      4.409
REMARK INTER + INTRA:          -5.006
REMARK INTER:                  -4.741
REMARK INTRA:                  -0.265
REMARK UNBOUND:                -0.013
REMARK SMILES CCCCCCC(=O)[O-]
REMARK SMILES IDX 5 1 6 2 7 3 8 4 9 5 4 6 3 7 2 8 1 9
REMARK H PARENT
REMARK Flexibility Score: inf
ROOT
ATOM      1  C   UNL     1     -32.267   7.620   5.084  1.00  0.00     0.006 C 
ENDROOT
BRANCH   1   2
ATOM      2  C   UNL     1     -32.869   6.220   4.877  1.00  0.00     0.053 C 
BRANCH   2   3
ATOM      3  C   UNL     1     -33.014   5.864   3.428  1.00  0.00     0.041 C 
ATOM      4  O   UNL     1     -32.191   6.304   2.582  1.00  0.00    -0.550 OA
ATOM      5  O   UNL     1     -34.077   5.076   3.006  1.00  0.00    -0.550 OA
ENDBRANCH   2   3
ENDBRANCH   1   2
BRANCH   1   6
ATOM      6  C   UNL     1     -30.913   7.617   5.818  1.00  0.00     0.000 C 
BRANCH   6   7
ATOM      7  C   UNL     1     -29.892   6.653   5.192  1.00  0.00    -0.000 C 
BRANCH   7   8
ATOM      8  C   UNL     1     -28.867   6.137   6.214  1.00  0.00    -0.003 C 
ATOM      9  C   UNL     1     -29.486   5.843   7.580  1.00  0.00     0.004 C 
ENDBRANCH   7   8
ENDBRANCH   6   7
ENDBRANCH   1   6
TORSDOF 5
ENDMDL
MODEL 3
REMARK VINA RESULT:    -3.793     17.030     18.042
REMARK INTER + INTRA:          -4.915
REMARK INTER:                  -4.756
REMARK INTRA:                  -0.159
REMARK UNBOUND:                -0.013
REMARK SMILES CCCCCCC(=O)[O-]
REMARK SMILES IDX 5 1 6 2 7 3 8 4 9 5 4 6 3 7 2 8 1 9
REMARK H PARENT
REMARK Flexibility Score: inf
ROOT
ATOM      1  C   UNL     1     -28.532 -10.722  11.811  1.00  0.00     0.006 C 
ENDROOT
BRANCH   1   2
ATOM      2  C   UNL     1     -27.698 -11.959  11.438  1.00  0.00     0.053 C 
BRANCH   2   3
ATOM      3  C   UNL     1     -26.227 -11.741  11.627  1.00  0.00     0.041 C 
ATOM      4  O   UNL     1     -25.667 -12.095  12.699  1.00  0.00    -0.550 OA
ATOM      5  O   UNL     1     -25.480 -11.116  10.637  1.00  0.00    -0.550 OA
ENDBRANCH   2   3
ENDBRANCH   1   2
BRANCH   1   6
ATOM      6  C   UNL     1     -29.103  -9.963  10.599  1.00  0.00     0.000 C 
BRANCH   6   7
ATOM      7  C   UNL     1     -28.316  -8.686  10.264  1.00  0.00    -0.000 C 
BRANCH   7   8
ATOM      8  C   UNL     1     -29.226  -7.540   9.792  1.00  0.00    -0.003 C 
ATOM      9  C   UNL     1     -28.446  -6.284   9.406  1.00  0.00     0.004 C 
ENDBRANCH   7   8
ENDBRANCH   6   7
ENDBRANCH   1   6
TORSDOF 5
ENDMDL
MODEL 4
REMARK VINA RESULT:    -3.673     15.762     17.195
REMARK INTER + INTRA:          -4.760
REMARK INTER:                  -4.717
REMARK INTRA:                  -0.043
REMARK UNBOUND:                -0.013
REMARK SMILES CCCCCCC(=O)[O-]
REMARK SMILES IDX 5 1 6 2 7 3 8 4 9 5 4 6 3 7 2 8 1 9
REMARK H PARENT
REMARK Flexibility Score: inf
ROOT
ATOM      1  C   UNL     1     -18.456  -5.747   0.767  1.00  0.00     0.006 C 
ENDROOT
BRANCH   1   2
ATOM      2  C   UNL     1     -19.389  -4.706   1.409  1.00  0.00     0.053 C 
BRANCH   2   3
ATOM      3  C   UNL     1     -19.575  -3.492   0.550  1.00  0.00     0.041 C 
ATOM      4  O   UNL     1     -19.601  -3.603  -0.705  1.00  0.00    -0.550 OA
ATOM      5  O   UNL     1     -19.687  -2.235   1.131  1.00  0.00    -0.550 OA
ENDBRANCH   2   3
ENDBRANCH   1   2
BRANCH   1   6
ATOM      6  C   UNL     1     -18.814  -7.205   1.109  1.00  0.00     0.000 C 
BRANCH   6   7
ATOM      7  C   UNL     1     -20.304  -7.397   1.437  1.00  0.00    -0.000 C 
BRANCH   7   8
ATOM      8  C   UNL     1     -20.547  -7.669   2.930  1.00  0.00    -0.003 C 
ATOM      9  C   UNL     1     -21.189  -6.485   3.653  1.00  0.00     0.004 C 
ENDBRANCH   7   8
ENDBRANCH   6   7
ENDBRANCH   1   6
TORSDOF 5
ENDMDL
MODEL 5
REMARK VINA RESULT:    -3.673     17.164     18.120
REMARK INTER + INTRA:          -4.759
REMARK INTER:                  -4.527
REMARK INTRA:                  -0.232
REMARK UNBOUND:                -0.013
REMARK SMILES CCCCCCC(=O)[O-]
REMARK SMILES IDX 5 1 6 2 7 3 8 4 9 5 4 6 3 7 2 8 1 9
REMARK H PARENT
REMARK Flexibility Score: inf
ROOT
ATOM      1  C   UNL     1     -34.716 -11.146   1.691  1.00  0.00     0.006 C 
ENDROOT
BRANCH   1   2
ATOM      2  C   UNL     1     -35.344 -10.058   2.578  1.00  0.00     0.053 C 
BRANCH   2   3
ATOM      3  C   UNL     1     -36.391  -9.261   1.858  1.00  0.00     0.041 C 
ATOM      4  O   UNL     1     -36.114  -8.687   0.771  1.00  0.00    -0.550 OA
ATOM      5  O   UNL     1     -37.661  -9.123   2.403  1.00  0.00    -0.550 OA
ENDBRANCH   2   3
ENDBRANCH   1   2
BRANCH   1   6
ATOM      6  C   UNL     1     -33.577 -11.928   2.371  1.00  0.00     0.000 C 
BRANCH   6   7
ATOM      7  C   UNL     1     -33.327 -11.485   3.822  1.00  0.00    -0.000 C 
BRANCH   7   8
ATOM      8  C   UNL     1     -31.883 -11.014   4.053  1.00  0.00    -0.003 C 
ATOM      9  C   UNL     1     -31.017 -11.113   2.798  1.00  0.00     0.004 C 
ENDBRANCH   7   8
ENDBRANCH   6   7
ENDBRANCH   1   6
TORSDOF 5
ENDMDL
MODEL 6
REMARK VINA RESULT:    -3.660     15.885     17.192
REMARK INTER + INTRA:          -4.744
REMARK INTER:                  -4.538
REMARK INTRA:                  -0.206
REMARK UNBOUND:                -0.013
REMARK SMILES CCCCCCC(=O)[O-]
REMARK SMILES IDX 5 1 6 2 7 3 8 4 9 5 4 6 3 7 2 8 1 9
REMARK H PARENT
REMARK Flexibility Score: inf
ROOT
ATOM      1  C   UNL     1     -18.837  -6.669   1.483  1.00  0.00     0.006 C 
ENDROOT
BRANCH   1   2
ATOM      2  C   UNL     1     -20.094  -7.480   1.129  1.00  0.00     0.053 C 
BRANCH   2   3
ATOM      3  C   UNL     1     -21.048  -7.598   2.280  1.00  0.00     0.041 C 
ATOM      4  O   UNL     1     -22.023  -8.393   2.215  1.00  0.00    -0.550 OA
ATOM      5  O   UNL     1     -20.881  -6.806   3.409  1.00  0.00    -0.550 OA
ENDBRANCH   2   3
ENDBRANCH   1   2
BRANCH   1   6
ATOM      6  C   UNL     1     -18.767  -5.290   0.801  1.00  0.00     0.000 C 
BRANCH   6   7
ATOM      7  C   UNL     1     -19.644  -4.233   1.493  1.00  0.00    -0.000 C 
BRANCH   7   8
ATOM      8  C   UNL     1     -19.736  -2.927   0.689  1.00  0.00    -0.003 C 
ATOM      9  C   UNL     1     -19.757  -3.160  -0.822  1.00  0.00     0.004 C 
ENDBRANCH   7   8
ENDBRANCH   6   7
ENDBRANCH   1   6
TORSDOF 5
ENDMDL
MODEL 7
REMARK VINA RESULT:    -3.540     16.942     17.648
REMARK INTER + INTRA:          -4.587
REMARK INTER:                  -4.480
REMARK INTRA:                  -0.107
REMARK UNBOUND:                -0.013
REMARK SMILES CCCCCCC(=O)[O-]
REMARK SMILES IDX 5 1 6 2 7 3 8 4 9 5 4 6 3 7 2 8 1 9
REMARK H PARENT
REMARK Flexibility Score: inf
ROOT
ATOM      1  C   UNL     1     -34.391 -11.522   2.747  1.00  0.00     0.006 C 
ENDROOT
BRANCH   1   2
ATOM      2  C   UNL     1     -32.970 -11.866   2.269  1.00  0.00     0.053 C 
BRANCH   2   3
ATOM      3  C   UNL     1     -31.908 -11.283   3.152  1.00  0.00     0.041 C 
ATOM      4  O   UNL     1     -30.784 -10.977   2.672  1.00  0.00    -0.550 OA
ATOM      5  O   UNL     1     -32.146 -11.108   4.509  1.00  0.00    -0.550 OA
ENDBRANCH   2   3
ENDBRANCH   1   2
BRANCH   1   6
ATOM      6  C   UNL     1     -35.220 -10.722   1.725  1.00  0.00     0.000 C 
BRANCH   6   7
ATOM      7  C   UNL     1     -35.881  -9.474   2.332  1.00  0.00    -0.000 C 
BRANCH   7   8
ATOM      8  C   UNL     1     -36.904  -8.830   1.384  1.00  0.00    -0.003 C 
ATOM      9  C   UNL     1     -36.320  -8.513   0.007  1.00  0.00     0.004 C 
ENDBRANCH   7   8
ENDBRANCH   6   7
ENDBRANCH   1   6
TORSDOF 5
ENDMDL
MODEL 8
REMARK VINA RESULT:    -3.528     17.135     17.959
REMARK INTER + INTRA:          -4.573
REMARK INTER:                  -4.400
REMARK INTRA:                  -0.173
REMARK UNBOUND:                -0.013
REMARK SMILES CCCCCCC(=O)[O-]
REMARK SMILES IDX 5 1 6 2 7 3 8 4 9 5 4 6 3 7 2 8 1 9
REMARK H PARENT
REMARK Flexibility Score: inf
ROOT
ATOM      1  C   UNL     1     -34.142 -11.605   2.298  1.00  0.00     0.006 C 
ENDROOT
BRANCH   1   2
ATOM      2  C   UNL     1     -32.663 -12.002   2.151  1.00  0.00     0.053 C 
BRANCH   2   3
ATOM      3  C   UNL     1     -31.784 -11.334   3.165  1.00  0.00     0.041 C 
ATOM      4  O   UNL     1     -30.613 -10.986   2.857  1.00  0.00    -0.550 OA
ATOM      5  O   UNL     1     -32.244 -11.126   4.460  1.00  0.00    -0.550 OA
ENDBRANCH   2   3
ENDBRANCH   1   2
BRANCH   1   6
ATOM      6  C   UNL     1     -34.856 -11.342   0.959  1.00  0.00     0.000 C 
BRANCH   6   7
ATOM      7  C   UNL     1     -35.864 -10.184   1.033  1.00  0.00    -0.000 C 
BRANCH   7   8
ATOM      8  C   UNL     1     -35.861  -9.486   2.402  1.00  0.00    -0.003 C 
ATOM      9  C   UNL     1     -37.263  -9.115   2.883  1.00  0.00     0.004 C 
ENDBRANCH   7   8
ENDBRANCH   6   7
ENDBRANCH   1   6
TORSDOF 5
ENDMDL
MODEL 9
REMARK VINA RESULT:    -3.396     13.954     15.284
REMARK INTER + INTRA:          -4.401
REMARK INTER:                  -4.278
REMARK INTRA:                  -0.123
REMARK UNBOUND:                -0.013
REMARK SMILES CCCCCCC(=O)[O-]
REMARK SMILES IDX 5 1 6 2 7 3 8 4 9 5 4 6 3 7 2 8 1 9
REMARK H PARENT
REMARK Flexibility Score: inf
ROOT
ATOM      1  C   UNL     1     -37.965  -5.321  -0.806  1.00  0.00     0.006 C 
ENDROOT
BRANCH   1   2
ATOM      2  C   UNL     1     -37.361  -4.313  -1.799  1.00  0.00     0.053 C 
BRANCH   2   3
ATOM      3  C   UNL     1     -37.091  -2.978  -1.172  1.00  0.00     0.041 C 
ATOM      4  O   UNL     1     -36.618  -2.038  -1.865  1.00  0.00    -0.550 OA
ATOM      5  O   UNL     1     -37.331  -2.780   0.181  1.00  0.00    -0.550 OA
ENDBRANCH   2   3
ENDBRANCH   1   2
BRANCH   1   6
ATOM      6  C   UNL     1     -37.427  -6.755  -0.963  1.00  0.00     0.000 C 
BRANCH   6   7
ATOM      7  C   UNL     1     -37.640  -7.618   0.291  1.00  0.00    -0.000 C 
BRANCH   7   8
ATOM      8  C   UNL     1     -36.698  -8.831   0.339  1.00  0.00    -0.003 C 
ATOM      9  C   UNL     1     -36.167  -9.224  -1.039  1.00  0.00     0.004 C 
ENDBRANCH   7   8
ENDBRANCH   6   7
ENDBRANCH   1   6
TORSDOF 5
ENDMDL
