MODEL 1
REMARK VINA RESULT:    -4.994      0.000      0.000
REMARK INTER + INTRA:          -5.784
REMARK INTER:                  -5.577
REMARK INTRA:                  -0.207
REMARK UNBOUND:                -0.207
REMARK SMILES O=C([O-])C=Cc1ccccc1
REMARK SMILES IDX 4 1 5 2 2 3 1 4 3 5 6 6 7 7 11 8 8 9 10 10 9 11
REMARK H PARENT
REMARK Flexibility Score: inf
ROOT
ATOM      1  C   UNL     1       8.475  29.894  10.871  1.00  0.00     0.025 C 
ATOM      2  C   UNL     1       8.948  29.510  12.067  1.00  0.00     0.010 C 
ENDROOT
BRANCH   1   3
ATOM      3  C   UNL     1       7.371  29.246  10.139  1.00  0.00     0.064 C 
ATOM      4  O   UNL     1       7.636  28.487   9.170  1.00  0.00    -0.545 OA
ATOM      5  O   UNL     1       6.041  29.509  10.449  1.00  0.00    -0.545 OA
ENDBRANCH   1   3
BRANCH   2   6
ATOM      6  C   UNL     1       8.581  28.265  12.772  1.00  0.00    -0.026 A 
ATOM      7  C   UNL     1       9.446  27.156  12.791  1.00  0.00     0.008 A 
ATOM      8  C   UNL     1       7.396  28.224  13.522  1.00  0.00     0.008 A 
ATOM      9  C   UNL     1       9.101  26.007  13.508  1.00  0.00     0.001 A 
ATOM     10  C   UNL     1       7.055  27.072  14.238  1.00  0.00     0.001 A 
ATOM     11  C   UNL     1       7.905  25.962  14.227  1.00  0.00     0.000 A 
ENDBRANCH   2   6
TORSDOF 2
ENDMDL
MODEL 2
REMARK VINA RESULT:    -4.959      0.112      1.465
REMARK INTER + INTRA:          -5.746
REMARK INTER:                  -5.536
REMARK INTRA:                  -0.211
REMARK UNBOUND:                -0.207
REMARK SMILES O=C([O-])C=Cc1ccccc1
REMARK SMILES IDX 4 1 5 2 2 3 1 4 3 5 6 6 7 7 11 8 8 9 10 10 9 11
REMARK H PARENT
REMARK Flexibility Score: inf
ROOT
ATOM      1  C   UNL     1       8.559  29.941  10.879  1.00  0.00     0.025 C 
ATOM      2  C   UNL     1       9.028  29.608  12.091  1.00  0.00     0.010 C 
ENDROOT
BRANCH   1   3
ATOM      3  C   UNL     1       7.459  29.262  10.170  1.00  0.00     0.064 C 
ATOM      4  O   UNL     1       7.729  28.448   9.248  1.00  0.00    -0.545 OA
ATOM      5  O   UNL     1       6.128  29.551  10.448  1.00  0.00    -0.545 OA
ENDBRANCH   1   3
BRANCH   2   6
ATOM      6  C   UNL     1       8.660  28.392  12.846  1.00  0.00    -0.026 A 
ATOM      7  C   UNL     1       7.445  28.312  13.550  1.00  0.00     0.008 A 
ATOM      8  C   UNL     1       9.487  27.261  12.773  1.00  0.00     0.008 A 
ATOM      9  C   UNL     1       7.093  27.133  14.214  1.00  0.00     0.001 A 
ATOM     10  C   UNL     1       9.131  26.083  13.439  1.00  0.00     0.001 A 
ATOM     11  C   UNL     1       7.937  26.021  14.163  1.00  0.00     0.000 A 
ENDBRANCH   2   6
TORSDOF 2
ENDMDL
MODEL 3
REMARK VINA RESULT:    -4.689     16.698     18.041
REMARK INTER + INTRA:          -5.444
REMARK INTER:                  -5.215
REMARK INTRA:                  -0.229
REMARK UNBOUND:                -0.207
REMARK SMILES O=C([O-])C=Cc1ccccc1
REMARK SMILES IDX 4 1 5 2 2 3 1 4 3 5 6 6 7 7 11 8 8 9 10 10 9 11
REMARK H PARENT
REMARK Flexibility Score: inf
ROOT
ATOM      1  C   UNL     1      -6.498  23.010  22.913  1.00  0.00     0.025 C 
ATOM      2  C   UNL     1      -6.185  21.706  22.900  1.00  0.00     0.010 C 
ENDROOT
BRANCH   1   3
ATOM      3  C   UNL     1      -6.648  23.866  21.721  1.00  0.00     0.064 C 
ATOM      4  O   UNL     1      -7.800  24.223  21.359  1.00  0.00    -0.545 OA
ATOM      5  O   UNL     1      -5.552  24.231  20.947  1.00  0.00    -0.545 OA
ENDBRANCH   1   3
BRANCH   2   6
ATOM      6  C   UNL     1      -5.749  20.942  21.713  1.00  0.00    -0.026 A 
ATOM      7  C   UNL     1      -4.388  20.839  21.372  1.00  0.00     0.008 A 
ATOM      8  C   UNL     1      -6.698  20.222  20.973  1.00  0.00     0.008 A 
ATOM      9  C   UNL     1      -3.994  20.068  20.274  1.00  0.00     0.001 A 
ATOM     10  C   UNL     1      -6.300  19.452  19.875  1.00  0.00     0.001 A 
ATOM     11  C   UNL     1      -4.949  19.379  19.523  1.00  0.00     0.000 A 
ENDBRANCH   2   6
TORSDOF 2
ENDMDL
MODEL 4
REMARK VINA RESULT:    -4.649     16.978     18.838
REMARK INTER + INTRA:          -5.399
REMARK INTER:                  -5.149
REMARK INTRA:                  -0.251
REMARK UNBOUND:                -0.207
REMARK SMILES O=C([O-])C=Cc1ccccc1
REMARK SMILES IDX 4 1 5 2 2 3 1 4 3 5 6 6 7 7 11 8 8 9 10 10 9 11
REMARK H PARENT
REMARK Flexibility Score: inf
ROOT
ATOM      1  C   UNL     1      -5.630  16.987  20.182  1.00  0.00     0.025 C 
ATOM      2  C   UNL     1      -5.854  18.144  19.540  1.00  0.00     0.010 C 
ENDROOT
BRANCH   1   3
ATOM      3  C   UNL     1      -5.295  16.852  21.612  1.00  0.00     0.064 C 
ATOM      4  O   UNL     1      -6.215  16.630  22.442  1.00  0.00    -0.545 OA
ATOM      5  O   UNL     1      -3.997  17.035  22.074  1.00  0.00    -0.545 OA
ENDBRANCH   1   3
BRANCH   2   6
ATOM      6  C   UNL     1      -5.618  19.490  20.099  1.00  0.00    -0.026 A 
ATOM      7  C   UNL     1      -6.570  20.113  20.927  1.00  0.00     0.008 A 
ATOM      8  C   UNL     1      -4.381  20.117  19.885  1.00  0.00     0.008 A 
ATOM      9  C   UNL     1      -6.304  21.366  21.487  1.00  0.00     0.001 A 
ATOM     10  C   UNL     1      -4.119  21.371  20.447  1.00  0.00     0.001 A 
ATOM     11  C   UNL     1      -5.081  21.997  21.244  1.00  0.00     0.000 A 
ENDBRANCH   2   6
TORSDOF 2
ENDMDL
MODEL 5
REMARK VINA RESULT:    -4.573     17.072     18.850
REMARK INTER + INTRA:          -5.315
REMARK INTER:                  -5.155
REMARK INTRA:                  -0.160
REMARK UNBOUND:                -0.207
REMARK SMILES O=C([O-])C=Cc1ccccc1
REMARK SMILES IDX 4 1 5 2 2 3 1 4 3 5 6 6 7 7 11 8 8 9 10 10 9 11
REMARK H PARENT
REMARK Flexibility Score: inf
ROOT
ATOM      1  C   UNL     1      -4.810  20.242  19.505  1.00  0.00     0.025 C 
ATOM      2  C   UNL     1      -5.917  19.533  19.773  1.00  0.00     0.010 C 
ENDROOT
BRANCH   1   3
ATOM      3  C   UNL     1      -3.729  20.536  20.464  1.00  0.00     0.064 C 
ATOM      4  O   UNL     1      -3.494  21.732  20.781  1.00  0.00    -0.545 OA
ATOM      5  O   UNL     1      -2.916  19.530  20.973  1.00  0.00    -0.545 OA
ENDBRANCH   1   3
BRANCH   2   6
ATOM      6  C   UNL     1      -6.342  19.085  21.115  1.00  0.00    -0.026 A 
ATOM      7  C   UNL     1      -6.754  20.007  22.094  1.00  0.00     0.008 A 
ATOM      8  C   UNL     1      -6.436  17.711  21.383  1.00  0.00     0.008 A 
ATOM      9  C   UNL     1      -7.202  19.557  23.340  1.00  0.00     0.001 A 
ATOM     10  C   UNL     1      -6.884  17.265  22.631  1.00  0.00     0.001 A 
ATOM     11  C   UNL     1      -7.262  18.188  23.610  1.00  0.00     0.000 A 
ENDBRANCH   2   6
TORSDOF 2
ENDMDL
MODEL 6
REMARK VINA RESULT:    -4.560     17.520     18.930
REMARK INTER + INTRA:          -5.300
REMARK INTER:                  -5.054
REMARK INTRA:                  -0.246
REMARK UNBOUND:                -0.207
REMARK SMILES O=C([O-])C=Cc1ccccc1
REMARK SMILES IDX 4 1 5 2 2 3 1 4 3 5 6 6 7 7 11 8 8 9 10 10 9 11
REMARK H PARENT
REMARK Flexibility Score: inf
ROOT
ATOM      1  C   UNL     1      -5.734  19.426  21.858  1.00  0.00     0.025 C 
ATOM      2  C   UNL     1      -6.528  20.068  22.728  1.00  0.00     0.010 C 
ENDROOT
BRANCH   1   3
ATOM      3  C   UNL     1      -4.893  20.069  20.831  1.00  0.00     0.064 C 
ATOM      4  O   UNL     1      -3.808  20.607  21.172  1.00  0.00    -0.545 OA
ATOM      5  O   UNL     1      -5.305  20.157  19.506  1.00  0.00    -0.545 OA
ENDBRANCH   1   3
BRANCH   2   6
ATOM      6  C   UNL     1      -6.850  21.509  22.690  1.00  0.00    -0.026 A 
ATOM      7  C   UNL     1      -7.786  22.023  21.774  1.00  0.00     0.008 A 
ATOM      8  C   UNL     1      -6.291  22.364  23.652  1.00  0.00     0.008 A 
ATOM      9  C   UNL     1      -8.113  23.382  21.790  1.00  0.00     0.001 A 
ATOM     10  C   UNL     1      -6.621  23.723  23.665  1.00  0.00     0.001 A 
ATOM     11  C   UNL     1      -7.528  24.233  22.731  1.00  0.00     0.000 A 
ENDBRANCH   2   6
TORSDOF 2
ENDMDL
MODEL 7
REMARK VINA RESULT:    -4.545     16.729     18.092
REMARK INTER + INTRA:          -5.283
REMARK INTER:                  -5.047
REMARK INTRA:                  -0.236
REMARK UNBOUND:                -0.207
REMARK SMILES O=C([O-])C=Cc1ccccc1
REMARK SMILES IDX 4 1 5 2 2 3 1 4 3 5 6 6 7 7 11 8 8 9 10 10 9 11
REMARK H PARENT
REMARK Flexibility Score: inf
ROOT
ATOM      1  C   UNL     1      -4.136  21.622  20.990  1.00  0.00     0.025 C 
ATOM      2  C   UNL     1      -3.604  20.492  20.500  1.00  0.00     0.010 C 
ENDROOT
BRANCH   1   3
ATOM      3  C   UNL     1      -5.305  21.699  21.885  1.00  0.00     0.064 C 
ATOM      4  O   UNL     1      -6.452  21.852  21.389  1.00  0.00    -0.545 OA
ATOM      5  O   UNL     1      -5.164  21.679  23.268  1.00  0.00    -0.545 OA
ENDBRANCH   1   3
BRANCH   2   6
ATOM      6  C   UNL     1      -4.203  19.146  20.612  1.00  0.00    -0.026 A 
ATOM      7  C   UNL     1      -4.054  18.377  21.780  1.00  0.00     0.008 A 
ATOM      8  C   UNL     1      -5.021  18.670  19.576  1.00  0.00     0.008 A 
ATOM      9  C   UNL     1      -4.673  17.128  21.884  1.00  0.00     0.001 A 
ATOM     10  C   UNL     1      -5.639  17.419  19.684  1.00  0.00     0.001 A 
ATOM     11  C   UNL     1      -5.461  16.647  20.835  1.00  0.00     0.000 A 
ENDBRANCH   2   6
TORSDOF 2
ENDMDL
MODEL 8
REMARK VINA RESULT:    -4.533     16.874     18.725
REMARK INTER + INTRA:          -5.270
REMARK INTER:                  -5.022
REMARK INTRA:                  -0.248
REMARK UNBOUND:                -0.207
REMARK SMILES O=C([O-])C=Cc1ccccc1
REMARK SMILES IDX 4 1 5 2 2 3 1 4 3 5 6 6 7 7 11 8 8 9 10 10 9 11
REMARK H PARENT
REMARK Flexibility Score: inf
ROOT
ATOM      1  C   UNL     1      -5.803  17.083  20.362  1.00  0.00     0.025 C 
ATOM      2  C   UNL     1      -5.986  18.255  19.735  1.00  0.00     0.010 C 
ENDROOT
BRANCH   1   3
ATOM      3  C   UNL     1      -5.305  16.918  21.740  1.00  0.00     0.064 C 
ATOM      4  O   UNL     1      -6.124  16.693  22.669  1.00  0.00    -0.545 OA
ATOM      5  O   UNL     1      -3.958  17.077  22.050  1.00  0.00    -0.545 OA
ENDBRANCH   1   3
BRANCH   2   6
ATOM      6  C   UNL     1      -5.545  19.572  20.238  1.00  0.00    -0.026 A 
ATOM      7  C   UNL     1      -4.313  20.126  19.845  1.00  0.00     0.008 A 
ATOM      8  C   UNL     1      -6.414  20.329  21.037  1.00  0.00     0.008 A 
ATOM      9  C   UNL     1      -3.939  21.397  20.292  1.00  0.00     0.001 A 
ATOM     10  C   UNL     1      -6.036  21.601  21.482  1.00  0.00     0.001 A 
ATOM     11  C   UNL     1      -4.797  22.132  21.114  1.00  0.00     0.000 A 
ENDBRANCH   2   6
TORSDOF 2
ENDMDL
MODEL 9
REMARK VINA RESULT:    -4.444     16.987     17.725
REMARK INTER + INTRA:          -5.171
REMARK INTER:                  -4.935
REMARK INTRA:                  -0.236
REMARK UNBOUND:                -0.207
REMARK SMILES O=C([O-])C=Cc1ccccc1
REMARK SMILES IDX 4 1 5 2 2 3 1 4 3 5 6 6 7 7 11 8 8 9 10 10 9 11
REMARK H PARENT
REMARK Flexibility Score: inf
ROOT
ATOM      1  C   UNL     1      -4.945  19.765  19.483  1.00  0.00     0.025 C 
ATOM      2  C   UNL     1      -3.992  20.301  20.260  1.00  0.00     0.010 C 
ENDROOT
BRANCH   1   3
ATOM      3  C   UNL     1      -5.712  18.543  19.789  1.00  0.00     0.064 C 
ATOM      4  O   UNL     1      -5.474  17.488  19.144  1.00  0.00    -0.545 OA
ATOM      5  O   UNL     1      -6.742  18.546  20.723  1.00  0.00    -0.545 OA
ENDBRANCH   1   3
BRANCH   2   6
ATOM      6  C   UNL     1      -3.409  19.665  21.459  1.00  0.00    -0.026 A 
ATOM      7  C   UNL     1      -2.482  18.613  21.349  1.00  0.00     0.008 A 
ATOM      8  C   UNL     1      -3.705  20.188  22.727  1.00  0.00     0.008 A 
ATOM      9  C   UNL     1      -1.903  18.061  22.496  1.00  0.00     0.001 A 
ATOM     10  C   UNL     1      -3.124  19.633  23.872  1.00  0.00     0.001 A 
ATOM     11  C   UNL     1      -2.227  18.567  23.757  1.00  0.00     0.000 A 
ENDBRANCH   2   6
TORSDOF 2
ENDMDL
