MODEL 1
REMARK VINA RESULT:    -6.632      0.000      0.000
REMARK INTER + INTRA:          -8.993
REMARK INTER:                  -8.376
REMARK INTRA:                  -0.616
REMARK UNBOUND:                -0.616
REMARK SMILES O=C(C=Cc1ccc(O)cc1)c1ccc(O)cc1O
REMARK SMILES IDX 4 1 3 2 5 3 6 4 7 5 8 6 11 7 10 8 9 9 2 11 1 12 12 13 18 14
REMARK SMILES IDX 13 15 17 16 14 17 15 18 19 19 16 21
REMARK H PARENT 9 10 19 20 16 22
REMARK Flexibility Score: inf
ROOT
ATOM      1  C   UNL     1      32.140  10.123 105.728  1.00  0.00     0.012 C 
ATOM      2  C   UNL     1      33.404  10.476 105.448  1.00  0.00     0.053 C 
ENDROOT
BRANCH   1   3
ATOM      3  C   UNL     1      31.704   8.721 105.939  1.00  0.00    -0.025 A 
ATOM      4  C   UNL     1      30.961   8.087 104.929  1.00  0.00     0.012 A 
ATOM      5  C   UNL     1      30.538   6.763 105.080  1.00  0.00     0.047 A 
ATOM      6  C   UNL     1      30.862   6.050 106.241  1.00  0.00     0.115 A 
ATOM      7  C   UNL     1      32.038   7.990 107.099  1.00  0.00     0.012 A 
ATOM      8  C   UNL     1      31.613   6.666 107.246  1.00  0.00     0.047 A 
BRANCH   6   9
ATOM      9  O   UNL     1      30.445   4.731 106.404  1.00  0.00    -0.508 OA
ATOM     10  H   UNL     1      30.965   4.079 106.979  1.00  0.00     0.293 HD
ENDBRANCH   6   9
ENDBRANCH   1   3
BRANCH   2  11
ATOM     11  C   UNL     1      33.805  11.886 105.257  1.00  0.00     0.189 C 
ATOM     12  O   UNL     1      33.049  12.682 104.635  1.00  0.00    -0.289 OA
BRANCH  11  13
ATOM     13  C   UNL     1      35.108  12.368 105.766  1.00  0.00     0.064 A 
ATOM     14  C   UNL     1      35.828  13.402 105.119  1.00  0.00     0.130 A 
ATOM     15  C   UNL     1      35.667  11.755 106.902  1.00  0.00     0.020 A 
ATOM     16  C   UNL     1      37.092  13.772 105.596  1.00  0.00     0.093 A 
ATOM     17  C   UNL     1      36.922  12.143 107.376  1.00  0.00     0.047 A 
ATOM     18  C   UNL     1      37.639  13.150 106.721  1.00  0.00     0.119 A 
BRANCH  14  19
ATOM     19  O   UNL     1      35.311  14.100 104.025  1.00  0.00    -0.507 OA
ATOM     20  H   UNL     1      35.141  15.097 104.032  1.00  0.00     0.293 HD
ENDBRANCH  14  19
BRANCH  18  21
ATOM     21  O   UNL     1      38.895  13.541 107.180  1.00  0.00    -0.508 OA
ATOM     22  H   UNL     1      39.482  12.913 107.718  1.00  0.00     0.293 HD
ENDBRANCH  18  21
ENDBRANCH  11  13
ENDBRANCH   2  11
TORSDOF 6
ENDMDL
MODEL 2
REMARK VINA RESULT:    -6.163      2.128      7.818
REMARK INTER + INTRA:          -8.401
REMARK INTER:                  -8.022
REMARK INTRA:                  -0.379
REMARK UNBOUND:                -0.616
REMARK SMILES O=C(C=Cc1ccc(O)cc1)c1ccc(O)cc1O
REMARK SMILES IDX 4 1 3 2 5 3 6 4 7 5 8 6 11 7 10 8 9 9 2 11 1 12 12 13 18 14
REMARK SMILES IDX 13 15 17 16 14 17 15 18 19 19 16 21
REMARK H PARENT 9 10 19 20 16 22
REMARK Flexibility Score: inf
ROOT
ATOM      1  C   UNL     1      34.842   9.287 107.003  1.00  0.00     0.012 C 
ATOM      2  C   UNL     1      34.122   9.038 108.107  1.00  0.00     0.053 C 
ENDROOT
BRANCH   1   3
ATOM      3  C   UNL     1      35.767  10.439 106.867  1.00  0.00    -0.025 A 
ATOM      4  C   UNL     1      36.474  10.598 105.663  1.00  0.00     0.012 A 
ATOM      5  C   UNL     1      37.349  11.674 105.487  1.00  0.00     0.047 A 
ATOM      6  C   UNL     1      37.522  12.614 106.510  1.00  0.00     0.115 A 
ATOM      7  C   UNL     1      35.937  11.399 107.887  1.00  0.00     0.012 A 
ATOM      8  C   UNL     1      36.813  12.474 107.706  1.00  0.00     0.047 A 
BRANCH   6   9
ATOM      9  O   UNL     1      38.392  13.690 106.346  1.00  0.00    -0.508 OA
ATOM     10  H   UNL     1      38.868  14.110 107.136  1.00  0.00     0.293 HD
ENDBRANCH   6   9
ENDBRANCH   1   3
BRANCH   2  11
ATOM     11  C   UNL     1      33.220   7.871 108.211  1.00  0.00     0.189 C 
ATOM     12  O   UNL     1      33.279   7.111 109.217  1.00  0.00    -0.289 OA
BRANCH  11  13
ATOM     13  C   UNL     1      32.262   7.566 107.124  1.00  0.00     0.064 A 
ATOM     14  C   UNL     1      31.788   6.252 106.892  1.00  0.00     0.130 A 
ATOM     15  C   UNL     1      31.842   8.604 106.273  1.00  0.00     0.020 A 
ATOM     16  C   UNL     1      30.941   6.002 105.805  1.00  0.00     0.093 A 
ATOM     17  C   UNL     1      30.986   8.343 105.202  1.00  0.00     0.047 A 
ATOM     18  C   UNL     1      30.537   7.041 104.962  1.00  0.00     0.119 A 
BRANCH  14  19
ATOM     19  O   UNL     1      32.111   5.182 107.730  1.00  0.00    -0.507 OA
ATOM     20  H   UNL     1      32.861   4.532 107.537  1.00  0.00     0.293 HD
ENDBRANCH  14  19
BRANCH  18  21
ATOM     21  O   UNL     1      29.688   6.767 103.892  1.00  0.00    -0.508 OA
ATOM     22  H   UNL     1      29.888   6.022 103.234  1.00  0.00     0.293 HD
ENDBRANCH  18  21
ENDBRANCH  11  13
ENDBRANCH   2  11
TORSDOF 6
ENDMDL
MODEL 3
REMARK VINA RESULT:    -6.081      1.887      2.738
REMARK INTER + INTRA:          -8.297
REMARK INTER:                  -7.675
REMARK INTRA:                  -0.622
REMARK UNBOUND:                -0.616
REMARK SMILES O=C(C=Cc1ccc(O)cc1)c1ccc(O)cc1O
REMARK SMILES IDX 4 1 3 2 5 3 6 4 7 5 8 6 11 7 10 8 9 9 2 11 1 12 12 13 18 14
REMARK SMILES IDX 13 15 17 16 14 17 15 18 19 19 16 21
REMARK H PARENT 9 10 19 20 16 22
REMARK Flexibility Score: inf
ROOT
ATOM      1  C   UNL     1      33.902   9.065 107.877  1.00  0.00     0.012 C 
ATOM      2  C   UNL     1      34.735   9.629 106.989  1.00  0.00     0.053 C 
ENDROOT
BRANCH   1   3
ATOM      3  C   UNL     1      33.020   7.915 107.561  1.00  0.00    -0.025 A 
ATOM      4  C   UNL     1      31.963   8.106 106.654  1.00  0.00     0.012 A 
ATOM      5  C   UNL     1      31.113   7.048 106.320  1.00  0.00     0.047 A 
ATOM      6  C   UNL     1      31.313   5.781 106.880  1.00  0.00     0.115 A 
ATOM      7  C   UNL     1      33.222   6.632 108.110  1.00  0.00     0.012 A 
ATOM      8  C   UNL     1      32.369   5.576 107.772  1.00  0.00     0.047 A 
BRANCH   6   9
ATOM      9  O   UNL     1      30.471   4.719 106.555  1.00  0.00    -0.508 OA
ATOM     10  H   UNL     1      30.788   3.950 105.976  1.00  0.00     0.293 HD
ENDBRANCH   6   9
ENDBRANCH   1   3
BRANCH   2  11
ATOM     11  C   UNL     1      35.612  10.766 107.343  1.00  0.00     0.189 C 
ATOM     12  O   UNL     1      35.754  11.106 108.550  1.00  0.00    -0.289 OA
BRANCH  11  13
ATOM     13  C   UNL     1      36.304  11.535 106.285  1.00  0.00     0.064 A 
ATOM     14  C   UNL     1      37.665  11.908 106.400  1.00  0.00     0.130 A 
ATOM     15  C   UNL     1      35.578  11.942 105.151  1.00  0.00     0.020 A 
ATOM     16  C   UNL     1      38.254  12.700 105.405  1.00  0.00     0.093 A 
ATOM     17  C   UNL     1      36.181  12.719 104.160  1.00  0.00     0.047 A 
ATOM     18  C   UNL     1      37.520  13.103 104.287  1.00  0.00     0.119 A 
BRANCH  14  19
ATOM     19  O   UNL     1      38.467  11.491 107.464  1.00  0.00    -0.507 OA
ATOM     20  H   UNL     1      38.325  10.619 107.957  1.00  0.00     0.293 HD
ENDBRANCH  14  19
BRANCH  18  21
ATOM     21  O   UNL     1      38.131  13.884 103.309  1.00  0.00    -0.508 OA
ATOM     22  H   UNL     1      38.110  13.620 102.330  1.00  0.00     0.293 HD
ENDBRANCH  18  21
ENDBRANCH  11  13
ENDBRANCH   2  11
TORSDOF 6
ENDMDL
MODEL 4
REMARK VINA RESULT:    -6.009      2.203      3.221
REMARK INTER + INTRA:          -8.206
REMARK INTER:                  -7.740
REMARK INTRA:                  -0.466
REMARK UNBOUND:                -0.616
REMARK SMILES O=C(C=Cc1ccc(O)cc1)c1ccc(O)cc1O
REMARK SMILES IDX 4 1 3 2 5 3 6 4 7 5 8 6 11 7 10 8 9 9 2 11 1 12 12 13 18 14
REMARK SMILES IDX 13 15 17 16 14 17 15 18 19 19 16 21
REMARK H PARENT 9 10 19 20 16 22
REMARK Flexibility Score: inf
ROOT
ATOM      1  C   UNL     1      31.533   8.676 106.732  1.00  0.00     0.012 C 
ATOM      2  C   UNL     1      31.189   9.152 105.526  1.00  0.00     0.053 C 
ENDROOT
BRANCH   1   3
ATOM      3  C   UNL     1      31.816   7.245 107.002  1.00  0.00    -0.025 A 
ATOM      4  C   UNL     1      31.119   6.270 106.269  1.00  0.00     0.012 A 
ATOM      5  C   UNL     1      31.360   4.910 106.483  1.00  0.00     0.047 A 
ATOM      6  C   UNL     1      32.312   4.505 107.426  1.00  0.00     0.115 A 
ATOM      7  C   UNL     1      32.784   6.828 107.940  1.00  0.00     0.012 A 
ATOM      8  C   UNL     1      33.023   5.466 108.150  1.00  0.00     0.047 A 
BRANCH   6   9
ATOM      9  O   UNL     1      32.562   3.153 107.649  1.00  0.00    -0.508 OA
ATOM     10  H   UNL     1      33.270   2.652 107.126  1.00  0.00     0.293 HD
ENDBRANCH   6   9
ENDBRANCH   1   3
BRANCH   2  11
ATOM     11  C   UNL     1      30.928  10.588 105.291  1.00  0.00     0.189 C 
ATOM     12  O   UNL     1      29.742  11.014 105.215  1.00  0.00    -0.289 OA
BRANCH  11  13
ATOM     13  C   UNL     1      32.053  11.533 105.110  1.00  0.00     0.064 A 
ATOM     14  C   UNL     1      31.842  12.923 104.940  1.00  0.00     0.130 A 
ATOM     15  C   UNL     1      33.366  11.031 105.064  1.00  0.00     0.020 A 
ATOM     16  C   UNL     1      32.934  13.766 104.698  1.00  0.00     0.093 A 
ATOM     17  C   UNL     1      34.447  11.885 104.836  1.00  0.00     0.047 A 
ATOM     18  C   UNL     1      34.233  13.254 104.648  1.00  0.00     0.119 A 
BRANCH  14  19
ATOM     19  O   UNL     1      30.575  13.504 105.034  1.00  0.00    -0.507 OA
ATOM     20  H   UNL     1      29.994  13.703 104.231  1.00  0.00     0.293 HD
ENDBRANCH  14  19
BRANCH  18  21
ATOM     21  O   UNL     1      35.303  14.115 104.413  1.00  0.00    -0.508 OA
ATOM     22  H   UNL     1      35.167  15.115 104.315  1.00  0.00     0.293 HD
ENDBRANCH  18  21
ENDBRANCH  11  13
ENDBRANCH   2  11
TORSDOF 6
ENDMDL
MODEL 5
REMARK VINA RESULT:    -5.960      1.600      7.360
REMARK INTER + INTRA:          -8.145
REMARK INTER:                  -7.711
REMARK INTRA:                  -0.434
REMARK UNBOUND:                -0.616
REMARK SMILES O=C(C=Cc1ccc(O)cc1)c1ccc(O)cc1O
REMARK SMILES IDX 4 1 3 2 5 3 6 4 7 5 8 6 11 7 10 8 9 9 2 11 1 12 12 13 18 14
REMARK SMILES IDX 13 15 17 16 14 17 15 18 19 19 16 21
REMARK H PARENT 9 10 19 20 16 22
REMARK Flexibility Score: inf
ROOT
ATOM      1  C   UNL     1      33.668  10.120 105.507  1.00  0.00     0.012 C 
ATOM      2  C   UNL     1      32.392  10.533 105.511  1.00  0.00     0.053 C 
ENDROOT
BRANCH   1   3
ATOM      3  C   UNL     1      34.831  11.042 105.519  1.00  0.00    -0.025 A 
ATOM      4  C   UNL     1      34.594  12.426 105.470  1.00  0.00     0.012 A 
ATOM      5  C   UNL     1      35.659  13.332 105.490  1.00  0.00     0.047 A 
ATOM      6  C   UNL     1      36.977  12.866 105.569  1.00  0.00     0.115 A 
ATOM      7  C   UNL     1      36.162  10.582 105.613  1.00  0.00     0.012 A 
ATOM      8  C   UNL     1      37.224  11.492 105.633  1.00  0.00     0.047 A 
BRANCH   6   9
ATOM      9  O   UNL     1      38.046  13.759 105.589  1.00  0.00    -0.508 OA
ATOM     10  H   UNL     1      38.067  14.573 104.985  1.00  0.00     0.293 HD
ENDBRANCH   6   9
ENDBRANCH   1   3
BRANCH   2  11
ATOM     11  C   UNL     1      31.258   9.584 105.513  1.00  0.00     0.189 C 
ATOM     12  O   UNL     1      30.128   9.945 105.082  1.00  0.00    -0.289 OA
BRANCH  11  13
ATOM     13  C   UNL     1      31.428   8.215 106.049  1.00  0.00     0.064 A 
ATOM     14  C   UNL     1      30.897   7.081 105.388  1.00  0.00     0.130 A 
ATOM     15  C   UNL     1      32.103   8.039 107.271  1.00  0.00     0.020 A 
ATOM     16  C   UNL     1      31.021   5.815 105.974  1.00  0.00     0.093 A 
ATOM     17  C   UNL     1      32.232   6.769 107.836  1.00  0.00     0.047 A 
ATOM     18  C   UNL     1      31.687   5.655 107.191  1.00  0.00     0.119 A 
BRANCH  14  19
ATOM     19  O   UNL     1      30.270   7.168 104.143  1.00  0.00    -0.507 OA
ATOM     20  H   UNL     1      29.578   7.870 103.918  1.00  0.00     0.293 HD
ENDBRANCH  14  19
BRANCH  18  21
ATOM     21  O   UNL     1      31.803   4.383 107.750  1.00  0.00    -0.508 OA
ATOM     22  H   UNL     1      32.683   4.047 108.124  1.00  0.00     0.293 HD
ENDBRANCH  18  21
ENDBRANCH  11  13
ENDBRANCH   2  11
TORSDOF 6
ENDMDL
MODEL 6
REMARK VINA RESULT:    -5.855      2.433      7.737
REMARK INTER + INTRA:          -8.012
REMARK INTER:                  -7.428
REMARK INTRA:                  -0.584
REMARK UNBOUND:                -0.616
REMARK SMILES O=C(C=Cc1ccc(O)cc1)c1ccc(O)cc1O
REMARK SMILES IDX 4 1 3 2 5 3 6 4 7 5 8 6 11 7 10 8 9 9 2 11 1 12 12 13 18 14
REMARK SMILES IDX 13 15 17 16 14 17 15 18 19 19 16 21
REMARK H PARENT 9 10 19 20 16 22
REMARK Flexibility Score: inf
ROOT
ATOM      1  C   UNL     1      36.463  11.547 105.406  1.00  0.00     0.012 C 
ATOM      2  C   UNL     1      35.822  10.472 105.888  1.00  0.00     0.053 C 
ENDROOT
BRANCH   1   3
ATOM      3  C   UNL     1      37.939  11.700 105.420  1.00  0.00    -0.025 A 
ATOM      4  C   UNL     1      38.552  12.217 106.573  1.00  0.00     0.012 A 
ATOM      5  C   UNL     1      39.941  12.369 106.634  1.00  0.00     0.047 A 
ATOM      6  C   UNL     1      40.737  11.995 105.546  1.00  0.00     0.115 A 
ATOM      7  C   UNL     1      38.751  11.312 104.333  1.00  0.00     0.012 A 
ATOM      8  C   UNL     1      40.140  11.466 104.399  1.00  0.00     0.047 A 
BRANCH   6   9
ATOM      9  O   UNL     1      42.122  12.142 105.595  1.00  0.00    -0.508 OA
ATOM     10  H   UNL     1      42.744  11.396 105.308  1.00  0.00     0.293 HD
ENDBRANCH   6   9
ENDBRANCH   1   3
BRANCH   2  11
ATOM     11  C   UNL     1      34.350  10.348 105.844  1.00  0.00     0.189 C 
ATOM     12  O   UNL     1      33.661  11.185 105.198  1.00  0.00    -0.289 OA
BRANCH  11  13
ATOM     13  C   UNL     1      33.668   9.261 106.584  1.00  0.00     0.064 A 
ATOM     14  C   UNL     1      32.381   8.799 106.216  1.00  0.00     0.130 A 
ATOM     15  C   UNL     1      34.300   8.699 107.707  1.00  0.00     0.020 A 
ATOM     16  C   UNL     1      31.747   7.821 106.992  1.00  0.00     0.093 A 
ATOM     17  C   UNL     1      33.663   7.714 108.464  1.00  0.00     0.047 A 
ATOM     18  C   UNL     1      32.383   7.276 108.111  1.00  0.00     0.119 A 
BRANCH  14  19
ATOM     19  O   UNL     1      31.717   9.264 105.079  1.00  0.00    -0.507 OA
ATOM     20  H   UNL     1      31.854  10.189 104.695  1.00  0.00     0.293 HD
ENDBRANCH  14  19
BRANCH  18  21
ATOM     21  O   UNL     1      31.734   6.298 108.862  1.00  0.00    -0.508 OA
ATOM     22  H   UNL     1      30.893   6.507 109.389  1.00  0.00     0.293 HD
ENDBRANCH  18  21
ENDBRANCH  11  13
ENDBRANCH   2  11
TORSDOF 6
ENDMDL
MODEL 7
REMARK VINA RESULT:    -5.749      2.400      3.344
REMARK INTER + INTRA:          -7.877
REMARK INTER:                  -7.174
REMARK INTRA:                  -0.703
REMARK UNBOUND:                -0.616
REMARK SMILES O=C(C=Cc1ccc(O)cc1)c1ccc(O)cc1O
REMARK SMILES IDX 4 1 3 2 5 3 6 4 7 5 8 6 11 7 10 8 9 9 2 11 1 12 12 13 18 14
REMARK SMILES IDX 13 15 17 16 14 17 15 18 19 19 16 21
REMARK H PARENT 9 10 19 20 16 22
REMARK Flexibility Score: inf
ROOT
ATOM      1  C   UNL     1      35.188  10.480 106.458  1.00  0.00     0.012 C 
ATOM      2  C   UNL     1      35.095  11.784 106.155  1.00  0.00     0.053 C 
ENDROOT
BRANCH   1   3
ATOM      3  C   UNL     1      34.014   9.590 106.630  1.00  0.00    -0.025 A 
ATOM      4  C   UNL     1      32.960   9.678 105.704  1.00  0.00     0.012 A 
ATOM      5  C   UNL     1      31.839   8.851 105.821  1.00  0.00     0.047 A 
ATOM      6  C   UNL     1      31.760   7.916 106.860  1.00  0.00     0.115 A 
ATOM      7  C   UNL     1      33.932   8.635 107.665  1.00  0.00     0.012 A 
ATOM      8  C   UNL     1      32.809   7.809 107.778  1.00  0.00     0.047 A 
BRANCH   6   9
ATOM      9  O   UNL     1      30.648   7.087 106.988  1.00  0.00    -0.508 OA
ATOM     10  H   UNL     1      29.958   7.009 106.249  1.00  0.00     0.293 HD
ENDBRANCH   6   9
ENDBRANCH   1   3
BRANCH   2  11
ATOM     11  C   UNL     1      36.288  12.638 105.977  1.00  0.00     0.189 C 
ATOM     12  O   UNL     1      36.315  13.802 106.465  1.00  0.00    -0.289 OA
BRANCH  11  13
ATOM     13  C   UNL     1      37.449  12.150 105.199  1.00  0.00     0.064 A 
ATOM     14  C   UNL     1      38.692  11.857 105.813  1.00  0.00     0.130 A 
ATOM     15  C   UNL     1      37.327  12.010 103.805  1.00  0.00     0.020 A 
ATOM     16  C   UNL     1      39.781  11.469 105.023  1.00  0.00     0.093 A 
ATOM     17  C   UNL     1      38.417  11.608 103.031  1.00  0.00     0.047 A 
ATOM     18  C   UNL     1      39.648  11.341 103.638  1.00  0.00     0.119 A 
BRANCH  14  19
ATOM     19  O   UNL     1      38.872  11.913 107.197  1.00  0.00    -0.507 OA
ATOM     20  H   UNL     1      38.771  11.110 107.803  1.00  0.00     0.293 HD
ENDBRANCH  14  19
BRANCH  18  21
ATOM     21  O   UNL     1      40.746  10.946 102.876  1.00  0.00    -0.508 OA
ATOM     22  H   UNL     1      40.651  10.281 102.116  1.00  0.00     0.293 HD
ENDBRANCH  18  21
ENDBRANCH  11  13
ENDBRANCH   2  11
TORSDOF 6
ENDMDL
MODEL 8
REMARK VINA RESULT:    -5.713      1.585      7.633
REMARK INTER + INTRA:          -7.832
REMARK INTER:                  -7.536
REMARK INTRA:                  -0.296
REMARK UNBOUND:                -0.616
REMARK SMILES O=C(C=Cc1ccc(O)cc1)c1ccc(O)cc1O
REMARK SMILES IDX 4 1 3 2 5 3 6 4 7 5 8 6 11 7 10 8 9 9 2 11 1 12 12 13 18 14
REMARK SMILES IDX 13 15 17 16 14 17 15 18 19 19 16 21
REMARK H PARENT 9 10 19 20 16 22
REMARK Flexibility Score: inf
ROOT
ATOM      1  C   UNL     1      33.271  11.815 105.065  1.00  0.00     0.012 C 
ATOM      2  C   UNL     1      33.002  10.558 105.447  1.00  0.00     0.053 C 
ENDROOT
BRANCH   1   3
ATOM      3  C   UNL     1      34.642  12.377 104.987  1.00  0.00    -0.025 A 
ATOM      4  C   UNL     1      34.957  13.239 103.923  1.00  0.00     0.012 A 
ATOM      5  C   UNL     1      36.233  13.799 103.816  1.00  0.00     0.047 A 
ATOM      6  C   UNL     1      37.210  13.514 104.777  1.00  0.00     0.115 A 
ATOM      7  C   UNL     1      35.628  12.107 105.959  1.00  0.00     0.012 A 
ATOM      8  C   UNL     1      36.903  12.670 105.847  1.00  0.00     0.047 A 
BRANCH   6   9
ATOM      9  O   UNL     1      38.485  14.066 104.680  1.00  0.00    -0.508 OA
ATOM     10  H   UNL     1      38.742  14.674 103.911  1.00  0.00     0.293 HD
ENDBRANCH   6   9
ENDBRANCH   1   3
BRANCH   2  11
ATOM     11  C   UNL     1      31.623  10.027 105.499  1.00  0.00     0.189 C 
ATOM     12  O   UNL     1      30.639  10.802 105.344  1.00  0.00    -0.289 OA
BRANCH  11  13
ATOM     13  C   UNL     1      31.383   8.591 105.766  1.00  0.00     0.064 A 
ATOM     14  C   UNL     1      31.797   7.975 106.972  1.00  0.00     0.130 A 
ATOM     15  C   UNL     1      30.763   7.807 104.777  1.00  0.00     0.020 A 
ATOM     16  C   UNL     1      31.614   6.597 107.146  1.00  0.00     0.093 A 
ATOM     17  C   UNL     1      30.574   6.438 104.969  1.00  0.00     0.047 A 
ATOM     18  C   UNL     1      31.002   5.828 106.152  1.00  0.00     0.119 A 
BRANCH  14  19
ATOM     19  O   UNL     1      32.363   8.698 108.024  1.00  0.00    -0.507 OA
ATOM     20  H   UNL     1      32.868   8.266 108.787  1.00  0.00     0.293 HD
ENDBRANCH  14  19
BRANCH  18  21
ATOM     21  O   UNL     1      30.826   4.461 106.352  1.00  0.00    -0.508 OA
ATOM     22  H   UNL     1      31.318   3.965 107.087  1.00  0.00     0.293 HD
ENDBRANCH  18  21
ENDBRANCH  11  13
ENDBRANCH   2  11
TORSDOF 6
ENDMDL
