MODEL 1
REMARK VINA RESULT:    -6.134      0.000      0.000
REMARK INTER + INTRA:          -6.672
REMARK INTER:                  -6.672
REMARK INTRA:                   0.000
REMARK UNBOUND:                 0.000
REMARK SMILES Cc1cc(O)c2c(c1)C(=O)c1cc(O)cc(O)c1C2=O
REMARK SMILES IDX 1 1 2 2 8 3 7 4 6 5 4 6 3 7 19 8 20 9 18 10 11 11 9 12 10 13
REMARK SMILES IDX 12 14 13 15 15 16 16 17 5 18 17 20 14 22
REMARK H PARENT 5 19 17 21 14 23
REMARK Flexibility Score: inf
ROOT
ATOM      1  C   UNL     1      17.515   8.597  31.607  1.00  0.00     0.044 C 
ATOM      2  C   UNL     1      16.274   8.789  30.785  1.00  0.00    -0.047 A 
ATOM      3  C   UNL     1      16.372   9.143  29.434  1.00  0.00     0.016 A 
ATOM      4  C   UNL     1      15.217   9.289  28.646  1.00  0.00     0.038 A 
ATOM      5  C   UNL     1      13.945   9.069  29.218  1.00  0.00     0.076 A 
ATOM      6  C   UNL     1      13.853   8.685  30.574  1.00  0.00     0.127 A 
ATOM      7  C   UNL     1      15.014   8.544  31.344  1.00  0.00     0.050 A 
ATOM      8  C   UNL     1      12.733   9.267  28.381  1.00  0.00     0.201 C 
ATOM      9  O   UNL     1      11.615   9.436  28.939  1.00  0.00    -0.288 OA
ATOM     10  C   UNL     1      12.854   9.383  26.901  1.00  0.00     0.076 A 
ATOM     11  C   UNL     1      14.128   9.661  26.351  1.00  0.00     0.041 A 
ATOM     12  C   UNL     1      15.328   9.671  27.220  1.00  0.00     0.194 C 
ATOM     13  O   UNL     1      16.452   9.986  26.740  1.00  0.00    -0.289 OA
ATOM     14  C   UNL     1      14.255   9.920  24.975  1.00  0.00     0.059 A 
ATOM     15  C   UNL     1      13.139   9.891  24.141  1.00  0.00     0.120 A 
ATOM     16  C   UNL     1      11.887   9.570  24.669  1.00  0.00     0.093 A 
ATOM     17  C   UNL     1      11.735   9.281  26.028  1.00  0.00     0.131 A 
ENDROOT
BRANCH   6  18
ATOM     18  O   UNL     1      12.611   8.431  31.160  1.00  0.00    -0.507 OA
ATOM     19  H   UNL     1      11.793   8.216  30.602  1.00  0.00     0.293 HD
ENDBRANCH   6  18
BRANCH  17  20
ATOM     20  O   UNL     1      10.472   8.865  26.455  1.00  0.00    -0.507 OA
ATOM     21  H   UNL     1      10.123   7.925  26.343  1.00  0.00     0.293 HD
ENDBRANCH  17  20
BRANCH  15  22
ATOM     22  O   UNL     1      13.287  10.168  22.784  1.00  0.00    -0.508 OA
ATOM     23  H   UNL     1      13.762   9.526  22.160  1.00  0.00     0.293 HD
ENDBRANCH  15  22
TORSDOF 3
ENDMDL
MODEL 2
REMARK VINA RESULT:    -6.032      1.289      3.597
REMARK INTER + INTRA:          -6.561
REMARK INTER:                  -6.561
REMARK INTRA:                   0.000
REMARK UNBOUND:                 0.000
REMARK SMILES Cc1cc(O)c2c(c1)C(=O)c1cc(O)cc(O)c1C2=O
REMARK SMILES IDX 1 1 2 2 8 3 7 4 6 5 4 6 3 7 19 8 20 9 18 10 11 11 9 12 10 13
REMARK SMILES IDX 12 14 13 15 15 16 16 17 5 18 17 20 14 22
REMARK H PARENT 5 19 17 21 14 23
REMARK Flexibility Score: inf
ROOT
ATOM      1  C   UNL     1      18.428   8.943  31.531  1.00  0.00     0.044 C 
ATOM      2  C   UNL     1      17.677   9.176  30.253  1.00  0.00    -0.047 A 
ATOM      3  C   UNL     1      16.288   9.004  30.212  1.00  0.00     0.016 A 
ATOM      4  C   UNL     1      15.569   9.256  29.029  1.00  0.00     0.038 A 
ATOM      5  C   UNL     1      16.251   9.694  27.874  1.00  0.00     0.076 A 
ATOM      6  C   UNL     1      17.649   9.893  27.930  1.00  0.00     0.127 A 
ATOM      7  C   UNL     1      18.348   9.638  29.116  1.00  0.00     0.050 A 
ATOM      8  C   UNL     1      15.482   9.917  26.621  1.00  0.00     0.201 C 
ATOM      9  O   UNL     1      16.091   9.947  25.518  1.00  0.00    -0.288 OA
ATOM     10  C   UNL     1      13.995   9.985  26.657  1.00  0.00     0.076 A 
ATOM     11  C   UNL     1      13.327   9.487  27.801  1.00  0.00     0.041 A 
ATOM     12  C   UNL     1      14.102   9.063  28.991  1.00  0.00     0.194 C 
ATOM     13  O   UNL     1      13.509   8.556  29.982  1.00  0.00    -0.289 OA
ATOM     14  C   UNL     1      11.924   9.401  27.810  1.00  0.00     0.059 A 
ATOM     15  C   UNL     1      11.180   9.818  26.708  1.00  0.00     0.120 A 
ATOM     16  C   UNL     1      11.830  10.356  25.596  1.00  0.00     0.093 A 
ATOM     17  C   UNL     1      13.222  10.477  25.569  1.00  0.00     0.131 A 
ENDROOT
BRANCH   6  18
ATOM     18  O   UNL     1      18.347  10.356  26.812  1.00  0.00    -0.507 OA
ATOM     19  H   UNL     1      18.489  11.345  26.644  1.00  0.00     0.293 HD
ENDBRANCH   6  18
BRANCH  17  20
ATOM     20  O   UNL     1      13.786  11.123  24.466  1.00  0.00    -0.507 OA
ATOM     21  H   UNL     1      14.777  11.142  24.272  1.00  0.00     0.293 HD
ENDBRANCH  17  20
BRANCH  15  22
ATOM     22  O   UNL     1       9.791   9.708  26.734  1.00  0.00    -0.508 OA
ATOM     23  H   UNL     1       9.192  10.496  26.519  1.00  0.00     0.293 HD
ENDBRANCH  15  22
TORSDOF 3
ENDMDL
MODEL 3
REMARK VINA RESULT:    -5.918      1.875      5.914
REMARK INTER + INTRA:          -6.437
REMARK INTER:                  -6.437
REMARK INTRA:                   0.000
REMARK UNBOUND:                 0.000
REMARK SMILES Cc1cc(O)c2c(c1)C(=O)c1cc(O)cc(O)c1C2=O
REMARK SMILES IDX 1 1 2 2 8 3 7 4 6 5 4 6 3 7 19 8 20 9 18 10 11 11 9 12 10 13
REMARK SMILES IDX 12 14 13 15 15 16 16 17 5 18 17 20 14 22
REMARK H PARENT 5 19 17 21 14 23
REMARK Flexibility Score: inf
ROOT
ATOM      1  C   UNL     1       9.601   9.101  27.255  1.00  0.00     0.044 C 
ATOM      2  C   UNL     1      11.060   9.351  27.009  1.00  0.00    -0.047 A 
ATOM      3  C   UNL     1      11.917   9.630  28.080  1.00  0.00     0.016 A 
ATOM      4  C   UNL     1      13.293   9.828  27.864  1.00  0.00     0.038 A 
ATOM      5  C   UNL     1      13.818   9.737  26.557  1.00  0.00     0.076 A 
ATOM      6  C   UNL     1      12.953   9.427  25.484  1.00  0.00     0.127 A 
ATOM      7  C   UNL     1      11.586   9.233  25.718  1.00  0.00     0.050 A 
ATOM      8  C   UNL     1      15.267   9.989  26.342  1.00  0.00     0.201 C 
ATOM      9  O   UNL     1      15.681  10.272  25.185  1.00  0.00    -0.288 OA
ATOM     10  C   UNL     1      16.202  10.024  27.500  1.00  0.00     0.076 A 
ATOM     11  C   UNL     1      15.658  10.174  28.798  1.00  0.00     0.041 A 
ATOM     12  C   UNL     1      14.191  10.131  29.001  1.00  0.00     0.194 C 
ATOM     13  O   UNL     1      13.707  10.334  30.148  1.00  0.00    -0.289 OA
ATOM     14  C   UNL     1      16.515  10.356  29.898  1.00  0.00     0.059 A 
ATOM     15  C   UNL     1      17.898  10.375  29.727  1.00  0.00     0.120 A 
ATOM     16  C   UNL     1      18.441  10.178  28.457  1.00  0.00     0.093 A 
ATOM     17  C   UNL     1      17.616   9.969  27.348  1.00  0.00     0.131 A 
ENDROOT
BRANCH   6  18
ATOM     18  O   UNL     1      13.448   9.300  24.185  1.00  0.00    -0.507 OA
ATOM     19  H   UNL     1      14.355   8.890  23.998  1.00  0.00     0.293 HD
ENDBRANCH   6  18
BRANCH  17  20
ATOM     20  O   UNL     1      18.239   9.674  26.133  1.00  0.00    -0.507 OA
ATOM     21  H   UNL     1      19.087   9.131  26.054  1.00  0.00     0.293 HD
ENDBRANCH  17  20
BRANCH  15  22
ATOM     22  O   UNL     1      18.725  10.573  30.830  1.00  0.00    -0.508 OA
ATOM     23  H   UNL     1      19.146   9.796  31.325  1.00  0.00     0.293 HD
ENDBRANCH  15  22
TORSDOF 3
ENDMDL
MODEL 4
REMARK VINA RESULT:    -5.846      1.336      6.253
REMARK INTER + INTRA:          -6.358
REMARK INTER:                  -6.358
REMARK INTRA:                   0.000
REMARK UNBOUND:                 0.000
REMARK SMILES Cc1cc(O)c2c(c1)C(=O)c1cc(O)cc(O)c1C2=O
REMARK SMILES IDX 1 1 2 2 8 3 7 4 6 5 4 6 3 7 19 8 20 9 18 10 11 11 9 12 10 13
REMARK SMILES IDX 12 14 13 15 15 16 16 17 5 18 17 20 14 22
REMARK H PARENT 5 19 17 21 14 23
REMARK Flexibility Score: inf
ROOT
ATOM      1  C   UNL     1      11.813   9.750  23.275  1.00  0.00     0.044 C 
ATOM      2  C   UNL     1      12.747   9.735  24.449  1.00  0.00    -0.047 A 
ATOM      3  C   UNL     1      12.250   9.530  25.741  1.00  0.00     0.016 A 
ATOM      4  C   UNL     1      13.121   9.477  26.845  1.00  0.00     0.038 A 
ATOM      5  C   UNL     1      14.511   9.624  26.648  1.00  0.00     0.076 A 
ATOM      6  C   UNL     1      15.010   9.803  25.338  1.00  0.00     0.127 A 
ATOM      7  C   UNL     1      14.128   9.852  24.252  1.00  0.00     0.050 A 
ATOM      8  C   UNL     1      15.413   9.606  27.830  1.00  0.00     0.201 C 
ATOM      9  O   UNL     1      16.573  10.089  27.730  1.00  0.00    -0.288 OA
ATOM     10  C   UNL     1      14.912   9.131  29.149  1.00  0.00     0.076 A 
ATOM     11  C   UNL     1      13.513   9.046  29.344  1.00  0.00     0.041 A 
ATOM     12  C   UNL     1      12.587   9.268  28.209  1.00  0.00     0.194 C 
ATOM     13  O   UNL     1      11.340   9.260  28.402  1.00  0.00    -0.289 OA
ATOM     14  C   UNL     1      13.002   8.742  30.619  1.00  0.00     0.059 A 
ATOM     15  C   UNL     1      13.860   8.507  31.691  1.00  0.00     0.120 A 
ATOM     16  C   UNL     1      15.241   8.542  31.493  1.00  0.00     0.093 A 
ATOM     17  C   UNL     1      15.778   8.815  30.232  1.00  0.00     0.131 A 
ENDROOT
BRANCH   6  18
ATOM     18  O   UNL     1      16.382   9.920  25.109  1.00  0.00    -0.507 OA
ATOM     19  H   UNL     1      16.762   9.995  24.173  1.00  0.00     0.293 HD
ENDBRANCH   6  18
BRANCH  17  20
ATOM     20  O   UNL     1      17.166   8.725  30.095  1.00  0.00    -0.507 OA
ATOM     21  H   UNL     1      17.685   7.864  30.189  1.00  0.00     0.293 HD
ENDBRANCH  17  20
BRANCH  15  22
ATOM     22  O   UNL     1      13.330   8.224  32.948  1.00  0.00    -0.508 OA
ATOM     23  H   UNL     1      13.736   8.606  33.793  1.00  0.00     0.293 HD
ENDBRANCH  15  22
TORSDOF 3
ENDMDL
MODEL 5
REMARK VINA RESULT:    -5.770      4.733      8.717
REMARK INTER + INTRA:          -6.276
REMARK INTER:                  -6.276
REMARK INTRA:                   0.000
REMARK UNBOUND:                 0.000
REMARK SMILES Cc1cc(O)c2c(c1)C(=O)c1cc(O)cc(O)c1C2=O
REMARK SMILES IDX 1 1 2 2 8 3 7 4 6 5 4 6 3 7 19 8 20 9 18 10 11 11 9 12 10 13
REMARK SMILES IDX 12 14 13 15 15 16 16 17 5 18 17 20 14 22
REMARK H PARENT 5 19 17 21 14 23
REMARK Flexibility Score: inf
ROOT
ATOM      1  C   UNL     1      15.178  10.094  29.884  1.00  0.00     0.044 C 
ATOM      2  C   UNL     1      16.605   9.833  29.499  1.00  0.00    -0.047 A 
ATOM      3  C   UNL     1      17.514   9.354  30.449  1.00  0.00     0.016 A 
ATOM      4  C   UNL     1      18.844   9.071  30.090  1.00  0.00     0.038 A 
ATOM      5  C   UNL     1      19.266   9.263  28.757  1.00  0.00     0.076 A 
ATOM      6  C   UNL     1      18.337   9.720  27.795  1.00  0.00     0.127 A 
ATOM      7  C   UNL     1      17.017   9.996  28.171  1.00  0.00     0.050 A 
ATOM      8  C   UNL     1      20.686   8.997  28.403  1.00  0.00     0.201 C 
ATOM      9  O   UNL     1      21.165   9.495  27.349  1.00  0.00    -0.288 OA
ATOM     10  C   UNL     1      21.565   8.249  29.343  1.00  0.00     0.076 A 
ATOM     11  C   UNL     1      21.150   8.118  30.690  1.00  0.00     0.041 A 
ATOM     12  C   UNL     1      19.802   8.572  31.102  1.00  0.00     0.194 C 
ATOM     13  O   UNL     1      19.462   8.517  32.316  1.00  0.00    -0.289 OA
ATOM     14  C   UNL     1      22.019   7.546  31.637  1.00  0.00     0.059 A 
ATOM     15  C   UNL     1      23.281   7.091  31.259  1.00  0.00     0.120 A 
ATOM     16  C   UNL     1      23.677   7.173  29.923  1.00  0.00     0.093 A 
ATOM     17  C   UNL     1      22.824   7.713  28.955  1.00  0.00     0.131 A 
ENDROOT
BRANCH   6  18
ATOM     18  O   UNL     1      18.717   9.890  26.463  1.00  0.00    -0.507 OA
ATOM     19  H   UNL     1      18.034   9.948  25.717  1.00  0.00     0.293 HD
ENDBRANCH   6  18
BRANCH  17  20
ATOM     20  O   UNL     1      23.253   7.661  27.627  1.00  0.00    -0.507 OA
ATOM     21  H   UNL     1      23.243   8.454  27.002  1.00  0.00     0.293 HD
ENDBRANCH  17  20
BRANCH  15  22
ATOM     22  O   UNL     1      24.130   6.544  32.219  1.00  0.00    -0.508 OA
ATOM     23  H   UNL     1      25.136   6.548  32.102  1.00  0.00     0.293 HD
ENDBRANCH  15  22
TORSDOF 3
ENDMDL
MODEL 6
REMARK VINA RESULT:    -5.399      1.506      2.482
REMARK INTER + INTRA:          -5.872
REMARK INTER:                  -5.872
REMARK INTRA:                   0.000
REMARK UNBOUND:                 0.000
REMARK SMILES Cc1cc(O)c2c(c1)C(=O)c1cc(O)cc(O)c1C2=O
REMARK SMILES IDX 1 1 2 2 8 3 7 4 6 5 4 6 3 7 19 8 20 9 18 10 11 11 9 12 10 13
REMARK SMILES IDX 12 14 13 15 15 16 16 17 5 18 17 20 14 22
REMARK H PARENT 5 19 17 21 14 23
REMARK Flexibility Score: inf
ROOT
ATOM      1  C   UNL     1      17.201   7.568  34.370  1.00  0.00     0.044 C 
ATOM      2  C   UNL     1      16.264   7.961  33.266  1.00  0.00    -0.047 A 
ATOM      3  C   UNL     1      16.769   8.429  32.047  1.00  0.00     0.016 A 
ATOM      4  C   UNL     1      15.901   8.765  30.993  1.00  0.00     0.038 A 
ATOM      5  C   UNL     1      14.507   8.621  31.160  1.00  0.00     0.076 A 
ATOM      6  C   UNL     1      14.004   8.122  32.382  1.00  0.00     0.127 A 
ATOM      7  C   UNL     1      14.884   7.792  33.421  1.00  0.00     0.050 A 
ATOM      8  C   UNL     1      13.601   9.019  30.050  1.00  0.00     0.201 C 
ATOM      9  O   UNL     1      12.386   9.246  30.294  1.00  0.00    -0.288 OA
ATOM     10  C   UNL     1      14.149   9.262  28.686  1.00  0.00     0.076 A 
ATOM     11  C   UNL     1      15.543   9.460  28.548  1.00  0.00     0.041 A 
ATOM     12  C   UNL     1      16.442   9.266  29.710  1.00  0.00     0.194 C 
ATOM     13  O   UNL     1      17.675   9.511  29.600  1.00  0.00    -0.289 OA
ATOM     14  C   UNL     1      16.076   9.834  27.302  1.00  0.00     0.059 A 
ATOM     15  C   UNL     1      15.246   9.997  26.194  1.00  0.00     0.120 A 
ATOM     16  C   UNL     1      13.877   9.755  26.313  1.00  0.00     0.093 A 
ATOM     17  C   UNL     1      13.322   9.356  27.532  1.00  0.00     0.131 A 
ENDROOT
BRANCH   6  18
ATOM     18  O   UNL     1      12.632   7.940  32.567  1.00  0.00    -0.507 OA
ATOM     19  H   UNL     1      12.009   8.721  32.735  1.00  0.00     0.293 HD
ENDBRANCH   6  18
BRANCH  17  20
ATOM     20  O   UNL     1      11.964   9.031  27.541  1.00  0.00    -0.507 OA
ATOM     21  H   UNL     1      11.418   8.877  26.706  1.00  0.00     0.293 HD
ENDBRANCH  17  20
BRANCH  15  22
ATOM     22  O   UNL     1      15.796  10.385  24.974  1.00  0.00    -0.508 OA
ATOM     23  H   UNL     1      16.030   9.707  24.258  1.00  0.00     0.293 HD
ENDBRANCH  15  22
TORSDOF 3
ENDMDL
MODEL 7
REMARK VINA RESULT:    -5.377      2.572      6.082
REMARK INTER + INTRA:          -5.849
REMARK INTER:                  -5.849
REMARK INTRA:                   0.000
REMARK UNBOUND:                 0.000
REMARK SMILES Cc1cc(O)c2c(c1)C(=O)c1cc(O)cc(O)c1C2=O
REMARK SMILES IDX 1 1 2 2 8 3 7 4 6 5 4 6 3 7 19 8 20 9 18 10 11 11 9 12 10 13
REMARK SMILES IDX 12 14 13 15 15 16 16 17 5 18 17 20 14 22
REMARK H PARENT 5 19 17 21 14 23
REMARK Flexibility Score: inf
ROOT
ATOM      1  C   UNL     1      12.319   9.260  23.511  1.00  0.00     0.044 C 
ATOM      2  C   UNL     1      12.523   9.222  24.997  1.00  0.00    -0.047 A 
ATOM      3  C   UNL     1      11.586   9.815  25.851  1.00  0.00     0.016 A 
ATOM      4  C   UNL     1      11.748   9.753  27.247  1.00  0.00     0.038 A 
ATOM      5  C   UNL     1      12.862   9.081  27.794  1.00  0.00     0.076 A 
ATOM      6  C   UNL     1      13.790   8.460  26.928  1.00  0.00     0.127 A 
ATOM      7  C   UNL     1      13.612   8.531  25.541  1.00  0.00     0.050 A 
ATOM      8  C   UNL     1      13.040   9.060  29.270  1.00  0.00     0.201 C 
ATOM      9  O   UNL     1      14.175   8.800  29.753  1.00  0.00    -0.288 OA
ATOM     10  C   UNL     1      11.919   9.458  30.166  1.00  0.00     0.076 A 
ATOM     11  C   UNL     1      10.839  10.182  29.608  1.00  0.00     0.041 A 
ATOM     12  C   UNL     1      10.757  10.390  28.144  1.00  0.00     0.194 C 
ATOM     13  O   UNL     1       9.830  11.094  27.657  1.00  0.00    -0.289 OA
ATOM     14  C   UNL     1       9.836  10.699  30.448  1.00  0.00     0.059 A 
ATOM     15  C   UNL     1       9.885  10.491  31.825  1.00  0.00     0.120 A 
ATOM     16  C   UNL     1      10.922   9.736  32.375  1.00  0.00     0.093 A 
ATOM     17  C   UNL     1      11.919   9.188  31.562  1.00  0.00     0.131 A 
ENDROOT
BRANCH   6  18
ATOM     18  O   UNL     1      14.885   7.761  27.440  1.00  0.00    -0.507 OA
ATOM     19  H   UNL     1      15.397   7.089  26.882  1.00  0.00     0.293 HD
ENDBRANCH   6  18
BRANCH  17  20
ATOM     20  O   UNL     1      12.859   8.357  32.177  1.00  0.00    -0.507 OA
ATOM     21  H   UNL     1      12.827   7.348  32.139  1.00  0.00     0.293 HD
ENDBRANCH  17  20
BRANCH  15  22
ATOM     22  O   UNL     1       8.889  11.028  32.638  1.00  0.00    -0.508 OA
ATOM     23  H   UNL     1       8.976  11.951  33.044  1.00  0.00     0.293 HD
ENDBRANCH  15  22
TORSDOF 3
ENDMDL
MODEL 8
REMARK VINA RESULT:    -5.345      3.175      6.864
REMARK INTER + INTRA:          -5.814
REMARK INTER:                  -5.814
REMARK INTRA:                   0.000
REMARK UNBOUND:                 0.000
REMARK SMILES Cc1cc(O)c2c(c1)C(=O)c1cc(O)cc(O)c1C2=O
REMARK SMILES IDX 1 1 2 2 8 3 7 4 6 5 4 6 3 7 19 8 20 9 18 10 11 11 9 12 10 13
REMARK SMILES IDX 12 14 13 15 15 16 16 17 5 18 17 20 14 22
REMARK H PARENT 5 19 17 21 14 23
REMARK Flexibility Score: inf
ROOT
ATOM      1  C   UNL     1      12.928   8.770  31.168  1.00  0.00     0.044 C 
ATOM      2  C   UNL     1      14.215   9.018  30.436  1.00  0.00    -0.047 A 
ATOM      3  C   UNL     1      15.440   8.855  31.092  1.00  0.00     0.016 A 
ATOM      4  C   UNL     1      16.653   9.048  30.406  1.00  0.00     0.038 A 
ATOM      5  C   UNL     1      16.636   9.403  29.040  1.00  0.00     0.076 A 
ATOM      6  C   UNL     1      15.396   9.539  28.376  1.00  0.00     0.127 A 
ATOM      7  C   UNL     1      14.200   9.342  29.075  1.00  0.00     0.050 A 
ATOM      8  C   UNL     1      17.925   9.644  28.340  1.00  0.00     0.201 C 
ATOM      9  O   UNL     1      17.932  10.299  27.264  1.00  0.00    -0.288 OA
ATOM     10  C   UNL     1      19.208   9.217  28.965  1.00  0.00     0.076 A 
ATOM     11  C   UNL     1      19.215   8.922  30.349  1.00  0.00     0.041 A 
ATOM     12  C   UNL     1      17.944   8.882  31.109  1.00  0.00     0.194 C 
ATOM     13  O   UNL     1      17.961   8.686  32.356  1.00  0.00    -0.289 OA
ATOM     14  C   UNL     1      20.433   8.657  31.001  1.00  0.00     0.059 A 
ATOM     15  C   UNL     1      21.634   8.667  30.295  1.00  0.00     0.120 A 
ATOM     16  C   UNL     1      21.628   8.910  28.920  1.00  0.00     0.093 A 
ATOM     17  C   UNL     1      20.430   9.150  28.240  1.00  0.00     0.131 A 
ENDROOT
BRANCH   6  18
ATOM     18  O   UNL     1      15.348   9.859  27.017  1.00  0.00    -0.507 OA
ATOM     19  H   UNL     1      14.493   9.779  26.481  1.00  0.00     0.293 HD
ENDBRANCH   6  18
BRANCH  17  20
ATOM     20  O   UNL     1      20.499   9.277  26.851  1.00  0.00    -0.507 OA
ATOM     21  H   UNL     1      20.445   8.497  26.212  1.00  0.00     0.293 HD
ENDBRANCH  17  20
BRANCH  15  22
ATOM     22  O   UNL     1      22.829   8.418  30.967  1.00  0.00    -0.508 OA
ATOM     23  H   UNL     1      23.227   9.093  31.608  1.00  0.00     0.293 HD
ENDBRANCH  15  22
TORSDOF 3
ENDMDL
MODEL 9
REMARK VINA RESULT:    -5.324      2.149      6.910
REMARK INTER + INTRA:          -5.791
REMARK INTER:                  -5.791
REMARK INTRA:                   0.000
REMARK UNBOUND:                 0.000
REMARK SMILES Cc1cc(O)c2c(c1)C(=O)c1cc(O)cc(O)c1C2=O
REMARK SMILES IDX 1 1 2 2 8 3 7 4 6 5 4 6 3 7 19 8 20 9 18 10 11 11 9 12 10 13
REMARK SMILES IDX 12 14 13 15 15 16 16 17 5 18 17 20 14 22
REMARK H PARENT 5 19 17 21 14 23
REMARK Flexibility Score: inf
ROOT
ATOM      1  C   UNL     1      13.520   9.589  25.194  1.00  0.00     0.044 C 
ATOM      2  C   UNL     1      14.497   9.621  26.332  1.00  0.00    -0.047 A 
ATOM      3  C   UNL     1      14.106   9.201  27.609  1.00  0.00     0.016 A 
ATOM      4  C   UNL     1      15.024   9.191  28.674  1.00  0.00     0.038 A 
ATOM      5  C   UNL     1      16.357   9.600  28.454  1.00  0.00     0.076 A 
ATOM      6  C   UNL     1      16.754   9.996  27.157  1.00  0.00     0.127 A 
ATOM      7  C   UNL     1      15.826   9.999  26.108  1.00  0.00     0.050 A 
ATOM      8  C   UNL     1      17.304   9.623  29.599  1.00  0.00     0.201 C 
ATOM      9  O   UNL     1      18.358  10.310  29.518  1.00  0.00    -0.288 OA
ATOM     10  C   UNL     1      16.956   8.935  30.874  1.00  0.00     0.076 A 
ATOM     11  C   UNL     1      15.603   8.586  31.099  1.00  0.00     0.041 A 
ATOM     12  C   UNL     1      14.600   8.754  30.023  1.00  0.00     0.194 C 
ATOM     13  O   UNL     1      13.384   8.507  30.250  1.00  0.00    -0.289 OA
ATOM     14  C   UNL     1      15.214   8.069  32.348  1.00  0.00     0.059 A 
ATOM     15  C   UNL     1      16.151   7.881  33.363  1.00  0.00     0.120 A 
ATOM     16  C   UNL     1      17.494   8.179  33.129  1.00  0.00     0.093 A 
ATOM     17  C   UNL     1      17.915   8.669  31.890  1.00  0.00     0.131 A 
ENDROOT
BRANCH   6  18
ATOM     18  O   UNL     1      18.073  10.376  26.901  1.00  0.00    -0.507 OA
ATOM     19  H   UNL     1      18.356  11.349  26.893  1.00  0.00     0.293 HD
ENDBRANCH   6  18
BRANCH  17  20
ATOM     20  O   UNL     1      19.289   8.839  31.703  1.00  0.00    -0.507 OA
ATOM     21  H   UNL     1      19.822   8.366  30.988  1.00  0.00     0.293 HD
ENDBRANCH  17  20
BRANCH  15  22
ATOM     22  O   UNL     1      15.737   7.384  34.597  1.00  0.00    -0.508 OA
ATOM     23  H   UNL     1      15.216   7.954  35.252  1.00  0.00     0.293 HD
ENDBRANCH  15  22
TORSDOF 3
ENDMDL
