MODEL 1
REMARK VINA RESULT:    -2.811      0.000      0.000
REMARK INTER + INTRA:          -3.548
REMARK INTER:                  -3.469
REMARK INTRA:                  -0.080
REMARK UNBOUND:                -0.080
REMARK SMILES CCCCCC=O
REMARK SMILES IDX 4 1 3 2 2 3 1 4 5 5 6 6 7 7
REMARK H PARENT
REMARK Flexibility Score: inf
ROOT
ATOM      1  C   UNL     1      -0.226  -8.331  12.171  1.00  0.00     0.008 C 
ENDROOT
BRANCH   1   2
ATOM      2  C   UNL     1      -1.588  -8.151  12.861  1.00  0.00     0.000 C 
BRANCH   2   3
ATOM      3  C   UNL     1      -2.495  -9.380  12.706  1.00  0.00    -0.003 C 
ATOM      4  C   UNL     1      -3.955  -8.968  12.542  1.00  0.00     0.004 C 
ENDBRANCH   2   3
ENDBRANCH   1   2
BRANCH   1   5
ATOM      5  C   UNL     1       0.819  -7.315  12.653  1.00  0.00     0.072 C 
BRANCH   5   6
ATOM      6  C   UNL     1       0.352  -6.601  13.888  1.00  0.00     0.224 C 
ATOM      7  O   UNL     1       0.530  -5.400  13.999  1.00  0.00    -0.303 OA
ENDBRANCH   5   6
ENDBRANCH   1   5
TORSDOF 4
ENDMDL
MODEL 2
REMARK VINA RESULT:    -2.759      1.913      3.321
REMARK INTER + INTRA:          -3.483
REMARK INTER:                  -3.346
REMARK INTRA:                  -0.137
REMARK UNBOUND:                -0.080
REMARK SMILES CCCCCC=O
REMARK SMILES IDX 4 1 3 2 2 3 1 4 5 5 6 6 7 7
REMARK H PARENT
REMARK Flexibility Score: inf
ROOT
ATOM      1  C   UNL     1      -0.351  -7.908  12.105  1.00  0.00     0.008 C 
ENDROOT
BRANCH   1   2
ATOM      2  C   UNL     1       0.599  -9.108  11.961  1.00  0.00     0.000 C 
BRANCH   2   3
ATOM      3  C   UNL     1       1.622  -8.919  10.832  1.00  0.00    -0.003 C 
ATOM      4  C   UNL     1       2.668  -7.874  11.207  1.00  0.00     0.004 C 
ENDBRANCH   2   3
ENDBRANCH   1   2
BRANCH   1   5
ATOM      5  C   UNL     1      -0.598  -7.522  13.570  1.00  0.00     0.072 C 
BRANCH   5   6
ATOM      6  C   UNL     1       0.475  -6.604  14.078  1.00  0.00     0.224 C 
ATOM      7  O   UNL     1       0.324  -5.396  14.008  1.00  0.00    -0.303 OA
ENDBRANCH   5   6
ENDBRANCH   1   5
TORSDOF 4
ENDMDL
MODEL 3
REMARK VINA RESULT:    -2.758      3.392      5.535
REMARK INTER + INTRA:          -3.483
REMARK INTER:                  -3.408
REMARK INTRA:                  -0.074
REMARK UNBOUND:                -0.080
REMARK SMILES CCCCCC=O
REMARK SMILES IDX 4 1 3 2 2 3 1 4 5 5 6 6 7 7
REMARK H PARENT
REMARK Flexibility Score: inf
ROOT
ATOM      1  C   UNL     1       2.787  -6.695  14.835  1.00  0.00     0.008 C 
ENDROOT
BRANCH   1   2
ATOM      2  C   UNL     1       2.909  -7.056  16.324  1.00  0.00     0.000 C 
BRANCH   2   3
ATOM      3  C   UNL     1       4.298  -7.602  16.687  1.00  0.00    -0.003 C 
ATOM      4  C   UNL     1       4.203  -8.664  17.779  1.00  0.00     0.004 C 
ENDBRANCH   2   3
ENDBRANCH   1   2
BRANCH   1   5
ATOM      5  C   UNL     1       1.607  -7.401  14.151  1.00  0.00     0.072 C 
BRANCH   5   6
ATOM      6  C   UNL     1       0.368  -6.555  14.198  1.00  0.00     0.224 C 
ATOM      7  O   UNL     1       0.450  -5.348  14.039  1.00  0.00    -0.303 OA
ENDBRANCH   5   6
ENDBRANCH   1   5
TORSDOF 4
ENDMDL
MODEL 4
REMARK VINA RESULT:    -2.735      4.077      5.258
REMARK INTER + INTRA:          -3.454
REMARK INTER:                  -3.420
REMARK INTRA:                  -0.034
REMARK UNBOUND:                -0.080
REMARK SMILES CCCCCC=O
REMARK SMILES IDX 4 1 3 2 2 3 1 4 5 5 6 6 7 7
REMARK H PARENT
REMARK Flexibility Score: inf
ROOT
ATOM      1  C   UNL     1      -1.321  -6.105  16.601  1.00  0.00     0.008 C 
ENDROOT
BRANCH   1   2
ATOM      2  C   UNL     1      -2.461  -5.284  17.222  1.00  0.00     0.000 C 
BRANCH   2   3
ATOM      3  C   UNL     1      -2.351  -5.183  18.751  1.00  0.00    -0.003 C 
ATOM      4  C   UNL     1      -2.845  -3.828  19.249  1.00  0.00     0.004 C 
ENDBRANCH   2   3
ENDBRANCH   1   2
BRANCH   1   5
ATOM      5  C   UNL     1      -1.506  -6.326  15.092  1.00  0.00     0.072 C 
BRANCH   5   6
ATOM      6  C   UNL     1      -0.182  -6.448  14.396  1.00  0.00     0.224 C 
ATOM      7  O   UNL     1       0.392  -5.447  14.002  1.00  0.00    -0.303 OA
ENDBRANCH   5   6
ENDBRANCH   1   5
TORSDOF 4
ENDMDL
MODEL 5
REMARK VINA RESULT:    -2.717      2.907      5.233
REMARK INTER + INTRA:          -3.432
REMARK INTER:                  -3.369
REMARK INTRA:                  -0.063
REMARK UNBOUND:                -0.080
REMARK SMILES CCCCCC=O
REMARK SMILES IDX 4 1 3 2 2 3 1 4 5 5 6 6 7 7
REMARK H PARENT
REMARK Flexibility Score: inf
ROOT
ATOM      1  C   UNL     1       2.700  -7.533  12.450  1.00  0.00     0.008 C 
ENDROOT
BRANCH   1   2
ATOM      2  C   UNL     1       3.213  -7.215  11.036  1.00  0.00     0.000 C 
BRANCH   2   3
ATOM      3  C   UNL     1       4.745  -7.130  10.969  1.00  0.00    -0.003 C 
ATOM      4  C   UNL     1       5.275  -6.035  11.890  1.00  0.00     0.004 C 
ENDBRANCH   2   3
ENDBRANCH   1   2
BRANCH   1   5
ATOM      5  C   UNL     1       1.187  -7.312  12.593  1.00  0.00     0.072 C 
BRANCH   5   6
ATOM      6  C   UNL     1       0.851  -6.707  13.925  1.00  0.00     0.224 C 
ATOM      7  O   UNL     1       0.483  -5.547  13.990  1.00  0.00    -0.303 OA
ENDBRANCH   5   6
ENDBRANCH   1   5
TORSDOF 4
ENDMDL
MODEL 6
REMARK VINA RESULT:    -2.650      2.230      4.496
REMARK INTER + INTRA:          -3.349
REMARK INTER:                  -3.267
REMARK INTRA:                  -0.082
REMARK UNBOUND:                -0.080
REMARK SMILES CCCCCC=O
REMARK SMILES IDX 4 1 3 2 2 3 1 4 5 5 6 6 7 7
REMARK H PARENT
REMARK Flexibility Score: inf
ROOT
ATOM      1  C   UNL     1       0.949  -7.216  12.925  1.00  0.00     0.008 C 
ENDROOT
BRANCH   1   2
ATOM      2  C   UNL     1       2.431  -7.535  12.674  1.00  0.00     0.000 C 
BRANCH   2   3
ATOM      3  C   UNL     1       2.734  -7.806  11.193  1.00  0.00    -0.003 C 
ATOM      4  C   UNL     1       3.866  -6.913  10.692  1.00  0.00     0.004 C 
ENDBRANCH   2   3
ENDBRANCH   1   2
BRANCH   1   5
ATOM      5  C   UNL     1       0.013  -7.968  11.968  1.00  0.00     0.072 C 
BRANCH   5   6
ATOM      6  C   UNL     1      -1.385  -8.028  12.513  1.00  0.00     0.224 C 
ATOM      7  O   UNL     1      -2.121  -7.062  12.405  1.00  0.00    -0.303 OA
ENDBRANCH   5   6
ENDBRANCH   1   5
TORSDOF 4
ENDMDL
MODEL 7
REMARK VINA RESULT:    -2.600      2.355      3.825
REMARK INTER + INTRA:          -3.287
REMARK INTER:                  -3.193
REMARK INTRA:                  -0.095
REMARK UNBOUND:                -0.080
REMARK SMILES CCCCCC=O
REMARK SMILES IDX 4 1 3 2 2 3 1 4 5 5 6 6 7 7
REMARK H PARENT
REMARK Flexibility Score: inf
ROOT
ATOM      1  C   UNL     1      -3.513 -10.199  13.452  1.00  0.00     0.008 C 
ENDROOT
BRANCH   1   2
ATOM      2  C   UNL     1      -4.988 -10.556  13.696  1.00  0.00     0.000 C 
BRANCH   2   3
ATOM      3  C   UNL     1      -5.931  -9.367  13.456  1.00  0.00    -0.003 C 
ATOM      4  C   UNL     1      -7.110  -9.396  14.424  1.00  0.00     0.004 C 
ENDBRANCH   2   3
ENDBRANCH   1   2
BRANCH   1   5
ATOM      5  C   UNL     1      -3.343  -9.010  12.496  1.00  0.00     0.072 C 
BRANCH   5   6
ATOM      6  C   UNL     1      -2.127  -8.203  12.846  1.00  0.00     0.224 C 
ATOM      7  O   UNL     1      -1.787  -7.275  12.132  1.00  0.00    -0.303 OA
ENDBRANCH   5   6
ENDBRANCH   1   5
TORSDOF 4
ENDMDL
MODEL 8
REMARK VINA RESULT:    -2.563      8.321      9.772
REMARK INTER + INTRA:          -3.241
REMARK INTER:                  -3.128
REMARK INTRA:                  -0.113
REMARK UNBOUND:                -0.080
REMARK SMILES CCCCCC=O
REMARK SMILES IDX 4 1 3 2 2 3 1 4 5 5 6 6 7 7
REMARK H PARENT
REMARK Flexibility Score: inf
ROOT
ATOM      1  C   UNL     1      -8.898  -4.158  11.856  1.00  0.00     0.008 C 
ENDROOT
BRANCH   1   2
ATOM      2  C   UNL     1     -10.309  -4.217  11.248  1.00  0.00     0.000 C 
BRANCH   2   3
ATOM      3  C   UNL     1     -10.343  -3.736   9.790  1.00  0.00    -0.003 C 
ATOM      4  C   UNL     1      -9.980  -2.257   9.690  1.00  0.00     0.004 C 
ENDBRANCH   2   3
ENDBRANCH   1   2
BRANCH   1   5
ATOM      5  C   UNL     1      -8.442  -5.511  12.421  1.00  0.00     0.072 C 
BRANCH   5   6
ATOM      6  C   UNL     1      -9.387  -6.609  12.029  1.00  0.00     0.224 C 
ATOM      7  O   UNL     1      -9.010  -7.498  11.284  1.00  0.00    -0.303 OA
ENDBRANCH   5   6
ENDBRANCH   1   5
TORSDOF 4
ENDMDL
MODEL 9
REMARK VINA RESULT:    -2.543      5.887      7.456
REMARK INTER + INTRA:          -3.218
REMARK INTER:                  -2.979
REMARK INTRA:                  -0.238
REMARK UNBOUND:                -0.080
REMARK SMILES CCCCCC=O
REMARK SMILES IDX 4 1 3 2 2 3 1 4 5 5 6 6 7 7
REMARK H PARENT
REMARK Flexibility Score: inf
ROOT
ATOM      1  C   UNL     1      -6.739  -9.740  15.410  1.00  0.00     0.008 C 
ENDROOT
BRANCH   1   2
ATOM      2  C   UNL     1      -5.814 -10.362  14.352  1.00  0.00     0.000 C 
BRANCH   2   3
ATOM      3  C   UNL     1      -5.681  -9.487  13.096  1.00  0.00    -0.003 C 
ATOM      4  C   UNL     1      -5.507  -8.017  13.466  1.00  0.00     0.004 C 
ENDBRANCH   2   3
ENDBRANCH   1   2
BRANCH   1   5
ATOM      5  C   UNL     1      -8.216 -10.092  15.183  1.00  0.00     0.072 C 
BRANCH   5   6
ATOM      6  C   UNL     1      -8.999  -8.890  14.743  1.00  0.00     0.224 C 
ATOM      7  O   UNL     1      -9.197  -8.695  13.555  1.00  0.00    -0.303 OA
ENDBRANCH   5   6
ENDBRANCH   1   5
TORSDOF 4
ENDMDL
