MODEL 1
REMARK VINA RESULT:    -3.222      0.000      0.000
REMARK INTER + INTRA:          -5.045
REMARK INTER:                  -4.353
REMARK INTRA:                  -0.693
REMARK UNBOUND:                -0.693
REMARK SMILES C[C@@H](O)[C@H](O)[C@@H](O)[C@H](O)C=O
REMARK SMILES IDX 4 1 2 2 1 3 3 4 6 6 8 7 10 8 11 9 9 10 7 12 5 14
REMARK H PARENT 3 5 9 11 7 13 5 15
REMARK Flexibility Score: inf
ROOT
ATOM      1  C   UNL     1      59.611  27.901  50.122  1.00  0.00     0.174 C 
ENDROOT
BRANCH   1   2
ATOM      2  C   UNL     1      58.997  26.496  50.368  1.00  0.00     0.142 C 
ATOM      3  C   UNL     1      57.472  26.533  50.552  1.00  0.00     0.041 C 
BRANCH   2   4
ATOM      4  O   UNL     1      59.323  25.628  49.310  1.00  0.00    -0.391 OA
ATOM      5  H   UNL     1      60.105  25.087  49.597  1.00  0.00     0.211 HD
ENDBRANCH   2   4
ENDBRANCH   1   2
BRANCH   1   6
ATOM      6  C   UNL     1      61.145  27.940  50.370  1.00  0.00     0.181 C 
BRANCH   6   7
ATOM      7  C   UNL     1      61.650  29.346  50.791  1.00  0.00     0.209 C 
BRANCH   7   8
ATOM      8  C   UNL     1      63.132  29.468  50.580  1.00  0.00     0.258 C 
ATOM      9  O   UNL     1      63.576  29.868  49.516  1.00  0.00    -0.300 OA
ENDBRANCH   7   8
BRANCH   7  10
ATOM     10  O   UNL     1      61.017  30.331  50.016  1.00  0.00    -0.383 OA
ATOM     11  H   UNL     1      60.845  29.933  49.123  1.00  0.00     0.211 HD
ENDBRANCH   7  10
ENDBRANCH   6   7
BRANCH   6  12
ATOM     12  O   UNL     1      61.846  27.487  49.237  1.00  0.00    -0.387 OA
ATOM     13  H   UNL     1      62.572  28.138  49.052  1.00  0.00     0.211 HD
ENDBRANCH   6  12
ENDBRANCH   1   6
BRANCH   1  14
ATOM     14  O   UNL     1      59.344  28.296  48.799  1.00  0.00    -0.388 OA
ATOM     15  H   UNL     1      60.128  28.818  48.484  1.00  0.00     0.211 HD
ENDBRANCH   1  14
TORSDOF 8
ENDMDL
MODEL 2
REMARK VINA RESULT:    -3.140     13.644     14.906
REMARK INTER + INTRA:          -4.934
REMARK INTER:                  -4.208
REMARK INTRA:                  -0.726
REMARK UNBOUND:                -0.693
REMARK SMILES C[C@@H](O)[C@H](O)[C@@H](O)[C@H](O)C=O
REMARK SMILES IDX 4 1 2 2 1 3 3 4 6 6 8 7 10 8 11 9 9 10 7 12 5 14
REMARK H PARENT 3 5 9 11 7 13 5 15
REMARK Flexibility Score: inf
ROOT
ATOM      1  C   UNL     1      55.955  25.870  62.441  1.00  0.00     0.174 C 
ENDROOT
BRANCH   1   2
ATOM      2  C   UNL     1      57.268  26.083  61.639  1.00  0.00     0.142 C 
ATOM      3  C   UNL     1      57.179  27.252  60.646  1.00  0.00     0.041 C 
BRANCH   2   4
ATOM      4  O   UNL     1      58.349  26.288  62.514  1.00  0.00    -0.391 OA
ATOM      5  H   UNL     1      58.025  26.856  63.262  1.00  0.00     0.211 HD
ENDBRANCH   2   4
ENDBRANCH   1   2
BRANCH   1   6
ATOM      6  C   UNL     1      55.808  24.420  62.982  1.00  0.00     0.181 C 
BRANCH   6   7
ATOM      7  C   UNL     1      54.677  24.283  64.035  1.00  0.00     0.209 C 
BRANCH   7   8
ATOM      8  C   UNL     1      54.139  22.881  64.064  1.00  0.00     0.258 C 
ATOM      9  O   UNL     1      54.815  21.948  63.663  1.00  0.00    -0.300 OA
ENDBRANCH   7   8
BRANCH   7  10
ATOM     10  O   UNL     1      55.176  24.584  65.312  1.00  0.00    -0.383 OA
ATOM     11  H   UNL     1      55.024  23.784  65.881  1.00  0.00     0.211 HD
ENDBRANCH   7  10
ENDBRANCH   6   7
BRANCH   6  12
ATOM     12  O   UNL     1      57.028  23.958  63.511  1.00  0.00    -0.387 OA
ATOM     13  H   UNL     1      56.999  22.966  63.514  1.00  0.00     0.211 HD
ENDBRANCH   6  12
ENDBRANCH   1   6
BRANCH   1  14
ATOM     14  O   UNL     1      55.922  26.773  63.519  1.00  0.00    -0.388 OA
ATOM     15  H   UNL     1      56.818  27.197  63.575  1.00  0.00     0.211 HD
ENDBRANCH   1  14
TORSDOF 8
ENDMDL
MODEL 3
REMARK VINA RESULT:    -3.134      9.331     10.994
REMARK INTER + INTRA:          -4.926
REMARK INTER:                  -3.979
REMARK INTRA:                  -0.947
REMARK UNBOUND:                -0.693
REMARK SMILES C[C@@H](O)[C@H](O)[C@@H](O)[C@H](O)C=O
REMARK SMILES IDX 4 1 2 2 1 3 3 4 6 6 8 7 10 8 11 9 9 10 7 12 5 14
REMARK H PARENT 3 5 9 11 7 13 5 15
REMARK Flexibility Score: inf
ROOT
ATOM      1  C   UNL     1      57.851  17.287  49.990  1.00  0.00     0.174 C 
ENDROOT
BRANCH   1   2
ATOM      2  C   UNL     1      58.507  16.078  49.268  1.00  0.00     0.142 C 
ATOM      3  C   UNL     1      58.028  15.916  47.818  1.00  0.00     0.041 C 
BRANCH   2   4
ATOM      4  O   UNL     1      59.908  16.196  49.292  1.00  0.00    -0.391 OA
ATOM      5  H   UNL     1      60.287  15.317  49.027  1.00  0.00     0.211 HD
ENDBRANCH   2   4
ENDBRANCH   1   2
BRANCH   1   6
ATOM      6  C   UNL     1      58.087  17.272  51.526  1.00  0.00     0.181 C 
BRANCH   6   7
ATOM      7  C   UNL     1      57.193  18.291  52.281  1.00  0.00     0.209 C 
BRANCH   7   8
ATOM      8  C   UNL     1      58.010  19.439  52.802  1.00  0.00     0.258 C 
ATOM      9  O   UNL     1      58.704  20.099  52.047  1.00  0.00    -0.300 OA
ENDBRANCH   7   8
BRANCH   7  10
ATOM     10  O   UNL     1      56.221  18.809  51.411  1.00  0.00    -0.383 OA
ATOM     11  H   UNL     1      55.554  18.090  51.257  1.00  0.00     0.211 HD
ENDBRANCH   7  10
ENDBRANCH   6   7
BRANCH   6  12
ATOM     12  O   UNL     1      59.444  17.496  51.825  1.00  0.00    -0.387 OA
ATOM     13  H   UNL     1      59.553  18.464  52.019  1.00  0.00     0.211 HD
ENDBRANCH   6  12
ENDBRANCH   1   6
BRANCH   1  14
ATOM     14  O   UNL     1      58.366  18.480  49.452  1.00  0.00    -0.388 OA
ATOM     15  H   UNL     1      59.245  18.264  49.045  1.00  0.00     0.211 HD
ENDBRANCH   1  14
TORSDOF 8
ENDMDL
MODEL 4
REMARK VINA RESULT:    -3.130      0.905      4.590
REMARK INTER + INTRA:          -4.921
REMARK INTER:                  -4.249
REMARK INTRA:                  -0.672
REMARK UNBOUND:                -0.693
REMARK SMILES C[C@@H](O)[C@H](O)[C@@H](O)[C@H](O)C=O
REMARK SMILES IDX 4 1 2 2 1 3 3 4 6 6 8 7 10 8 11 9 9 10 7 12 5 14
REMARK H PARENT 3 5 9 11 7 13 5 15
REMARK Flexibility Score: inf
ROOT
ATOM      1  C   UNL     1      61.147  27.937  50.408  1.00  0.00     0.174 C 
ENDROOT
BRANCH   1   2
ATOM      2  C   UNL     1      61.635  29.336  50.872  1.00  0.00     0.142 C 
ATOM      3  C   UNL     1      63.167  29.448  50.923  1.00  0.00     0.041 C 
BRANCH   2   4
ATOM      4  O   UNL     1      61.117  30.338  50.033  1.00  0.00    -0.391 OA
ATOM      5  H   UNL     1      60.486  30.884  50.573  1.00  0.00     0.211 HD
ENDBRANCH   2   4
ENDBRANCH   1   2
BRANCH   1   6
ATOM      6  C   UNL     1      59.617  27.894  50.132  1.00  0.00     0.181 C 
BRANCH   6   7
ATOM      7  C   UNL     1      58.998  26.496  50.393  1.00  0.00     0.209 C 
BRANCH   7   8
ATOM      8  C   UNL     1      57.503  26.583  50.502  1.00  0.00     0.258 C 
ATOM      9  O   UNL     1      56.937  27.662  50.427  1.00  0.00    -0.300 OA
ENDBRANCH   7   8
BRANCH   7  10
ATOM     10  O   UNL     1      59.308  25.631  49.331  1.00  0.00    -0.383 OA
ATOM     11  H   UNL     1      60.296  25.634  49.231  1.00  0.00     0.211 HD
ENDBRANCH   7  10
ENDBRANCH   6   7
BRANCH   6  12
ATOM     12  O   UNL     1      59.336  28.316  48.819  1.00  0.00    -0.387 OA
ATOM     13  H   UNL     1      60.200  28.400  48.337  1.00  0.00     0.211 HD
ENDBRANCH   6  12
ENDBRANCH   1   6
BRANCH   1  14
ATOM     14  O   UNL     1      61.840  27.570  49.241  1.00  0.00    -0.388 OA
ATOM     15  H   UNL     1      62.530  28.264  49.078  1.00  0.00     0.211 HD
ENDBRANCH   1  14
TORSDOF 8
ENDMDL
MODEL 5
REMARK VINA RESULT:    -3.124      3.053      4.214
REMARK INTER + INTRA:          -4.912
REMARK INTER:                  -4.231
REMARK INTRA:                  -0.682
REMARK UNBOUND:                -0.693
REMARK SMILES C[C@@H](O)[C@H](O)[C@@H](O)[C@H](O)C=O
REMARK SMILES IDX 4 1 2 2 1 3 3 4 6 6 8 7 10 8 11 9 9 10 7 12 5 14
REMARK H PARENT 3 5 9 11 7 13 5 15
REMARK Flexibility Score: inf
ROOT
ATOM      1  C   UNL     1      63.510  28.409  49.643  1.00  0.00     0.174 C 
ENDROOT
BRANCH   1   2
ATOM      2  C   UNL     1      64.487  28.162  48.460  1.00  0.00     0.142 C 
ATOM      3  C   UNL     1      65.026  26.724  48.421  1.00  0.00     0.041 C 
BRANCH   2   4
ATOM      4  O   UNL     1      63.861  28.465  47.238  1.00  0.00    -0.391 OA
ATOM      5  H   UNL     1      64.212  29.342  46.932  1.00  0.00     0.211 HD
ENDBRANCH   2   4
ENDBRANCH   1   2
BRANCH   1   6
ATOM      6  C   UNL     1      63.397  29.911  50.027  1.00  0.00     0.181 C 
BRANCH   6   7
ATOM      7  C   UNL     1      62.119  30.227  50.847  1.00  0.00     0.209 C 
BRANCH   7   8
ATOM      8  C   UNL     1      62.213  31.583  51.486  1.00  0.00     0.258 C 
ATOM      9  O   UNL     1      62.431  32.575  50.809  1.00  0.00    -0.300 OA
ENDBRANCH   7   8
BRANCH   7  10
ATOM     10  O   UNL     1      60.998  30.222  50.002  1.00  0.00    -0.383 OA
ATOM     11  H   UNL     1      60.390  30.939  50.319  1.00  0.00     0.211 HD
ENDBRANCH   7  10
ENDBRANCH   6   7
BRANCH   6  12
ATOM     12  O   UNL     1      63.458  30.725  48.881  1.00  0.00    -0.387 OA
ATOM     13  H   UNL     1      63.353  31.668  49.175  1.00  0.00     0.211 HD
ENDBRANCH   6  12
ENDBRANCH   1   6
BRANCH   1  14
ATOM     14  O   UNL     1      62.237  27.920  49.300  1.00  0.00    -0.388 OA
ATOM     15  H   UNL     1      61.570  28.463  49.795  1.00  0.00     0.211 HD
ENDBRANCH   1  14
TORSDOF 8
ENDMDL
MODEL 6
REMARK VINA RESULT:    -3.121     10.228     11.099
REMARK INTER + INTRA:          -4.908
REMARK INTER:                  -4.186
REMARK INTRA:                  -0.723
REMARK UNBOUND:                -0.693
REMARK SMILES C[C@@H](O)[C@H](O)[C@@H](O)[C@H](O)C=O
REMARK SMILES IDX 4 1 2 2 1 3 3 4 6 6 8 7 10 8 11 9 9 10 7 12 5 14
REMARK H PARENT 3 5 9 11 7 13 5 15
REMARK Flexibility Score: inf
ROOT
ATOM      1  C   UNL     1      57.272  18.354  52.324  1.00  0.00     0.174 C 
ENDROOT
BRANCH   1   2
ATOM      2  C   UNL     1      55.838  18.528  52.895  1.00  0.00     0.142 C 
ATOM      3  C   UNL     1      55.819  18.709  54.420  1.00  0.00     0.041 C 
BRANCH   2   4
ATOM      4  O   UNL     1      55.196  19.618  52.283  1.00  0.00    -0.391 OA
ATOM      5  H   UNL     1      55.581  20.449  52.670  1.00  0.00     0.211 HD
ENDBRANCH   2   4
ENDBRANCH   1   2
BRANCH   1   6
ATOM      6  C   UNL     1      57.306  17.485  51.036  1.00  0.00     0.181 C 
BRANCH   6   7
ATOM      7  C   UNL     1      58.604  17.686  50.209  1.00  0.00     0.209 C 
BRANCH   7   8
ATOM      8  C   UNL     1      58.867  16.500  49.327  1.00  0.00     0.258 C 
ATOM      9  O   UNL     1      58.064  16.176  48.467  1.00  0.00    -0.300 OA
ENDBRANCH   7   8
BRANCH   7  10
ATOM     10  O   UNL     1      58.475  18.819  49.389  1.00  0.00    -0.383 OA
ATOM     11  H   UNL     1      57.615  19.254  49.626  1.00  0.00     0.211 HD
ENDBRANCH   7  10
ENDBRANCH   6   7
BRANCH   6  12
ATOM     12  O   UNL     1      56.174  17.731  50.237  1.00  0.00    -0.387 OA
ATOM     13  H   UNL     1      56.014  16.921  49.684  1.00  0.00     0.211 HD
ENDBRANCH   6  12
ENDBRANCH   1   6
BRANCH   1  14
ATOM     14  O   UNL     1      57.812  19.622  52.043  1.00  0.00    -0.388 OA
ATOM     15  H   UNL     1      58.190  19.975  52.890  1.00  0.00     0.211 HD
ENDBRANCH   1  14
TORSDOF 8
ENDMDL
MODEL 7
REMARK VINA RESULT:    -3.100     13.288     13.836
REMARK INTER + INTRA:          -4.879
REMARK INTER:                  -4.207
REMARK INTRA:                  -0.672
REMARK UNBOUND:                -0.693
REMARK SMILES C[C@@H](O)[C@H](O)[C@@H](O)[C@H](O)C=O
REMARK SMILES IDX 4 1 2 2 1 3 3 4 6 6 8 7 10 8 11 9 9 10 7 12 5 14
REMARK H PARENT 3 5 9 11 7 13 5 15
REMARK Flexibility Score: inf
ROOT
ATOM      1  C   UNL     1      59.865  25.569  61.929  1.00  0.00     0.174 C 
ENDROOT
BRANCH   1   2
ATOM      2  C   UNL     1      60.752  26.641  61.238  1.00  0.00     0.142 C 
ATOM      3  C   UNL     1      59.935  27.778  60.608  1.00  0.00     0.041 C 
BRANCH   2   4
ATOM      4  O   UNL     1      61.676  27.175  62.154  1.00  0.00    -0.391 OA
ATOM      5  H   UNL     1      62.587  26.948  61.828  1.00  0.00     0.211 HD
ENDBRANCH   2   4
ENDBRANCH   1   2
BRANCH   1   6
ATOM      6  C   UNL     1      60.617  24.794  63.047  1.00  0.00     0.181 C 
BRANCH   6   7
ATOM      7  C   UNL     1      59.959  23.429  63.379  1.00  0.00     0.209 C 
BRANCH   7   8
ATOM      8  C   UNL     1      60.763  22.681  64.404  1.00  0.00     0.258 C 
ATOM      9  O   UNL     1      61.779  23.168  64.871  1.00  0.00    -0.300 OA
ENDBRANCH   7   8
BRANCH   7  10
ATOM     10  O   UNL     1      58.672  23.636  63.902  1.00  0.00    -0.383 OA
ATOM     11  H   UNL     1      58.627  23.151  64.767  1.00  0.00     0.211 HD
ENDBRANCH   7  10
ENDBRANCH   6   7
BRANCH   6  12
ATOM     12  O   UNL     1      60.729  25.579  64.210  1.00  0.00    -0.387 OA
ATOM     13  H   UNL     1      59.982  26.233  64.205  1.00  0.00     0.211 HD
ENDBRANCH   6  12
ENDBRANCH   1   6
BRANCH   1  14
ATOM     14  O   UNL     1      58.732  26.194  62.479  1.00  0.00    -0.388 OA
ATOM     15  H   UNL     1      58.785  26.086  63.464  1.00  0.00     0.211 HD
ENDBRANCH   1  14
TORSDOF 8
ENDMDL
MODEL 8
REMARK VINA RESULT:    -3.078     13.514     15.004
REMARK INTER + INTRA:          -4.851
REMARK INTER:                  -4.074
REMARK INTRA:                  -0.776
REMARK UNBOUND:                -0.693
REMARK SMILES C[C@@H](O)[C@H](O)[C@@H](O)[C@H](O)C=O
REMARK SMILES IDX 4 1 2 2 1 3 3 4 6 6 8 7 10 8 11 9 9 10 7 12 5 14
REMARK H PARENT 3 5 9 11 7 13 5 15
REMARK Flexibility Score: inf
ROOT
ATOM      1  C   UNL     1      71.465  33.265  59.522  1.00  0.00     0.174 C 
ENDROOT
BRANCH   1   2
ATOM      2  C   UNL     1      71.637  31.874  60.191  1.00  0.00     0.142 C 
ATOM      3  C   UNL     1      72.215  30.819  59.236  1.00  0.00     0.041 C 
BRANCH   2   4
ATOM      4  O   UNL     1      72.454  31.977  61.331  1.00  0.00    -0.391 OA
ATOM      5  H   UNL     1      73.250  31.402  61.181  1.00  0.00     0.211 HD
ENDBRANCH   2   4
ENDBRANCH   1   2
BRANCH   1   6
ATOM      6  C   UNL     1      70.721  33.191  58.159  1.00  0.00     0.181 C 
BRANCH   6   7
ATOM      7  C   UNL     1      70.713  34.546  57.405  1.00  0.00     0.209 C 
BRANCH   7   8
ATOM      8  C   UNL     1      69.366  35.204  57.498  1.00  0.00     0.258 C 
ATOM      9  O   UNL     1      68.970  35.661  58.558  1.00  0.00    -0.300 OA
ENDBRANCH   7   8
BRANCH   7  10
ATOM     10  O   UNL     1      71.660  35.414  57.972  1.00  0.00    -0.383 OA
ATOM     11  H   UNL     1      71.555  36.293  57.524  1.00  0.00     0.211 HD
ENDBRANCH   7  10
ENDBRANCH   6   7
BRANCH   6  12
ATOM     12  O   UNL     1      69.407  32.719  58.333  1.00  0.00    -0.387 OA
ATOM     13  H   UNL     1      69.237  32.654  59.309  1.00  0.00     0.211 HD
ENDBRANCH   6  12
ENDBRANCH   1   6
BRANCH   1  14
ATOM     14  O   UNL     1      70.754  34.111  60.393  1.00  0.00    -0.388 OA
ATOM     15  H   UNL     1      70.505  34.922  59.878  1.00  0.00     0.211 HD
ENDBRANCH   1  14
TORSDOF 8
ENDMDL
MODEL 9
REMARK VINA RESULT:    -3.068      2.898      4.653
REMARK INTER + INTRA:          -4.837
REMARK INTER:                  -4.133
REMARK INTRA:                  -0.704
REMARK UNBOUND:                -0.693
REMARK SMILES C[C@@H](O)[C@H](O)[C@@H](O)[C@H](O)C=O
REMARK SMILES IDX 4 1 2 2 1 3 3 4 6 6 8 7 10 8 11 9 9 10 7 12 5 14
REMARK H PARENT 3 5 9 11 7 13 5 15
REMARK Flexibility Score: inf
ROOT
ATOM      1  C   UNL     1      63.918  29.574  49.471  1.00  0.00     0.174 C 
ENDROOT
BRANCH   1   2
ATOM      2  C   UNL     1      62.716  28.925  50.209  1.00  0.00     0.142 C 
ATOM      3  C   UNL     1      61.657  29.950  50.644  1.00  0.00     0.041 C 
BRANCH   2   4
ATOM      4  O   UNL     1      62.117  27.944  49.400  1.00  0.00    -0.391 OA
ATOM      5  H   UNL     1      61.243  27.709  49.810  1.00  0.00     0.211 HD
ENDBRANCH   2   4
ENDBRANCH   1   2
BRANCH   1   6
ATOM      6  C   UNL     1      64.573  28.621  48.432  1.00  0.00     0.181 C 
BRANCH   6   7
ATOM      7  C   UNL     1      66.019  29.040  48.060  1.00  0.00     0.209 C 
BRANCH   7   8
ATOM      8  C   UNL     1      66.571  28.158  46.977  1.00  0.00     0.258 C 
ATOM      9  O   UNL     1      66.267  26.978  46.923  1.00  0.00    -0.300 OA
ENDBRANCH   7   8
BRANCH   7  10
ATOM     10  O   UNL     1      66.026  30.363  47.589  1.00  0.00    -0.383 OA
ATOM     11  H   UNL     1      66.967  30.678  47.618  1.00  0.00     0.211 HD
ENDBRANCH   7  10
ENDBRANCH   6   7
BRANCH   6  12
ATOM     12  O   UNL     1      63.778  28.523  47.274  1.00  0.00    -0.387 OA
ATOM     13  H   UNL     1      62.914  28.110  47.536  1.00  0.00     0.211 HD
ENDBRANCH   6  12
ENDBRANCH   1   6
BRANCH   1  14
ATOM     14  O   UNL     1      63.484  30.743  48.821  1.00  0.00    -0.388 OA
ATOM     15  H   UNL     1      62.646  30.517  48.339  1.00  0.00     0.211 HD
ENDBRANCH   1  14
TORSDOF 8
ENDMDL
