MODEL 1
REMARK VINA RESULT:    79.218      0.000      0.000
REMARK INTER + INTRA:          83.850
REMARK INTER:                  83.850
REMARK INTRA:                   0.000
REMARK UNBOUND:                 0.000
REMARK SMILES CC1(C)[C@H](O)CC[C@]2(C)[C@@H]1CC[C@@]1(C)[C@@H]2C=CC2=C(O)C(=O)C(=O)[C@@]21C
REMARK SMILES IDX 1 1 2 2 10 3 11 4 12 5 13 6 15 7 8 8 7 9 6 10 4 11 9 12
REMARK SMILES IDX 16 13 17 14 18 15 19 16 21 17 22 18 23 19 24 20 25 21 26 22
REMARK SMILES IDX 14 23 3 24 5 25 20 27
REMARK H PARENT 5 26 20 28
REMARK Flexibility Score: inf
ROOT
ATOM      1  C   UNL     1      18.215  14.321  18.899  1.00  0.00     0.014 C 
ATOM      2  C   UNL     1      18.143  12.785  19.128  1.00  0.00    -0.006 C 
ATOM      3  C   UNL     1      17.652  12.492  20.605  1.00  0.00     0.004 C 
ATOM      4  C   UNL     1      16.262  13.080  20.977  1.00  0.00     0.005 C 
ATOM      5  C   UNL     1      15.971  12.989  22.492  1.00  0.00     0.009 C 
ATOM      6  C   UNL     1      16.059  11.546  23.099  1.00  0.00    -0.009 C 
ATOM      7  C   UNL     1      17.486  10.968  22.660  1.00  0.00     0.025 C 
ATOM      8  C   UNL     1      17.800  11.001  21.093  1.00  0.00    -0.022 C 
ATOM      9  C   UNL     1      19.261  10.497  20.811  1.00  0.00     0.010 C 
ATOM     10  C   UNL     1      19.734  10.744  19.369  1.00  0.00     0.033 C 
ATOM     11  C   UNL     1      19.597  12.224  18.970  1.00  0.00     0.120 C 
ATOM     12  C   UNL     1      16.853  10.004  20.344  1.00  0.00     0.012 C 
ATOM     13  C   UNL     1      18.569  11.711  23.467  1.00  0.00    -0.022 C 
ATOM     14  C   UNL     1      18.476  11.828  24.784  1.00  0.00     0.005 C 
ATOM     15  C   UNL     1      17.265  11.333  25.404  1.00  0.00     0.012 C 
ATOM     16  C   UNL     1      17.271  10.341  26.297  1.00  0.00     0.171 C 
ATOM     17  C   UNL     1      15.978   9.718  26.332  1.00  0.00     0.264 C 
ATOM     18  O   UNL     1      15.636   8.754  27.066  1.00  0.00    -0.282 OA
ATOM     19  C   UNL     1      15.153  10.386  25.353  1.00  0.00     0.217 C 
ATOM     20  O   UNL     1      13.924  10.146  25.207  1.00  0.00    -0.289 OA
ATOM     21  C   UNL     1      15.917  11.547  24.726  1.00  0.00     0.069 C 
ATOM     22  C   UNL     1      15.294  12.841  25.301  1.00  0.00     0.026 C 
ATOM     23  C   UNL     1      14.857  10.736  22.534  1.00  0.00     0.013 C 
ATOM     24  C   UNL     1      17.196  12.211  18.041  1.00  0.00     0.014 C 
ENDROOT
BRANCH  11  25
ATOM     25  O   UNL     1      20.106  12.439  17.673  1.00  0.00    -0.393 OA
ATOM     26  H   UNL     1      20.631  11.638  17.410  1.00  0.00     0.210 HD
ENDBRANCH  11  25
BRANCH  16  27
ATOM     27  O   UNL     1      18.382   9.888  27.007  1.00  0.00    -0.504 OA
ATOM     28  H   UNL     1      18.424   8.952  27.393  1.00  0.00     0.293 HD
ENDBRANCH  16  27
TORSDOF 2
ENDMDL
