MODEL 1
REMARK VINA RESULT:    -0.503      0.000      0.000
REMARK INTER + INTRA:          -0.193
REMARK INTER:                  -0.739
REMARK INTRA:                   0.545
REMARK UNBOUND:                 0.545
REMARK SMILES C=C1CC=CC(C)(C)CC=C(C)CCC1
REMARK SMILES IDX 2 1 1 2 15 3 14 4 13 5 11 6 12 7 10 8 3 10 4 11 5 12 6 13
REMARK SMILES IDX 7 14 8 15 9 16
REMARK H PARENT
REMARK Flexibility Score: 60.00
ROOT
ATOM      1  C   UNL     1       5.020   6.065  12.133  1.00  0.00    -0.074 C 
ATOM      2  C   UNL     1       4.600   4.932  12.729  1.00  0.00     0.008 C 
ENDROOT
BRANCH   1   3
ATOM      3  C   UNL     1       6.521   6.264  11.966  1.00  0.00     0.031 C 
BRANCH   3   4
ATOM      4  C   UNL     1       7.376   5.872  13.182  1.00  0.00     0.009 C 
BRANCH   4   5
ATOM      5  C   UNL     1       6.959   6.508  14.530  1.00  0.00     0.030 C 
BRANCH   5   6
ATOM      6  C   UNL     1       7.112   8.019  14.631  1.00  0.00    -0.077 C 
ATOM      7  C   UNL     1       8.501   8.610  14.640  1.00  0.00     0.039 C 
ATOM      8  C   UNL     1       6.063   8.871  14.657  1.00  0.00    -0.027 CG0
ATOM      9  G   UNL     1       4.613   8.448  14.596  1.00  0.00     0.000 G0
ENDBRANCH   5   6
ENDBRANCH   4   5
ENDBRANCH   3   4
ENDBRANCH   1   3
BRANCH   1  10
ATOM     10  C   UNL     1       4.028   6.952  11.383  1.00  0.00     0.057 C 
BRANCH  10  11
ATOM     11  C   UNL     1       4.475   8.395  11.281  1.00  0.00    -0.026 C 
ATOM     12  C   UNL     1       4.295   9.396  12.173  1.00  0.00    -0.024 C 
BRANCH  12  13
ATOM     13  C   UNL     1       3.740   9.333  13.603  1.00  0.00    -0.014 C 
ATOM     14  C   UNL     1       3.593  10.771  14.146  1.00  0.00     0.016 C 
ATOM     15  C   UNL     1       2.322   8.716  13.536  1.00  0.00     0.016 C 
BRANCH  13  16
ATOM     16  C   UNL     1       4.595   8.481  14.589  1.00  0.00     0.038 CG0
ATOM     17  G   UNL     1       6.051   8.881  14.633  1.00  0.00     0.000 G0
ENDBRANCH  13  16
ENDBRANCH  12  13
ENDBRANCH  10  11
ENDBRANCH   1  10
TORSDOF 0
ENDMDL
MODEL 2
REMARK VINA RESULT:    -0.390      1.490      3.453
REMARK INTER + INTRA:          -0.026
REMARK INTER:                  -3.230
REMARK INTRA:                   3.204
REMARK UNBOUND:                 0.545
REMARK SMILES C=C1CC=CC(C)(C)CC=C(C)CCC1
REMARK SMILES IDX 2 1 1 2 15 3 14 4 13 5 11 6 12 7 10 8 3 10 4 11 5 12 6 13
REMARK SMILES IDX 7 14 8 15 9 16
REMARK H PARENT
REMARK Flexibility Score: 60.00
ROOT
ATOM      1  C   UNL     1       6.081   7.999  14.513  1.00  0.00    -0.074 C 
ATOM      2  C   UNL     1       6.868   8.923  15.099  1.00  0.00     0.008 C 
ENDROOT
BRANCH   1   3
ATOM      3  C   UNL     1       6.655   6.602  14.317  1.00  0.00     0.031 C 
BRANCH   3   4
ATOM      4  C   UNL     1       7.232   6.316  12.921  1.00  0.00     0.009 C 
BRANCH   4   5
ATOM      5  C   UNL     1       6.371   6.796  11.728  1.00  0.00     0.030 C 
BRANCH   5   6
ATOM      6  C   UNL     1       4.864   6.671  11.899  1.00  0.00    -0.077 C 
ATOM      7  C   UNL     1       4.290   5.344  12.331  1.00  0.00     0.039 C 
ATOM      8  C   UNL     1       4.010   7.707  11.737  1.00  0.00    -0.027 CG0
ATOM      9  G   UNL     1       4.427   9.111  11.364  1.00  0.00     0.000 G0
ENDBRANCH   5   6
ENDBRANCH   4   5
ENDBRANCH   3   4
ENDBRANCH   1   3
BRANCH   1  10
ATOM     10  C   UNL     1       4.585   8.257  14.345  1.00  0.00     0.057 C 
BRANCH  10  11
ATOM     11  C   UNL     1       4.219   9.724  14.428  1.00  0.00    -0.026 C 
ATOM     12  C   UNL     1       3.845  10.555  13.429  1.00  0.00    -0.024 C 
BRANCH  12  13
ATOM     13  C   UNL     1       3.524  10.228  11.963  1.00  0.00    -0.014 C 
ATOM     14  C   UNL     1       2.038   9.823  11.856  1.00  0.00     0.016 C 
ATOM     15  C   UNL     1       3.713  11.521  11.134  1.00  0.00     0.016 C 
BRANCH  13  16
ATOM     16  C   UNL     1       4.421   9.116  11.341  1.00  0.00     0.038 CG0
ATOM     17  G   UNL     1       4.013   7.715  11.734  1.00  0.00     0.000 G0
ENDBRANCH  13  16
ENDBRANCH  12  13
ENDBRANCH  10  11
ENDBRANCH   1  10
TORSDOF 0
ENDMDL
MODEL 3
REMARK VINA RESULT:    -0.352      1.300      4.158
REMARK INTER + INTRA:           0.029
REMARK INTER:                  -0.539
REMARK INTRA:                   0.568
REMARK UNBOUND:                 0.545
REMARK SMILES C=C1CC=CC(C)(C)CC=C(C)CCC1
REMARK SMILES IDX 2 1 1 2 15 3 14 4 13 5 11 6 12 7 10 8 3 10 4 11 5 12 6 13
REMARK SMILES IDX 7 14 8 15 9 16
REMARK H PARENT
REMARK Flexibility Score: 60.00
ROOT
ATOM      1  C   UNL     1       3.768  10.195  11.352  1.00  0.00    -0.074 C 
ATOM      2  C   UNL     1       3.984  11.437  10.875  1.00  0.00     0.008 C 
ENDROOT
BRANCH   1   3
ATOM      3  C   UNL     1       2.465   9.939  12.098  1.00  0.00     0.031 C 
BRANCH   3   4
ATOM      4  C   UNL     1       2.575   9.927  13.632  1.00  0.00     0.009 C 
BRANCH   4   5
ATOM      5  C   UNL     1       4.012  10.004  14.203  1.00  0.00     0.030 C 
BRANCH   5   6
ATOM      6  C   UNL     1       4.418   8.878  15.142  1.00  0.00    -0.077 C 
ATOM      7  C   UNL     1       3.632   8.673  16.414  1.00  0.00     0.039 C 
ATOM      8  C   UNL     1       5.418   8.009  14.870  1.00  0.00    -0.027 CG0
ATOM      9  G   UNL     1       6.262   8.039  13.617  1.00  0.00     0.000 G0
ENDBRANCH   5   6
ENDBRANCH   4   5
ENDBRANCH   3   4
ENDBRANCH   1   3
BRANCH   1  10
ATOM     10  C   UNL     1       4.644   9.031  10.891  1.00  0.00     0.057 C 
BRANCH  10  11
ATOM     11  C   UNL     1       4.102   7.677  11.299  1.00  0.00    -0.026 C 
ATOM     12  C   UNL     1       4.719   6.704  12.007  1.00  0.00    -0.024 C 
BRANCH  12  13
ATOM     13  C   UNL     1       6.068   6.742  12.738  1.00  0.00    -0.014 C 
ATOM     14  C   UNL     1       6.212   5.462  13.590  1.00  0.00     0.016 C 
ATOM     15  C   UNL     1       7.189   6.717  11.671  1.00  0.00     0.016 C 
BRANCH  13  16
ATOM     16  C   UNL     1       6.279   7.999  13.635  1.00  0.00     0.038 CG0
ATOM     17  G   UNL     1       5.430   8.005  14.884  1.00  0.00     0.000 G0
ENDBRANCH  13  16
ENDBRANCH  12  13
ENDBRANCH  10  11
ENDBRANCH   1  10
TORSDOF 0
ENDMDL
MODEL 4
REMARK VINA RESULT:     0.442      1.892      4.994
REMARK INTER + INTRA:           1.195
REMARK INTER:                   0.001
REMARK INTRA:                   1.193
REMARK UNBOUND:                 0.545
REMARK SMILES C=C1CC=CC(C)(C)CC=C(C)CCC1
REMARK SMILES IDX 2 1 1 2 15 3 14 4 13 5 11 6 12 7 10 8 3 10 4 11 5 12 6 13
REMARK SMILES IDX 7 14 8 15 9 16
REMARK H PARENT
REMARK Flexibility Score: 60.00
ROOT
ATOM      1  C   UNL     1       2.628  10.082  14.245  1.00  0.00    -0.074 C 
ATOM      2  C   UNL     1       3.418  11.159  14.426  1.00  0.00     0.008 C 
ENDROOT
BRANCH   1   3
ATOM      3  C   UNL     1       1.352  10.268  13.434  1.00  0.00     0.031 C 
BRANCH   3   4
ATOM      4  C   UNL     1       1.337   9.573  12.062  1.00  0.00     0.009 C 
BRANCH   4   5
ATOM      5  C   UNL     1       2.016  10.350  10.908  1.00  0.00     0.030 C 
BRANCH   5   6
ATOM      6  C   UNL     1       3.521  10.538  11.025  1.00  0.00    -0.077 C 
ATOM      7  C   UNL     1       4.090  11.933  10.917  1.00  0.00     0.039 C 
ATOM      8  C   UNL     1       4.379   9.524  11.279  1.00  0.00    -0.027 CG0
ATOM      9  G   UNL     1       3.968   8.083  11.473  1.00  0.00     0.000 G0
ENDBRANCH   5   6
ENDBRANCH   4   5
ENDBRANCH   3   4
ENDBRANCH   1   3
BRANCH   1  10
ATOM     10  C   UNL     1       3.148   8.683  14.570  1.00  0.00     0.057 C 
BRANCH  10  11
ATOM     11  C   UNL     1       4.658   8.579  14.510  1.00  0.00    -0.026 C 
ATOM     12  C   UNL     1       5.421   7.924  13.605  1.00  0.00    -0.024 C 
BRANCH  12  13
ATOM     13  C   UNL     1       5.002   7.241  12.296  1.00  0.00    -0.014 C 
ATOM     14  C   UNL     1       6.267   6.919  11.472  1.00  0.00     0.016 C 
ATOM     15  C   UNL     1       4.328   5.895  12.656  1.00  0.00     0.016 C 
BRANCH  13  16
ATOM     16  C   UNL     1       4.004   8.067  11.430  1.00  0.00     0.038 CG0
ATOM     17  G   UNL     1       4.378   9.525  11.295  1.00  0.00     0.000 G0
ENDBRANCH  13  16
ENDBRANCH  12  13
ENDBRANCH  10  11
ENDBRANCH   1  10
TORSDOF 0
ENDMDL
MODEL 5
REMARK VINA RESULT:     0.670      1.251      3.680
REMARK INTER + INTRA:           1.529
REMARK INTER:                   0.359
REMARK INTRA:                   1.171
REMARK UNBOUND:                 0.545
REMARK SMILES C=C1CC=CC(C)(C)CC=C(C)CCC1
REMARK SMILES IDX 2 1 1 2 15 3 14 4 13 5 11 6 12 7 10 8 3 10 4 11 5 12 6 13
REMARK SMILES IDX 7 14 8 15 9 16
REMARK H PARENT
REMARK Flexibility Score: 60.00
ROOT
ATOM      1  C   UNL     1       3.660   9.967  12.361  1.00  0.00    -0.074 C 
ATOM      2  C   UNL     1       3.446  11.042  11.577  1.00  0.00     0.008 C 
ENDROOT
BRANCH   1   3
ATOM      3  C   UNL     1       3.699  10.185  13.868  1.00  0.00     0.031 C 
BRANCH   3   4
ATOM      4  C   UNL     1       3.970   8.927  14.710  1.00  0.00     0.009 C 
BRANCH   4   5
ATOM      5  C   UNL     1       5.226   8.982  15.614  1.00  0.00     0.030 C 
BRANCH   5   6
ATOM      6  C   UNL     1       6.514   8.455  14.999  1.00  0.00    -0.077 C 
ATOM      7  C   UNL     1       7.802   9.199  15.260  1.00  0.00     0.039 C 
ATOM      8  C   UNL     1       6.579   7.318  14.271  1.00  0.00    -0.027 CG0
ATOM      9  G   UNL     1       5.397   6.427  13.966  1.00  0.00     0.000 G0
ENDBRANCH   5   6
ENDBRANCH   4   5
ENDBRANCH   3   4
ENDBRANCH   1   3
BRANCH   1  10
ATOM     10  C   UNL     1       3.553   8.558  11.780  1.00  0.00     0.057 C 
BRANCH  10  11
ATOM     11  C   UNL     1       4.826   8.092  11.106  1.00  0.00    -0.026 C 
ATOM     12  C   UNL     1       5.619   7.048  11.439  1.00  0.00    -0.024 C 
BRANCH  12  13
ATOM     13  C   UNL     1       5.385   5.943  12.479  1.00  0.00    -0.014 C 
ATOM     14  C   UNL     1       4.035   5.254  12.180  1.00  0.00     0.016 C 
ATOM     15  C   UNL     1       6.496   4.881  12.303  1.00  0.00     0.016 C 
BRANCH  13  16
ATOM     16  C   UNL     1       5.411   6.435  13.957  1.00  0.00     0.038 CG0
ATOM     17  G   UNL     1       6.596   7.313  14.285  1.00  0.00     0.000 G0
ENDBRANCH  13  16
ENDBRANCH  12  13
ENDBRANCH  10  11
ENDBRANCH   1  10
TORSDOF 0
ENDMDL
MODEL 6
REMARK VINA RESULT:     1.165      1.361      3.908
REMARK INTER + INTRA:           2.255
REMARK INTER:                   0.706
REMARK INTRA:                   1.549
REMARK UNBOUND:                 0.545
REMARK SMILES C=C1CC=CC(C)(C)CC=C(C)CCC1
REMARK SMILES IDX 2 1 1 2 15 3 14 4 13 5 11 6 12 7 10 8 3 10 4 11 5 12 6 13
REMARK SMILES IDX 7 14 8 15 9 16
REMARK H PARENT
REMARK Flexibility Score: 60.00
ROOT
ATOM      1  C   UNL     1       7.707   7.078  13.847  1.00  0.00    -0.074 C 
ATOM      2  C   UNL     1       8.241   7.223  12.618  1.00  0.00     0.008 C 
ENDROOT
BRANCH   1   3
ATOM      3  C   UNL     1       7.469   8.339  14.669  1.00  0.00     0.031 C 
BRANCH   3   4
ATOM      4  C   UNL     1       6.004   8.614  15.045  1.00  0.00     0.009 C 
BRANCH   4   5
ATOM      5  C   UNL     1       5.174   9.386  13.991  1.00  0.00     0.030 C 
BRANCH   5   6
ATOM      6  C   UNL     1       3.700   9.018  13.902  1.00  0.00    -0.077 C 
ATOM      7  C   UNL     1       2.679  10.126  13.800  1.00  0.00     0.039 C 
ATOM      8  C   UNL     1       3.255   7.742  13.851  1.00  0.00    -0.027 CG0
ATOM      9  G   UNL     1       4.146   6.522  13.882  1.00  0.00     0.000 G0
ENDBRANCH   5   6
ENDBRANCH   4   5
ENDBRANCH   3   4
ENDBRANCH   1   3
BRANCH   1  10
ATOM     10  C   UNL     1       7.083   5.748  14.263  1.00  0.00     0.057 C 
BRANCH  10  11
ATOM     11  C   UNL     1       6.692   4.878  13.086  1.00  0.00    -0.026 C 
ATOM     12  C   UNL     1       5.533   4.879  12.388  1.00  0.00    -0.024 C 
BRANCH  12  13
ATOM     13  C   UNL     1       4.352   5.856  12.470  1.00  0.00    -0.014 C 
ATOM     14  C   UNL     1       4.532   6.950  11.396  1.00  0.00     0.016 C 
ATOM     15  C   UNL     1       3.062   5.073  12.123  1.00  0.00     0.016 C 
BRANCH  13  16
ATOM     16  C   UNL     1       4.158   6.515  13.868  1.00  0.00     0.038 CG0
ATOM     17  G   UNL     1       3.275   7.742  13.846  1.00  0.00     0.000 G0
ENDBRANCH  13  16
ENDBRANCH  12  13
ENDBRANCH  10  11
ENDBRANCH   1  10
TORSDOF 0
ENDMDL
MODEL 7
REMARK VINA RESULT:     2.353      1.355      2.311
REMARK INTER + INTRA:           3.999
REMARK INTER:                   2.553
REMARK INTRA:                   1.446
REMARK UNBOUND:                 0.545
REMARK SMILES C=C1CC=CC(C)(C)CC=C(C)CCC1
REMARK SMILES IDX 2 1 1 2 15 3 14 4 13 5 11 6 12 7 10 8 3 10 4 11 5 12 6 13
REMARK SMILES IDX 7 14 8 15 9 16
REMARK H PARENT
REMARK Flexibility Score: 60.00
ROOT
ATOM      1  C   UNL     1       5.836   6.684  12.518  1.00  0.00    -0.074 C 
ATOM      2  C   UNL     1       6.798   6.787  11.579  1.00  0.00     0.008 C 
ENDROOT
BRANCH   1   3
ATOM      3  C   UNL     1       6.261   6.279  13.924  1.00  0.00     0.031 C 
BRANCH   3   4
ATOM      4  C   UNL     1       6.991   7.365  14.731  1.00  0.00     0.009 C 
BRANCH   4   5
ATOM      5  C   UNL     1       6.390   8.788  14.638  1.00  0.00     0.030 C 
BRANCH   5   6
ATOM      6  C   UNL     1       4.923   8.920  15.022  1.00  0.00    -0.077 C 
ATOM      7  C   UNL     1       4.427   8.204  16.255  1.00  0.00     0.039 C 
ATOM      8  C   UNL     1       4.045   9.694  14.344  1.00  0.00    -0.027 CG0
ATOM      9  G   UNL     1       4.393  10.519  13.127  1.00  0.00     0.000 G0
ENDBRANCH   5   6
ENDBRANCH   4   5
ENDBRANCH   3   4
ENDBRANCH   1   3
BRANCH   1  10
ATOM     10  C   UNL     1       4.443   7.252  12.258  1.00  0.00     0.057 C 
BRANCH  10  11
ATOM     11  C   UNL     1       4.372   8.111  11.012  1.00  0.00    -0.026 C 
ATOM     12  C   UNL     1       3.862   9.357  10.878  1.00  0.00    -0.024 C 
BRANCH  12  13
ATOM     13  C   UNL     1       3.363  10.323  11.962  1.00  0.00    -0.014 C 
ATOM     14  C   UNL     1       3.042  11.685  11.308  1.00  0.00     0.016 C 
ATOM     15  C   UNL     1       2.039   9.759  12.530  1.00  0.00     0.016 C 
BRANCH  13  16
ATOM     16  C   UNL     1       4.353  10.527  13.148  1.00  0.00     0.038 CG0
ATOM     17  G   UNL     1       4.043   9.669  14.353  1.00  0.00     0.000 G0
ENDBRANCH  13  16
ENDBRANCH  12  13
ENDBRANCH  10  11
ENDBRANCH   1  10
TORSDOF 0
ENDMDL
MODEL 8
REMARK VINA RESULT:     2.432      1.048      3.762
REMARK INTER + INTRA:           4.114
REMARK INTER:                   2.905
REMARK INTRA:                   1.210
REMARK UNBOUND:                 0.545
REMARK SMILES C=C1CC=CC(C)(C)CC=C(C)CCC1
REMARK SMILES IDX 2 1 1 2 15 3 14 4 13 5 11 6 12 7 10 8 3 10 4 11 5 12 6 13
REMARK SMILES IDX 7 14 8 15 9 16
REMARK H PARENT
REMARK Flexibility Score: 60.00
ROOT
ATOM      1  C   UNL     1       4.842   5.708  12.156  1.00  0.00    -0.074 C 
ATOM      2  C   UNL     1       3.635   5.187  12.453  1.00  0.00     0.008 C 
ENDROOT
BRANCH   1   3
ATOM      3  C   UNL     1       4.882   7.119  11.583  1.00  0.00     0.031 C 
BRANCH   3   4
ATOM      4  C   UNL     1       3.674   8.005  11.928  1.00  0.00     0.009 C 
BRANCH   4   5
ATOM      5  C   UNL     1       3.961   9.190  12.881  1.00  0.00     0.030 C 
BRANCH   5   6
ATOM      6  C   UNL     1       4.363   8.822  14.302  1.00  0.00    -0.077 C 
ATOM      7  C   UNL     1       3.281   8.625  15.335  1.00  0.00     0.039 C 
ATOM      8  C   UNL     1       5.644   8.606  14.678  1.00  0.00    -0.027 CG0
ATOM      9  G   UNL     1       6.836   8.704  13.756  1.00  0.00     0.000 G0
ENDBRANCH   5   6
ENDBRANCH   4   5
ENDBRANCH   3   4
ENDBRANCH   1   3
BRANCH   1  10
ATOM     10  C   UNL     1       6.115   5.036  12.664  1.00  0.00     0.057 C 
BRANCH  10  11
ATOM     11  C   UNL     1       7.381   5.664  12.117  1.00  0.00    -0.026 C 
ATOM     12  C   UNL     1       8.056   6.738  12.585  1.00  0.00    -0.024 C 
BRANCH  12  13
ATOM     13  C   UNL     1       7.842   7.530  13.882  1.00  0.00    -0.014 C 
ATOM     14  C   UNL     1       7.376   6.560  14.989  1.00  0.00     0.016 C 
ATOM     15  C   UNL     1       9.210   8.108  14.319  1.00  0.00     0.016 C 
BRANCH  13  16
ATOM     16  C   UNL     1       6.834   8.712  13.756  1.00  0.00     0.038 CG0
ATOM     17  G   UNL     1       5.636   8.589  14.669  1.00  0.00     0.000 G0
ENDBRANCH  13  16
ENDBRANCH  12  13
ENDBRANCH  10  11
ENDBRANCH   1  10
TORSDOF 0
ENDMDL
MODEL 9
REMARK VINA RESULT:     2.445      1.633      3.310
REMARK INTER + INTRA:           4.134
REMARK INTER:                   0.561
REMARK INTRA:                   3.572
REMARK UNBOUND:                 0.545
REMARK SMILES C=C1CC=CC(C)(C)CC=C(C)CCC1
REMARK SMILES IDX 2 1 1 2 15 3 14 4 13 5 11 6 12 7 10 8 3 10 4 11 5 12 6 13
REMARK SMILES IDX 7 14 8 15 9 16
REMARK H PARENT
REMARK Flexibility Score: 60.00
ROOT
ATOM      1  C   UNL     1       3.481  10.585  10.908  1.00  0.00    -0.074 C 
ATOM      2  C   UNL     1       3.731  11.884  11.169  1.00  0.00     0.008 C 
ENDROOT
BRANCH   1   3
ATOM      3  C   UNL     1       4.665   9.628  10.877  1.00  0.00     0.031 C 
BRANCH   3   4
ATOM      4  C   UNL     1       4.347   8.172  11.253  1.00  0.00     0.009 C 
BRANCH   4   5
ATOM      5  C   UNL     1       5.477   7.403  11.979  1.00  0.00     0.030 C 
BRANCH   5   6
ATOM      6  C   UNL     1       5.618   7.675  13.470  1.00  0.00    -0.077 C 
ATOM      7  C   UNL     1       6.944   7.399  14.136  1.00  0.00     0.039 C 
ATOM      8  C   UNL     1       4.630   8.207  14.224  1.00  0.00    -0.027 CG0
ATOM      9  G   UNL     1       3.267   8.595  13.701  1.00  0.00     0.000 G0
ENDBRANCH   5   6
ENDBRANCH   4   5
ENDBRANCH   3   4
ENDBRANCH   1   3
BRANCH   1  10
ATOM     10  C   UNL     1       2.050  10.053  10.955  1.00  0.00     0.057 C 
BRANCH  10  11
ATOM     11  C   UNL     1       1.249  10.597  12.120  1.00  0.00    -0.026 C 
ATOM     12  C   UNL     1       1.532  10.527  13.441  1.00  0.00    -0.024 C 
BRANCH  12  13
ATOM     13  C   UNL     1       2.810  10.033  14.135  1.00  0.00    -0.014 C 
ATOM     14  C   UNL     1       3.950  11.036  13.856  1.00  0.00     0.016 C 
ATOM     15  C   UNL     1       2.553  10.034  15.661  1.00  0.00     0.016 C 
BRANCH  13  16
ATOM     16  C   UNL     1       3.254   8.599  13.718  1.00  0.00     0.038 CG0
ATOM     17  G   UNL     1       4.621   8.212  14.233  1.00  0.00     0.000 G0
ENDBRANCH  13  16
ENDBRANCH  12  13
ENDBRANCH  10  11
ENDBRANCH   1  10
TORSDOF 0
ENDMDL
