MODEL 1
REMARK VINA RESULT:    -4.168      0.000      0.000
REMARK INTER + INTRA:          -5.023
REMARK INTER:                  -5.020
REMARK INTRA:                  -0.002
REMARK UNBOUND:                -0.002
REMARK SMILES OCC(O)CO
REMARK SMILES IDX 3 1 5 2 6 3 2 5 1 6 4 8
REMARK H PARENT 6 4 1 7 4 9
REMARK Flexibility Score: inf
ROOT
ATOM      1  C   UNL     1      26.398   6.085  19.985  1.00  0.00     0.165 C 
ENDROOT
BRANCH   1   2
ATOM      2  C   UNL     1      25.302   7.047  19.502  1.00  0.00     0.190 C 
BRANCH   2   3
ATOM      3  O   UNL     1      24.037   6.548  19.840  1.00  0.00    -0.394 OA
ATOM      4  H   UNL     1      23.406   6.926  19.174  1.00  0.00     0.210 HD
ENDBRANCH   2   3
ENDBRANCH   1   2
BRANCH   1   5
ATOM      5  C   UNL     1      27.578   6.024  19.007  1.00  0.00     0.190 C 
BRANCH   5   6
ATOM      6  O   UNL     1      28.199   4.768  19.066  1.00  0.00    -0.394 OA
ATOM      7  H   UNL     1      28.367   4.590  20.027  1.00  0.00     0.210 HD
ENDBRANCH   5   6
ENDBRANCH   1   5
BRANCH   1   8
ATOM      8  O   UNL     1      26.865   6.489  21.246  1.00  0.00    -0.388 OA
ATOM      9  H   UNL     1      26.482   7.389  21.420  1.00  0.00     0.211 HD
ENDBRANCH   1   8
TORSDOF 5
ENDMDL
MODEL 2
REMARK VINA RESULT:    -4.129      1.005      2.598
REMARK INTER + INTRA:          -4.977
REMARK INTER:                  -4.753
REMARK INTRA:                  -0.224
REMARK UNBOUND:                -0.002
REMARK SMILES OCC(O)CO
REMARK SMILES IDX 3 1 5 2 6 3 2 5 1 6 4 8
REMARK H PARENT 6 4 1 7 4 9
REMARK Flexibility Score: inf
ROOT
ATOM      1  C   UNL     1      26.716   6.963  19.999  1.00  0.00     0.165 C 
ENDROOT
BRANCH   1   2
ATOM      2  C   UNL     1      27.658   6.144  19.103  1.00  0.00     0.190 C 
BRANCH   2   3
ATOM      3  O   UNL     1      27.028   5.841  17.889  1.00  0.00    -0.394 OA
ATOM      4  H   UNL     1      27.071   6.668  17.343  1.00  0.00     0.210 HD
ENDBRANCH   2   3
ENDBRANCH   1   2
BRANCH   1   5
ATOM      5  C   UNL     1      25.274   6.951  19.475  1.00  0.00     0.190 C 
BRANCH   5   6
ATOM      6  O   UNL     1      24.700   5.684  19.653  1.00  0.00    -0.394 OA
ATOM      7  H   UNL     1      23.906   5.657  19.060  1.00  0.00     0.210 HD
ENDBRANCH   5   6
ENDBRANCH   1   5
BRANCH   1   8
ATOM      8  O   UNL     1      26.735   6.450  21.306  1.00  0.00    -0.388 OA
ATOM      9  H   UNL     1      26.576   5.472  21.233  1.00  0.00     0.211 HD
ENDBRANCH   1   8
TORSDOF 5
ENDMDL
MODEL 3
REMARK VINA RESULT:    -3.961      1.700      2.083
REMARK INTER + INTRA:          -4.774
REMARK INTER:                  -4.771
REMARK INTRA:                  -0.002
REMARK UNBOUND:                -0.002
REMARK SMILES OCC(O)CO
REMARK SMILES IDX 3 1 5 2 6 3 2 5 1 6 4 8
REMARK H PARENT 6 4 1 7 4 9
REMARK Flexibility Score: inf
ROOT
ATOM      1  C   UNL     1      26.711   6.763  19.881  1.00  0.00     0.165 C 
ENDROOT
BRANCH   1   2
ATOM      2  C   UNL     1      25.275   6.893  19.350  1.00  0.00     0.190 C 
BRANCH   2   3
ATOM      3  O   UNL     1      24.529   5.756  19.691  1.00  0.00    -0.394 OA
ATOM      4  H   UNL     1      23.576   6.015  19.598  1.00  0.00     0.210 HD
ENDBRANCH   2   3
ENDBRANCH   1   2
BRANCH   1   5
ATOM      5  C   UNL     1      27.262   8.107  20.376  1.00  0.00     0.190 C 
BRANCH   5   6
ATOM      6  O   UNL     1      27.607   8.924  19.290  1.00  0.00    -0.394 OA
ATOM      7  H   UNL     1      28.561   9.162  19.418  1.00  0.00     0.210 HD
ENDBRANCH   5   6
ENDBRANCH   1   5
BRANCH   1   8
ATOM      8  O   UNL     1      26.747   5.835  20.934  1.00  0.00    -0.388 OA
ATOM      9  H   UNL     1      26.923   6.350  21.765  1.00  0.00     0.211 HD
ENDBRANCH   1   8
TORSDOF 5
ENDMDL
MODEL 4
REMARK VINA RESULT:    -3.749      1.005      2.046
REMARK INTER + INTRA:          -4.518
REMARK INTER:                  -4.295
REMARK INTRA:                  -0.223
REMARK UNBOUND:                -0.002
REMARK SMILES OCC(O)CO
REMARK SMILES IDX 3 1 5 2 6 3 2 5 1 6 4 8
REMARK H PARENT 6 4 1 7 4 9
REMARK Flexibility Score: inf
ROOT
ATOM      1  C   UNL     1      25.719   6.773  19.273  1.00  0.00     0.165 C 
ENDROOT
BRANCH   1   2
ATOM      2  C   UNL     1      26.427   7.447  20.459  1.00  0.00     0.190 C 
BRANCH   2   3
ATOM      3  O   UNL     1      26.869   6.479  21.371  1.00  0.00    -0.394 OA
ATOM      4  H   UNL     1      26.102   6.301  21.975  1.00  0.00     0.210 HD
ENDBRANCH   2   3
ENDBRANCH   1   2
BRANCH   1   5
ATOM      5  C   UNL     1      26.628   5.761  18.564  1.00  0.00     0.190 C 
BRANCH   5   6
ATOM      6  O   UNL     1      27.974   6.126  18.710  1.00  0.00    -0.394 OA
ATOM      7  H   UNL     1      28.135   6.851  18.053  1.00  0.00     0.210 HD
ENDBRANCH   5   6
ENDBRANCH   1   5
BRANCH   1   8
ATOM      8  O   UNL     1      24.561   6.117  19.721  1.00  0.00    -0.388 OA
ATOM      9  H   UNL     1      24.462   6.333  20.685  1.00  0.00     0.211 HD
ENDBRANCH   1   8
TORSDOF 5
ENDMDL
MODEL 5
REMARK VINA RESULT:    -3.711      1.352      2.844
REMARK INTER + INTRA:          -4.473
REMARK INTER:                  -4.281
REMARK INTRA:                  -0.192
REMARK UNBOUND:                -0.002
REMARK SMILES OCC(O)CO
REMARK SMILES IDX 3 1 5 2 6 3 2 5 1 6 4 8
REMARK H PARENT 6 4 1 7 4 9
REMARK Flexibility Score: inf
ROOT
ATOM      1  C   UNL     1      25.996   6.196  19.808  1.00  0.00     0.165 C 
ENDROOT
BRANCH   1   2
ATOM      2  C   UNL     1      26.697   5.780  18.506  1.00  0.00     0.190 C 
BRANCH   2   3
ATOM      3  O   UNL     1      27.918   5.155  18.793  1.00  0.00    -0.394 OA
ATOM      4  H   UNL     1      28.614   5.857  18.703  1.00  0.00     0.210 HD
ENDBRANCH   2   3
ENDBRANCH   1   2
BRANCH   1   5
ATOM      5  C   UNL     1      26.449   7.582  20.285  1.00  0.00     0.190 C 
BRANCH   5   6
ATOM      6  O   UNL     1      27.294   8.175  19.335  1.00  0.00    -0.394 OA
ATOM      7  H   UNL     1      27.566   7.447  18.718  1.00  0.00     0.210 HD
ENDBRANCH   5   6
ENDBRANCH   1   5
BRANCH   1   8
ATOM      8  O   UNL     1      24.604   6.208  19.617  1.00  0.00    -0.388 OA
ATOM      9  H   UNL     1      24.190   6.187  20.519  1.00  0.00     0.211 HD
ENDBRANCH   1   8
TORSDOF 5
ENDMDL
MODEL 6
REMARK VINA RESULT:    -3.566      2.208      2.820
REMARK INTER + INTRA:          -4.298
REMARK INTER:                  -4.295
REMARK INTRA:                  -0.002
REMARK UNBOUND:                -0.002
REMARK SMILES OCC(O)CO
REMARK SMILES IDX 3 1 5 2 6 3 2 5 1 6 4 8
REMARK H PARENT 6 4 1 7 4 9
REMARK Flexibility Score: inf
ROOT
ATOM      1  C   UNL     1      26.955   7.823  20.360  1.00  0.00     0.165 C 
ENDROOT
BRANCH   1   2
ATOM      2  C   UNL     1      28.265   8.415  19.818  1.00  0.00     0.190 C 
BRANCH   2   3
ATOM      3  O   UNL     1      27.996   9.538  19.023  1.00  0.00    -0.394 OA
ATOM      4  H   UNL     1      27.570   9.193  18.196  1.00  0.00     0.210 HD
ENDBRANCH   2   3
ENDBRANCH   1   2
BRANCH   1   5
ATOM      5  C   UNL     1      26.644   6.457  19.735  1.00  0.00     0.190 C 
BRANCH   5   6
ATOM      6  O   UNL     1      26.832   5.434  20.676  1.00  0.00    -0.394 OA
ATOM      7  H   UNL     1      25.961   4.966  20.752  1.00  0.00     0.210 HD
ENDBRANCH   5   6
ENDBRANCH   1   5
BRANCH   1   8
ATOM      8  O   UNL     1      27.037   7.683  21.755  1.00  0.00    -0.388 OA
ATOM      9  H   UNL     1      27.811   7.089  21.940  1.00  0.00     0.211 HD
ENDBRANCH   1   8
TORSDOF 5
ENDMDL
MODEL 7
REMARK VINA RESULT:    -3.425      3.633      4.146
REMARK INTER + INTRA:          -4.128
REMARK INTER:                  -4.098
REMARK INTRA:                  -0.030
REMARK UNBOUND:                -0.002
REMARK SMILES OCC(O)CO
REMARK SMILES IDX 3 1 5 2 6 3 2 5 1 6 4 8
REMARK H PARENT 6 4 1 7 4 9
REMARK Flexibility Score: inf
ROOT
ATOM      1  C   UNL     1      27.569   8.927  19.885  1.00  0.00     0.165 C 
ENDROOT
BRANCH   1   2
ATOM      2  C   UNL     1      27.401   8.825  21.408  1.00  0.00     0.190 C 
BRANCH   2   3
ATOM      3  O   UNL     1      27.670  10.062  22.009  1.00  0.00    -0.394 OA
ATOM      4  H   UNL     1      28.657  10.120  22.089  1.00  0.00     0.210 HD
ENDBRANCH   2   3
ENDBRANCH   1   2
BRANCH   1   5
ATOM      5  C   UNL     1      28.987   9.365  19.494  1.00  0.00     0.190 C 
BRANCH   5   6
ATOM      6  O   UNL     1      28.938  10.485  18.650  1.00  0.00    -0.394 OA
ATOM      7  H   UNL     1      27.993  10.786  18.649  1.00  0.00     0.210 HD
ENDBRANCH   5   6
ENDBRANCH   1   5
BRANCH   1   8
ATOM      8  O   UNL     1      27.292   7.685  19.291  1.00  0.00    -0.388 OA
ATOM      9  H   UNL     1      27.886   7.019  19.726  1.00  0.00     0.211 HD
ENDBRANCH   1   8
TORSDOF 5
ENDMDL
MODEL 8
REMARK VINA RESULT:    -3.424      2.839      3.566
REMARK INTER + INTRA:          -4.126
REMARK INTER:                  -3.904
REMARK INTRA:                  -0.222
REMARK UNBOUND:                -0.002
REMARK SMILES OCC(O)CO
REMARK SMILES IDX 3 1 5 2 6 3 2 5 1 6 4 8
REMARK H PARENT 6 4 1 7 4 9
REMARK Flexibility Score: inf
ROOT
ATOM      1  C   UNL     1      27.737   8.559  20.361  1.00  0.00     0.165 C 
ENDROOT
BRANCH   1   2
ATOM      2  C   UNL     1      27.711   9.619  21.473  1.00  0.00     0.190 C 
BRANCH   2   3
ATOM      3  O   UNL     1      27.177   9.073  22.648  1.00  0.00    -0.394 OA
ATOM      4  H   UNL     1      26.790   9.834  23.154  1.00  0.00     0.210 HD
ENDBRANCH   2   3
ENDBRANCH   1   2
BRANCH   1   5
ATOM      5  C   UNL     1      26.522   7.625  20.432  1.00  0.00     0.190 C 
BRANCH   5   6
ATOM      6  O   UNL     1      26.819   6.492  21.202  1.00  0.00    -0.394 OA
ATOM      7  H   UNL     1      27.142   6.831  22.077  1.00  0.00     0.210 HD
ENDBRANCH   5   6
ENDBRANCH   1   5
BRANCH   1   8
ATOM      8  O   UNL     1      27.762   9.187  19.105  1.00  0.00    -0.388 OA
ATOM      9  H   UNL     1      26.914   9.698  19.022  1.00  0.00     0.211 HD
ENDBRANCH   1   8
TORSDOF 5
ENDMDL
MODEL 9
REMARK VINA RESULT:    -3.325      1.828      2.248
REMARK INTER + INTRA:          -4.008
REMARK INTER:                  -3.808
REMARK INTRA:                  -0.200
REMARK UNBOUND:                -0.002
REMARK SMILES OCC(O)CO
REMARK SMILES IDX 3 1 5 2 6 3 2 5 1 6 4 8
REMARK H PARENT 6 4 1 7 4 9
REMARK Flexibility Score: inf
ROOT
ATOM      1  C   UNL     1      27.751   7.721  19.990  1.00  0.00     0.165 C 
ENDROOT
BRANCH   1   2
ATOM      2  C   UNL     1      26.567   6.744  19.929  1.00  0.00     0.190 C 
BRANCH   2   3
ATOM      3  O   UNL     1      26.704   5.757  20.915  1.00  0.00    -0.394 OA
ATOM      4  H   UNL     1      26.235   6.103  21.717  1.00  0.00     0.210 HD
ENDBRANCH   2   3
ENDBRANCH   1   2
BRANCH   1   5
ATOM      5  C   UNL     1      29.000   7.150  19.305  1.00  0.00     0.190 C 
BRANCH   5   6
ATOM      6  O   UNL     1      29.057   5.759  19.472  1.00  0.00    -0.394 OA
ATOM      7  H   UNL     1      28.867   5.590  20.431  1.00  0.00     0.210 HD
ENDBRANCH   5   6
ENDBRANCH   1   5
BRANCH   1   8
ATOM      8  O   UNL     1      27.401   8.933  19.372  1.00  0.00    -0.388 OA
ATOM      9  H   UNL     1      28.026   9.623  19.718  1.00  0.00     0.211 HD
ENDBRANCH   1   8
TORSDOF 5
ENDMDL
