MODEL 1
REMARK VINA RESULT:    -4.560      0.000      0.000
REMARK INTER + INTRA:          -4.844
REMARK INTER:                  -4.827
REMARK INTRA:                  -0.017
REMARK UNBOUND:                -0.017
REMARK SMILES O=C([O-])c1cccnc1
REMARK SMILES IDX 4 1 5 2 9 3 6 4 8 5 7 6 2 7 1 8 3 9
REMARK H PARENT
REMARK Flexibility Score: inf
ROOT
ATOM      1  C   UNL     1      33.663  14.999  80.503  1.00  0.00     0.016 A 
ATOM      2  C   UNL     1      32.779  14.815  81.579  1.00  0.00     0.013 A 
ATOM      3  C   UNL     1      34.593  13.984  80.221  1.00  0.00     0.120 A 
ATOM      4  C   UNL     1      32.836  13.646  82.340  1.00  0.00     0.021 A 
ATOM      5  N   UNL     1      34.629  12.855  80.979  1.00  0.00    -0.264 NA
ATOM      6  C   UNL     1      33.778  12.667  82.022  1.00  0.00     0.111 A 
ENDROOT
BRANCH   1   7
ATOM      7  C   UNL     1      33.611  16.233  79.689  1.00  0.00     0.073 C 
ATOM      8  O   UNL     1      33.316  16.181  78.466  1.00  0.00    -0.545 OA
ATOM      9  O   UNL     1      33.888  17.468  80.264  1.00  0.00    -0.545 OA
ENDBRANCH   1   7
TORSDOF 1
ENDMDL
MODEL 2
REMARK VINA RESULT:    -4.326      3.075      3.928
REMARK INTER + INTRA:          -4.596
REMARK INTER:                  -4.578
REMARK INTRA:                  -0.017
REMARK UNBOUND:                -0.017
REMARK SMILES O=C([O-])c1cccnc1
REMARK SMILES IDX 4 1 5 2 9 3 6 4 8 5 7 6 2 7 1 8 3 9
REMARK H PARENT
REMARK Flexibility Score: inf
ROOT
ATOM      1  C   UNL     1      33.419  13.915  81.664  1.00  0.00     0.016 A 
ATOM      2  C   UNL     1      34.776  13.941  81.305  1.00  0.00     0.013 A 
ATOM      3  C   UNL     1      32.561  14.876  81.102  1.00  0.00     0.120 A 
ATOM      4  C   UNL     1      35.247  14.904  80.411  1.00  0.00     0.021 A 
ATOM      5  N   UNL     1      33.045  15.805  80.233  1.00  0.00    -0.264 NA
ATOM      6  C   UNL     1      34.357  15.838  79.880  1.00  0.00     0.111 A 
ENDROOT
BRANCH   1   7
ATOM      7  C   UNL     1      32.909  12.899  82.611  1.00  0.00     0.073 C 
ATOM      8  O   UNL     1      32.043  12.061  82.244  1.00  0.00    -0.545 OA
ATOM      9  O   UNL     1      33.378  12.856  83.918  1.00  0.00    -0.545 OA
ENDBRANCH   1   7
TORSDOF 1
ENDMDL
MODEL 3
REMARK VINA RESULT:    -3.652     12.155     12.960
REMARK INTER + INTRA:          -3.883
REMARK INTER:                  -3.863
REMARK INTRA:                  -0.020
REMARK UNBOUND:                -0.017
REMARK SMILES O=C([O-])c1cccnc1
REMARK SMILES IDX 4 1 5 2 9 3 6 4 8 5 7 6 2 7 1 8 3 9
REMARK H PARENT
REMARK Flexibility Score: inf
ROOT
ATOM      1  C   UNL     1      40.141   3.961  81.269  1.00  0.00     0.016 A 
ATOM      2  C   UNL     1      40.395   3.146  80.153  1.00  0.00     0.013 A 
ATOM      3  C   UNL     1      38.934   3.781  81.967  1.00  0.00     0.120 A 
ATOM      4  C   UNL     1      39.462   2.186  79.759  1.00  0.00     0.021 A 
ATOM      5  N   UNL     1      38.041   2.839  81.561  1.00  0.00    -0.264 NA
ATOM      6  C   UNL     1      38.277   2.046  80.483  1.00  0.00     0.111 A 
ENDROOT
BRANCH   1   7
ATOM      7  C   UNL     1      41.124   4.981  81.696  1.00  0.00     0.073 C 
ATOM      8  O   UNL     1      40.740   6.116  82.085  1.00  0.00    -0.545 OA
ATOM      9  O   UNL     1      42.485   4.701  81.675  1.00  0.00    -0.545 OA
ENDBRANCH   1   7
TORSDOF 1
ENDMDL
MODEL 4
REMARK VINA RESULT:    -3.426     12.265     12.856
REMARK INTER + INTRA:          -3.644
REMARK INTER:                  -3.623
REMARK INTRA:                  -0.021
REMARK UNBOUND:                -0.017
REMARK SMILES O=C([O-])c1cccnc1
REMARK SMILES IDX 4 1 5 2 9 3 6 4 8 5 7 6 2 7 1 8 3 9
REMARK H PARENT
REMARK Flexibility Score: inf
ROOT
ATOM      1  C   UNL     1      40.117   3.957  81.272  1.00  0.00     0.016 A 
ATOM      2  C   UNL     1      38.919   3.790  81.984  1.00  0.00     0.013 A 
ATOM      3  C   UNL     1      40.356   3.129  80.161  1.00  0.00     0.120 A 
ATOM      4  C   UNL     1      37.996   2.820  81.587  1.00  0.00     0.021 A 
ATOM      5  N   UNL     1      39.441   2.192  79.795  1.00  0.00    -0.264 NA
ATOM      6  C   UNL     1      38.278   2.021  80.478  1.00  0.00     0.111 A 
ENDROOT
BRANCH   1   7
ATOM      7  C   UNL     1      41.101   4.982  81.684  1.00  0.00     0.073 C 
ATOM      8  O   UNL     1      40.717   6.100  82.118  1.00  0.00    -0.545 OA
ATOM      9  O   UNL     1      42.464   4.723  81.598  1.00  0.00    -0.545 OA
ENDBRANCH   1   7
TORSDOF 1
ENDMDL
MODEL 5
REMARK VINA RESULT:    -3.210     13.486     14.446
REMARK INTER + INTRA:          -3.415
REMARK INTER:                  -3.392
REMARK INTRA:                  -0.023
REMARK UNBOUND:                -0.017
REMARK SMILES O=C([O-])c1cccnc1
REMARK SMILES IDX 4 1 5 2 9 3 6 4 8 5 7 6 2 7 1 8 3 9
REMARK H PARENT
REMARK Flexibility Score: inf
ROOT
ATOM      1  C   UNL     1      44.672  19.076  73.255  1.00  0.00     0.016 A 
ATOM      2  C   UNL     1      43.290  19.322  73.274  1.00  0.00     0.013 A 
ATOM      3  C   UNL     1      45.397  19.426  72.103  1.00  0.00     0.120 A 
ATOM      4  C   UNL     1      42.665  19.902  72.168  1.00  0.00     0.021 A 
ATOM      5  N   UNL     1      44.765  19.989  71.038  1.00  0.00    -0.264 NA
ATOM      6  C   UNL     1      43.427  20.232  71.047  1.00  0.00     0.111 A 
ENDROOT
BRANCH   1   7
ATOM      7  C   UNL     1      45.344  18.462  74.421  1.00  0.00     0.073 C 
ATOM      8  O   UNL     1      44.828  18.533  75.568  1.00  0.00    -0.545 OA
ATOM      9  O   UNL     1      46.556  17.799  74.267  1.00  0.00    -0.545 OA
ENDBRANCH   1   7
TORSDOF 1
ENDMDL
MODEL 6
REMARK VINA RESULT:    -3.169     13.199     14.102
REMARK INTER + INTRA:          -3.371
REMARK INTER:                  -3.350
REMARK INTRA:                  -0.021
REMARK UNBOUND:                -0.017
REMARK SMILES O=C([O-])c1cccnc1
REMARK SMILES IDX 4 1 5 2 9 3 6 4 8 5 7 6 2 7 1 8 3 9
REMARK H PARENT
REMARK Flexibility Score: inf
ROOT
ATOM      1  C   UNL     1      44.523  19.217  73.602  1.00  0.00     0.016 A 
ATOM      2  C   UNL     1      45.089  18.510  74.675  1.00  0.00     0.013 A 
ATOM      3  C   UNL     1      45.272  19.352  72.420  1.00  0.00     0.120 A 
ATOM      4  C   UNL     1      46.366  17.959  74.555  1.00  0.00     0.021 A 
ATOM      5  N   UNL     1      46.515  18.806  72.329  1.00  0.00    -0.264 NA
ATOM      6  C   UNL     1      47.072  18.120  73.362  1.00  0.00     0.111 A 
ENDROOT
BRANCH   1   7
ATOM      7  C   UNL     1      43.170  19.805  73.717  1.00  0.00     0.073 C 
ATOM      8  O   UNL     1      42.766  20.270  74.815  1.00  0.00    -0.545 OA
ATOM      9  O   UNL     1      42.327  19.852  72.613  1.00  0.00    -0.545 OA
ENDBRANCH   1   7
TORSDOF 1
ENDMDL
MODEL 7
REMARK VINA RESULT:    -3.157     12.457     13.212
REMARK INTER + INTRA:          -3.358
REMARK INTER:                  -3.341
REMARK INTRA:                  -0.017
REMARK UNBOUND:                -0.017
REMARK SMILES O=C([O-])c1cccnc1
REMARK SMILES IDX 4 1 5 2 9 3 6 4 8 5 7 6 2 7 1 8 3 9
REMARK H PARENT
REMARK Flexibility Score: inf
ROOT
ATOM      1  C   UNL     1      40.908   4.104  80.693  1.00  0.00     0.016 A 
ATOM      2  C   UNL     1      40.117   4.450  79.586  1.00  0.00     0.013 A 
ATOM      3  C   UNL     1      41.137   2.742  80.952  1.00  0.00     0.120 A 
ATOM      4  C   UNL     1      39.578   3.453  78.771  1.00  0.00     0.021 A 
ATOM      5  N   UNL     1      40.600   1.790  80.142  1.00  0.00    -0.264 NA
ATOM      6  C   UNL     1      39.833   2.113  79.068  1.00  0.00     0.111 A 
ENDROOT
BRANCH   1   7
ATOM      7  C   UNL     1      41.484   5.153  81.564  1.00  0.00     0.073 C 
ATOM      8  O   UNL     1      42.729   5.342  81.599  1.00  0.00    -0.545 OA
ATOM      9  O   UNL     1      40.659   5.942  82.355  1.00  0.00    -0.545 OA
ENDBRANCH   1   7
TORSDOF 1
ENDMDL
MODEL 8
REMARK VINA RESULT:    -3.109     13.971     14.814
REMARK INTER + INTRA:          -3.308
REMARK INTER:                  -3.289
REMARK INTRA:                  -0.019
REMARK UNBOUND:                -0.017
REMARK SMILES O=C([O-])c1cccnc1
REMARK SMILES IDX 4 1 5 2 9 3 6 4 8 5 7 6 2 7 1 8 3 9
REMARK H PARENT
REMARK Flexibility Score: inf
ROOT
ATOM      1  C   UNL     1      45.010  19.379  72.309  1.00  0.00     0.016 A 
ATOM      2  C   UNL     1      44.310  19.273  73.521  1.00  0.00     0.013 A 
ATOM      3  C   UNL     1      46.325  18.884  72.249  1.00  0.00     0.120 A 
ATOM      4  C   UNL     1      44.920  18.688  74.633  1.00  0.00     0.021 A 
ATOM      5  N   UNL     1      46.895  18.320  73.347  1.00  0.00    -0.264 NA
ATOM      6  C   UNL     1      46.227  18.213  74.526  1.00  0.00     0.111 A 
ENDROOT
BRANCH   1   7
ATOM      7  C   UNL     1      44.374  19.996  71.124  1.00  0.00     0.073 C 
ATOM      8  O   UNL     1      44.991  20.858  70.443  1.00  0.00    -0.545 OA
ATOM      9  O   UNL     1      43.087  19.633  70.746  1.00  0.00    -0.545 OA
ENDBRANCH   1   7
TORSDOF 1
ENDMDL
MODEL 9
REMARK VINA RESULT:    -3.102     10.160     10.914
REMARK INTER + INTRA:          -3.300
REMARK INTER:                  -3.278
REMARK INTRA:                  -0.022
REMARK UNBOUND:                -0.017
REMARK SMILES O=C([O-])c1cccnc1
REMARK SMILES IDX 4 1 5 2 9 3 6 4 8 5 7 6 2 7 1 8 3 9
REMARK H PARENT
REMARK Flexibility Score: inf
ROOT
ATOM      1  C   UNL     1      41.767   9.589  84.983  1.00  0.00     0.016 A 
ATOM      2  C   UNL     1      41.785  10.960  85.285  1.00  0.00     0.013 A 
ATOM      3  C   UNL     1      42.034   8.673  86.016  1.00  0.00     0.120 A 
ATOM      4  C   UNL     1      42.062  11.388  86.585  1.00  0.00     0.021 A 
ATOM      5  N   UNL     1      42.302   9.117  87.274  1.00  0.00    -0.264 NA
ATOM      6  C   UNL     1      42.322  10.442  87.576  1.00  0.00     0.111 A 
ENDROOT
BRANCH   1   7
ATOM      7  C   UNL     1      41.474   9.124  83.610  1.00  0.00     0.073 C 
ATOM      8  O   UNL     1      41.852   7.986  83.225  1.00  0.00    -0.545 OA
ATOM      9  O   UNL     1      40.777   9.937  82.725  1.00  0.00    -0.545 OA
ENDBRANCH   1   7
TORSDOF 1
ENDMDL
