MODEL 1
REMARK VINA RESULT:    -5.890      0.000      0.000
REMARK INTER + INTRA:         -12.699
REMARK INTER:                 -11.056
REMARK INTRA:                  -1.644
REMARK UNBOUND:                -1.644
REMARK SMILES O=C([O-])CCCCCCCCCCCCCCC(=O)[O-]
REMARK SMILES IDX 10 1 9 2 8 3 7 4 6 5 5 6 4 7 2 8 1 9 3 10 11 11 12 12 13 13
REMARK SMILES IDX 14 14 15 15 16 16 17 17 18 18 19 19 20 20
REMARK H PARENT
REMARK Flexibility Score: inf
ROOT
ATOM      1  C   UNL     1     -15.769 -12.735  -8.076  1.00  0.00     0.000 C 
ENDROOT
BRANCH   1   2
ATOM      2  C   UNL     1     -14.675 -12.426  -9.113  1.00  0.00     0.000 C 
BRANCH   2   3
ATOM      3  C   UNL     1     -15.138 -11.430 -10.193  1.00  0.00     0.000 C 
BRANCH   3   4
ATOM      4  C   UNL     1     -16.609 -11.571 -10.625  1.00  0.00     0.000 C 
BRANCH   4   5
ATOM      5  C   UNL     1     -17.403 -10.263 -10.491  1.00  0.00     0.000 C 
BRANCH   5   6
ATOM      6  C   UNL     1     -18.904 -10.508 -10.688  1.00  0.00     0.006 C 
BRANCH   6   7
ATOM      7  C   UNL     1     -19.152 -11.531 -11.801  1.00  0.00     0.053 C 
BRANCH   7   8
ATOM      8  C   UNL     1     -20.255 -11.069 -12.699  1.00  0.00     0.041 C 
ATOM      9  O   UNL     1     -20.777  -9.934 -12.530  1.00  0.00    -0.550 OA
ATOM     10  O   UNL     1     -20.741 -11.908 -13.694  1.00  0.00    -0.550 OA
ENDBRANCH   7   8
ENDBRANCH   6   7
ENDBRANCH   5   6
ENDBRANCH   4   5
ENDBRANCH   3   4
ENDBRANCH   2   3
ENDBRANCH   1   2
BRANCH   1  11
ATOM     11  C   UNL     1     -15.735 -11.770  -6.880  1.00  0.00     0.000 C 
BRANCH  11  12
ATOM     12  C   UNL     1     -17.068 -11.034  -6.672  1.00  0.00     0.000 C 
BRANCH  12  13
ATOM     13  C   UNL     1     -16.827  -9.570  -6.270  1.00  0.00     0.000 C 
BRANCH  13  14
ATOM     14  C   UNL     1     -17.043  -8.592  -7.435  1.00  0.00     0.000 C 
BRANCH  14  15
ATOM     15  C   UNL     1     -15.726  -8.170  -8.106  1.00  0.00     0.000 C 
BRANCH  15  16
ATOM     16  C   UNL     1     -14.545  -8.318  -7.139  1.00  0.00     0.006 C 
BRANCH  16  17
ATOM     17  C   UNL     1     -13.635  -9.476  -7.557  1.00  0.00     0.053 C 
BRANCH  17  18
ATOM     18  C   UNL     1     -12.434  -9.548  -6.668  1.00  0.00     0.041 C 
ATOM     19  O   UNL     1     -12.364 -10.424  -5.766  1.00  0.00    -0.550 OA
ATOM     20  O   UNL     1     -11.370  -8.676  -6.866  1.00  0.00    -0.550 OA
ENDBRANCH  17  18
ENDBRANCH  16  17
ENDBRANCH  15  16
ENDBRANCH  14  15
ENDBRANCH  13  14
ENDBRANCH  12  13
ENDBRANCH  11  12
ENDBRANCH   1  11
TORSDOF 15
ENDMDL
MODEL 2
REMARK VINA RESULT:    -5.827      3.518      5.165
REMARK INTER + INTRA:         -12.580
REMARK INTER:                 -11.212
REMARK INTRA:                  -1.368
REMARK UNBOUND:                -1.644
REMARK SMILES O=C([O-])CCCCCCCCCCCCCCC(=O)[O-]
REMARK SMILES IDX 10 1 9 2 8 3 7 4 6 5 5 6 4 7 2 8 1 9 3 10 11 11 12 12 13 13
REMARK SMILES IDX 14 14 15 15 16 16 17 17 18 18 19 19 20 20
REMARK H PARENT
REMARK Flexibility Score: inf
ROOT
ATOM      1  C   UNL     1     -15.272 -12.251  -8.106  1.00  0.00     0.000 C 
ENDROOT
BRANCH   1   2
ATOM      2  C   UNL     1     -14.501 -12.218  -9.437  1.00  0.00     0.000 C 
BRANCH   2   3
ATOM      3  C   UNL     1     -15.168 -11.317 -10.492  1.00  0.00     0.000 C 
BRANCH   3   4
ATOM      4  C   UNL     1     -16.685 -11.520 -10.662  1.00  0.00     0.000 C 
BRANCH   4   5
ATOM      5  C   UNL     1     -17.508 -10.301 -10.221  1.00  0.00     0.000 C 
BRANCH   5   6
ATOM      6  C   UNL     1     -16.597  -9.178  -9.709  1.00  0.00     0.006 C 
BRANCH   6   7
ATOM      7  C   UNL     1     -17.304  -8.340  -8.641  1.00  0.00     0.053 C 
BRANCH   7   8
ATOM      8  C   UNL     1     -16.982  -8.854  -7.274  1.00  0.00     0.041 C 
ATOM      9  O   UNL     1     -16.056  -8.328  -6.600  1.00  0.00    -0.550 OA
ATOM     10  O   UNL     1     -17.671  -9.946  -6.761  1.00  0.00    -0.550 OA
ENDBRANCH   7   8
ENDBRANCH   6   7
ENDBRANCH   5   6
ENDBRANCH   4   5
ENDBRANCH   3   4
ENDBRANCH   2   3
ENDBRANCH   1   2
BRANCH   1  11
ATOM     11  C   UNL     1     -14.465 -11.652  -6.943  1.00  0.00     0.000 C 
BRANCH  11  12
ATOM     12  C   UNL     1     -13.523 -10.525  -7.392  1.00  0.00     0.000 C 
BRANCH  12  13
ATOM     13  C   UNL     1     -12.444 -10.258  -6.331  1.00  0.00     0.000 C 
BRANCH  13  14
ATOM     14  C   UNL     1     -12.744 -10.951  -4.993  1.00  0.00     0.000 C 
BRANCH  14  15
ATOM     15  C   UNL     1     -11.522 -11.684  -4.418  1.00  0.00     0.000 C 
BRANCH  15  16
ATOM     16  C   UNL     1     -11.787 -12.152  -2.982  1.00  0.00     0.006 C 
BRANCH  16  17
ATOM     17  C   UNL     1     -10.542 -12.805  -2.378  1.00  0.00     0.053 C 
BRANCH  17  18
ATOM     18  C   UNL     1     -10.413 -12.450  -0.930  1.00  0.00     0.041 C 
ATOM     19  O   UNL     1      -9.784 -13.208  -0.145  1.00  0.00    -0.550 OA
ATOM     20  O   UNL     1     -10.946 -11.257  -0.457  1.00  0.00    -0.550 OA
ENDBRANCH  17  18
ENDBRANCH  16  17
ENDBRANCH  15  16
ENDBRANCH  14  15
ENDBRANCH  13  14
ENDBRANCH  12  13
ENDBRANCH  11  12
ENDBRANCH   1  11
TORSDOF 15
ENDMDL
MODEL 3
REMARK VINA RESULT:    -5.826      4.032      8.946
REMARK INTER + INTRA:         -12.579
REMARK INTER:                 -11.346
REMARK INTRA:                  -1.233
REMARK UNBOUND:                -1.644
REMARK SMILES O=C([O-])CCCCCCCCCCCCCCC(=O)[O-]
REMARK SMILES IDX 10 1 9 2 8 3 7 4 6 5 5 6 4 7 2 8 1 9 3 10 11 11 12 12 13 13
REMARK SMILES IDX 14 14 15 15 16 16 17 17 18 18 19 19 20 20
REMARK H PARENT
REMARK Flexibility Score: inf
ROOT
ATOM      1  C   UNL     1     -13.626 -10.498  -7.719  1.00  0.00     0.000 C 
ENDROOT
BRANCH   1   2
ATOM      2  C   UNL     1     -12.699 -10.172  -6.535  1.00  0.00     0.000 C 
BRANCH   2   3
ATOM      3  C   UNL     1     -12.988 -11.034  -5.293  1.00  0.00     0.000 C 
BRANCH   3   4
ATOM      4  C   UNL     1     -11.749 -11.435  -4.471  1.00  0.00     0.000 C 
BRANCH   4   5
ATOM      5  C   UNL     1     -12.077 -11.755  -3.005  1.00  0.00     0.000 C 
BRANCH   5   6
ATOM      6  C   UNL     1     -10.939 -12.544  -2.347  1.00  0.00     0.006 C 
BRANCH   6   7
ATOM      7  C   UNL     1     -10.723 -12.093  -0.899  1.00  0.00     0.053 C 
BRANCH   7   8
ATOM      8  C   UNL     1      -9.602 -12.861  -0.274  1.00  0.00     0.041 C 
ATOM      9  O   UNL     1      -9.843 -13.738   0.598  1.00  0.00    -0.550 OA
ATOM     10  O   UNL     1      -8.287 -12.578  -0.620  1.00  0.00    -0.550 OA
ENDBRANCH   7   8
ENDBRANCH   6   7
ENDBRANCH   5   6
ENDBRANCH   4   5
ENDBRANCH   3   4
ENDBRANCH   2   3
ENDBRANCH   1   2
BRANCH   1  11
ATOM     11  C   UNL     1     -14.501 -11.734  -7.458  1.00  0.00     0.000 C 
BRANCH  11  12
ATOM     12  C   UNL     1     -15.049 -12.358  -8.751  1.00  0.00     0.000 C 
BRANCH  12  13
ATOM     13  C   UNL     1     -15.141 -11.307  -9.869  1.00  0.00     0.000 C 
BRANCH  13  14
ATOM     14  C   UNL     1     -16.494 -11.334 -10.598  1.00  0.00     0.000 C 
BRANCH  14  15
ATOM     15  C   UNL     1     -17.415 -10.178 -10.182  1.00  0.00     0.000 C 
BRANCH  15  16
ATOM     16  C   UNL     1     -16.601  -8.987  -9.663  1.00  0.00     0.006 C 
BRANCH  16  17
ATOM     17  C   UNL     1     -17.329  -8.281  -8.515  1.00  0.00     0.053 C 
BRANCH  17  18
ATOM     18  C   UNL     1     -16.942  -8.881  -7.200  1.00  0.00     0.041 C 
ATOM     19  O   UNL     1     -16.029  -8.359  -6.509  1.00  0.00    -0.550 OA
ATOM     20  O   UNL     1     -17.624  -9.991  -6.716  1.00  0.00    -0.550 OA
ENDBRANCH  17  18
ENDBRANCH  16  17
ENDBRANCH  15  16
ENDBRANCH  14  15
ENDBRANCH  13  14
ENDBRANCH  12  13
ENDBRANCH  11  12
ENDBRANCH   1  11
TORSDOF 15
ENDMDL
MODEL 4
REMARK VINA RESULT:    -5.760      3.465      4.815
REMARK INTER + INTRA:         -12.456
REMARK INTER:                 -11.199
REMARK INTRA:                  -1.257
REMARK UNBOUND:                -1.644
REMARK SMILES O=C([O-])CCCCCCCCCCCCCCC(=O)[O-]
REMARK SMILES IDX 10 1 9 2 8 3 7 4 6 5 5 6 4 7 2 8 1 9 3 10 11 11 12 12 13 13
REMARK SMILES IDX 14 14 15 15 16 16 17 17 18 18 19 19 20 20
REMARK H PARENT
REMARK Flexibility Score: inf
ROOT
ATOM      1  C   UNL     1     -15.759 -11.373  -6.949  1.00  0.00     0.000 C 
ENDROOT
BRANCH   1   2
ATOM      2  C   UNL     1     -16.192  -9.979  -6.462  1.00  0.00     0.000 C 
BRANCH   2   3
ATOM      3  C   UNL     1     -17.635  -9.624  -6.867  1.00  0.00     0.000 C 
BRANCH   3   4
ATOM      4  C   UNL     1     -17.761  -8.572  -7.983  1.00  0.00     0.000 C 
BRANCH   4   5
ATOM      5  C   UNL     1     -16.457  -8.371  -8.770  1.00  0.00     0.000 C 
BRANCH   5   6
ATOM      6  C   UNL     1     -16.557  -8.995 -10.167  1.00  0.00     0.006 C 
BRANCH   6   7
ATOM      7  C   UNL     1     -17.911  -9.682 -10.367  1.00  0.00     0.053 C 
BRANCH   7   8
ATOM      8  C   UNL     1     -17.719 -11.077 -10.871  1.00  0.00     0.041 C 
ATOM      9  O   UNL     1     -18.682 -11.701 -11.393  1.00  0.00    -0.550 OA
ATOM     10  O   UNL     1     -16.491 -11.708 -10.724  1.00  0.00    -0.550 OA
ENDBRANCH   7   8
ENDBRANCH   6   7
ENDBRANCH   5   6
ENDBRANCH   4   5
ENDBRANCH   3   4
ENDBRANCH   2   3
ENDBRANCH   1   2
BRANCH   1  11
ATOM     11  C   UNL     1     -14.250 -11.458  -7.224  1.00  0.00     0.000 C 
BRANCH  11  12
ATOM     12  C   UNL     1     -13.562 -10.084  -7.190  1.00  0.00     0.000 C 
BRANCH  12  13
ATOM     13  C   UNL     1     -12.438 -10.060  -6.141  1.00  0.00     0.000 C 
BRANCH  13  14
ATOM     14  C   UNL     1     -12.397 -11.337  -5.288  1.00  0.00     0.000 C 
BRANCH  14  15
ATOM     15  C   UNL     1     -12.081 -11.054  -3.811  1.00  0.00     0.000 C 
BRANCH  15  16
ATOM     16  C   UNL     1     -11.561 -12.314  -3.109  1.00  0.00     0.006 C 
BRANCH  16  17
ATOM     17  C   UNL     1     -11.396 -12.077  -1.606  1.00  0.00     0.053 C 
BRANCH  17  18
ATOM     18  C   UNL     1     -10.182 -12.786  -1.093  1.00  0.00     0.041 C 
ATOM     19  O   UNL     1     -10.156 -13.226   0.087  1.00  0.00    -0.550 OA
ATOM     20  O   UNL     1      -9.097 -13.003  -1.934  1.00  0.00    -0.550 OA
ENDBRANCH  17  18
ENDBRANCH  16  17
ENDBRANCH  15  16
ENDBRANCH  14  15
ENDBRANCH  13  14
ENDBRANCH  12  13
ENDBRANCH  11  12
ENDBRANCH   1  11
TORSDOF 15
ENDMDL
MODEL 5
REMARK VINA RESULT:    -5.745      3.651      8.862
REMARK INTER + INTRA:         -12.427
REMARK INTER:                 -11.351
REMARK INTRA:                  -1.076
REMARK UNBOUND:                -1.644
REMARK SMILES O=C([O-])CCCCCCCCCCCCCCC(=O)[O-]
REMARK SMILES IDX 10 1 9 2 8 3 7 4 6 5 5 6 4 7 2 8 1 9 3 10 11 11 12 12 13 13
REMARK SMILES IDX 14 14 15 15 16 16 17 17 18 18 19 19 20 20
REMARK H PARENT
REMARK Flexibility Score: inf
ROOT
ATOM      1  C   UNL     1     -14.279 -11.686  -6.931  1.00  0.00     0.000 C 
ENDROOT
BRANCH   1   2
ATOM      2  C   UNL     1     -13.312 -10.490  -7.003  1.00  0.00     0.000 C 
BRANCH   2   3
ATOM      3  C   UNL     1     -12.538 -10.267  -5.691  1.00  0.00     0.000 C 
BRANCH   3   4
ATOM      4  C   UNL     1     -12.138 -11.551  -4.941  1.00  0.00     0.000 C 
BRANCH   4   5
ATOM      5  C   UNL     1     -12.139 -11.380  -3.414  1.00  0.00     0.000 C 
BRANCH   5   6
ATOM      6  C   UNL     1     -11.266 -12.447  -2.742  1.00  0.00     0.006 C 
BRANCH   6   7
ATOM      7  C   UNL     1     -11.071 -12.139  -1.254  1.00  0.00     0.053 C 
BRANCH   7   8
ATOM      8  C   UNL     1      -9.865 -12.849  -0.727  1.00  0.00     0.041 C 
ATOM      9  O   UNL     1      -8.843 -12.986  -1.452  1.00  0.00    -0.550 OA
ATOM     10  O   UNL     1      -9.883 -13.402   0.547  1.00  0.00    -0.550 OA
ENDBRANCH   7   8
ENDBRANCH   6   7
ENDBRANCH   5   6
ENDBRANCH   4   5
ENDBRANCH   3   4
ENDBRANCH   2   3
ENDBRANCH   1   2
BRANCH   1  11
ATOM     11  C   UNL     1     -15.679 -11.343  -7.465  1.00  0.00     0.000 C 
BRANCH  11  12
ATOM     12  C   UNL     1     -16.664 -10.966  -6.347  1.00  0.00     0.000 C 
BRANCH  12  13
ATOM     13  C   UNL     1     -17.263  -9.572  -6.594  1.00  0.00     0.000 C 
BRANCH  13  14
ATOM     14  C   UNL     1     -16.348  -8.674  -7.440  1.00  0.00     0.000 C 
BRANCH  14  15
ATOM     15  C   UNL     1     -17.064  -8.083  -8.664  1.00  0.00     0.000 C 
BRANCH  15  16
ATOM     16  C   UNL     1     -16.994  -9.043  -9.858  1.00  0.00     0.006 C 
BRANCH  16  17
ATOM     17  C   UNL     1     -18.348  -9.714 -10.104  1.00  0.00     0.053 C 
BRANCH  17  18
ATOM     18  C   UNL     1     -18.177 -10.962 -10.911  1.00  0.00     0.041 C 
ATOM     19  O   UNL     1     -17.055 -11.530 -10.969  1.00  0.00    -0.550 OA
ATOM     20  O   UNL     1     -19.268 -11.524 -11.562  1.00  0.00    -0.550 OA
ENDBRANCH  17  18
ENDBRANCH  16  17
ENDBRANCH  15  16
ENDBRANCH  14  15
ENDBRANCH  13  14
ENDBRANCH  12  13
ENDBRANCH  11  12
ENDBRANCH   1  11
TORSDOF 15
ENDMDL
MODEL 6
REMARK VINA RESULT:    -5.732      4.126      9.595
REMARK INTER + INTRA:         -12.403
REMARK INTER:                 -11.659
REMARK INTRA:                  -0.744
REMARK UNBOUND:                -1.644
REMARK SMILES O=C([O-])CCCCCCCCCCCCCCC(=O)[O-]
REMARK SMILES IDX 10 1 9 2 8 3 7 4 6 5 5 6 4 7 2 8 1 9 3 10 11 11 12 12 13 13
REMARK SMILES IDX 14 14 15 15 16 16 17 17 18 18 19 19 20 20
REMARK H PARENT
REMARK Flexibility Score: inf
ROOT
ATOM      1  C   UNL     1     -12.508  -9.903  -6.461  1.00  0.00     0.000 C 
ENDROOT
BRANCH   1   2
ATOM      2  C   UNL     1     -12.497 -11.145  -5.552  1.00  0.00     0.000 C 
BRANCH   2   3
ATOM      3  C   UNL     1     -12.243 -10.801  -4.072  1.00  0.00     0.000 C 
BRANCH   3   4
ATOM      4  C   UNL     1     -11.751 -11.974  -3.204  1.00  0.00     0.000 C 
BRANCH   4   5
ATOM      5  C   UNL     1     -11.796 -11.668  -1.699  1.00  0.00     0.000 C 
BRANCH   5   6
ATOM      6  C   UNL     1     -10.700 -12.433  -0.950  1.00  0.00     0.006 C 
BRANCH   6   7
ATOM      7  C   UNL     1      -9.737 -13.113  -1.928  1.00  0.00     0.053 C 
BRANCH   7   8
ATOM      8  C   UNL     1      -8.502 -13.565  -1.216  1.00  0.00     0.041 C 
ATOM      9  O   UNL     1      -7.836 -12.752  -0.521  1.00  0.00    -0.550 OA
ATOM     10  O   UNL     1      -8.057 -14.874  -1.356  1.00  0.00    -0.550 OA
ENDBRANCH   7   8
ENDBRANCH   6   7
ENDBRANCH   5   6
ENDBRANCH   4   5
ENDBRANCH   3   4
ENDBRANCH   2   3
ENDBRANCH   1   2
BRANCH   1  11
ATOM     11  C   UNL     1     -13.754  -9.843  -7.359  1.00  0.00     0.000 C 
BRANCH  11  12
ATOM     12  C   UNL     1     -15.062  -9.769  -6.556  1.00  0.00     0.000 C 
BRANCH  12  13
ATOM     13  C   UNL     1     -15.730  -8.395  -6.724  1.00  0.00     0.000 C 
BRANCH  13  14
ATOM     14  C   UNL     1     -16.976  -8.446  -7.622  1.00  0.00     0.000 C 
BRANCH  14  15
ATOM     15  C   UNL     1     -16.636  -8.325  -9.115  1.00  0.00     0.000 C 
BRANCH  15  16
ATOM     16  C   UNL     1     -16.964  -9.625  -9.860  1.00  0.00     0.006 C 
BRANCH  16  17
ATOM     17  C   UNL     1     -18.477  -9.807 -10.008  1.00  0.00     0.053 C 
BRANCH  17  18
ATOM     18  C   UNL     1     -18.791 -10.631 -11.217  1.00  0.00     0.041 C 
ATOM     19  O   UNL     1     -18.208 -11.732 -11.402  1.00  0.00    -0.550 OA
ATOM     20  O   UNL     1     -19.763 -10.207 -12.115  1.00  0.00    -0.550 OA
ENDBRANCH  17  18
ENDBRANCH  16  17
ENDBRANCH  15  16
ENDBRANCH  14  15
ENDBRANCH  13  14
ENDBRANCH  12  13
ENDBRANCH  11  12
ENDBRANCH   1  11
TORSDOF 15
ENDMDL
MODEL 7
REMARK VINA RESULT:    -5.712      4.716      6.189
REMARK INTER + INTRA:         -12.365
REMARK INTER:                 -11.542
REMARK INTRA:                  -0.823
REMARK UNBOUND:                -1.644
REMARK SMILES O=C([O-])CCCCCCCCCCCCCCC(=O)[O-]
REMARK SMILES IDX 10 1 9 2 8 3 7 4 6 5 5 6 4 7 2 8 1 9 3 10 11 11 12 12 13 13
REMARK SMILES IDX 14 14 15 15 16 16 17 17 18 18 19 19 20 20
REMARK H PARENT
REMARK Flexibility Score: inf
ROOT
ATOM      1  C   UNL     1     -13.692 -11.077  -6.470  1.00  0.00     0.000 C 
ENDROOT
BRANCH   1   2
ATOM      2  C   UNL     1     -13.987 -10.183  -7.688  1.00  0.00     0.000 C 
BRANCH   2   3
ATOM      3  C   UNL     1     -14.631  -8.839  -7.302  1.00  0.00     0.000 C 
BRANCH   3   4
ATOM      4  C   UNL     1     -15.806  -8.938  -6.311  1.00  0.00     0.000 C 
BRANCH   4   5
ATOM      5  C   UNL     1     -17.156  -9.182  -7.001  1.00  0.00     0.000 C 
BRANCH   5   6
ATOM      6  C   UNL     1     -17.173  -8.572  -8.408  1.00  0.00     0.006 C 
BRANCH   6   7
ATOM      7  C   UNL     1     -18.324  -9.143  -9.241  1.00  0.00     0.053 C 
BRANCH   7   8
ATOM      8  C   UNL     1     -17.820 -10.197 -10.175  1.00  0.00     0.041 C 
ATOM      9  O   UNL     1     -18.623 -10.819 -10.921  1.00  0.00    -0.550 OA
ATOM     10  O   UNL     1     -16.471 -10.527 -10.189  1.00  0.00    -0.550 OA
ENDBRANCH   7   8
ENDBRANCH   6   7
ENDBRANCH   5   6
ENDBRANCH   4   5
ENDBRANCH   3   4
ENDBRANCH   2   3
ENDBRANCH   1   2
BRANCH   1  11
ATOM     11  C   UNL     1     -12.497 -10.573  -5.645  1.00  0.00     0.000 C 
BRANCH  11  12
ATOM     12  C   UNL     1     -11.814 -11.692  -4.844  1.00  0.00     0.000 C 
BRANCH  12  13
ATOM     13  C   UNL     1     -12.111 -11.549  -3.342  1.00  0.00     0.000 C 
BRANCH  13  14
ATOM     14  C   UNL     1     -11.201 -12.429  -2.472  1.00  0.00     0.000 C 
BRANCH  14  15
ATOM     15  C   UNL     1     -11.199 -12.003  -0.996  1.00  0.00     0.000 C 
BRANCH  15  16
ATOM     16  C   UNL     1     -10.110 -12.744  -0.211  1.00  0.00     0.006 C 
BRANCH  16  17
ATOM     17  C   UNL     1      -9.212 -13.554  -1.149  1.00  0.00     0.053 C 
BRANCH  17  18
ATOM     18  C   UNL     1      -7.769 -13.286  -0.856  1.00  0.00     0.041 C 
ATOM     19  O   UNL     1      -7.402 -12.144  -0.474  1.00  0.00    -0.550 OA
ATOM     20  O   UNL     1      -6.837 -14.311  -0.959  1.00  0.00    -0.550 OA
ENDBRANCH  17  18
ENDBRANCH  16  17
ENDBRANCH  15  16
ENDBRANCH  14  15
ENDBRANCH  13  14
ENDBRANCH  12  13
ENDBRANCH  11  12
ENDBRANCH   1  11
TORSDOF 15
ENDMDL
MODEL 8
REMARK VINA RESULT:    -5.588      5.770      7.426
REMARK INTER + INTRA:         -12.132
REMARK INTER:                 -11.555
REMARK INTRA:                  -0.577
REMARK UNBOUND:                -1.644
REMARK SMILES O=C([O-])CCCCCCCCCCCCCCC(=O)[O-]
REMARK SMILES IDX 10 1 9 2 8 3 7 4 6 5 5 6 4 7 2 8 1 9 3 10 11 11 12 12 13 13
REMARK SMILES IDX 14 14 15 15 16 16 17 17 18 18 19 19 20 20
REMARK H PARENT
REMARK Flexibility Score: inf
ROOT
ATOM      1  C   UNL     1     -12.128 -11.617  -4.907  1.00  0.00     0.000 C 
ENDROOT
BRANCH   1   2
ATOM      2  C   UNL     1     -12.514 -10.362  -5.709  1.00  0.00     0.000 C 
BRANCH   2   3
ATOM      3  C   UNL     1     -13.763 -10.572  -6.585  1.00  0.00     0.000 C 
BRANCH   3   4
ATOM      4  C   UNL     1     -14.307  -9.301  -7.264  1.00  0.00     0.000 C 
BRANCH   4   5
ATOM      5  C   UNL     1     -15.489  -8.675  -6.509  1.00  0.00     0.000 C 
BRANCH   5   6
ATOM      6  C   UNL     1     -16.817  -8.989  -7.209  1.00  0.00     0.006 C 
BRANCH   6   7
ATOM      7  C   UNL     1     -16.759  -8.612  -8.692  1.00  0.00     0.053 C 
BRANCH   7   8
ATOM      8  C   UNL     1     -17.794  -9.367  -9.464  1.00  0.00     0.041 C 
ATOM      9  O   UNL     1     -19.004  -9.018  -9.412  1.00  0.00    -0.550 OA
ATOM     10  O   UNL     1     -17.432 -10.485 -10.205  1.00  0.00    -0.550 OA
ENDBRANCH   7   8
ENDBRANCH   6   7
ENDBRANCH   5   6
ENDBRANCH   4   5
ENDBRANCH   3   4
ENDBRANCH   2   3
ENDBRANCH   1   2
BRANCH   1  11
ATOM     11  C   UNL     1     -12.092 -11.358  -3.392  1.00  0.00     0.000 C 
BRANCH  11  12
ATOM     12  C   UNL     1     -11.465 -12.521  -2.606  1.00  0.00     0.000 C 
BRANCH  12  13
ATOM     13  C   UNL     1     -11.187 -12.110  -1.151  1.00  0.00     0.000 C 
BRANCH  13  14
ATOM     14  C   UNL     1      -9.964 -12.827  -0.557  1.00  0.00     0.000 C 
BRANCH  14  15
ATOM     15  C   UNL     1      -9.053 -13.436  -1.633  1.00  0.00     0.000 C 
BRANCH  15  16
ATOM     16  C   UNL     1      -8.470 -14.775  -1.165  1.00  0.00     0.006 C 
BRANCH  16  17
ATOM     17  C   UNL     1      -8.163 -15.687  -2.356  1.00  0.00     0.053 C 
BRANCH  17  18
ATOM     18  C   UNL     1      -7.877 -17.080  -1.890  1.00  0.00     0.041 C 
ATOM     19  O   UNL     1      -7.371 -17.921  -2.678  1.00  0.00    -0.550 OA
ATOM     20  O   UNL     1      -8.126 -17.436  -0.570  1.00  0.00    -0.550 OA
ENDBRANCH  17  18
ENDBRANCH  16  17
ENDBRANCH  15  16
ENDBRANCH  14  15
ENDBRANCH  13  14
ENDBRANCH  12  13
ENDBRANCH  11  12
ENDBRANCH   1  11
TORSDOF 15
ENDMDL
MODEL 9
REMARK VINA RESULT:    -5.558      4.561      5.913
REMARK INTER + INTRA:         -12.075
REMARK INTER:                 -11.051
REMARK INTRA:                  -1.024
REMARK UNBOUND:                -1.644
REMARK SMILES O=C([O-])CCCCCCCCCCCCCCC(=O)[O-]
REMARK SMILES IDX 10 1 9 2 8 3 7 4 6 5 5 6 4 7 2 8 1 9 3 10 11 11 12 12 13 13
REMARK SMILES IDX 14 14 15 15 16 16 17 17 18 18 19 19 20 20
REMARK H PARENT
REMARK Flexibility Score: inf
ROOT
ATOM      1  C   UNL     1     -13.662 -10.618  -7.441  1.00  0.00     0.000 C 
ENDROOT
BRANCH   1   2
ATOM      2  C   UNL     1     -14.687 -11.755  -7.281  1.00  0.00     0.000 C 
BRANCH   2   3
ATOM      3  C   UNL     1     -14.923 -12.537  -8.587  1.00  0.00     0.000 C 
BRANCH   3   4
ATOM      4  C   UNL     1     -14.941 -11.681  -9.867  1.00  0.00     0.000 C 
BRANCH   4   5
ATOM      5  C   UNL     1     -16.236 -11.838 -10.677  1.00  0.00     0.000 C 
BRANCH   5   6
ATOM      6  C   UNL     1     -17.240 -10.732 -10.328  1.00  0.00     0.006 C 
BRANCH   6   7
ATOM      7  C   UNL     1     -16.538  -9.542  -9.667  1.00  0.00     0.053 C 
BRANCH   7   8
ATOM      8  C   UNL     1     -17.250  -9.148  -8.412  1.00  0.00     0.041 C 
ATOM      9  O   UNL     1     -17.376  -7.930  -8.110  1.00  0.00    -0.550 OA
ATOM     10  O   UNL     1     -17.734 -10.123  -7.550  1.00  0.00    -0.550 OA
ENDBRANCH   7   8
ENDBRANCH   6   7
ENDBRANCH   5   6
ENDBRANCH   4   5
ENDBRANCH   3   4
ENDBRANCH   2   3
ENDBRANCH   1   2
BRANCH   1  11
ATOM     11  C   UNL     1     -13.033 -10.200  -6.103  1.00  0.00     0.000 C 
BRANCH  11  12
ATOM     12  C   UNL     1     -12.352 -11.369  -5.376  1.00  0.00     0.000 C 
BRANCH  12  13
ATOM     13  C   UNL     1     -12.111 -11.028  -3.897  1.00  0.00     0.000 C 
BRANCH  13  14
ATOM     14  C   UNL     1     -11.702 -12.253  -3.064  1.00  0.00     0.000 C 
BRANCH  14  15
ATOM     15  C   UNL     1     -11.679 -11.964  -1.555  1.00  0.00     0.000 C 
BRANCH  15  16
ATOM     16  C   UNL     1     -10.369 -12.447  -0.923  1.00  0.00     0.006 C 
BRANCH  16  17
ATOM     17  C   UNL     1      -9.533 -13.242  -1.930  1.00  0.00     0.053 C 
BRANCH  17  18
ATOM     18  C   UNL     1      -8.340 -13.848  -1.260  1.00  0.00     0.041 C 
ATOM     19  O   UNL     1      -7.567 -13.131  -0.571  1.00  0.00    -0.550 OA
ATOM     20  O   UNL     1      -8.108 -15.215  -1.357  1.00  0.00    -0.550 OA
ENDBRANCH  17  18
ENDBRANCH  16  17
ENDBRANCH  15  16
ENDBRANCH  14  15
ENDBRANCH  13  14
ENDBRANCH  12  13
ENDBRANCH  11  12
ENDBRANCH   1  11
TORSDOF 15
ENDMDL
