MODEL 1
REMARK VINA RESULT:    -7.034      0.000      0.000
REMARK INTER + INTRA:         -11.565
REMARK INTER:                 -10.735
REMARK INTRA:                  -0.830
REMARK UNBOUND:                -0.830
REMARK SMILES CC(=O)CCC=C(C)CCC=C(C)CCC=C(C)C
REMARK SMILES IDX 10 1 11 2 12 3 13 4 14 5 15 6 16 7 18 8 17 9 19 10 9 11 7 12
REMARK SMILES IDX 6 13 8 14 5 15 4 16 2 17 3 18 1 19
REMARK H PARENT
REMARK Flexibility Score: inf
ROOT
ATOM      1  C   UNL     1      -9.876  74.521  28.585  1.00  0.00     0.032 C 
ENDROOT
BRANCH   1   2
ATOM      2  C   UNL     1     -10.170  74.887  27.148  1.00  0.00    -0.028 C 
ATOM      3  C   UNL     1      -9.700  74.214  26.074  1.00  0.00    -0.077 C 
ATOM      4  C   UNL     1      -8.758  73.042  26.212  1.00  0.00     0.039 C 
BRANCH   3   5
ATOM      5  C   UNL     1     -10.115  74.663  24.687  1.00  0.00     0.034 C 
BRANCH   5   6
ATOM      6  C   UNL     1     -10.199  73.487  23.704  1.00  0.00     0.032 C 
BRANCH   6   7
ATOM      7  C   UNL     1      -9.977  73.933  22.278  1.00  0.00    -0.028 C 
ATOM      8  C   UNL     1      -7.484  73.731  22.424  1.00  0.00     0.039 C 
ATOM      9  C   UNL     1      -8.764  74.076  21.699  1.00  0.00    -0.080 C 
ATOM     10  C   UNL     1      -8.702  74.579  20.280  1.00  0.00     0.039 C 
ENDBRANCH   6   7
ENDBRANCH   5   6
ENDBRANCH   3   5
ENDBRANCH   1   2
BRANCH   1  11
ATOM     11  C   UNL     1     -11.052  73.791  29.245  1.00  0.00     0.034 C 
BRANCH  11  12
ATOM     12  C   UNL     1     -11.016  73.922  30.754  1.00  0.00    -0.077 C 
ATOM     13  C   UNL     1     -11.569  72.948  31.515  1.00  0.00    -0.028 C 
ATOM     14  C   UNL     1     -10.401  75.159  31.360  1.00  0.00     0.039 C 
BRANCH  13  15
ATOM     15  C   UNL     1     -11.586  72.940  33.026  1.00  0.00     0.035 C 
BRANCH  15  16
ATOM     16  C   UNL     1     -10.519  71.999  33.596  1.00  0.00     0.079 C 
BRANCH  16  17
ATOM     17  C   UNL     1     -10.391  72.134  35.091  1.00  0.00     0.130 C 
ATOM     18  O   UNL     1      -9.416  71.669  35.662  1.00  0.00    -0.300 OA
ATOM     19  C   UNL     1     -11.464  72.813  35.886  1.00  0.00     0.087 C 
ENDBRANCH  16  17
ENDBRANCH  15  16
ENDBRANCH  13  15
ENDBRANCH  11  12
ENDBRANCH   1  11
TORSDOF 9
ENDMDL
MODEL 2
REMARK VINA RESULT:    -6.839      3.355     10.374
REMARK INTER + INTRA:         -11.268
REMARK INTER:                 -10.306
REMARK INTRA:                  -0.961
REMARK UNBOUND:                -0.830
REMARK SMILES CC(=O)CCC=C(C)CCC=C(C)CCC=C(C)C
REMARK SMILES IDX 10 1 11 2 12 3 13 4 14 5 15 6 16 7 18 8 17 9 19 10 9 11 7 12
REMARK SMILES IDX 6 13 8 14 5 15 4 16 2 17 3 18 1 19
REMARK H PARENT
REMARK Flexibility Score: inf
ROOT
ATOM      1  C   UNL     1     -10.113  74.421  31.481  1.00  0.00     0.032 C 
ENDROOT
BRANCH   1   2
ATOM      2  C   UNL     1     -10.785  74.267  32.825  1.00  0.00    -0.028 C 
ATOM      3  C   UNL     1     -11.032  73.083  33.429  1.00  0.00    -0.077 C 
ATOM      4  C   UNL     1     -10.708  71.764  32.767  1.00  0.00     0.039 C 
BRANCH   3   5
ATOM      5  C   UNL     1     -11.671  73.078  34.804  1.00  0.00     0.034 C 
BRANCH   5   6
ATOM      6  C   UNL     1     -10.625  73.167  35.923  1.00  0.00     0.032 C 
BRANCH   6   7
ATOM      7  C   UNL     1     -10.243  71.800  36.442  1.00  0.00    -0.028 C 
ATOM      8  C   UNL     1     -11.840  71.898  38.369  1.00  0.00     0.039 C 
ATOM      9  C   UNL     1     -10.757  71.230  37.554  1.00  0.00    -0.080 C 
ATOM     10  C   UNL     1     -10.237  69.880  37.973  1.00  0.00     0.039 C 
ENDBRANCH   6   7
ENDBRANCH   5   6
ENDBRANCH   3   5
ENDBRANCH   1   2
BRANCH   1  11
ATOM     11  C   UNL     1     -11.128  74.622  30.349  1.00  0.00     0.034 C 
BRANCH  11  12
ATOM     12  C   UNL     1     -10.655  73.992  29.054  1.00  0.00    -0.077 C 
ATOM     13  C   UNL     1      -9.805  74.681  28.257  1.00  0.00    -0.028 C 
ATOM     14  C   UNL     1     -11.183  72.631  28.675  1.00  0.00     0.039 C 
BRANCH  13  15
ATOM     15  C   UNL     1      -9.241  74.167  26.952  1.00  0.00     0.035 C 
BRANCH  15  16
ATOM     16  C   UNL     1     -10.061  74.656  25.753  1.00  0.00     0.079 C 
BRANCH  16  17
ATOM     17  C   UNL     1      -9.646  73.978  24.474  1.00  0.00     0.130 C 
ATOM     18  O   UNL     1      -9.467  74.641  23.465  1.00  0.00    -0.300 OA
ATOM     19  C   UNL     1      -9.478  72.490  24.425  1.00  0.00     0.087 C 
ENDBRANCH  16  17
ENDBRANCH  15  16
ENDBRANCH  13  15
ENDBRANCH  11  12
ENDBRANCH   1  11
TORSDOF 9
ENDMDL
MODEL 3
REMARK VINA RESULT:    -6.819      3.730      9.954
REMARK INTER + INTRA:         -11.237
REMARK INTER:                 -10.368
REMARK INTRA:                  -0.868
REMARK UNBOUND:                -0.830
REMARK SMILES CC(=O)CCC=C(C)CCC=C(C)CCC=C(C)C
REMARK SMILES IDX 10 1 11 2 12 3 13 4 14 5 15 6 16 7 18 8 17 9 19 10 9 11 7 12
REMARK SMILES IDX 6 13 8 14 5 15 4 16 2 17 3 18 1 19
REMARK H PARENT
REMARK Flexibility Score: inf
ROOT
ATOM      1  C   UNL     1      -9.609  74.445  27.260  1.00  0.00     0.032 C 
ENDROOT
BRANCH   1   2
ATOM      2  C   UNL     1      -9.759  74.528  28.761  1.00  0.00    -0.028 C 
ATOM      3  C   UNL     1     -10.743  73.929  29.468  1.00  0.00    -0.077 C 
ATOM      4  C   UNL     1     -11.854  73.155  28.798  1.00  0.00     0.039 C 
BRANCH   3   5
ATOM      5  C   UNL     1     -10.745  74.056  30.979  1.00  0.00     0.034 C 
BRANCH   5   6
ATOM      6  C   UNL     1     -11.631  72.994  31.643  1.00  0.00     0.032 C 
BRANCH   6   7
ATOM      7  C   UNL     1     -11.843  73.280  33.111  1.00  0.00    -0.028 C 
ATOM      8  C   UNL     1     -10.139  71.604  33.859  1.00  0.00     0.039 C 
ATOM      9  C   UNL     1     -11.204  72.644  34.118  1.00  0.00    -0.080 C 
ATOM     10  C   UNL     1     -11.562  73.006  35.535  1.00  0.00     0.039 C 
ENDBRANCH   6   7
ENDBRANCH   5   6
ENDBRANCH   3   5
ENDBRANCH   1   2
BRANCH   1  11
ATOM     11  C   UNL     1      -8.989  73.114  26.815  1.00  0.00     0.034 C 
BRANCH  11  12
ATOM     12  C   UNL     1      -9.005  72.964  25.308  1.00  0.00    -0.077 C 
ATOM     13  C   UNL     1     -10.114  73.322  24.620  1.00  0.00    -0.028 C 
ATOM     14  C   UNL     1      -7.793  72.379  24.626  1.00  0.00     0.039 C 
BRANCH  13  15
ATOM     15  C   UNL     1     -10.259  73.244  23.117  1.00  0.00     0.035 C 
BRANCH  15  16
ATOM     16  C   UNL     1      -9.813  74.545  22.441  1.00  0.00     0.079 C 
BRANCH  16  17
ATOM     17  C   UNL     1      -9.155  74.290  21.110  1.00  0.00     0.130 C 
ATOM     18  O   UNL     1      -9.747  74.563  20.077  1.00  0.00    -0.300 OA
ATOM     19  C   UNL     1      -7.789  73.679  21.045  1.00  0.00     0.087 C 
ENDBRANCH  16  17
ENDBRANCH  15  16
ENDBRANCH  13  15
ENDBRANCH  11  12
ENDBRANCH   1  11
TORSDOF 9
ENDMDL
MODEL 4
REMARK VINA RESULT:    -6.793      1.343      1.998
REMARK INTER + INTRA:         -11.198
REMARK INTER:                 -10.128
REMARK INTRA:                  -1.070
REMARK UNBOUND:                -0.830
REMARK SMILES CC(=O)CCC=C(C)CCC=C(C)CCC=C(C)C
REMARK SMILES IDX 10 1 11 2 12 3 13 4 14 5 15 6 16 7 18 8 17 9 19 10 9 11 7 12
REMARK SMILES IDX 6 13 8 14 5 15 4 16 2 17 3 18 1 19
REMARK H PARENT
REMARK Flexibility Score: inf
ROOT
ATOM      1  C   UNL     1     -12.087  73.366  28.735  1.00  0.00     0.032 C 
ENDROOT
BRANCH   1   2
ATOM      2  C   UNL     1     -11.549  73.691  27.362  1.00  0.00    -0.028 C 
ATOM      3  C   UNL     1     -10.416  74.392  27.127  1.00  0.00    -0.077 C 
ATOM      4  C   UNL     1      -9.597  74.988  28.247  1.00  0.00     0.039 C 
BRANCH   3   5
ATOM      5  C   UNL     1      -9.967  74.603  25.695  1.00  0.00     0.034 C 
BRANCH   5   6
ATOM      6  C   UNL     1     -10.507  73.515  24.757  1.00  0.00     0.032 C 
BRANCH   6   7
ATOM      7  C   UNL     1      -9.407  72.605  24.262  1.00  0.00    -0.028 C 
ATOM      8  C   UNL     1      -9.149  73.820  22.087  1.00  0.00     0.039 C 
ATOM      9  C   UNL     1      -8.809  72.711  23.055  1.00  0.00    -0.080 C 
ATOM     10  C   UNL     1      -7.761  71.694  22.684  1.00  0.00     0.039 C 
ENDBRANCH   6   7
ENDBRANCH   5   6
ENDBRANCH   3   5
ENDBRANCH   1   2
BRANCH   1  11
ATOM     11  C   UNL     1     -11.680  71.961  29.196  1.00  0.00     0.034 C 
BRANCH  11  12
ATOM     12  C   UNL     1     -10.765  72.011  30.403  1.00  0.00    -0.077 C 
ATOM     13  C   UNL     1     -11.303  72.174  31.634  1.00  0.00    -0.028 C 
ATOM     14  C   UNL     1      -9.274  71.919  30.186  1.00  0.00     0.039 C 
BRANCH  13  15
ATOM     15  C   UNL     1     -10.513  72.221  32.921  1.00  0.00     0.035 C 
BRANCH  15  16
ATOM     16  C   UNL     1     -11.271  72.974  34.019  1.00  0.00     0.079 C 
BRANCH  16  17
ATOM     17  C   UNL     1     -10.745  72.645  35.392  1.00  0.00     0.130 C 
ATOM     18  O   UNL     1      -9.626  72.174  35.518  1.00  0.00    -0.300 OA
ATOM     19  C   UNL     1     -11.598  72.869  36.604  1.00  0.00     0.087 C 
ENDBRANCH  16  17
ENDBRANCH  15  16
ENDBRANCH  13  15
ENDBRANCH  11  12
ENDBRANCH   1  11
TORSDOF 9
ENDMDL
MODEL 5
REMARK VINA RESULT:    -6.774      4.132      9.529
REMARK INTER + INTRA:         -11.168
REMARK INTER:                  -9.825
REMARK INTRA:                  -1.343
REMARK UNBOUND:                -0.830
REMARK SMILES CC(=O)CCC=C(C)CCC=C(C)CCC=C(C)C
REMARK SMILES IDX 10 1 11 2 12 3 13 4 14 5 15 6 16 7 18 8 17 9 19 10 9 11 7 12
REMARK SMILES IDX 6 13 8 14 5 15 4 16 2 17 3 18 1 19
REMARK H PARENT
REMARK Flexibility Score: inf
ROOT
ATOM      1  C   UNL     1      -9.791  73.828  26.886  1.00  0.00     0.032 C 
ENDROOT
BRANCH   1   2
ATOM      2  C   UNL     1     -10.239  73.063  28.109  1.00  0.00    -0.028 C 
ATOM      3  C   UNL     1     -11.527  72.922  28.497  1.00  0.00    -0.077 C 
ATOM      4  C   UNL     1     -12.663  73.591  27.760  1.00  0.00     0.039 C 
BRANCH   3   5
ATOM      5  C   UNL     1     -11.838  72.084  29.721  1.00  0.00     0.034 C 
BRANCH   5   6
ATOM      6  C   UNL     1     -10.866  72.370  30.874  1.00  0.00     0.032 C 
BRANCH   6   7
ATOM      7  C   UNL     1     -11.226  73.641  31.608  1.00  0.00    -0.028 C 
ATOM      8  C   UNL     1      -9.165  74.856  30.863  1.00  0.00     0.039 C 
ATOM      9  C   UNL     1     -10.459  74.753  31.637  1.00  0.00    -0.080 C 
ATOM     10  C   UNL     1     -10.930  75.926  32.457  1.00  0.00     0.039 C 
ENDBRANCH   6   7
ENDBRANCH   5   6
ENDBRANCH   3   5
ENDBRANCH   1   2
BRANCH   1  11
ATOM     11  C   UNL     1      -8.672  73.101  26.130  1.00  0.00     0.034 C 
BRANCH  11  12
ATOM     12  C   UNL     1      -9.022  72.900  24.670  1.00  0.00    -0.077 C 
ATOM     13  C   UNL     1      -8.026  72.728  23.769  1.00  0.00    -0.028 C 
ATOM     14  C   UNL     1     -10.474  72.940  24.261  1.00  0.00     0.039 C 
BRANCH  13  15
ATOM     15  C   UNL     1      -8.232  72.498  22.290  1.00  0.00     0.035 C 
BRANCH  15  16
ATOM     16  C   UNL     1      -7.452  73.514  21.449  1.00  0.00     0.079 C 
BRANCH  16  17
ATOM     17  C   UNL     1      -8.369  74.449  20.705  1.00  0.00     0.130 C 
ATOM     18  O   UNL     1      -7.909  75.220  19.876  1.00  0.00    -0.300 OA
ATOM     19  C   UNL     1      -9.839  74.460  20.994  1.00  0.00     0.087 C 
ENDBRANCH  16  17
ENDBRANCH  15  16
ENDBRANCH  13  15
ENDBRANCH  11  12
ENDBRANCH   1  11
TORSDOF 9
ENDMDL
MODEL 6
REMARK VINA RESULT:    -6.771      3.777     10.154
REMARK INTER + INTRA:         -11.164
REMARK INTER:                 -10.278
REMARK INTRA:                  -0.886
REMARK UNBOUND:                -0.830
REMARK SMILES CC(=O)CCC=C(C)CCC=C(C)CCC=C(C)C
REMARK SMILES IDX 10 1 11 2 12 3 13 4 14 5 15 6 16 7 18 8 17 9 19 10 9 11 7 12
REMARK SMILES IDX 6 13 8 14 5 15 4 16 2 17 3 18 1 19
REMARK H PARENT
REMARK Flexibility Score: inf
ROOT
ATOM      1  C   UNL     1     -11.403  73.711  27.822  1.00  0.00     0.032 C 
ENDROOT
BRANCH   1   2
ATOM      2  C   UNL     1     -11.421  73.986  29.307  1.00  0.00    -0.028 C 
ATOM      3  C   UNL     1     -10.672  73.326  30.219  1.00  0.00    -0.077 C 
ATOM      4  C   UNL     1      -9.771  72.176  29.834  1.00  0.00     0.039 C 
BRANCH   3   5
ATOM      5  C   UNL     1     -10.753  73.740  31.675  1.00  0.00     0.034 C 
BRANCH   5   6
ATOM      6  C   UNL     1     -11.501  72.703  32.524  1.00  0.00     0.032 C 
BRANCH   6   7
ATOM      7  C   UNL     1     -10.573  71.980  33.472  1.00  0.00    -0.028 C 
ATOM      8  C   UNL     1     -11.587  73.007  35.519  1.00  0.00     0.039 C 
ATOM      9  C   UNL     1     -10.579  72.129  34.815  1.00  0.00    -0.080 C 
ATOM     10  C   UNL     1      -9.554  71.378  35.624  1.00  0.00     0.039 C 
ENDBRANCH   6   7
ENDBRANCH   5   6
ENDBRANCH   3   5
ENDBRANCH   1   2
BRANCH   1  11
ATOM     11  C   UNL     1     -10.502  74.694  27.064  1.00  0.00     0.034 C 
BRANCH  11  12
ATOM     12  C   UNL     1      -9.752  74.013  25.938  1.00  0.00    -0.077 C 
ATOM     13  C   UNL     1     -10.051  74.332  24.657  1.00  0.00    -0.028 C 
ATOM     14  C   UNL     1      -8.721  72.966  26.283  1.00  0.00     0.039 C 
BRANCH  13  15
ATOM     15  C   UNL     1      -9.371  73.746  23.441  1.00  0.00     0.035 C 
BRANCH  15  16
ATOM     16  C   UNL     1      -9.755  74.500  22.164  1.00  0.00     0.079 C 
BRANCH  16  17
ATOM     17  C   UNL     1      -8.788  74.233  21.040  1.00  0.00     0.130 C 
ATOM     18  O   UNL     1      -8.981  74.729  19.941  1.00  0.00    -0.300 OA
ATOM     19  C   UNL     1      -7.605  73.340  21.255  1.00  0.00     0.087 C 
ENDBRANCH  16  17
ENDBRANCH  15  16
ENDBRANCH  13  15
ENDBRANCH  11  12
ENDBRANCH   1  11
TORSDOF 9
ENDMDL
MODEL 7
REMARK VINA RESULT:    -6.722      1.777      3.040
REMARK INTER + INTRA:         -11.089
REMARK INTER:                 -10.042
REMARK INTRA:                  -1.047
REMARK UNBOUND:                -0.830
REMARK SMILES CC(=O)CCC=C(C)CCC=C(C)CCC=C(C)C
REMARK SMILES IDX 10 1 11 2 12 3 13 4 14 5 15 6 16 7 18 8 17 9 19 10 9 11 7 12
REMARK SMILES IDX 6 13 8 14 5 15 4 16 2 17 3 18 1 19
REMARK H PARENT
REMARK Flexibility Score: inf
ROOT
ATOM      1  C   UNL     1      -9.606  74.745  31.107  1.00  0.00     0.032 C 
ENDROOT
BRANCH   1   2
ATOM      2  C   UNL     1      -9.990  74.468  29.672  1.00  0.00    -0.028 C 
ATOM      3  C   UNL     1      -9.837  73.276  29.053  1.00  0.00    -0.077 C 
ATOM      4  C   UNL     1      -9.189  72.096  29.738  1.00  0.00     0.039 C 
BRANCH   3   5
ATOM      5  C   UNL     1     -10.312  73.125  27.622  1.00  0.00     0.034 C 
BRANCH   5   6
ATOM      6  C   UNL     1      -9.447  73.930  26.642  1.00  0.00     0.032 C 
BRANCH   6   7
ATOM      7  C   UNL     1      -8.587  73.030  25.786  1.00  0.00    -0.028 C 
ATOM      8  C   UNL     1     -10.197  73.031  23.867  1.00  0.00     0.039 C 
ATOM      9  C   UNL     1      -8.923  72.594  24.552  1.00  0.00    -0.080 C 
ATOM     10  C   UNL     1      -7.981  71.658  23.842  1.00  0.00     0.039 C 
ENDBRANCH   6   7
ENDBRANCH   5   6
ENDBRANCH   3   5
ENDBRANCH   1   2
BRANCH   1  11
ATOM     11  C   UNL     1     -10.834  74.893  32.014  1.00  0.00     0.034 C 
BRANCH  11  12
ATOM     12  C   UNL     1     -11.119  73.620  32.784  1.00  0.00    -0.077 C 
ATOM     13  C   UNL     1     -10.593  73.465  34.022  1.00  0.00    -0.028 C 
ATOM     14  C   UNL     1     -11.947  72.545  32.125  1.00  0.00     0.039 C 
BRANCH  13  15
ATOM     15  C   UNL     1     -10.811  72.259  34.906  1.00  0.00     0.035 C 
BRANCH  15  16
ATOM     16  C   UNL     1     -10.238  72.479  36.310  1.00  0.00     0.079 C 
BRANCH  16  17
ATOM     17  C   UNL     1     -11.100  71.855  37.375  1.00  0.00     0.130 C 
ATOM     18  O   UNL     1     -11.108  70.642  37.517  1.00  0.00    -0.300 OA
ATOM     19  C   UNL     1     -11.971  72.710  38.244  1.00  0.00     0.087 C 
ENDBRANCH  16  17
ENDBRANCH  15  16
ENDBRANCH  13  15
ENDBRANCH  11  12
ENDBRANCH   1  11
TORSDOF 9
ENDMDL
MODEL 8
REMARK VINA RESULT:    -6.719      3.316      9.544
REMARK INTER + INTRA:         -11.085
REMARK INTER:                  -9.797
REMARK INTRA:                  -1.287
REMARK UNBOUND:                -0.830
REMARK SMILES CC(=O)CCC=C(C)CCC=C(C)CCC=C(C)C
REMARK SMILES IDX 10 1 11 2 12 3 13 4 14 5 15 6 16 7 18 8 17 9 19 10 9 11 7 12
REMARK SMILES IDX 6 13 8 14 5 15 4 16 2 17 3 18 1 19
REMARK H PARENT
REMARK Flexibility Score: inf
ROOT
ATOM      1  C   UNL     1     -11.854  72.442  28.841  1.00  0.00     0.032 C 
ENDROOT
BRANCH   1   2
ATOM      2  C   UNL     1     -11.644  73.074  30.197  1.00  0.00    -0.028 C 
ATOM      3  C   UNL     1     -10.479  73.052  30.883  1.00  0.00    -0.077 C 
ATOM      4  C   UNL     1      -9.263  72.316  30.372  1.00  0.00     0.039 C 
BRANCH   3   5
ATOM      5  C   UNL     1     -10.397  73.771  32.215  1.00  0.00     0.034 C 
BRANCH   5   6
ATOM      6  C   UNL     1     -11.272  73.101  33.284  1.00  0.00     0.032 C 
BRANCH   6   7
ATOM      7  C   UNL     1     -10.500  72.068  34.071  1.00  0.00    -0.028 C 
ATOM      8  C   UNL     1     -10.581  73.383  36.201  1.00  0.00     0.039 C 
ATOM      9  C   UNL     1     -10.157  72.194  35.372  1.00  0.00    -0.080 C 
ATOM     10  C   UNL     1      -9.340  71.098  36.006  1.00  0.00     0.039 C 
ENDBRANCH   6   7
ENDBRANCH   5   6
ENDBRANCH   3   5
ENDBRANCH   1   2
BRANCH   1  11
ATOM     11  C   UNL     1     -11.903  73.487  27.720  1.00  0.00     0.034 C 
BRANCH  11  12
ATOM     12  C   UNL     1     -10.524  73.785  27.170  1.00  0.00    -0.077 C 
ATOM     13  C   UNL     1      -9.964  72.925  26.287  1.00  0.00    -0.028 C 
ATOM     14  C   UNL     1      -9.799  75.015  27.660  1.00  0.00     0.039 C 
BRANCH  13  15
ATOM     15  C   UNL     1      -8.607  73.109  25.647  1.00  0.00     0.035 C 
BRANCH  15  16
ATOM     16  C   UNL     1      -8.547  72.460  24.260  1.00  0.00     0.079 C 
BRANCH  16  17
ATOM     17  C   UNL     1      -8.432  73.485  23.164  1.00  0.00     0.130 C 
ATOM     18  O   UNL     1      -7.349  73.697  22.641  1.00  0.00    -0.300 OA
ATOM     19  C   UNL     1      -9.633  74.267  22.727  1.00  0.00     0.087 C 
ENDBRANCH  16  17
ENDBRANCH  15  16
ENDBRANCH  13  15
ENDBRANCH  11  12
ENDBRANCH   1  11
TORSDOF 9
ENDMDL
MODEL 9
REMARK VINA RESULT:    -6.668      2.092      4.326
REMARK INTER + INTRA:         -11.007
REMARK INTER:                 -10.186
REMARK INTRA:                  -0.821
REMARK UNBOUND:                -0.830
REMARK SMILES CC(=O)CCC=C(C)CCC=C(C)CCC=C(C)C
REMARK SMILES IDX 10 1 11 2 12 3 13 4 14 5 15 6 16 7 18 8 17 9 19 10 9 11 7 12
REMARK SMILES IDX 6 13 8 14 5 15 4 16 2 17 3 18 1 19
REMARK H PARENT
REMARK Flexibility Score: inf
ROOT
ATOM      1  C   UNL     1     -11.617  72.461  32.255  1.00  0.00     0.032 C 
ENDROOT
BRANCH   1   2
ATOM      2  C   UNL     1     -10.937  73.374  31.262  1.00  0.00    -0.028 C 
ATOM      3  C   UNL     1     -11.040  73.261  29.919  1.00  0.00    -0.077 C 
ATOM      4  C   UNL     1     -11.813  72.138  29.267  1.00  0.00     0.039 C 
BRANCH   3   5
ATOM      5  C   UNL     1     -10.341  74.279  29.040  1.00  0.00     0.034 C 
BRANCH   5   6
ATOM      6  C   UNL     1     -10.640  74.052  27.551  1.00  0.00     0.032 C 
BRANCH   6   7
ATOM      7  C   UNL     1      -9.462  73.440  26.831  1.00  0.00    -0.028 C 
ATOM      8  C   UNL     1     -10.573  73.525  24.587  1.00  0.00     0.039 C 
ATOM      9  C   UNL     1      -9.428  73.170  25.507  1.00  0.00    -0.080 C 
ATOM     10  C   UNL     1      -8.198  72.509  24.942  1.00  0.00     0.039 C 
ENDBRANCH   6   7
ENDBRANCH   5   6
ENDBRANCH   3   5
ENDBRANCH   1   2
BRANCH   1  11
ATOM     11  C   UNL     1     -12.014  73.200  33.540  1.00  0.00     0.034 C 
BRANCH  11  12
ATOM     12  C   UNL     1     -11.223  72.709  34.735  1.00  0.00    -0.077 C 
ATOM     13  C   UNL     1     -11.588  73.105  35.977  1.00  0.00    -0.028 C 
ATOM     14  C   UNL     1     -10.023  71.825  34.497  1.00  0.00     0.039 C 
BRANCH  13  15
ATOM     15  C   UNL     1     -10.903  72.678  37.254  1.00  0.00     0.035 C 
BRANCH  15  16
ATOM     16  C   UNL     1     -11.682  71.566  37.965  1.00  0.00     0.079 C 
BRANCH  16  17
ATOM     17  C   UNL     1     -10.772  70.477  38.471  1.00  0.00     0.130 C 
ATOM     18  O   UNL     1     -10.768  70.190  39.658  1.00  0.00    -0.300 OA
ATOM     19  C   UNL     1      -9.853  69.760  37.530  1.00  0.00     0.087 C 
ENDBRANCH  16  17
ENDBRANCH  15  16
ENDBRANCH  13  15
ENDBRANCH  11  12
ENDBRANCH   1  11
TORSDOF 9
ENDMDL
