MODEL 1
REMARK VINA RESULT:     3.574      0.000      0.000
REMARK INTER + INTRA:           5.644
REMARK INTER:                   6.185
REMARK INTRA:                  -0.541
REMARK UNBOUND:                -0.541
REMARK SMILES OC[C@@H]1O[C@@H](O[C@@H]2[C@H](O)[C@H](O)[C@@H](O)O[C@@H]2CO)[C@H](O)[C@@H](O)[C@@H]1O[C@@H]1O[C@H](CO)[C@@H](O)[C@H](O)[C@H]1O
REMARK SMILES IDX 22 1 3 2 4 3 5 4 18 5 20 6 23 7 24 8 26 9 29 10 25 11 31 12
REMARK SMILES IDX 33 13 27 14 28 15 30 17 32 19 34 21 2 23 1 24 21 26 19 28
REMARK SMILES IDX 6 30 7 31 15 32 8 33 14 34 10 35 12 36 16 37 17 38 9 40
REMARK SMILES IDX 11 42 13 44
REMARK H PARENT 28 16 30 18 32 20 34 22 1 25 21 27 19 29 17 39 9 41 11 43
REMARK H PARENT 13 45
REMARK Flexibility Score: inf
ROOT
ATOM      1  C   UNL     1    -128.461 109.130  41.095  1.00  0.00     0.184 C 
ATOM      2  C   UNL     1    -128.939 109.731  42.459  1.00  0.00     0.178 C 
ATOM      3  O   UNL     1    -130.242 110.267  42.301  1.00  0.00    -0.341 OA
ATOM      4  C   UNL     1    -130.188 111.533  41.675  1.00  0.00     0.282 C 
ATOM      5  C   UNL     1    -129.430 111.484  40.322  1.00  0.00     0.202 C 
ATOM      6  C   UNL     1    -128.910 110.082  39.907  1.00  0.00     0.180 C 
ENDROOT
BRANCH   1   7
ATOM      7  O   UNL     1    -128.993 107.802  40.984  1.00  0.00    -0.341 OA
BRANCH   7   8
ATOM      8  C   UNL     1    -130.287 107.666  40.415  1.00  0.00     0.282 C 
ATOM      9  C   UNL     1    -130.069 105.318  39.962  1.00  0.00     0.178 C 
ATOM     10  C   UNL     1    -128.929 105.770  38.997  1.00  0.00     0.177 C 
ATOM     11  O   UNL     1    -130.772 106.351  40.669  1.00  0.00    -0.341 OA
ATOM     12  C   UNL     1    -129.356 106.976  38.125  1.00  0.00     0.179 C 
ATOM     13  C   UNL     1    -130.287 107.955  38.888  1.00  0.00     0.202 C 
BRANCH   9  14
ATOM     14  C   UNL     1    -129.543 104.299  40.990  1.00  0.00     0.191 C 
BRANCH  14  15
ATOM     15  O   UNL     1    -129.166 103.108  40.346  1.00  0.00    -0.394 OA
ATOM     16  H   UNL     1    -129.936 102.488  40.377  1.00  0.00     0.210 HD
ENDBRANCH  14  15
ENDBRANCH   9  14
BRANCH  10  17
ATOM     17  O   UNL     1    -128.578 104.692  38.165  1.00  0.00    -0.387 OA
ATOM     18  H   UNL     1    -129.339 104.538  37.541  1.00  0.00     0.211 HD
ENDBRANCH  10  17
BRANCH  12  19
ATOM     19  O   UNL     1    -128.229 107.640  37.623  1.00  0.00    -0.387 OA
ATOM     20  H   UNL     1    -127.488 107.516  38.268  1.00  0.00     0.211 HD
ENDBRANCH  12  19
BRANCH  13  21
ATOM     21  O   UNL     1    -131.607 107.883  38.396  1.00  0.00    -0.385 OA
ATOM     22  H   UNL     1    -132.229 108.098  39.139  1.00  0.00     0.211 HD
ENDBRANCH  13  21
ENDBRANCH   7   8
ENDBRANCH   1   7
BRANCH   2  23
ATOM     23  C   UNL     1    -128.993 108.682  43.581  1.00  0.00     0.191 C 
BRANCH  23  24
ATOM     24  O   UNL     1    -130.314 108.285  43.834  1.00  0.00    -0.394 OA
ATOM     25  H   UNL     1    -130.269 107.443  44.342  1.00  0.00     0.210 HD
ENDBRANCH  23  24
ENDBRANCH   2  23
BRANCH   6  26
ATOM     26  O   UNL     1    -127.875 110.314  38.963  1.00  0.00    -0.387 OA
ATOM     27  H   UNL     1    -127.192 110.927  39.352  1.00  0.00     0.211 HD
ENDBRANCH   6  26
BRANCH   5  28
ATOM     28  O   UNL     1    -130.262 111.949  39.277  1.00  0.00    -0.385 OA
ATOM     29  H   UNL     1    -129.729 111.966  38.444  1.00  0.00     0.211 HD
ENDBRANCH   5  28
BRANCH   4  30
ATOM     30  O   UNL     1    -129.564 112.477  42.547  1.00  0.00    -0.341 OA
BRANCH  30  31
ATOM     31  C   UNL     1    -130.458 113.294  43.290  1.00  0.00     0.184 C 
ATOM     32  C   UNL     1    -129.677 114.156  44.337  1.00  0.00     0.178 C 
ATOM     33  C   UNL     1    -131.194 114.263  42.346  1.00  0.00     0.180 C 
ATOM     34  O   UNL     1    -129.255 115.438  43.878  1.00  0.00    -0.342 OA
ATOM     35  C   UNL     1    -130.205 115.240  41.655  1.00  0.00     0.201 C 
ATOM     36  C   UNL     1    -128.925 115.462  42.496  1.00  0.00     0.279 C 
BRANCH  32  37
ATOM     37  C   UNL     1    -128.537 113.410  45.040  1.00  0.00     0.191 C 
BRANCH  37  38
ATOM     38  O   UNL     1    -127.876 112.575  44.139  1.00  0.00    -0.394 OA
ATOM     39  H   UNL     1    -128.502 111.834  43.949  1.00  0.00     0.210 HD
ENDBRANCH  37  38
ENDBRANCH  32  37
BRANCH  33  40
ATOM     40  O   UNL     1    -131.965 113.556  41.415  1.00  0.00    -0.387 OA
ATOM     41  H   UNL     1    -131.452 112.754  41.139  1.00  0.00     0.211 HD
ENDBRANCH  33  40
BRANCH  35  42
ATOM     42  O   UNL     1    -129.876 114.808  40.356  1.00  0.00    -0.385 OA
ATOM     43  H   UNL     1    -129.627 113.846  40.417  1.00  0.00     0.211 HD
ENDBRANCH  35  42
BRANCH  36  44
ATOM     44  O   UNL     1    -128.346 116.702  42.185  1.00  0.00    -0.366 OA
ATOM     45  H   UNL     1    -127.637 116.544  41.509  1.00  0.00     0.213 HD
ENDBRANCH  36  44
ENDBRANCH  30  31
ENDBRANCH   4  30
TORSDOF 18
ENDMDL
MODEL 2
REMARK VINA RESULT:     3.918      1.367      3.217
REMARK INTER + INTRA:           6.240
REMARK INTER:                   4.330
REMARK INTRA:                   1.910
REMARK UNBOUND:                -0.541
REMARK SMILES OC[C@@H]1O[C@@H](O[C@@H]2[C@H](O)[C@H](O)[C@@H](O)O[C@@H]2CO)[C@H](O)[C@@H](O)[C@@H]1O[C@@H]1O[C@H](CO)[C@@H](O)[C@H](O)[C@H]1O
REMARK SMILES IDX 22 1 3 2 4 3 5 4 18 5 20 6 23 7 24 8 26 9 29 10 25 11 31 12
REMARK SMILES IDX 33 13 27 14 28 15 30 17 32 19 34 21 2 23 1 24 21 26 19 28
REMARK SMILES IDX 6 30 7 31 15 32 8 33 14 34 10 35 12 36 16 37 17 38 9 40
REMARK SMILES IDX 11 42 13 44
REMARK H PARENT 28 16 30 18 32 20 34 22 1 25 21 27 19 29 17 39 9 41 11 43
REMARK H PARENT 13 45
REMARK Flexibility Score: inf
ROOT
ATOM      1  C   UNL     1    -129.989 108.673  41.633  1.00  0.00     0.184 C 
ATOM      2  C   UNL     1    -128.980 109.803  41.239  1.00  0.00     0.178 C 
ATOM      3  O   UNL     1    -128.039 109.973  42.286  1.00  0.00    -0.341 OA
ATOM      4  C   UNL     1    -128.597 110.732  43.340  1.00  0.00     0.282 C 
ATOM      5  C   UNL     1    -129.921 110.119  43.865  1.00  0.00     0.202 C 
ATOM      6  C   UNL     1    -130.360 108.802  43.171  1.00  0.00     0.180 C 
ENDROOT
BRANCH   1   7
ATOM      7  O   UNL     1    -129.394 107.410  41.301  1.00  0.00    -0.341 OA
BRANCH   7   8
ATOM      8  C   UNL     1    -128.825 107.280  40.006  1.00  0.00     0.282 C 
ATOM      9  C   UNL     1    -130.934 107.090  38.872  1.00  0.00     0.178 C 
ATOM     10  C   UNL     1    -131.084 105.777  39.702  1.00  0.00     0.177 C 
ATOM     11  O   UNL     1    -129.719 107.835  39.047  1.00  0.00    -0.341 OA
ATOM     12  C   UNL     1    -129.791 104.925  39.672  1.00  0.00     0.179 C 
ATOM     13  C   UNL     1    -128.510 105.799  39.655  1.00  0.00     0.202 C 
BRANCH   9  14
ATOM     14  C   UNL     1    -132.123 108.035  39.125  1.00  0.00     0.191 C 
BRANCH  14  15
ATOM     15  O   UNL     1    -131.810 109.337  38.699  1.00  0.00    -0.394 OA
ATOM     16  H   UNL     1    -131.103 109.270  38.011  1.00  0.00     0.210 HD
ENDBRANCH  14  15
ENDBRANCH   9  14
BRANCH  10  17
ATOM     17  O   UNL     1    -132.152 105.025  39.182  1.00  0.00    -0.387 OA
ATOM     18  H   UNL     1    -131.761 104.238  38.712  1.00  0.00     0.211 HD
ENDBRANCH  10  17
BRANCH  12  19
ATOM     19  O   UNL     1    -129.774 104.026  40.747  1.00  0.00    -0.387 OA
ATOM     20  H   UNL     1    -129.660 103.114  40.382  1.00  0.00     0.211 HD
ENDBRANCH  12  19
BRANCH  13  21
ATOM     21  O   UNL     1    -127.876 105.740  38.395  1.00  0.00    -0.385 OA
ATOM     22  H   UNL     1    -127.841 106.658  38.020  1.00  0.00     0.211 HD
ENDBRANCH  13  21
ENDBRANCH   7   8
ENDBRANCH   1   7
BRANCH   2  23
ATOM     23  C   UNL     1    -128.203 109.480  39.954  1.00  0.00     0.191 C 
BRANCH  23  24
ATOM     24  O   UNL     1    -128.243 110.558  39.058  1.00  0.00    -0.394 OA
ATOM     25  H   UNL     1    -129.189 110.814  38.959  1.00  0.00     0.210 HD
ENDBRANCH  23  24
ENDBRANCH   2  23
BRANCH   6  26
ATOM     26  O   UNL     1    -131.753 108.677  43.416  1.00  0.00    -0.387 OA
ATOM     27  H   UNL     1    -132.259 108.786  42.565  1.00  0.00     0.211 HD
ENDBRANCH   6  26
BRANCH   5  28
ATOM     28  O   UNL     1    -129.821 109.849  45.250  1.00  0.00    -0.385 OA
ATOM     29  H   UNL     1    -129.197 109.091  45.372  1.00  0.00     0.211 HD
ENDBRANCH   5  28
BRANCH   4  30
ATOM     30  O   UNL     1    -128.824 112.073  42.901  1.00  0.00    -0.341 OA
BRANCH  30  31
ATOM     31  C   UNL     1    -130.112 112.595  43.196  1.00  0.00     0.184 C 
ATOM     32  C   UNL     1    -130.007 113.784  44.208  1.00  0.00     0.178 C 
ATOM     33  C   UNL     1    -130.769 113.133  41.911  1.00  0.00     0.180 C 
ATOM     34  O   UNL     1    -129.874 115.075  43.618  1.00  0.00    -0.342 OA
ATOM     35  C   UNL     1    -129.961 114.317  41.315  1.00  0.00     0.201 C 
ATOM     36  C   UNL     1    -129.146 115.067  42.397  1.00  0.00     0.279 C 
BRANCH  32  37
ATOM     37  C   UNL     1    -128.978 113.571  45.324  1.00  0.00     0.191 C 
BRANCH  37  38
ATOM     38  O   UNL     1    -128.492 114.797  45.777  1.00  0.00    -0.394 OA
ATOM     39  H   UNL     1    -129.129 115.100  46.470  1.00  0.00     0.210 HD
ENDBRANCH  37  38
ENDBRANCH  32  37
BRANCH  33  40
ATOM     40  O   UNL     1    -130.949 112.102  40.980  1.00  0.00    -0.387 OA
ATOM     41  H   UNL     1    -131.303 112.503  40.146  1.00  0.00     0.211 HD
ENDBRANCH  33  40
BRANCH  35  42
ATOM     42  O   UNL     1    -129.120 113.893  40.268  1.00  0.00    -0.385 OA
ATOM     43  H   UNL     1    -129.700 113.482  39.571  1.00  0.00     0.211 HD
ENDBRANCH  35  42
BRANCH  36  44
ATOM     44  O   UNL     1    -128.908 116.390  41.997  1.00  0.00    -0.366 OA
ATOM     45  H   UNL     1    -129.359 116.989  42.648  1.00  0.00     0.213 HD
ENDBRANCH  36  44
ENDBRANCH  30  31
ENDBRANCH   4  30
TORSDOF 18
ENDMDL
MODEL 3
REMARK VINA RESULT:     4.261      2.491      5.214
REMARK INTER + INTRA:           6.833
REMARK INTER:                   9.141
REMARK INTRA:                  -2.308
REMARK UNBOUND:                -0.541
REMARK SMILES OC[C@@H]1O[C@@H](O[C@@H]2[C@H](O)[C@H](O)[C@@H](O)O[C@@H]2CO)[C@H](O)[C@@H](O)[C@@H]1O[C@@H]1O[C@H](CO)[C@@H](O)[C@H](O)[C@H]1O
REMARK SMILES IDX 22 1 3 2 4 3 5 4 18 5 20 6 23 7 24 8 26 9 29 10 25 11 31 12
REMARK SMILES IDX 33 13 27 14 28 15 30 17 32 19 34 21 2 23 1 24 21 26 19 28
REMARK SMILES IDX 6 30 7 31 15 32 8 33 14 34 10 35 12 36 16 37 17 38 9 40
REMARK SMILES IDX 11 42 13 44
REMARK H PARENT 28 16 30 18 32 20 34 22 1 25 21 27 19 29 17 39 9 41 11 43
REMARK H PARENT 13 45
REMARK Flexibility Score: inf
ROOT
ATOM      1  C   UNL     1    -130.232 112.361  42.301  1.00  0.00     0.184 C 
ATOM      2  C   UNL     1    -130.182 113.910  42.081  1.00  0.00     0.178 C 
ATOM      3  O   UNL     1    -128.881 114.382  42.385  1.00  0.00    -0.341 OA
ATOM      4  C   UNL     1    -128.706 114.498  43.783  1.00  0.00     0.282 C 
ATOM      5  C   UNL     1    -129.010 113.169  44.522  1.00  0.00     0.202 C 
ATOM      6  C   UNL     1    -129.414 111.982  43.607  1.00  0.00     0.180 C 
ENDROOT
BRANCH   1   7
ATOM      7  O   UNL     1    -129.726 111.727  41.117  1.00  0.00    -0.341 OA
BRANCH   7   8
ATOM      8  C   UNL     1    -129.294 110.379  41.235  1.00  0.00     0.282 C 
ATOM      9  C   UNL     1    -129.052 110.031  38.871  1.00  0.00     0.178 C 
ATOM     10  C   UNL     1    -130.595 110.268  38.838  1.00  0.00     0.177 C 
ATOM     11  O   UNL     1    -128.415 110.076  40.157  1.00  0.00    -0.341 OA
ATOM     12  C   UNL     1    -131.324 109.475  39.950  1.00  0.00     0.179 C 
ATOM     13  C   UNL     1    -130.488 109.384  41.254  1.00  0.00     0.202 C 
BRANCH   9  14
ATOM     14  C   UNL     1    -128.328 111.017  37.936  1.00  0.00     0.191 C 
BRANCH  14  15
ATOM     15  O   UNL     1    -128.973 112.265  37.950  1.00  0.00    -0.394 OA
ATOM     16  H   UNL     1    -128.333 112.942  37.620  1.00  0.00     0.210 HD
ENDBRANCH  14  15
ENDBRANCH   9  14
BRANCH  10  17
ATOM     17  O   UNL     1    -131.091 109.876  37.582  1.00  0.00    -0.387 OA
ATOM     18  H   UNL     1    -131.269 110.707  37.060  1.00  0.00     0.211 HD
ENDBRANCH  10  17
BRANCH  12  19
ATOM     19  O   UNL     1    -132.586 110.031  40.198  1.00  0.00    -0.387 OA
ATOM     20  H   UNL     1    -133.269 109.343  39.996  1.00  0.00     0.211 HD
ENDBRANCH  12  19
BRANCH  13  21
ATOM     21  O   UNL     1    -130.004 108.074  41.453  1.00  0.00    -0.385 OA
ATOM     22  H   UNL     1    -129.474 108.060  42.292  1.00  0.00     0.211 HD
ENDBRANCH  13  21
ENDBRANCH   7   8
ENDBRANCH   1   7
BRANCH   2  23
ATOM     23  C   UNL     1    -130.504 114.312  40.633  1.00  0.00     0.191 C 
BRANCH  23  24
ATOM     24  O   UNL     1    -129.372 114.189  39.814  1.00  0.00    -0.394 OA
ATOM     25  H   UNL     1    -128.647 114.693  40.250  1.00  0.00     0.210 HD
ENDBRANCH  23  24
ENDBRANCH   2  23
BRANCH   6  26
ATOM     26  O   UNL     1    -130.101 111.062  44.443  1.00  0.00    -0.387 OA
ATOM     27  H   UNL     1    -131.061 111.318  44.512  1.00  0.00     0.211 HD
ENDBRANCH   6  26
BRANCH   5  28
ATOM     28  O   UNL     1    -127.885 112.757  45.273  1.00  0.00    -0.385 OA
ATOM     29  H   UNL     1    -128.194 112.513  46.181  1.00  0.00     0.211 HD
ENDBRANCH   5  28
BRANCH   4  30
ATOM     30  O   UNL     1    -129.543 115.539  44.289  1.00  0.00    -0.341 OA
BRANCH  30  31
ATOM     31  C   UNL     1    -128.899 116.464  45.154  1.00  0.00     0.184 C 
ATOM     32  C   UNL     1    -129.342 117.929  44.822  1.00  0.00     0.178 C 
ATOM     33  C   UNL     1    -129.291 116.180  46.616  1.00  0.00     0.180 C 
ATOM     34  O   UNL     1    -130.477 118.400  45.543  1.00  0.00    -0.342 OA
ATOM     35  C   UNL     1    -130.814 116.380  46.843  1.00  0.00     0.201 C 
ATOM     36  C   UNL     1    -131.425 117.382  45.834  1.00  0.00     0.279 C 
BRANCH  32  37
ATOM     37  C   UNL     1    -129.470 118.222  43.322  1.00  0.00     0.191 C 
BRANCH  37  38
ATOM     38  O   UNL     1    -128.471 117.558  42.611  1.00  0.00    -0.394 OA
ATOM     39  H   UNL     1    -127.615 117.926  42.941  1.00  0.00     0.210 HD
ENDBRANCH  37  38
ENDBRANCH  32  37
BRANCH  33  40
ATOM     40  O   UNL     1    -128.869 114.901  47.000  1.00  0.00    -0.387 OA
ATOM     41  H   UNL     1    -128.967 114.830  47.983  1.00  0.00     0.211 HD
ENDBRANCH  33  40
BRANCH  35  42
ATOM     42  O   UNL     1    -131.506 115.155  46.806  1.00  0.00    -0.385 OA
ATOM     43  H   UNL     1    -131.561 114.874  45.852  1.00  0.00     0.211 HD
ENDBRANCH  35  42
BRANCH  36  44
ATOM     44  O   UNL     1    -132.580 117.971  46.370  1.00  0.00    -0.366 OA
ATOM     45  H   UNL     1    -133.315 117.306  46.309  1.00  0.00     0.213 HD
ENDBRANCH  36  44
ENDBRANCH  30  31
ENDBRANCH   4  30
TORSDOF 18
ENDMDL
MODEL 4
REMARK VINA RESULT:     4.302      1.313      3.192
REMARK INTER + INTRA:           6.904
REMARK INTER:                   7.389
REMARK INTRA:                  -0.485
REMARK UNBOUND:                -0.541
REMARK SMILES OC[C@@H]1O[C@@H](O[C@@H]2[C@H](O)[C@H](O)[C@@H](O)O[C@@H]2CO)[C@H](O)[C@@H](O)[C@@H]1O[C@@H]1O[C@H](CO)[C@@H](O)[C@H](O)[C@H]1O
REMARK SMILES IDX 22 1 3 2 4 3 5 4 18 5 20 6 23 7 24 8 26 9 29 10 25 11 31 12
REMARK SMILES IDX 33 13 27 14 28 15 30 17 32 19 34 21 2 23 1 24 21 26 19 28
REMARK SMILES IDX 6 30 7 31 15 32 8 33 14 34 10 35 12 36 16 37 17 38 9 40
REMARK SMILES IDX 11 42 13 44
REMARK H PARENT 28 16 30 18 32 20 34 22 1 25 21 27 19 29 17 39 9 41 11 43
REMARK H PARENT 13 45
REMARK Flexibility Score: inf
ROOT
ATOM      1  C   UNL     1    -128.978 109.131  41.148  1.00  0.00     0.184 C 
ATOM      2  C   UNL     1    -129.838 109.598  42.370  1.00  0.00     0.178 C 
ATOM      3  O   UNL     1    -131.067 110.126  41.900  1.00  0.00    -0.341 OA
ATOM      4  C   UNL     1    -130.894 111.444  41.420  1.00  0.00     0.282 C 
ATOM      5  C   UNL     1    -129.791 111.529  40.332  1.00  0.00     0.202 C 
ATOM      6  C   UNL     1    -129.120 110.179  39.964  1.00  0.00     0.180 C 
ENDROOT
BRANCH   1   7
ATOM      7  O   UNL     1    -129.405 107.810  40.784  1.00  0.00    -0.341 OA
BRANCH   7   8
ATOM      8  C   UNL     1    -128.797 107.222  39.643  1.00  0.00     0.282 C 
ATOM      9  C   UNL     1    -130.868 106.786  38.507  1.00  0.00     0.178 C 
ATOM     10  C   UNL     1    -131.148 105.837  39.713  1.00  0.00     0.177 C 
ATOM     11  O   UNL     1    -129.609 107.476  38.500  1.00  0.00    -0.341 OA
ATOM     12  C   UNL     1    -129.922 104.951  40.046  1.00  0.00     0.179 C 
ATOM     13  C   UNL     1    -128.580 105.694  39.820  1.00  0.00     0.202 C 
BRANCH   9  14
ATOM     14  C   UNL     1    -131.992 107.828  38.359  1.00  0.00     0.191 C 
BRANCH  14  15
ATOM     15  O   UNL     1    -131.616 109.040  38.963  1.00  0.00    -0.394 OA
ATOM     16  H   UNL     1    -132.307 109.714  38.748  1.00  0.00     0.210 HD
ENDBRANCH  14  15
ENDBRANCH   9  14
BRANCH  10  17
ATOM     17  O   UNL     1    -132.248 105.017  39.405  1.00  0.00    -0.387 OA
ATOM     18  H   UNL     1    -132.153 104.736  38.454  1.00  0.00     0.211 HD
ENDBRANCH  10  17
BRANCH  12  19
ATOM     19  O   UNL     1    -130.014 104.463  41.356  1.00  0.00    -0.387 OA
ATOM     20  H   UNL     1    -130.385 103.546  41.317  1.00  0.00     0.211 HD
ENDBRANCH  12  19
BRANCH  13  21
ATOM     21  O   UNL     1    -127.903 105.181  38.692  1.00  0.00    -0.385 OA
ATOM     22  H   UNL     1    -126.994 105.578  38.667  1.00  0.00     0.211 HD
ENDBRANCH  13  21
ENDBRANCH   7   8
ENDBRANCH   1   7
BRANCH   2  23
ATOM     23  C   UNL     1    -130.157 108.452  43.342  1.00  0.00     0.191 C 
BRANCH  23  24
ATOM     24  O   UNL     1    -130.487 108.947  44.612  1.00  0.00    -0.394 OA
ATOM     25  H   UNL     1    -130.593 109.922  44.521  1.00  0.00     0.210 HD
ENDBRANCH  23  24
ENDBRANCH   2  23
BRANCH   6  26
ATOM     26  O   UNL     1    -127.875 110.512  39.368  1.00  0.00    -0.387 OA
ATOM     27  H   UNL     1    -127.422 109.685  39.045  1.00  0.00     0.211 HD
ENDBRANCH   6  26
BRANCH   5  28
ATOM     28  O   UNL     1    -130.320 112.073  39.139  1.00  0.00    -0.385 OA
ATOM     29  H   UNL     1    -130.685 111.330  38.597  1.00  0.00     0.211 HD
ENDBRANCH   5  28
BRANCH   4  30
ATOM     30  O   UNL     1    -130.574 112.315  42.506  1.00  0.00    -0.341 OA
BRANCH  30  31
ATOM     31  C   UNL     1    -129.272 112.883  42.460  1.00  0.00     0.184 C 
ATOM     32  C   UNL     1    -129.352 114.446  42.477  1.00  0.00     0.178 C 
ATOM     33  C   UNL     1    -128.462 112.445  43.694  1.00  0.00     0.180 C 
ATOM     34  O   UNL     1    -129.315 115.044  43.771  1.00  0.00    -0.342 OA
ATOM     35  C   UNL     1    -129.104 112.968  45.007  1.00  0.00     0.201 C 
ATOM     36  C   UNL     1    -129.934 114.253  44.776  1.00  0.00     0.279 C 
BRANCH  32  37
ATOM     37  C   UNL     1    -130.487 115.027  41.625  1.00  0.00     0.191 C 
BRANCH  37  38
ATOM     38  O   UNL     1    -130.682 116.375  41.929  1.00  0.00    -0.394 OA
ATOM     39  H   UNL     1    -130.847 116.410  42.903  1.00  0.00     0.210 HD
ENDBRANCH  37  38
ENDBRANCH  32  37
BRANCH  33  40
ATOM     40  O   UNL     1    -128.299 111.054  43.709  1.00  0.00    -0.387 OA
ATOM     41  H   UNL     1    -129.119 110.646  43.331  1.00  0.00     0.211 HD
ENDBRANCH  33  40
BRANCH  35  42
ATOM     42  O   UNL     1    -129.888 111.977  45.628  1.00  0.00    -0.385 OA
ATOM     43  H   UNL     1    -129.297 111.194  45.798  1.00  0.00     0.211 HD
ENDBRANCH  35  42
BRANCH  36  44
ATOM     44  O   UNL     1    -130.015 115.001  45.961  1.00  0.00    -0.366 OA
ATOM     45  H   UNL     1    -130.206 115.943  45.712  1.00  0.00     0.213 HD
ENDBRANCH  36  44
ENDBRANCH  30  31
ENDBRANCH   4  30
TORSDOF 18
ENDMDL
MODEL 5
REMARK VINA RESULT:     4.661      0.918      2.190
REMARK INTER + INTRA:           7.526
REMARK INTER:                   8.236
REMARK INTRA:                  -0.710
REMARK UNBOUND:                -0.541
REMARK SMILES OC[C@@H]1O[C@@H](O[C@@H]2[C@H](O)[C@H](O)[C@@H](O)O[C@@H]2CO)[C@H](O)[C@@H](O)[C@@H]1O[C@@H]1O[C@H](CO)[C@@H](O)[C@H](O)[C@H]1O
REMARK SMILES IDX 22 1 3 2 4 3 5 4 18 5 20 6 23 7 24 8 26 9 29 10 25 11 31 12
REMARK SMILES IDX 33 13 27 14 28 15 30 17 32 19 34 21 2 23 1 24 21 26 19 28
REMARK SMILES IDX 6 30 7 31 15 32 8 33 14 34 10 35 12 36 16 37 17 38 9 40
REMARK SMILES IDX 11 42 13 44
REMARK H PARENT 28 16 30 18 32 20 34 22 1 25 21 27 19 29 17 39 9 41 11 43
REMARK H PARENT 13 45
REMARK Flexibility Score: inf
ROOT
ATOM      1  C   UNL     1    -128.421 109.412  40.496  1.00  0.00     0.184 C 
ATOM      2  C   UNL     1    -128.860 109.799  41.948  1.00  0.00     0.178 C 
ATOM      3  O   UNL     1    -130.161 110.361  41.906  1.00  0.00    -0.341 OA
ATOM      4  C   UNL     1    -130.109 111.708  41.479  1.00  0.00     0.282 C 
ATOM      5  C   UNL     1    -129.386 111.862  40.117  1.00  0.00     0.202 C 
ATOM      6  C   UNL     1    -128.889 110.537  39.479  1.00  0.00     0.180 C 
ENDROOT
BRANCH   1   7
ATOM      7  O   UNL     1    -128.968 108.119  40.196  1.00  0.00    -0.341 OA
BRANCH   7   8
ATOM      8  C   UNL     1    -128.829 107.647  38.864  1.00  0.00     0.282 C 
ATOM      9  C   UNL     1    -131.161 107.156  38.573  1.00  0.00     0.178 C 
ATOM     10  C   UNL     1    -130.922 106.113  39.710  1.00  0.00     0.177 C 
ATOM     11  O   UNL     1    -130.026 107.923  38.144  1.00  0.00    -0.341 OA
ATOM     12  C   UNL     1    -129.634 105.287  39.473  1.00  0.00     0.179 C 
ATOM     13  C   UNL     1    -128.508 106.128  38.815  1.00  0.00     0.202 C 
BRANCH   9  14
ATOM     14  C   UNL     1    -132.290 108.131  38.955  1.00  0.00     0.191 C 
BRANCH  14  15
ATOM     15  O   UNL     1    -131.751 109.317  39.483  1.00  0.00    -0.394 OA
ATOM     16  H   UNL     1    -132.105 109.430  40.399  1.00  0.00     0.210 HD
ENDBRANCH  14  15
ENDBRANCH   9  14
BRANCH  10  17
ATOM     17  O   UNL     1    -132.028 105.247  39.777  1.00  0.00    -0.387 OA
ATOM     18  H   UNL     1    -132.013 104.816  40.676  1.00  0.00     0.211 HD
ENDBRANCH  10  17
BRANCH  12  19
ATOM     19  O   UNL     1    -129.197 104.710  40.672  1.00  0.00    -0.387 OA
ATOM     20  H   UNL     1    -129.275 105.391  41.386  1.00  0.00     0.211 HD
ENDBRANCH  12  19
BRANCH  13  21
ATOM     21  O   UNL     1    -128.302 105.734  37.475  1.00  0.00    -0.385 OA
ATOM     22  H   UNL     1    -128.256 104.743  37.445  1.00  0.00     0.211 HD
ENDBRANCH  13  21
ENDBRANCH   7   8
ENDBRANCH   1   7
BRANCH   2  23
ATOM     23  C   UNL     1    -128.897 108.592  42.897  1.00  0.00     0.191 C 
BRANCH  23  24
ATOM     24  O   UNL     1    -129.967 108.694  43.797  1.00  0.00    -0.394 OA
ATOM     25  H   UNL     1    -129.578 108.826  44.692  1.00  0.00     0.210 HD
ENDBRANCH  23  24
ENDBRANCH   2  23
BRANCH   6  26
ATOM     26  O   UNL     1    -127.875 110.904  38.555  1.00  0.00    -0.387 OA
ATOM     27  H   UNL     1    -128.287 111.180  37.691  1.00  0.00     0.211 HD
ENDBRANCH   6  26
BRANCH   5  28
ATOM     28  O   UNL     1    -130.237 112.486  39.176  1.00  0.00    -0.385 OA
ATOM     29  H   UNL     1    -131.134 112.574  39.584  1.00  0.00     0.211 HD
ENDBRANCH   5  28
BRANCH   4  30
ATOM     30  O   UNL     1    -129.456 112.504  42.469  1.00  0.00    -0.341 OA
BRANCH  30  31
ATOM     31  C   UNL     1    -130.323 113.215  43.341  1.00  0.00     0.184 C 
ATOM     32  C   UNL     1    -129.501 114.025  44.398  1.00  0.00     0.178 C 
ATOM     33  C   UNL     1    -131.167 114.222  42.538  1.00  0.00     0.180 C 
ATOM     34  O   UNL     1    -129.167 115.358  44.020  1.00  0.00    -0.342 OA
ATOM     35  C   UNL     1    -130.274 115.297  41.862  1.00  0.00     0.201 C 
ATOM     36  C   UNL     1    -128.944 115.510  42.624  1.00  0.00     0.279 C 
BRANCH  32  37
ATOM     37  C   UNL     1    -128.281 113.278  44.951  1.00  0.00     0.191 C 
BRANCH  37  38
ATOM     38  O   UNL     1    -127.878 112.282  44.062  1.00  0.00    -0.394 OA
ATOM     39  H   UNL     1    -127.373 112.745  43.349  1.00  0.00     0.210 HD
ENDBRANCH  37  38
ENDBRANCH  32  37
BRANCH  33  40
ATOM     40  O   UNL     1    -131.977 113.557  41.609  1.00  0.00    -0.387 OA
ATOM     41  H   UNL     1    -132.864 113.412  42.025  1.00  0.00     0.211 HD
ENDBRANCH  33  40
BRANCH  35  42
ATOM     42  O   UNL     1    -130.027 114.988  40.511  1.00  0.00    -0.385 OA
ATOM     43  H   UNL     1    -130.206 114.016  40.391  1.00  0.00     0.211 HD
ENDBRANCH  35  42
BRANCH  36  44
ATOM     44  O   UNL     1    -128.442 116.797  42.379  1.00  0.00    -0.366 OA
ATOM     45  H   UNL     1    -127.828 117.029  43.124  1.00  0.00     0.213 HD
ENDBRANCH  36  44
ENDBRANCH  30  31
ENDBRANCH   4  30
TORSDOF 18
ENDMDL
MODEL 6
REMARK VINA RESULT:     4.705      1.369      7.712
REMARK INTER + INTRA:           7.602
REMARK INTER:                   7.433
REMARK INTRA:                   0.169
REMARK UNBOUND:                -0.541
REMARK SMILES OC[C@@H]1O[C@@H](O[C@@H]2[C@H](O)[C@H](O)[C@@H](O)O[C@@H]2CO)[C@H](O)[C@@H](O)[C@@H]1O[C@@H]1O[C@H](CO)[C@@H](O)[C@H](O)[C@H]1O
REMARK SMILES IDX 22 1 3 2 4 3 5 4 18 5 20 6 23 7 24 8 26 9 29 10 25 11 31 12
REMARK SMILES IDX 33 13 27 14 28 15 30 17 32 19 34 21 2 23 1 24 21 26 19 28
REMARK SMILES IDX 6 30 7 31 15 32 8 33 14 34 10 35 12 36 16 37 17 38 9 40
REMARK SMILES IDX 11 42 13 44
REMARK H PARENT 28 16 30 18 32 20 34 22 1 25 21 27 19 29 17 39 9 41 11 43
REMARK H PARENT 13 45
REMARK Flexibility Score: inf
ROOT
ATOM      1  C   UNL     1    -130.180 111.192  41.450  1.00  0.00     0.184 C 
ATOM      2  C   UNL     1    -129.740 109.707  41.678  1.00  0.00     0.178 C 
ATOM      3  O   UNL     1    -128.369 109.571  41.344  1.00  0.00    -0.341 OA
ATOM      4  C   UNL     1    -128.203 109.486  39.942  1.00  0.00     0.282 C 
ATOM      5  C   UNL     1    -128.846 110.688  39.204  1.00  0.00     0.202 C 
ATOM      6  C   UNL     1    -129.513 111.748  40.121  1.00  0.00     0.180 C 
ENDROOT
BRANCH   1   7
ATOM      7  O   UNL     1    -129.822 111.946  42.617  1.00  0.00    -0.341 OA
BRANCH   7   8
ATOM      8  C   UNL     1    -128.865 112.982  42.453  1.00  0.00     0.282 C 
ATOM      9  C   UNL     1    -129.005 113.755  44.723  1.00  0.00     0.178 C 
ATOM     10  C   UNL     1    -130.479 114.103  44.348  1.00  0.00     0.177 C 
ATOM     11  O   UNL     1    -128.186 113.190  43.688  1.00  0.00    -0.341 OA
ATOM     12  C   UNL     1    -130.571 114.826  42.981  1.00  0.00     0.179 C 
ATOM     13  C   UNL     1    -129.517 114.307  41.968  1.00  0.00     0.202 C 
BRANCH   9  14
ATOM     14  C   UNL     1    -128.958 112.819  45.944  1.00  0.00     0.191 C 
BRANCH  14  15
ATOM     15  O   UNL     1    -129.478 111.557  45.611  1.00  0.00    -0.394 OA
ATOM     16  H   UNL     1    -129.875 111.620  44.707  1.00  0.00     0.210 HD
ENDBRANCH  14  15
ENDBRANCH   9  14
BRANCH  10  17
ATOM     17  O   UNL     1    -131.025 114.925  45.349  1.00  0.00    -0.387 OA
ATOM     18  H   UNL     1    -130.273 115.433  45.760  1.00  0.00     0.211 HD
ENDBRANCH  10  17
BRANCH  12  19
ATOM     19  O   UNL     1    -131.867 114.720  42.459  1.00  0.00    -0.387 OA
ATOM     20  H   UNL     1    -132.503 115.027  43.152  1.00  0.00     0.211 HD
ENDBRANCH  12  19
BRANCH  13  21
ATOM     21  O   UNL     1    -128.512 115.272  41.747  1.00  0.00    -0.385 OA
ATOM     22  H   UNL     1    -128.924 116.055  41.296  1.00  0.00     0.211 HD
ENDBRANCH  13  21
ENDBRANCH   7   8
ENDBRANCH   1   7
BRANCH   2  23
ATOM     23  C   UNL     1    -129.919 109.255  43.135  1.00  0.00     0.191 C 
BRANCH  23  24
ATOM     24  O   UNL     1    -131.105 108.524  43.293  1.00  0.00    -0.394 OA
ATOM     25  H   UNL     1    -130.862 107.570  43.258  1.00  0.00     0.210 HD
ENDBRANCH  23  24
ENDBRANCH   2  23
BRANCH   6  26
ATOM     26  O   UNL     1    -130.426 112.457  39.298  1.00  0.00    -0.387 OA
ATOM     27  H   UNL     1    -130.879 111.827  38.672  1.00  0.00     0.211 HD
ENDBRANCH   6  26
BRANCH   5  28
ATOM     28  O   UNL     1    -127.878 111.359  38.423  1.00  0.00    -0.385 OA
ATOM     29  H   UNL     1    -128.311 111.662  37.587  1.00  0.00     0.211 HD
ENDBRANCH   5  28
BRANCH   4  30
ATOM     30  O   UNL     1    -128.765 108.263  39.463  1.00  0.00    -0.341 OA
BRANCH  30  31
ATOM     31  C   UNL     1    -129.795 107.715  40.274  1.00  0.00     0.184 C 
ATOM     32  C   UNL     1    -131.124 107.574  39.458  1.00  0.00     0.178 C 
ATOM     33  C   UNL     1    -129.393 106.308  40.755  1.00  0.00     0.180 C 
ATOM     34  O   UNL     1    -131.301 106.326  38.793  1.00  0.00    -0.342 OA
ATOM     35  C   UNL     1    -129.228 105.328  39.562  1.00  0.00     0.201 C 
ATOM     36  C   UNL     1    -130.083 105.748  38.343  1.00  0.00     0.279 C 
BRANCH  32  37
ATOM     37  C   UNL     1    -131.414 108.753  38.522  1.00  0.00     0.191 C 
BRANCH  37  38
ATOM     38  O   UNL     1    -132.484 109.505  39.006  1.00  0.00    -0.394 OA
ATOM     39  H   UNL     1    -132.896 108.959  39.720  1.00  0.00     0.210 HD
ENDBRANCH  37  38
ENDBRANCH  32  37
BRANCH  33  40
ATOM     40  O   UNL     1    -128.239 106.367  41.546  1.00  0.00    -0.387 OA
ATOM     41  H   UNL     1    -128.203 105.543  42.095  1.00  0.00     0.211 HD
ENDBRANCH  33  40
BRANCH  35  42
ATOM     42  O   UNL     1    -127.877 105.186  39.194  1.00  0.00    -0.385 OA
ATOM     43  H   UNL     1    -127.760 105.636  38.314  1.00  0.00     0.211 HD
ENDBRANCH  35  42
BRANCH  36  44
ATOM     44  O   UNL     1    -130.375 104.632  37.544  1.00  0.00    -0.366 OA
ATOM     45  H   UNL     1    -131.357 104.485  37.576  1.00  0.00     0.213 HD
ENDBRANCH  36  44
ENDBRANCH  30  31
ENDBRANCH   4  30
TORSDOF 18
ENDMDL
MODEL 7
REMARK VINA RESULT:     4.819      1.843      8.104
REMARK INTER + INTRA:           7.799
REMARK INTER:                   8.308
REMARK INTRA:                  -0.509
REMARK UNBOUND:                -0.541
REMARK SMILES OC[C@@H]1O[C@@H](O[C@@H]2[C@H](O)[C@H](O)[C@@H](O)O[C@@H]2CO)[C@H](O)[C@@H](O)[C@@H]1O[C@@H]1O[C@H](CO)[C@@H](O)[C@H](O)[C@H]1O
REMARK SMILES IDX 22 1 3 2 4 3 5 4 18 5 20 6 23 7 24 8 26 9 29 10 25 11 31 12
REMARK SMILES IDX 33 13 27 14 28 15 30 17 32 19 34 21 2 23 1 24 21 26 19 28
REMARK SMILES IDX 6 30 7 31 15 32 8 33 14 34 10 35 12 36 16 37 17 38 9 40
REMARK SMILES IDX 11 42 13 44
REMARK H PARENT 28 16 30 18 32 20 34 22 1 25 21 27 19 29 17 39 9 41 11 43
REMARK H PARENT 13 45
REMARK Flexibility Score: inf
ROOT
ATOM      1  C   UNL     1    -130.680 112.990  43.540  1.00  0.00     0.184 C 
ATOM      2  C   UNL     1    -130.002 111.600  43.783  1.00  0.00     0.178 C 
ATOM      3  O   UNL     1    -128.756 111.566  43.107  1.00  0.00    -0.341 OA
ATOM      4  C   UNL     1    -128.944 111.319  41.727  1.00  0.00     0.282 C 
ATOM      5  C   UNL     1    -129.910 112.343  41.077  1.00  0.00     0.202 C 
ATOM      6  C   UNL     1    -130.456 113.437  42.034  1.00  0.00     0.180 C 
ENDROOT
BRANCH   1   7
ATOM      7  O   UNL     1    -130.140 113.920  44.490  1.00  0.00    -0.341 OA
BRANCH   7   8
ATOM      8  C   UNL     1    -129.011 114.681  44.084  1.00  0.00     0.282 C 
ATOM      9  C   UNL     1    -129.384 116.459  45.655  1.00  0.00     0.178 C 
ATOM     10  C   UNL     1    -130.702 116.683  44.849  1.00  0.00     0.177 C 
ATOM     11  O   UNL     1    -128.515 115.410  45.202  1.00  0.00    -0.341 OA
ATOM     12  C   UNL     1    -130.453 116.663  43.321  1.00  0.00     0.179 C 
ATOM     13  C   UNL     1    -129.350 115.649  42.917  1.00  0.00     0.202 C 
BRANCH   9  14
ATOM     14  C   UNL     1    -129.689 116.226  47.147  1.00  0.00     0.191 C 
BRANCH  14  15
ATOM     15  O   UNL     1    -131.033 115.850  47.316  1.00  0.00    -0.394 OA
ATOM     16  H   UNL     1    -131.047 114.954  47.735  1.00  0.00     0.210 HD
ENDBRANCH  14  15
ENDBRANCH   9  14
BRANCH  10  17
ATOM     17  O   UNL     1    -131.258 117.922  45.216  1.00  0.00    -0.387 OA
ATOM     18  H   UNL     1    -132.149 117.990  44.773  1.00  0.00     0.211 HD
ENDBRANCH  10  17
BRANCH  12  19
ATOM     19  O   UNL     1    -131.648 116.408  42.635  1.00  0.00    -0.387 OA
ATOM     20  H   UNL     1    -132.383 116.390  43.297  1.00  0.00     0.211 HD
ENDBRANCH  12  19
BRANCH  13  21
ATOM     21  O   UNL     1    -128.177 116.317  42.505  1.00  0.00    -0.385 OA
ATOM     22  H   UNL     1    -128.401 117.270  42.341  1.00  0.00     0.211 HD
ENDBRANCH  13  21
ENDBRANCH   7   8
ENDBRANCH   1   7
BRANCH   2  23
ATOM     23  C   UNL     1    -129.739 111.323  45.271  1.00  0.00     0.191 C 
BRANCH  23  24
ATOM     24  O   UNL     1    -130.169 110.035  45.625  1.00  0.00    -0.394 OA
ATOM     25  H   UNL     1    -130.282 109.530  44.788  1.00  0.00     0.210 HD
ENDBRANCH  23  24
ENDBRANCH   2  23
BRANCH   6  26
ATOM     26  O   UNL     1    -131.636 113.936  41.423  1.00  0.00    -0.387 OA
ATOM     27  H   UNL     1    -132.436 113.629  41.931  1.00  0.00     0.211 HD
ENDBRANCH   6  26
BRANCH   5  28
ATOM     28  O   UNL     1    -129.272 113.006  40.003  1.00  0.00    -0.385 OA
ATOM     29  H   UNL     1    -129.896 113.018  39.235  1.00  0.00     0.211 HD
ENDBRANCH   5  28
BRANCH   4  30
ATOM     30  O   UNL     1    -129.441 109.994  41.537  1.00  0.00    -0.341 OA
BRANCH  30  31
ATOM     31  C   UNL     1    -128.558 109.110  40.860  1.00  0.00     0.184 C 
ATOM     32  C   UNL     1    -129.042 107.629  41.005  1.00  0.00     0.178 C 
ATOM     33  C   UNL     1    -128.528 109.445  39.358  1.00  0.00     0.180 C 
ATOM     34  O   UNL     1    -129.917 107.171  39.976  1.00  0.00    -0.342 OA
ATOM     35  C   UNL     1    -129.919 109.235  38.702  1.00  0.00     0.201 C 
ATOM     36  C   UNL     1    -130.767 108.187  39.463  1.00  0.00     0.279 C 
BRANCH  32  37
ATOM     37  C   UNL     1    -129.582 107.277  42.396  1.00  0.00     0.191 C 
BRANCH  37  38
ATOM     38  O   UNL     1    -129.075 108.159  43.351  1.00  0.00    -0.394 OA
ATOM     39  H   UNL     1    -129.086 107.664  44.207  1.00  0.00     0.210 HD
ENDBRANCH  37  38
ENDBRANCH  32  37
BRANCH  33  40
ATOM     40  O   UNL     1    -128.044 110.743  39.151  1.00  0.00    -0.387 OA
ATOM     41  H   UNL     1    -127.092 110.762  39.426  1.00  0.00     0.211 HD
ENDBRANCH  33  40
BRANCH  35  42
ATOM     42  O   UNL     1    -130.622 110.449  38.583  1.00  0.00    -0.385 OA
ATOM     43  H   UNL     1    -131.232 110.517  39.366  1.00  0.00     0.211 HD
ENDBRANCH  35  42
BRANCH  36  44
ATOM     44  O   UNL     1    -131.710 107.604  38.603  1.00  0.00    -0.366 OA
ATOM     45  H   UNL     1    -132.535 108.154  38.642  1.00  0.00     0.213 HD
ENDBRANCH  36  44
ENDBRANCH  30  31
ENDBRANCH   4  30
TORSDOF 18
ENDMDL
MODEL 8
REMARK VINA RESULT:     4.996      0.992      2.278
REMARK INTER + INTRA:           8.106
REMARK INTER:                   7.638
REMARK INTRA:                   0.468
REMARK UNBOUND:                -0.541
REMARK SMILES OC[C@@H]1O[C@@H](O[C@@H]2[C@H](O)[C@H](O)[C@@H](O)O[C@@H]2CO)[C@H](O)[C@@H](O)[C@@H]1O[C@@H]1O[C@H](CO)[C@@H](O)[C@H](O)[C@H]1O
REMARK SMILES IDX 22 1 3 2 4 3 5 4 18 5 20 6 23 7 24 8 26 9 29 10 25 11 31 12
REMARK SMILES IDX 33 13 27 14 28 15 30 17 32 19 34 21 2 23 1 24 21 26 19 28
REMARK SMILES IDX 6 30 7 31 15 32 8 33 14 34 10 35 12 36 16 37 17 38 9 40
REMARK SMILES IDX 11 42 13 44
REMARK H PARENT 28 16 30 18 32 20 34 22 1 25 21 27 19 29 17 39 9 41 11 43
REMARK H PARENT 13 45
REMARK Flexibility Score: inf
ROOT
ATOM      1  C   UNL     1    -128.880 109.153  41.290  1.00  0.00     0.184 C 
ATOM      2  C   UNL     1    -129.720 109.645  42.517  1.00  0.00     0.178 C 
ATOM      3  O   UNL     1    -130.979 110.112  42.062  1.00  0.00    -0.341 OA
ATOM      4  C   UNL     1    -130.863 111.413  41.522  1.00  0.00     0.282 C 
ATOM      5  C   UNL     1    -129.796 111.487  40.400  1.00  0.00     0.202 C 
ATOM      6  C   UNL     1    -129.091 110.144  40.068  1.00  0.00     0.180 C 
ENDROOT
BRANCH   1   7
ATOM      7  O   UNL     1    -129.273 107.805  40.995  1.00  0.00    -0.341 OA
BRANCH   7   8
ATOM      8  C   UNL     1    -130.520 107.620  40.339  1.00  0.00     0.282 C 
ATOM      9  C   UNL     1    -130.143 105.304  39.828  1.00  0.00     0.178 C 
ATOM     10  C   UNL     1    -128.971 105.850  38.954  1.00  0.00     0.177 C 
ATOM     11  O   UNL     1    -130.945 106.273  40.519  1.00  0.00    -0.341 OA
ATOM     12  C   UNL     1    -129.409 107.061  38.094  1.00  0.00     0.179 C 
ATOM     13  C   UNL     1    -130.438 107.961  38.826  1.00  0.00     0.202 C 
BRANCH   9  14
ATOM     14  C   UNL     1    -129.627 104.279  40.855  1.00  0.00     0.191 C 
BRANCH  14  15
ATOM     15  O   UNL     1    -129.053 103.178  40.198  1.00  0.00    -0.394 OA
ATOM     16  H   UNL     1    -128.687 102.569  40.886  1.00  0.00     0.210 HD
ENDBRANCH  14  15
ENDBRANCH   9  14
BRANCH  10  17
ATOM     17  O   UNL     1    -128.509 104.822  38.113  1.00  0.00    -0.387 OA
ATOM     18  H   UNL     1    -127.532 104.717  38.281  1.00  0.00     0.211 HD
ENDBRANCH  10  17
BRANCH  12  19
ATOM     19  O   UNL     1    -128.290 107.801  37.688  1.00  0.00    -0.387 OA
ATOM     20  H   UNL     1    -127.820 107.286  36.986  1.00  0.00     0.211 HD
ENDBRANCH  12  19
BRANCH  13  21
ATOM     21  O   UNL     1    -131.719 107.836  38.246  1.00  0.00    -0.385 OA
ATOM     22  H   UNL     1    -132.144 108.733  38.232  1.00  0.00     0.211 HD
ENDBRANCH  13  21
ENDBRANCH   7   8
ENDBRANCH   1   7
BRANCH   2  23
ATOM     23  C   UNL     1    -129.972 108.531  43.545  1.00  0.00     0.191 C 
BRANCH  23  24
ATOM     24  O   UNL     1    -130.465 109.060  44.747  1.00  0.00    -0.394 OA
ATOM     25  H   UNL     1    -131.441 109.140  44.647  1.00  0.00     0.210 HD
ENDBRANCH  23  24
ENDBRANCH   2  23
BRANCH   6  26
ATOM     26  O   UNL     1    -127.876 110.491  39.421  1.00  0.00    -0.387 OA
ATOM     27  H   UNL     1    -127.927 111.426  39.081  1.00  0.00     0.211 HD
ENDBRANCH   6  26
BRANCH   5  28
ATOM     28  O   UNL     1    -130.377 111.962  39.201  1.00  0.00    -0.385 OA
ATOM     29  H   UNL     1    -129.678 111.965  38.501  1.00  0.00     0.211 HD
ENDBRANCH   5  28
BRANCH   4  30
ATOM     30  O   UNL     1    -130.541 112.340  42.561  1.00  0.00    -0.341 OA
BRANCH  30  31
ATOM     31  C   UNL     1    -129.244 112.915  42.475  1.00  0.00     0.184 C 
ATOM     32  C   UNL     1    -129.330 114.477  42.513  1.00  0.00     0.178 C 
ATOM     33  C   UNL     1    -128.390 112.467  43.676  1.00  0.00     0.180 C 
ATOM     34  O   UNL     1    -129.250 115.061  43.811  1.00  0.00    -0.342 OA
ATOM     35  C   UNL     1    -128.987 112.972  45.016  1.00  0.00     0.201 C 
ATOM     36  C   UNL     1    -129.830 114.257  44.829  1.00  0.00     0.279 C 
BRANCH  32  37
ATOM     37  C   UNL     1    -130.496 115.062  41.707  1.00  0.00     0.191 C 
BRANCH  37  38
ATOM     38  O   UNL     1    -130.813 116.339  42.169  1.00  0.00    -0.394 OA
ATOM     39  H   UNL     1    -130.311 116.452  43.014  1.00  0.00     0.210 HD
ENDBRANCH  37  38
ENDBRANCH  32  37
BRANCH  33  40
ATOM     40  O   UNL     1    -128.220 111.077  43.670  1.00  0.00    -0.387 OA
ATOM     41  H   UNL     1    -127.406 110.866  44.193  1.00  0.00     0.211 HD
ENDBRANCH  33  40
BRANCH  35  42
ATOM     42  O   UNL     1    -129.745 111.971  45.653  1.00  0.00    -0.385 OA
ATOM     43  H   UNL     1    -129.955 112.296  46.571  1.00  0.00     0.211 HD
ENDBRANCH  35  42
BRANCH  36  44
ATOM     44  O   UNL     1    -129.872 114.991  46.023  1.00  0.00    -0.366 OA
ATOM     45  H   UNL     1    -130.728 114.778  46.480  1.00  0.00     0.213 HD
ENDBRANCH  36  44
ENDBRANCH  30  31
ENDBRANCH   4  30
TORSDOF 18
ENDMDL
MODEL 9
REMARK VINA RESULT:     5.644      1.932      8.201
REMARK INTER + INTRA:           9.227
REMARK INTER:                   8.272
REMARK INTRA:                   0.956
REMARK UNBOUND:                -0.541
REMARK SMILES OC[C@@H]1O[C@@H](O[C@@H]2[C@H](O)[C@H](O)[C@@H](O)O[C@@H]2CO)[C@H](O)[C@@H](O)[C@@H]1O[C@@H]1O[C@H](CO)[C@@H](O)[C@H](O)[C@H]1O
REMARK SMILES IDX 22 1 3 2 4 3 5 4 18 5 20 6 23 7 24 8 26 9 29 10 25 11 31 12
REMARK SMILES IDX 33 13 27 14 28 15 30 17 32 19 34 21 2 23 1 24 21 26 19 28
REMARK SMILES IDX 6 30 7 31 15 32 8 33 14 34 10 35 12 36 16 37 17 38 9 40
REMARK SMILES IDX 11 42 13 44
REMARK H PARENT 28 16 30 18 32 20 34 22 1 25 21 27 19 29 17 39 9 41 11 43
REMARK H PARENT 13 45
REMARK Flexibility Score: inf
ROOT
ATOM      1  C   UNL     1    -130.614 112.848  43.451  1.00  0.00     0.184 C 
ATOM      2  C   UNL     1    -129.704 111.612  43.761  1.00  0.00     0.178 C 
ATOM      3  O   UNL     1    -128.472 111.757  43.075  1.00  0.00    -0.341 OA
ATOM      4  C   UNL     1    -128.616 111.406  41.713  1.00  0.00     0.282 C 
ATOM      5  C   UNL     1    -129.745 112.210  41.018  1.00  0.00     0.202 C 
ATOM      6  C   UNL     1    -130.472 113.244  41.920  1.00  0.00     0.180 C 
ENDROOT
BRANCH   1   7
ATOM      7  O   UNL     1    -130.243 113.909  44.343  1.00  0.00    -0.341 OA
BRANCH   7   8
ATOM      8  C   UNL     1    -129.079 114.654  44.017  1.00  0.00     0.282 C 
ATOM      9  C   UNL     1    -129.496 116.398  45.615  1.00  0.00     0.178 C 
ATOM     10  C   UNL     1    -130.765 116.673  44.749  1.00  0.00     0.177 C 
ATOM     11  O   UNL     1    -128.626 115.343  45.179  1.00  0.00    -0.341 OA
ATOM     12  C   UNL     1    -130.437 116.688  43.235  1.00  0.00     0.179 C 
ATOM     13  C   UNL     1    -129.336 115.660  42.861  1.00  0.00     0.202 C 
BRANCH   9  14
ATOM     14  C   UNL     1    -129.883 116.133  47.082  1.00  0.00     0.191 C 
BRANCH  14  15
ATOM     15  O   UNL     1    -131.239 115.776  47.171  1.00  0.00    -0.394 OA
ATOM     16  H   UNL     1    -131.367 114.936  46.665  1.00  0.00     0.210 HD
ENDBRANCH  14  15
ENDBRANCH   9  14
BRANCH  10  17
ATOM     17  O   UNL     1    -131.313 117.913  45.121  1.00  0.00    -0.387 OA
ATOM     18  H   UNL     1    -130.917 118.162  46.001  1.00  0.00     0.211 HD
ENDBRANCH  10  17
BRANCH  12  19
ATOM     19  O   UNL     1    -131.600 116.477  42.482  1.00  0.00    -0.387 OA
ATOM     20  H   UNL     1    -131.453 116.854  41.579  1.00  0.00     0.211 HD
ENDBRANCH  12  19
BRANCH  13  21
ATOM     21  O   UNL     1    -128.130 116.313  42.529  1.00  0.00    -0.385 OA
ATOM     22  H   UNL     1    -128.159 116.552  41.566  1.00  0.00     0.211 HD
ENDBRANCH  13  21
ENDBRANCH   7   8
ENDBRANCH   1   7
BRANCH   2  23
ATOM     23  C   UNL     1    -129.396 111.467  45.260  1.00  0.00     0.191 C 
BRANCH  23  24
ATOM     24  O   UNL     1    -130.150 110.431  45.829  1.00  0.00    -0.394 OA
ATOM     25  H   UNL     1    -130.116 110.554  46.805  1.00  0.00     0.210 HD
ENDBRANCH  23  24
ENDBRANCH   2  23
BRANCH   6  26
ATOM     26  O   UNL     1    -131.722 113.496  41.296  1.00  0.00    -0.387 OA
ATOM     27  H   UNL     1    -132.073 112.657  40.888  1.00  0.00     0.211 HD
ENDBRANCH   6  26
BRANCH   5  28
ATOM     28  O   UNL     1    -129.234 112.913  39.903  1.00  0.00    -0.385 OA
ATOM     29  H   UNL     1    -129.186 112.286  39.140  1.00  0.00     0.211 HD
ENDBRANCH   5  28
BRANCH   4  30
ATOM     30  O   UNL     1    -128.874 110.006  41.600  1.00  0.00    -0.341 OA
BRANCH  30  31
ATOM     31  C   UNL     1    -130.224 109.663  41.318  1.00  0.00     0.184 C 
ATOM     32  C   UNL     1    -130.408 109.354  39.795  1.00  0.00     0.178 C 
ATOM     33  C   UNL     1    -130.620 108.397  42.101  1.00  0.00     0.180 C 
ATOM     34  O   UNL     1    -130.228 107.990  39.424  1.00  0.00    -0.342 OA
ATOM     35  C   UNL     1    -129.773 107.172  41.662  1.00  0.00     0.201 C 
ATOM     36  C   UNL     1    -129.255 107.314  40.211  1.00  0.00     0.279 C 
BRANCH  32  37
ATOM     37  C   UNL     1    -129.633 110.295  38.865  1.00  0.00     0.191 C 
BRANCH  37  38
ATOM     38  O   UNL     1    -128.266 110.027  38.934  1.00  0.00    -0.394 OA
ATOM     39  H   UNL     1    -128.080 109.817  39.882  1.00  0.00     0.210 HD
ENDBRANCH  37  38
ENDBRANCH  32  37
BRANCH  33  40
ATOM     40  O   UNL     1    -130.536 108.623  43.481  1.00  0.00    -0.387 OA
ATOM     41  H   UNL     1    -129.609 108.422  43.767  1.00  0.00     0.211 HD
ENDBRANCH  33  40
BRANCH  35  42
ATOM     42  O   UNL     1    -128.704 106.940  42.549  1.00  0.00    -0.385 OA
ATOM     43  H   UNL     1    -127.880 107.297  42.120  1.00  0.00     0.211 HD
ENDBRANCH  35  42
BRANCH  36  44
ATOM     44  O   UNL     1    -129.014 106.050  39.653  1.00  0.00    -0.366 OA
ATOM     45  H   UNL     1    -129.893 105.646  39.426  1.00  0.00     0.213 HD
ENDBRANCH  36  44
ENDBRANCH  30  31
ENDBRANCH   4  30
TORSDOF 18
ENDMDL
