MODEL 1
REMARK VINA RESULT:    -2.658      0.000      0.000
REMARK INTER + INTRA:          -6.346
REMARK INTER:                  -4.600
REMARK INTRA:                  -1.746
REMARK UNBOUND:                -1.746
REMARK SMILES CCCCCCCCCCCCCCO
REMARK SMILES IDX 8 1 7 2 6 3 5 4 4 5 3 6 2 7 1 8 9 9 10 10 11 11 12 12 13 13
REMARK SMILES IDX 14 14 15 15
REMARK H PARENT 15 16
REMARK Flexibility Score: inf
ROOT
ATOM      1  C   UNL     1     141.327 140.318 142.333  1.00  0.00     0.000 C 
ENDROOT
BRANCH   1   2
ATOM      2  C   UNL     1     142.786 140.030 141.923  1.00  0.00    -0.000 C 
BRANCH   2   3
ATOM      3  C   UNL     1     143.714 139.590 143.069  1.00  0.00    -0.000 C 
BRANCH   3   4
ATOM      4  C   UNL     1     144.143 140.759 143.972  1.00  0.00    -0.000 C 
BRANCH   4   5
ATOM      5  C   UNL     1     145.561 141.262 143.652  1.00  0.00    -0.000 C 
BRANCH   5   6
ATOM      6  C   UNL     1     145.580 142.296 142.513  1.00  0.00    -0.000 C 
BRANCH   6   7
ATOM      7  C   UNL     1     146.236 141.750 141.235  1.00  0.00    -0.003 C 
ATOM      8  C   UNL     1     145.327 141.864 140.011  1.00  0.00     0.004 C 
ENDBRANCH   6   7
ENDBRANCH   5   6
ENDBRANCH   4   5
ENDBRANCH   3   4
ENDBRANCH   2   3
ENDBRANCH   1   2
BRANCH   1   9
ATOM      9  C   UNL     1     140.962 141.808 142.449  1.00  0.00     0.000 C 
BRANCH   9  10
ATOM     10  C   UNL     1     141.813 142.704 141.535  1.00  0.00     0.000 C 
BRANCH  10  11
ATOM     11  C   UNL     1     142.431 143.865 142.327  1.00  0.00     0.000 C 
BRANCH  11  12
ATOM     12  C   UNL     1     141.881 143.973 143.762  1.00  0.00     0.002 C 
BRANCH  12  13
ATOM     13  C   UNL     1     140.983 145.196 144.020  1.00  0.00     0.028 C 
BRANCH  13  14
ATOM     14  C   UNL     1     139.491 144.846 144.071  1.00  0.00     0.156 C 
BRANCH  14  15
ATOM     15  O   UNL     1     138.812 145.472 143.017  1.00  0.00    -0.396 OA
ATOM     16  H   UNL     1     138.709 144.793 142.301  1.00  0.00     0.210 HD
ENDBRANCH  14  15
ENDBRANCH  13  14
ENDBRANCH  12  13
ENDBRANCH  11  12
ENDBRANCH  10  11
ENDBRANCH   9  10
ENDBRANCH   1   9
TORSDOF 13
ENDMDL
MODEL 2
REMARK VINA RESULT:    -2.649      1.031      2.697
REMARK INTER + INTRA:          -6.331
REMARK INTER:                  -4.664
REMARK INTRA:                  -1.667
REMARK UNBOUND:                -1.746
REMARK SMILES CCCCCCCCCCCCCCO
REMARK SMILES IDX 8 1 7 2 6 3 5 4 4 5 3 6 2 7 1 8 9 9 10 10 11 11 12 12 13 13
REMARK SMILES IDX 14 14 15 15
REMARK H PARENT 15 16
REMARK Flexibility Score: inf
ROOT
ATOM      1  C   UNL     1     144.042 142.304 140.525  1.00  0.00     0.000 C 
ENDROOT
BRANCH   1   2
ATOM      2  C   UNL     1     144.974 141.440 141.400  1.00  0.00    -0.000 C 
BRANCH   2   3
ATOM      3  C   UNL     1     145.561 142.150 142.633  1.00  0.00    -0.000 C 
BRANCH   3   4
ATOM      4  C   UNL     1     145.279 141.399 143.945  1.00  0.00    -0.000 C 
BRANCH   4   5
ATOM      5  C   UNL     1     144.043 140.489 143.851  1.00  0.00    -0.000 C 
BRANCH   5   6
ATOM      6  C   UNL     1     144.388 139.000 144.026  1.00  0.00    -0.000 C 
BRANCH   6   7
ATOM      7  C   UNL     1     143.615 138.100 143.049  1.00  0.00    -0.003 C 
ATOM      8  C   UNL     1     142.308 138.733 142.573  1.00  0.00     0.004 C 
ENDBRANCH   6   7
ENDBRANCH   5   6
ENDBRANCH   4   5
ENDBRANCH   3   4
ENDBRANCH   2   3
ENDBRANCH   1   2
BRANCH   1   9
ATOM      9  C   UNL     1     142.569 141.861 140.504  1.00  0.00     0.000 C 
BRANCH   9  10
ATOM     10  C   UNL     1     141.757 142.428 141.678  1.00  0.00     0.000 C 
BRANCH  10  11
ATOM     11  C   UNL     1     142.171 143.876 141.981  1.00  0.00     0.000 C 
BRANCH  11  12
ATOM     12  C   UNL     1     142.255 144.172 143.490  1.00  0.00     0.002 C 
BRANCH  12  13
ATOM     13  C   UNL     1     141.031 144.899 144.077  1.00  0.00     0.028 C 
BRANCH  13  14
ATOM     14  C   UNL     1     140.149 145.551 143.006  1.00  0.00     0.156 C 
BRANCH  14  15
ATOM     15  O   UNL     1     138.797 145.304 143.278  1.00  0.00    -0.396 OA
ATOM     16  H   UNL     1     138.764 144.821 144.145  1.00  0.00     0.210 HD
ENDBRANCH  14  15
ENDBRANCH  13  14
ENDBRANCH  12  13
ENDBRANCH  11  12
ENDBRANCH  10  11
ENDBRANCH   9  10
ENDBRANCH   1   9
TORSDOF 13
ENDMDL
MODEL 3
REMARK VINA RESULT:    -2.646      2.620      5.860
REMARK INTER + INTRA:          -6.325
REMARK INTER:                  -4.585
REMARK INTRA:                  -1.740
REMARK UNBOUND:                -1.746
REMARK SMILES CCCCCCCCCCCCCCO
REMARK SMILES IDX 8 1 7 2 6 3 5 4 4 5 3 6 2 7 1 8 9 9 10 10 11 11 12 12 13 13
REMARK SMILES IDX 14 14 15 15
REMARK H PARENT 15 16
REMARK Flexibility Score: inf
ROOT
ATOM      1  C   UNL     1     142.581 143.836 140.732  1.00  0.00     0.000 C 
ENDROOT
BRANCH   1   2
ATOM      2  C   UNL     1     141.796 144.612 139.654  1.00  0.00    -0.000 C 
BRANCH   2   3
ATOM      3  C   UNL     1     140.300 144.815 139.951  1.00  0.00    -0.000 C 
BRANCH   3   4
ATOM      4  C   UNL     1     139.994 146.193 140.562  1.00  0.00    -0.000 C 
BRANCH   4   5
ATOM      5  C   UNL     1     139.365 146.092 141.962  1.00  0.00    -0.000 C 
BRANCH   5   6
ATOM      6  C   UNL     1     139.068 144.639 142.375  1.00  0.00    -0.000 C 
BRANCH   6   7
ATOM      7  C   UNL     1     139.645 144.291 143.756  1.00  0.00    -0.003 C 
ATOM      8  C   UNL     1     141.001 144.950 144.010  1.00  0.00     0.004 C 
ENDBRANCH   6   7
ENDBRANCH   5   6
ENDBRANCH   4   5
ENDBRANCH   3   4
ENDBRANCH   2   3
ENDBRANCH   1   2
BRANCH   1   9
ATOM      9  C   UNL     1     142.351 142.316 140.740  1.00  0.00     0.000 C 
BRANCH   9  10
ATOM     10  C   UNL     1     141.651 141.824 142.016  1.00  0.00     0.000 C 
BRANCH  10  11
ATOM     11  C   UNL     1     142.612 141.000 142.886  1.00  0.00     0.000 C 
BRANCH  11  12
ATOM     12  C   UNL     1     143.322 141.844 143.961  1.00  0.00     0.002 C 
BRANCH  12  13
ATOM     13  C   UNL     1     144.841 141.619 144.062  1.00  0.00     0.028 C 
BRANCH  13  14
ATOM     14  C   UNL     1     145.551 141.688 142.705  1.00  0.00     0.156 C 
BRANCH  14  15
ATOM     15  O   UNL     1     145.685 143.022 142.298  1.00  0.00    -0.396 OA
ATOM     16  H   UNL     1     145.290 143.581 143.017  1.00  0.00     0.210 HD
ENDBRANCH  14  15
ENDBRANCH  13  14
ENDBRANCH  12  13
ENDBRANCH  11  12
ENDBRANCH  10  11
ENDBRANCH   9  10
ENDBRANCH   1   9
TORSDOF 13
ENDMDL
MODEL 4
REMARK VINA RESULT:    -2.646      4.305      5.734
REMARK INTER + INTRA:          -6.324
REMARK INTER:                  -4.359
REMARK INTRA:                  -1.965
REMARK UNBOUND:                -1.746
REMARK SMILES CCCCCCCCCCCCCCO
REMARK SMILES IDX 8 1 7 2 6 3 5 4 4 5 3 6 2 7 1 8 9 9 10 10 11 11 12 12 13 13
REMARK SMILES IDX 14 14 15 15
REMARK H PARENT 15 16
REMARK Flexibility Score: inf
ROOT
ATOM      1  C   UNL     1     142.484 139.676 140.789  1.00  0.00     0.000 C 
ENDROOT
BRANCH   1   2
ATOM      2  C   UNL     1     143.627 138.766 141.288  1.00  0.00    -0.000 C 
BRANCH   2   3
ATOM      3  C   UNL     1     143.695 138.576 142.813  1.00  0.00    -0.000 C 
BRANCH   3   4
ATOM      4  C   UNL     1     142.323 138.268 143.438  1.00  0.00    -0.000 C 
BRANCH   4   5
ATOM      5  C   UNL     1     142.174 136.790 143.837  1.00  0.00    -0.000 C 
BRANCH   5   6
ATOM      6  C   UNL     1     141.313 135.991 142.843  1.00  0.00    -0.000 C 
BRANCH   6   7
ATOM      7  C   UNL     1     142.144 135.379 141.705  1.00  0.00    -0.003 C 
ATOM      8  C   UNL     1     141.507 135.590 140.332  1.00  0.00     0.004 C 
ENDBRANCH   6   7
ENDBRANCH   5   6
ENDBRANCH   4   5
ENDBRANCH   3   4
ENDBRANCH   2   3
ENDBRANCH   1   2
BRANCH   1   9
ATOM      9  C   UNL     1     141.952 139.346 139.384  1.00  0.00     0.000 C 
BRANCH   9  10
ATOM     10  C   UNL     1     140.485 138.891 139.393  1.00  0.00     0.000 C 
BRANCH  10  11
ATOM     11  C   UNL     1     139.835 139.164 140.758  1.00  0.00     0.000 C 
BRANCH  11  12
ATOM     12  C   UNL     1     138.787 138.103 141.146  1.00  0.00     0.002 C 
BRANCH  12  13
ATOM     13  C   UNL     1     138.294 138.183 142.602  1.00  0.00     0.028 C 
BRANCH  13  14
ATOM     14  C   UNL     1     137.109 139.139 142.783  1.00  0.00     0.156 C 
BRANCH  14  15
ATOM     15  O   UNL     1     135.944 138.570 142.252  1.00  0.00    -0.396 OA
ATOM     16  H   UNL     1     135.500 139.278 141.715  1.00  0.00     0.210 HD
ENDBRANCH  14  15
ENDBRANCH  13  14
ENDBRANCH  12  13
ENDBRANCH  11  12
ENDBRANCH  10  11
ENDBRANCH   9  10
ENDBRANCH   1   9
TORSDOF 13
ENDMDL
MODEL 5
REMARK VINA RESULT:    -2.604      4.314      5.898
REMARK INTER + INTRA:          -6.253
REMARK INTER:                  -4.618
REMARK INTRA:                  -1.635
REMARK UNBOUND:                -1.746
REMARK SMILES CCCCCCCCCCCCCCO
REMARK SMILES IDX 8 1 7 2 6 3 5 4 4 5 3 6 2 7 1 8 9 9 10 10 11 11 12 12 13 13
REMARK SMILES IDX 14 14 15 15
REMARK H PARENT 15 16
REMARK Flexibility Score: inf
ROOT
ATOM      1  C   UNL     1     140.047 138.000 139.579  1.00  0.00     0.000 C 
ENDROOT
BRANCH   1   2
ATOM      2  C   UNL     1     140.153 136.461 139.599  1.00  0.00    -0.000 C 
BRANCH   2   3
ATOM      3  C   UNL     1     141.585 135.903 139.686  1.00  0.00    -0.000 C 
BRANCH   3   4
ATOM      4  C   UNL     1     141.790 134.969 140.891  1.00  0.00    -0.000 C 
BRANCH   4   5
ATOM      5  C   UNL     1     141.873 135.734 142.223  1.00  0.00    -0.000 C 
BRANCH   5   6
ATOM      6  C   UNL     1     142.883 136.894 142.180  1.00  0.00    -0.000 C 
BRANCH   6   7
ATOM      7  C   UNL     1     142.809 137.784 143.431  1.00  0.00    -0.003 C 
ATOM      8  C   UNL     1     142.872 139.274 143.098  1.00  0.00     0.004 C 
ENDBRANCH   6   7
ENDBRANCH   5   6
ENDBRANCH   4   5
ENDBRANCH   3   4
ENDBRANCH   2   3
ENDBRANCH   1   2
BRANCH   1   9
ATOM      9  C   UNL     1     139.887 138.662 140.958  1.00  0.00     0.000 C 
BRANCH   9  10
ATOM     10  C   UNL     1     138.956 137.876 141.894  1.00  0.00     0.000 C 
BRANCH  10  11
ATOM     11  C   UNL     1     139.035 138.419 143.328  1.00  0.00     0.000 C 
BRANCH  11  12
ATOM     12  C   UNL     1     137.711 139.044 143.806  1.00  0.00     0.002 C 
BRANCH  12  13
ATOM     13  C   UNL     1     137.218 140.238 142.968  1.00  0.00     0.028 C 
BRANCH  13  14
ATOM     14  C   UNL     1     135.868 139.979 142.290  1.00  0.00     0.156 C 
BRANCH  14  15
ATOM     15  O   UNL     1     135.621 138.601 142.217  1.00  0.00    -0.396 OA
ATOM     16  H   UNL     1     134.948 138.470 141.499  1.00  0.00     0.210 HD
ENDBRANCH  14  15
ENDBRANCH  13  14
ENDBRANCH  12  13
ENDBRANCH  11  12
ENDBRANCH  10  11
ENDBRANCH   9  10
ENDBRANCH   1   9
TORSDOF 13
ENDMDL
MODEL 6
REMARK VINA RESULT:    -2.599      4.453      6.594
REMARK INTER + INTRA:          -6.243
REMARK INTER:                  -4.373
REMARK INTRA:                  -1.871
REMARK UNBOUND:                -1.746
REMARK SMILES CCCCCCCCCCCCCCO
REMARK SMILES IDX 8 1 7 2 6 3 5 4 4 5 3 6 2 7 1 8 9 9 10 10 11 11 12 12 13 13
REMARK SMILES IDX 14 14 15 15
REMARK H PARENT 15 16
REMARK Flexibility Score: inf
ROOT
ATOM      1  C   UNL     1     138.076 142.459 139.870  1.00  0.00     0.000 C 
ENDROOT
BRANCH   1   2
ATOM      2  C   UNL     1     137.196 141.719 138.841  1.00  0.00    -0.000 C 
BRANCH   2   3
ATOM      3  C   UNL     1     135.815 141.275 139.356  1.00  0.00    -0.000 C 
BRANCH   3   4
ATOM      4  C   UNL     1     135.835 139.869 139.979  1.00  0.00    -0.000 C 
BRANCH   4   5
ATOM      5  C   UNL     1     135.392 139.870 141.452  1.00  0.00    -0.000 C 
BRANCH   5   6
ATOM      6  C   UNL     1     136.380 139.127 142.369  1.00  0.00    -0.000 C 
BRANCH   6   7
ATOM      7  C   UNL     1     137.501 138.429 141.583  1.00  0.00    -0.003 C 
ATOM      8  C   UNL     1     138.631 137.933 142.484  1.00  0.00     0.004 C 
ENDBRANCH   6   7
ENDBRANCH   5   6
ENDBRANCH   4   5
ENDBRANCH   3   4
ENDBRANCH   2   3
ENDBRANCH   1   2
BRANCH   1   9
ATOM      9  C   UNL     1     139.099 141.579 140.608  1.00  0.00     0.000 C 
BRANCH   9  10
ATOM     10  C   UNL     1     139.049 141.756 142.133  1.00  0.00     0.000 C 
BRANCH  10  11
ATOM     11  C   UNL     1     137.889 142.675 142.541  1.00  0.00     0.000 C 
BRANCH  11  12
ATOM     12  C   UNL     1     138.329 143.820 143.471  1.00  0.00     0.002 C 
BRANCH  12  13
ATOM     13  C   UNL     1     139.561 144.609 142.990  1.00  0.00     0.028 C 
BRANCH  13  14
ATOM     14  C   UNL     1     139.195 145.857 142.178  1.00  0.00     0.156 C 
BRANCH  14  15
ATOM     15  O   UNL     1     139.340 145.599 140.807  1.00  0.00    -0.396 OA
ATOM     16  H   UNL     1     139.607 144.647 140.723  1.00  0.00     0.210 HD
ENDBRANCH  14  15
ENDBRANCH  13  14
ENDBRANCH  12  13
ENDBRANCH  11  12
ENDBRANCH  10  11
ENDBRANCH   9  10
ENDBRANCH   1   9
TORSDOF 13
ENDMDL
MODEL 7
REMARK VINA RESULT:    -2.590      1.319      3.170
REMARK INTER + INTRA:          -6.228
REMARK INTER:                  -4.530
REMARK INTRA:                  -1.697
REMARK UNBOUND:                -1.746
REMARK SMILES CCCCCCCCCCCCCCO
REMARK SMILES IDX 8 1 7 2 6 3 5 4 4 5 3 6 2 7 1 8 9 9 10 10 11 11 12 12 13 13
REMARK SMILES IDX 14 14 15 15
REMARK H PARENT 15 16
REMARK Flexibility Score: inf
ROOT
ATOM      1  C   UNL     1     145.393 142.548 142.346  1.00  0.00     0.000 C 
ENDROOT
BRANCH   1   2
ATOM      2  C   UNL     1     145.639 141.201 143.058  1.00  0.00    -0.000 C 
BRANCH   2   3
ATOM      3  C   UNL     1     144.564 140.794 144.081  1.00  0.00    -0.000 C 
BRANCH   3   4
ATOM      4  C   UNL     1     144.292 139.280 144.091  1.00  0.00    -0.000 C 
BRANCH   4   5
ATOM      5  C   UNL     1     142.908 138.926 143.523  1.00  0.00    -0.000 C 
BRANCH   5   6
ATOM      6  C   UNL     1     142.062 140.170 143.200  1.00  0.00    -0.000 C 
BRANCH   6   7
ATOM      7  C   UNL     1     141.675 140.249 141.715  1.00  0.00    -0.003 C 
ATOM      8  C   UNL     1     140.220 140.667 141.507  1.00  0.00     0.004 C 
ENDBRANCH   6   7
ENDBRANCH   5   6
ENDBRANCH   4   5
ENDBRANCH   3   4
ENDBRANCH   2   3
ENDBRANCH   1   2
BRANCH   1   9
ATOM      9  C   UNL     1     144.377 142.501 141.191  1.00  0.00     0.000 C 
BRANCH   9  10
ATOM     10  C   UNL     1     143.310 143.601 141.289  1.00  0.00     0.000 C 
BRANCH  10  11
ATOM     11  C   UNL     1     142.921 143.859 142.752  1.00  0.00     0.000 C 
BRANCH  11  12
ATOM     12  C   UNL     1     141.397 143.917 142.967  1.00  0.00     0.002 C 
BRANCH  12  13
ATOM     13  C   UNL     1     140.616 144.659 141.867  1.00  0.00     0.028 C 
BRANCH  13  14
ATOM     14  C   UNL     1     139.544 145.603 142.425  1.00  0.00     0.156 C 
BRANCH  14  15
ATOM     15  O   UNL     1     139.123 146.496 141.430  1.00  0.00    -0.396 OA
ATOM     16  H   UNL     1     138.580 147.192 141.883  1.00  0.00     0.210 HD
ENDBRANCH  14  15
ENDBRANCH  13  14
ENDBRANCH  12  13
ENDBRANCH  11  12
ENDBRANCH  10  11
ENDBRANCH   9  10
ENDBRANCH   1   9
TORSDOF 13
ENDMDL
MODEL 8
REMARK VINA RESULT:    -2.563      4.237      6.353
REMARK INTER + INTRA:          -6.181
REMARK INTER:                  -4.613
REMARK INTRA:                  -1.568
REMARK UNBOUND:                -1.746
REMARK SMILES CCCCCCCCCCCCCCO
REMARK SMILES IDX 8 1 7 2 6 3 5 4 4 5 3 6 2 7 1 8 9 9 10 10 11 11 12 12 13 13
REMARK SMILES IDX 14 14 15 15
REMARK H PARENT 15 16
REMARK Flexibility Score: inf
ROOT
ATOM      1  C   UNL     1     144.626 139.969 143.748  1.00  0.00     0.000 C 
ENDROOT
BRANCH   1   2
ATOM      2  C   UNL     1     144.259 141.346 143.156  1.00  0.00    -0.000 C 
BRANCH   2   3
ATOM      3  C   UNL     1     145.451 142.192 142.675  1.00  0.00    -0.000 C 
BRANCH   3   4
ATOM      4  C   UNL     1     146.020 141.710 141.329  1.00  0.00    -0.000 C 
BRANCH   4   5
ATOM      5  C   UNL     1     144.919 141.369 140.311  1.00  0.00    -0.000 C 
BRANCH   5   6
ATOM      6  C   UNL     1     145.125 139.994 139.653  1.00  0.00    -0.000 C 
BRANCH   6   7
ATOM      7  C   UNL     1     144.001 139.003 139.999  1.00  0.00    -0.003 C 
ATOM      8  C   UNL     1     142.678 139.701 140.314  1.00  0.00     0.004 C 
ENDBRANCH   6   7
ENDBRANCH   5   6
ENDBRANCH   4   5
ENDBRANCH   3   4
ENDBRANCH   2   3
ENDBRANCH   1   2
BRANCH   1   9
ATOM      9  C   UNL     1     143.429 139.079 144.125  1.00  0.00     0.000 C 
BRANCH   9  10
ATOM     10  C   UNL     1     143.473 137.702 143.446  1.00  0.00     0.000 C 
BRANCH  10  11
ATOM     11  C   UNL     1     142.064 137.246 143.040  1.00  0.00     0.000 C 
BRANCH  11  12
ATOM     12  C   UNL     1     142.075 136.024 142.103  1.00  0.00     0.002 C 
BRANCH  12  13
ATOM     13  C   UNL     1     141.267 136.196 140.804  1.00  0.00     0.028 C 
BRANCH  13  14
ATOM     14  C   UNL     1     141.659 135.190 139.716  1.00  0.00     0.156 C 
BRANCH  14  15
ATOM     15  O   UNL     1     142.532 134.226 140.240  1.00  0.00    -0.396 OA
ATOM     16  H   UNL     1     143.416 134.667 140.342  1.00  0.00     0.210 HD
ENDBRANCH  14  15
ENDBRANCH  13  14
ENDBRANCH  12  13
ENDBRANCH  11  12
ENDBRANCH  10  11
ENDBRANCH   9  10
ENDBRANCH   1   9
TORSDOF 13
ENDMDL
MODEL 9
REMARK VINA RESULT:    -1.403      3.038      5.310
REMARK INTER + INTRA:          -4.173
REMARK INTER:                  -2.484
REMARK INTRA:                  -1.689
REMARK UNBOUND:                -1.746
REMARK SMILES CCCCCCCCCCCCCCO
REMARK SMILES IDX 8 1 7 2 6 3 5 4 4 5 3 6 2 7 1 8 9 9 10 10 11 11 12 12 13 13
REMARK SMILES IDX 14 14 15 15
REMARK H PARENT 15 16
REMARK Flexibility Score: inf
ROOT
ATOM      1  C   UNL     1     138.430 143.525 141.309  1.00  0.00     0.000 C 
ENDROOT
BRANCH   1   2
ATOM      2  C   UNL     1     138.581 144.682 142.319  1.00  0.00    -0.000 C 
BRANCH   2   3
ATOM      3  C   UNL     1     139.985 145.308 142.393  1.00  0.00    -0.000 C 
BRANCH   3   4
ATOM      4  C   UNL     1     140.613 145.201 143.793  1.00  0.00    -0.000 C 
BRANCH   4   5
ATOM      5  C   UNL     1     141.910 144.374 143.798  1.00  0.00    -0.000 C 
BRANCH   5   6
ATOM      6  C   UNL     1     142.213 143.738 142.429  1.00  0.00    -0.000 C 
BRANCH   6   7
ATOM      7  C   UNL     1     142.252 142.203 142.490  1.00  0.00    -0.003 C 
ATOM      8  C   UNL     1     142.666 141.679 143.864  1.00  0.00     0.004 C 
ENDBRANCH   6   7
ENDBRANCH   5   6
ENDBRANCH   4   5
ENDBRANCH   3   4
ENDBRANCH   2   3
ENDBRANCH   1   2
BRANCH   1   9
ATOM      9  C   UNL     1     137.917 142.202 141.903  1.00  0.00     0.000 C 
BRANCH   9  10
ATOM     10  C   UNL     1     137.770 142.250 143.431  1.00  0.00     0.000 C 
BRANCH  10  11
ATOM     11  C   UNL     1     138.890 141.453 144.115  1.00  0.00     0.000 C 
BRANCH  11  12
ATOM     12  C   UNL     1     139.296 140.193 143.327  1.00  0.00     0.002 C 
BRANCH  12  13
ATOM     13  C   UNL     1     138.728 138.873 143.877  1.00  0.00     0.028 C 
BRANCH  13  14
ATOM     14  C   UNL     1     137.216 138.927 144.125  1.00  0.00     0.156 C 
BRANCH  14  15
ATOM     15  O   UNL     1     136.523 138.746 142.920  1.00  0.00    -0.396 OA
ATOM     16  H   UNL     1     135.671 138.289 143.147  1.00  0.00     0.210 HD
ENDBRANCH  14  15
ENDBRANCH  13  14
ENDBRANCH  12  13
ENDBRANCH  11  12
ENDBRANCH  10  11
ENDBRANCH   9  10
ENDBRANCH   1   9
TORSDOF 13
ENDMDL
