MODEL 1
REMARK VINA RESULT:    -5.037      0.000      0.000
REMARK INTER + INTRA:          -5.037
REMARK INTER:                  -5.037
REMARK INTRA:                   0.000
REMARK UNBOUND:                 0.000
REMARK SMILES O=c1ccc2ccccc2o1
REMARK SMILES IDX 7 1 8 2 9 3 10 4 5 5 6 6 4 7 3 8 2 9 1 10 11 11
REMARK H PARENT
REMARK Flexibility Score: inf
ROOT
ATOM      1  C   UNL     1      21.373  -0.162 -22.412  1.00  0.00     0.001 A 
ATOM      2  C   UNL     1      21.877   1.034 -21.888  1.00  0.00     0.004 A 
ATOM      3  C   UNL     1      21.620   1.384 -20.559  1.00  0.00     0.048 A 
ATOM      4  C   UNL     1      20.857   0.537 -19.746  1.00  0.00     0.138 A 
ATOM      5  C   UNL     1      20.348  -0.671 -20.275  1.00  0.00     0.018 A 
ATOM      6  C   UNL     1      20.609  -1.015 -21.609  1.00  0.00     0.012 A 
ATOM      7  C   UNL     1      19.589  -1.497 -19.439  1.00  0.00     0.019 A 
ATOM      8  C   UNL     1      19.358  -1.108 -18.120  1.00  0.00     0.094 A 
ATOM      9  C   UNL     1      19.893   0.102 -17.665  1.00  0.00     0.336 A 
ATOM     10  O   UNL     1      19.697   0.470 -16.478  1.00  0.00    -0.246 OA
ATOM     11  O   UNL     1      20.612   0.870 -18.481  1.00  0.00    -0.423 OA
ENDROOT
TORSDOF 0
ENDMDL
MODEL 2
REMARK VINA RESULT:    -4.999     19.135     20.831
REMARK INTER + INTRA:          -4.999
REMARK INTER:                  -4.999
REMARK INTRA:                   0.000
REMARK UNBOUND:                 0.000
REMARK SMILES O=c1ccc2ccccc2o1
REMARK SMILES IDX 7 1 8 2 9 3 10 4 5 5 6 6 4 7 3 8 2 9 1 10 11 11
REMARK H PARENT
REMARK Flexibility Score: inf
ROOT
ATOM      1  C   UNL     1       4.487   4.509  -8.666  1.00  0.00     0.001 A 
ATOM      2  C   UNL     1       5.664   3.775  -8.848  1.00  0.00     0.004 A 
ATOM      3  C   UNL     1       6.265   3.128  -7.764  1.00  0.00     0.048 A 
ATOM      4  C   UNL     1       5.691   3.212  -6.490  1.00  0.00     0.138 A 
ATOM      5  C   UNL     1       4.502   3.955  -6.306  1.00  0.00     0.018 A 
ATOM      6  C   UNL     1       3.905   4.601  -7.397  1.00  0.00     0.012 A 
ATOM      7  C   UNL     1       3.951   4.021  -5.022  1.00  0.00     0.019 A 
ATOM      8  C   UNL     1       4.585   3.360  -3.970  1.00  0.00     0.094 A 
ATOM      9  C   UNL     1       5.759   2.646  -4.227  1.00  0.00     0.336 A 
ATOM     10  O   UNL     1       6.346   2.042  -3.292  1.00  0.00    -0.246 OA
ATOM     11  O   UNL     1       6.263   2.598  -5.459  1.00  0.00    -0.423 OA
ENDROOT
TORSDOF 0
ENDMDL
MODEL 3
REMARK VINA RESULT:    -4.978      1.868      3.273
REMARK INTER + INTRA:          -4.978
REMARK INTER:                  -4.978
REMARK INTRA:                   0.000
REMARK UNBOUND:                 0.000
REMARK SMILES O=c1ccc2ccccc2o1
REMARK SMILES IDX 7 1 8 2 9 3 10 4 5 5 6 6 4 7 3 8 2 9 1 10 11 11
REMARK H PARENT
REMARK Flexibility Score: inf
ROOT
ATOM      1  C   UNL     1      19.375  -0.495 -20.296  1.00  0.00     0.001 A 
ATOM      2  C   UNL     1      18.962  -1.072 -19.091  1.00  0.00     0.004 A 
ATOM      3  C   UNL     1      19.626  -0.765 -17.899  1.00  0.00     0.048 A 
ATOM      4  C   UNL     1      20.710   0.121 -17.909  1.00  0.00     0.138 A 
ATOM      5  C   UNL     1      21.128   0.704 -19.127  1.00  0.00     0.018 A 
ATOM      6  C   UNL     1      20.457   0.391 -20.318  1.00  0.00     0.012 A 
ATOM      7  C   UNL     1      22.214   1.585 -19.106  1.00  0.00     0.019 A 
ATOM      8  C   UNL     1      22.847   1.862 -17.894  1.00  0.00     0.094 A 
ATOM      9  C   UNL     1      22.378   1.248 -16.728  1.00  0.00     0.336 A 
ATOM     10  O   UNL     1      22.935   1.486 -15.625  1.00  0.00    -0.246 OA
ATOM     11  O   UNL     1      21.343   0.413 -16.776  1.00  0.00    -0.423 OA
ENDROOT
TORSDOF 0
ENDMDL
MODEL 4
REMARK VINA RESULT:    -4.834     18.591     20.034
REMARK INTER + INTRA:          -4.834
REMARK INTER:                  -4.834
REMARK INTRA:                   0.000
REMARK UNBOUND:                 0.000
REMARK SMILES O=c1ccc2ccccc2o1
REMARK SMILES IDX 7 1 8 2 9 3 10 4 5 5 6 6 4 7 3 8 2 9 1 10 11 11
REMARK H PARENT
REMARK Flexibility Score: inf
ROOT
ATOM      1  C   UNL     1       5.696   3.240  -7.104  1.00  0.00     0.001 A 
ATOM      2  C   UNL     1       4.462   3.747  -6.684  1.00  0.00     0.004 A 
ATOM      3  C   UNL     1       3.875   4.821  -7.361  1.00  0.00     0.048 A 
ATOM      4  C   UNL     1       4.522   5.393  -8.463  1.00  0.00     0.138 A 
ATOM      5  C   UNL     1       5.770   4.881  -8.887  1.00  0.00     0.018 A 
ATOM      6  C   UNL     1       6.352   3.804  -8.203  1.00  0.00     0.012 A 
ATOM      7  C   UNL     1       6.392   5.473  -9.991  1.00  0.00     0.019 A 
ATOM      8  C   UNL     1       5.771   6.542 -10.635  1.00  0.00     0.094 A 
ATOM      9  C   UNL     1       4.536   6.996 -10.159  1.00  0.00     0.336 A 
ATOM     10  O   UNL     1       3.959   7.959 -10.728  1.00  0.00    -0.246 OA
ATOM     11  O   UNL     1       3.965   6.415  -9.107  1.00  0.00    -0.423 OA
ENDROOT
TORSDOF 0
ENDMDL
MODEL 5
REMARK VINA RESULT:    -4.752      2.133      3.798
REMARK INTER + INTRA:          -4.752
REMARK INTER:                  -4.752
REMARK INTRA:                   0.000
REMARK UNBOUND:                 0.000
REMARK SMILES O=c1ccc2ccccc2o1
REMARK SMILES IDX 7 1 8 2 9 3 10 4 5 5 6 6 4 7 3 8 2 9 1 10 11 11
REMARK H PARENT
REMARK Flexibility Score: inf
ROOT
ATOM      1  C   UNL     1      22.156   1.511 -15.885  1.00  0.00     0.001 A 
ATOM      2  C   UNL     1      22.901   1.795 -17.034  1.00  0.00     0.004 A 
ATOM      3  C   UNL     1      22.430   1.405 -18.292  1.00  0.00     0.048 A 
ATOM      4  C   UNL     1      21.210   0.729 -18.406  1.00  0.00     0.138 A 
ATOM      5  C   UNL     1      20.458   0.442 -17.244  1.00  0.00     0.018 A 
ATOM      6  C   UNL     1      20.936   0.835 -15.986  1.00  0.00     0.012 A 
ATOM      7  C   UNL     1      19.242  -0.236 -17.389  1.00  0.00     0.019 A 
ATOM      8  C   UNL     1      18.812  -0.605 -18.663  1.00  0.00     0.094 A 
ATOM      9  C   UNL     1      19.610  -0.288 -19.767  1.00  0.00     0.336 A 
ATOM     10  O   UNL     1      19.239  -0.612 -20.925  1.00  0.00    -0.246 OA
ATOM     11  O   UNL     1      20.763   0.357 -19.602  1.00  0.00    -0.423 OA
ENDROOT
TORSDOF 0
ENDMDL
MODEL 6
REMARK VINA RESULT:    -4.728      1.653      2.369
REMARK INTER + INTRA:          -4.728
REMARK INTER:                  -4.728
REMARK INTRA:                   0.000
REMARK UNBOUND:                 0.000
REMARK SMILES O=c1ccc2ccccc2o1
REMARK SMILES IDX 7 1 8 2 9 3 10 4 5 5 6 6 4 7 3 8 2 9 1 10 11 11
REMARK H PARENT
REMARK Flexibility Score: inf
ROOT
ATOM      1  C   UNL     1      21.937   1.495 -21.799  1.00  0.00     0.001 A 
ATOM      2  C   UNL     1      21.705   0.372 -22.600  1.00  0.00     0.004 A 
ATOM      3  C   UNL     1      21.036  -0.740 -22.076  1.00  0.00     0.048 A 
ATOM      4  C   UNL     1      20.598  -0.732 -20.747  1.00  0.00     0.138 A 
ATOM      5  C   UNL     1      20.834   0.403 -19.938  1.00  0.00     0.018 A 
ATOM      6  C   UNL     1      21.504   1.513 -20.469  1.00  0.00     0.012 A 
ATOM      7  C   UNL     1      20.384   0.381 -18.613  1.00  0.00     0.019 A 
ATOM      8  C   UNL     1      19.722  -0.750 -18.134  1.00  0.00     0.094 A 
ATOM      9  C   UNL     1      19.525  -1.836 -18.993  1.00  0.00     0.336 A 
ATOM     10  O   UNL     1      18.929  -2.865 -18.579  1.00  0.00    -0.246 OA
ATOM     11  O   UNL     1      19.963  -1.790 -20.249  1.00  0.00    -0.423 OA
ENDROOT
TORSDOF 0
ENDMDL
MODEL 7
REMARK VINA RESULT:    -4.684     18.022     19.701
REMARK INTER + INTRA:          -4.684
REMARK INTER:                  -4.684
REMARK INTRA:                   0.000
REMARK UNBOUND:                 0.000
REMARK SMILES O=c1ccc2ccccc2o1
REMARK SMILES IDX 7 1 8 2 9 3 10 4 5 5 6 6 4 7 3 8 2 9 1 10 11 11
REMARK H PARENT
REMARK Flexibility Score: inf
ROOT
ATOM      1  C   UNL     1       5.835   3.000  -7.243  1.00  0.00     0.001 A 
ATOM      2  C   UNL     1       6.855   3.058  -8.197  1.00  0.00     0.004 A 
ATOM      3  C   UNL     1       6.883   4.094  -9.136  1.00  0.00     0.048 A 
ATOM      4  C   UNL     1       5.887   5.078  -9.123  1.00  0.00     0.138 A 
ATOM      5  C   UNL     1       4.856   5.019  -8.159  1.00  0.00     0.018 A 
ATOM      6  C   UNL     1       4.835   3.977  -7.221  1.00  0.00     0.012 A 
ATOM      7  C   UNL     1       3.875   6.016  -8.170  1.00  0.00     0.019 A 
ATOM      8  C   UNL     1       3.942   7.031  -9.125  1.00  0.00     0.094 A 
ATOM      9  C   UNL     1       4.992   7.024 -10.049  1.00  0.00     0.336 A 
ATOM     10  O   UNL     1       5.071   7.932 -10.918  1.00  0.00    -0.246 OA
ATOM     11  O   UNL     1       5.913   6.064 -10.017  1.00  0.00    -0.423 OA
ENDROOT
TORSDOF 0
ENDMDL
MODEL 8
REMARK VINA RESULT:    -4.662     15.285     17.181
REMARK INTER + INTRA:          -4.662
REMARK INTER:                  -4.662
REMARK INTRA:                   0.000
REMARK UNBOUND:                 0.000
REMARK SMILES O=c1ccc2ccccc2o1
REMARK SMILES IDX 7 1 8 2 9 3 10 4 5 5 6 6 4 7 3 8 2 9 1 10 11 11
REMARK H PARENT
REMARK Flexibility Score: inf
ROOT
ATOM      1  C   UNL     1      10.608  -5.728 -10.788  1.00  0.00     0.001 A 
ATOM      2  C   UNL     1      11.509  -6.263  -9.861  1.00  0.00     0.004 A 
ATOM      3  C   UNL     1      11.106  -6.496  -8.542  1.00  0.00     0.048 A 
ATOM      4  C   UNL     1       9.798  -6.195  -8.144  1.00  0.00     0.138 A 
ATOM      5  C   UNL     1       8.888  -5.654  -9.081  1.00  0.00     0.018 A 
ATOM      6  C   UNL     1       9.299  -5.423 -10.402  1.00  0.00     0.012 A 
ATOM      7  C   UNL     1       7.588  -5.364  -8.655  1.00  0.00     0.019 A 
ATOM      8  C   UNL     1       7.230  -5.613  -7.330  1.00  0.00     0.094 A 
ATOM      9  C   UNL     1       8.184  -6.148  -6.459  1.00  0.00     0.336 A 
ATOM     10  O   UNL     1       7.881  -6.381  -5.260  1.00  0.00    -0.246 OA
ATOM     11  O   UNL     1       9.415  -6.416  -6.890  1.00  0.00    -0.423 OA
ENDROOT
TORSDOF 0
ENDMDL
MODEL 9
REMARK VINA RESULT:    -4.636     15.563     18.061
REMARK INTER + INTRA:          -4.636
REMARK INTER:                  -4.636
REMARK INTRA:                   0.000
REMARK UNBOUND:                 0.000
REMARK SMILES O=c1ccc2ccccc2o1
REMARK SMILES IDX 7 1 8 2 9 3 10 4 5 5 6 6 4 7 3 8 2 9 1 10 11 11
REMARK H PARENT
REMARK Flexibility Score: inf
ROOT
ATOM      1  C   UNL     1       7.655  -7.855  -5.845  1.00  0.00     0.001 A 
ATOM      2  C   UNL     1       7.964  -6.513  -5.603  1.00  0.00     0.004 A 
ATOM      3  C   UNL     1       8.941  -5.866  -6.366  1.00  0.00     0.048 A 
ATOM      4  C   UNL     1       9.614  -6.562  -7.377  1.00  0.00     0.138 A 
ATOM      5  C   UNL     1       9.302  -7.919  -7.622  1.00  0.00     0.018 A 
ATOM      6  C   UNL     1       8.321  -8.560  -6.852  1.00  0.00     0.012 A 
ATOM      7  C   UNL     1       9.991  -8.588  -8.639  1.00  0.00     0.019 A 
ATOM      8  C   UNL     1      10.958  -7.903  -9.375  1.00  0.00     0.094 A 
ATOM      9  C   UNL     1      11.215  -6.561  -9.076  1.00  0.00     0.336 A 
ATOM     10  O   UNL     1      12.083  -5.926  -9.730  1.00  0.00    -0.246 OA
ATOM     11  O   UNL     1      10.545  -5.947  -8.103  1.00  0.00    -0.423 OA
ENDROOT
TORSDOF 0
ENDMDL
