MODEL 1
REMARK VINA RESULT:    -3.314      0.000      0.000
REMARK INTER + INTRA:          -6.088
REMARK INTER:                  -5.058
REMARK INTRA:                  -1.030
REMARK UNBOUND:                -1.030
REMARK SMILES O=C([O-])CCCCCCCCC(=O)[O-]
REMARK SMILES IDX 7 1 6 2 5 3 4 4 2 5 1 6 3 7 8 8 9 9 10 10 11 11 12 12 13 13
REMARK SMILES IDX 14 14
REMARK H PARENT
REMARK Flexibility Score: inf
ROOT
ATOM      1  C   UNL     1       3.603   8.085   0.311  1.00  0.00     0.000 C 
ENDROOT
BRANCH   1   2
ATOM      2  C   UNL     1       4.633   9.225   0.222  1.00  0.00     0.000 C 
BRANCH   2   3
ATOM      3  C   UNL     1       5.997   8.828  -0.372  1.00  0.00     0.006 C 
BRANCH   3   4
ATOM      4  C   UNL     1       7.180   9.254   0.506  1.00  0.00     0.053 C 
BRANCH   4   5
ATOM      5  C   UNL     1       7.303  10.745   0.529  1.00  0.00     0.041 C 
ATOM      6  O   UNL     1       7.368  11.359   1.626  1.00  0.00    -0.550 OA
ATOM      7  O   UNL     1       7.394  11.453  -0.663  1.00  0.00    -0.550 OA
ENDBRANCH   4   5
ENDBRANCH   3   4
ENDBRANCH   2   3
ENDBRANCH   1   2
BRANCH   1   8
ATOM      8  C   UNL     1       3.015   7.916   1.720  1.00  0.00     0.000 C 
BRANCH   8   9
ATOM      9  C   UNL     1       3.565   8.984   2.677  1.00  0.00     0.000 C 
BRANCH   9  10
ATOM     10  C   UNL     1       4.283   8.374   3.897  1.00  0.00     0.006 C 
BRANCH  10  11
ATOM     11  C   UNL     1       5.795   8.188   3.693  1.00  0.00     0.053 C 
BRANCH  11  12
ATOM     12  C   UNL     1       6.163   6.765   3.405  1.00  0.00     0.041 C 
ATOM     13  O   UNL     1       6.527   6.003   4.339  1.00  0.00    -0.550 OA
ATOM     14  O   UNL     1       6.085   6.275   2.108  1.00  0.00    -0.550 OA
ENDBRANCH  11  12
ENDBRANCH  10  11
ENDBRANCH   9  10
ENDBRANCH   8   9
ENDBRANCH   1   8
TORSDOF 9
ENDMDL
MODEL 2
REMARK VINA RESULT:    -3.248      2.081      4.310
REMARK INTER + INTRA:          -5.987
REMARK INTER:                  -4.861
REMARK INTRA:                  -1.126
REMARK UNBOUND:                -1.030
REMARK SMILES O=C([O-])CCCCCCCCC(=O)[O-]
REMARK SMILES IDX 7 1 6 2 5 3 4 4 2 5 1 6 3 7 8 8 9 9 10 10 11 11 12 12 13 13
REMARK SMILES IDX 14 14
REMARK H PARENT
REMARK Flexibility Score: inf
ROOT
ATOM      1  C   UNL     1       4.644  11.123   1.744  1.00  0.00     0.000 C 
ENDROOT
BRANCH   1   2
ATOM      2  C   UNL     1       3.619   9.977   1.821  1.00  0.00     0.000 C 
BRANCH   2   3
ATOM      3  C   UNL     1       3.741   9.075   3.063  1.00  0.00     0.006 C 
BRANCH   3   4
ATOM      4  C   UNL     1       4.440   7.742   2.770  1.00  0.00     0.053 C 
BRANCH   4   5
ATOM      5  C   UNL     1       5.664   7.597   3.619  1.00  0.00     0.041 C 
ATOM      6  O   UNL     1       6.208   8.613   4.125  1.00  0.00    -0.550 OA
ATOM      7  O   UNL     1       6.175   6.334   3.891  1.00  0.00    -0.550 OA
ENDBRANCH   4   5
ENDBRANCH   3   4
ENDBRANCH   2   3
ENDBRANCH   1   2
BRANCH   1   8
ATOM      8  C   UNL     1       5.700  10.910   0.648  1.00  0.00     0.000 C 
BRANCH   8   9
ATOM      9  C   UNL     1       7.016  10.393   1.246  1.00  0.00     0.000 C 
BRANCH   9  10
ATOM     10  C   UNL     1       7.460   9.050   0.631  1.00  0.00     0.006 C 
BRANCH  10  11
ATOM     11  C   UNL     1       6.401   8.411  -0.282  1.00  0.00     0.053 C 
BRANCH  11  12
ATOM     12  C   UNL     1       6.662   6.959  -0.533  1.00  0.00     0.041 C 
ATOM     13  O   UNL     1       7.070   6.573  -1.660  1.00  0.00    -0.550 OA
ATOM     14  O   UNL     1       6.474   6.032   0.484  1.00  0.00    -0.550 OA
ENDBRANCH  11  12
ENDBRANCH  10  11
ENDBRANCH   9  10
ENDBRANCH   8   9
ENDBRANCH   1   8
TORSDOF 9
ENDMDL
MODEL 3
REMARK VINA RESULT:    -3.224      2.146      3.023
REMARK INTER + INTRA:          -5.951
REMARK INTER:                  -4.996
REMARK INTRA:                  -0.956
REMARK UNBOUND:                -1.030
REMARK SMILES O=C([O-])CCCCCCCCC(=O)[O-]
REMARK SMILES IDX 7 1 6 2 5 3 4 4 2 5 1 6 3 7 8 8 9 9 10 10 11 11 12 12 13 13
REMARK SMILES IDX 14 14
REMARK H PARENT
REMARK Flexibility Score: inf
ROOT
ATOM      1  C   UNL     1       5.752  10.549   0.998  1.00  0.00     0.000 C 
ENDROOT
BRANCH   1   2
ATOM      2  C   UNL     1       7.097  10.005   1.512  1.00  0.00     0.000 C 
BRANCH   2   3
ATOM      3  C   UNL     1       7.690   8.845   0.691  1.00  0.00     0.006 C 
BRANCH   3   4
ATOM      4  C   UNL     1       6.666   8.189  -0.245  1.00  0.00     0.053 C 
BRANCH   4   5
ATOM      5  C   UNL     1       7.159   6.853  -0.703  1.00  0.00     0.041 C 
ATOM      6  O   UNL     1       8.394   6.639  -0.820  1.00  0.00    -0.550 OA
ATOM      7  O   UNL     1       6.256   5.827  -0.953  1.00  0.00    -0.550 OA
ENDBRANCH   4   5
ENDBRANCH   3   4
ENDBRANCH   2   3
ENDBRANCH   1   2
BRANCH   1   8
ATOM      8  C   UNL     1       4.617  10.406   2.022  1.00  0.00     0.000 C 
BRANCH   8   9
ATOM      9  C   UNL     1       3.699   9.227   1.665  1.00  0.00     0.000 C 
BRANCH   9  10
ATOM     10  C   UNL     1       3.574   8.205   2.812  1.00  0.00     0.006 C 
BRANCH  10  11
ATOM     11  C   UNL     1       4.770   8.212   3.778  1.00  0.00     0.053 C 
BRANCH  11  12
ATOM     12  C   UNL     1       5.786   7.166   3.439  1.00  0.00     0.041 C 
ATOM     13  O   UNL     1       5.631   6.437   2.424  1.00  0.00    -0.550 OA
ATOM     14  O   UNL     1       6.916   7.009   4.232  1.00  0.00    -0.550 OA
ENDBRANCH  11  12
ENDBRANCH  10  11
ENDBRANCH   9  10
ENDBRANCH   8   9
ENDBRANCH   1   8
TORSDOF 9
ENDMDL
MODEL 4
REMARK VINA RESULT:    -3.215      1.611      2.051
REMARK INTER + INTRA:          -5.936
REMARK INTER:                  -5.056
REMARK INTRA:                  -0.881
REMARK UNBOUND:                -1.030
REMARK SMILES O=C([O-])CCCCCCCCC(=O)[O-]
REMARK SMILES IDX 7 1 6 2 5 3 4 4 2 5 1 6 3 7 8 8 9 9 10 10 11 11 12 12 13 13
REMARK SMILES IDX 14 14
REMARK H PARENT
REMARK Flexibility Score: inf
ROOT
ATOM      1  C   UNL     1       4.087  11.018   1.751  1.00  0.00     0.000 C 
ENDROOT
BRANCH   1   2
ATOM      2  C   UNL     1       5.484  11.622   1.519  1.00  0.00     0.000 C 
BRANCH   2   3
ATOM      3  C   UNL     1       6.343  10.894   0.469  1.00  0.00     0.006 C 
BRANCH   3   4
ATOM      4  C   UNL     1       7.782  10.645   0.941  1.00  0.00     0.053 C 
BRANCH   4   5
ATOM      5  C   UNL     1       8.144   9.203   0.772  1.00  0.00     0.041 C 
ATOM      6  O   UNL     1       7.332   8.405   0.236  1.00  0.00    -0.550 OA
ATOM      7  O   UNL     1       9.398   8.751   1.164  1.00  0.00    -0.550 OA
ENDBRANCH   4   5
ENDBRANCH   3   4
ENDBRANCH   2   3
ENDBRANCH   1   2
BRANCH   1   8
ATOM      8  C   UNL     1       4.076   9.484   1.665  1.00  0.00     0.000 C 
BRANCH   8   9
ATOM      9  C   UNL     1       3.357   8.871   2.876  1.00  0.00     0.000 C 
BRANCH   9  10
ATOM     10  C   UNL     1       4.338   8.361   3.950  1.00  0.00     0.006 C 
BRANCH  10  11
ATOM     11  C   UNL     1       5.780   8.195   3.441  1.00  0.00     0.053 C 
BRANCH  11  12
ATOM     12  C   UNL     1       6.187   6.759   3.330  1.00  0.00     0.041 C 
ATOM     13  O   UNL     1       6.579   6.132   4.349  1.00  0.00    -0.550 OA
ATOM     14  O   UNL     1       6.114   6.106   2.106  1.00  0.00    -0.550 OA
ENDBRANCH  11  12
ENDBRANCH  10  11
ENDBRANCH   9  10
ENDBRANCH   8   9
ENDBRANCH   1   8
TORSDOF 9
ENDMDL
MODEL 5
REMARK VINA RESULT:    -3.173      2.090      5.101
REMARK INTER + INTRA:          -5.873
REMARK INTER:                  -4.876
REMARK INTRA:                  -0.997
REMARK UNBOUND:                -1.030
REMARK SMILES O=C([O-])CCCCCCCCC(=O)[O-]
REMARK SMILES IDX 7 1 6 2 5 3 4 4 2 5 1 6 3 7 8 8 9 9 10 10 11 11 12 12 13 13
REMARK SMILES IDX 14 14
REMARK H PARENT
REMARK Flexibility Score: inf
ROOT
ATOM      1  C   UNL     1       8.077   8.672   0.889  1.00  0.00     0.000 C 
ENDROOT
BRANCH   1   2
ATOM      2  C   UNL     1       6.975   7.814   0.241  1.00  0.00     0.000 C 
BRANCH   2   3
ATOM      3  C   UNL     1       6.280   6.820   1.189  1.00  0.00     0.006 C 
BRANCH   3   4
ATOM      4  C   UNL     1       5.063   7.423   1.902  1.00  0.00     0.053 C 
BRANCH   4   5
ATOM      5  C   UNL     1       5.378   7.680   3.343  1.00  0.00     0.041 C 
ATOM      6  O   UNL     1       4.553   8.289   4.072  1.00  0.00    -0.550 OA
ATOM      7  O   UNL     1       6.563   7.205   3.891  1.00  0.00    -0.550 OA
ENDBRANCH   4   5
ENDBRANCH   3   4
ENDBRANCH   2   3
ENDBRANCH   1   2
BRANCH   1   8
ATOM      8  C   UNL     1       7.867  10.179   0.676  1.00  0.00     0.000 C 
BRANCH   8   9
ATOM      9  C   UNL     1       6.593  10.661   1.386  1.00  0.00     0.000 C 
BRANCH   9  10
ATOM     10  C   UNL     1       5.630  11.402   0.436  1.00  0.00     0.006 C 
BRANCH  10  11
ATOM     11  C   UNL     1       4.552  10.494  -0.179  1.00  0.00     0.053 C 
BRANCH  11  12
ATOM     12  C   UNL     1       4.665  10.400  -1.669  1.00  0.00     0.041 C 
ATOM     13  O   UNL     1       5.738  10.013  -2.200  1.00  0.00    -0.550 OA
ATOM     14  O   UNL     1       3.577  10.722  -2.471  1.00  0.00    -0.550 OA
ENDBRANCH  11  12
ENDBRANCH  10  11
ENDBRANCH   9  10
ENDBRANCH   8   9
ENDBRANCH   1   8
TORSDOF 9
ENDMDL
MODEL 6
REMARK VINA RESULT:    -3.159      1.937      4.107
REMARK INTER + INTRA:          -5.851
REMARK INTER:                  -4.709
REMARK INTRA:                  -1.142
REMARK UNBOUND:                -1.030
REMARK SMILES O=C([O-])CCCCCCCCC(=O)[O-]
REMARK SMILES IDX 7 1 6 2 5 3 4 4 2 5 1 6 3 7 8 8 9 9 10 10 11 11 12 12 13 13
REMARK SMILES IDX 14 14
REMARK H PARENT
REMARK Flexibility Score: inf
ROOT
ATOM      1  C   UNL     1       4.138   8.220   3.416  1.00  0.00     0.000 C 
ENDROOT
BRANCH   1   2
ATOM      2  C   UNL     1       5.639   8.251   3.757  1.00  0.00     0.000 C 
BRANCH   2   3
ATOM      3  C   UNL     1       6.573   7.760   2.636  1.00  0.00     0.006 C 
BRANCH   3   4
ATOM      4  C   UNL     1       5.849   6.917   1.579  1.00  0.00     0.053 C 
BRANCH   4   5
ATOM      5  C   UNL     1       6.633   6.893   0.304  1.00  0.00     0.041 C 
ATOM      6  O   UNL     1       7.649   7.624   0.172  1.00  0.00    -0.550 OA
ATOM      7  O   UNL     1       6.270   6.027  -0.719  1.00  0.00    -0.550 OA
ENDBRANCH   4   5
ENDBRANCH   3   4
ENDBRANCH   2   3
ENDBRANCH   1   2
BRANCH   1   8
ATOM      8  C   UNL     1       3.582   9.598   3.026  1.00  0.00     0.000 C 
BRANCH   8   9
ATOM      9  C   UNL     1       3.430   9.719   1.503  1.00  0.00     0.000 C 
BRANCH   9  10
ATOM     10  C   UNL     1       4.228  10.902   0.919  1.00  0.00     0.006 C 
BRANCH  10  11
ATOM     11  C   UNL     1       5.567  10.489   0.285  1.00  0.00     0.053 C 
BRANCH  11  12
ATOM     12  C   UNL     1       6.746  10.979   1.066  1.00  0.00     0.041 C 
ATOM     13  O   UNL     1       7.895  10.971   0.552  1.00  0.00    -0.550 OA
ATOM     14  O   UNL     1       6.574  11.464   2.357  1.00  0.00    -0.550 OA
ENDBRANCH  11  12
ENDBRANCH  10  11
ENDBRANCH   9  10
ENDBRANCH   8   9
ENDBRANCH   1   8
TORSDOF 9
ENDMDL
MODEL 7
REMARK VINA RESULT:    -3.130      2.149      3.482
REMARK INTER + INTRA:          -5.808
REMARK INTER:                  -4.836
REMARK INTRA:                  -0.972
REMARK UNBOUND:                -1.030
REMARK SMILES O=C([O-])CCCCCCCCC(=O)[O-]
REMARK SMILES IDX 7 1 6 2 5 3 4 4 2 5 1 6 3 7 8 8 9 9 10 10 11 11 12 12 13 13
REMARK SMILES IDX 14 14
REMARK H PARENT
REMARK Flexibility Score: inf
ROOT
ATOM      1  C   UNL     1       8.010  10.182   0.881  1.00  0.00     0.000 C 
ENDROOT
BRANCH   1   2
ATOM      2  C   UNL     1       6.748  10.670   1.615  1.00  0.00     0.000 C 
BRANCH   2   3
ATOM      3  C   UNL     1       5.740  11.438   0.741  1.00  0.00     0.006 C 
BRANCH   3   4
ATOM      4  C   UNL     1       6.005  11.278  -0.761  1.00  0.00     0.053 C 
BRANCH   4   5
ATOM      5  C   UNL     1       4.903  10.497  -1.405  1.00  0.00     0.041 C 
ATOM      6  O   UNL     1       4.163   9.754  -0.709  1.00  0.00    -0.550 OA
ATOM      7  O   UNL     1       4.663  10.628  -2.767  1.00  0.00    -0.550 OA
ENDBRANCH   4   5
ENDBRANCH   3   4
ENDBRANCH   2   3
ENDBRANCH   1   2
BRANCH   1   8
ATOM      8  C   UNL     1       8.211   8.663   0.979  1.00  0.00     0.000 C 
BRANCH   8   9
ATOM      9  C   UNL     1       7.107   7.912   0.221  1.00  0.00     0.000 C 
BRANCH   9  10
ATOM     10  C   UNL     1       6.376   6.882   1.106  1.00  0.00     0.006 C 
BRANCH  10  11
ATOM     11  C   UNL     1       5.134   7.448   1.814  1.00  0.00     0.053 C 
BRANCH  11  12
ATOM     12  C   UNL     1       5.341   7.614   3.287  1.00  0.00     0.041 C 
ATOM     13  O   UNL     1       4.522   8.282   3.971  1.00  0.00    -0.550 OA
ATOM     14  O   UNL     1       6.428   7.013   3.910  1.00  0.00    -0.550 OA
ENDBRANCH  11  12
ENDBRANCH  10  11
ENDBRANCH   9  10
ENDBRANCH   8   9
ENDBRANCH   1   8
TORSDOF 9
ENDMDL
MODEL 8
REMARK VINA RESULT:    -3.104      1.914      3.239
REMARK INTER + INTRA:          -5.767
REMARK INTER:                  -4.803
REMARK INTRA:                  -0.964
REMARK UNBOUND:                -1.030
REMARK SMILES O=C([O-])CCCCCCCCC(=O)[O-]
REMARK SMILES IDX 7 1 6 2 5 3 4 4 2 5 1 6 3 7 8 8 9 9 10 10 11 11 12 12 13 13
REMARK SMILES IDX 14 14
REMARK H PARENT
REMARK Flexibility Score: inf
ROOT
ATOM      1  C   UNL     1       8.209   9.160   0.889  1.00  0.00     0.000 C 
ENDROOT
BRANCH   1   2
ATOM      2  C   UNL     1       7.725  10.507   0.323  1.00  0.00     0.000 C 
BRANCH   2   3
ATOM      3  C   UNL     1       7.361  11.567   1.379  1.00  0.00     0.006 C 
BRANCH   3   4
ATOM      4  C   UNL     1       6.281  11.090   2.359  1.00  0.00     0.053 C 
BRANCH   4   5
ATOM      5  C   UNL     1       4.919  11.414   1.832  1.00  0.00     0.041 C 
ATOM      6  O   UNL     1       3.915  10.766   2.228  1.00  0.00    -0.550 OA
ATOM      7  O   UNL     1       4.751  12.465   0.939  1.00  0.00    -0.550 OA
ENDBRANCH   4   5
ENDBRANCH   3   4
ENDBRANCH   2   3
ENDBRANCH   1   2
BRANCH   1   8
ATOM      8  C   UNL     1       7.540   7.952   0.216  1.00  0.00     0.000 C 
BRANCH   8   9
ATOM      9  C   UNL     1       6.039   8.200   0.008  1.00  0.00     0.000 C 
BRANCH   9  10
ATOM     10  C   UNL     1       5.183   7.677   1.179  1.00  0.00     0.006 C 
BRANCH  10  11
ATOM     11  C   UNL     1       5.899   6.626   2.043  1.00  0.00     0.053 C 
BRANCH  11  12
ATOM     12  C   UNL     1       5.940   7.007   3.491  1.00  0.00     0.041 C 
ATOM     13  O   UNL     1       5.289   8.003   3.902  1.00  0.00    -0.550 OA
ATOM     14  O   UNL     1       6.680   6.249   4.389  1.00  0.00    -0.550 OA
ENDBRANCH  11  12
ENDBRANCH  10  11
ENDBRANCH   9  10
ENDBRANCH   8   9
ENDBRANCH   1   8
TORSDOF 9
ENDMDL
MODEL 9
REMARK VINA RESULT:    -3.087      1.917      2.660
REMARK INTER + INTRA:          -5.741
REMARK INTER:                  -4.620
REMARK INTRA:                  -1.120
REMARK UNBOUND:                -1.030
REMARK SMILES O=C([O-])CCCCCCCCC(=O)[O-]
REMARK SMILES IDX 7 1 6 2 5 3 4 4 2 5 1 6 3 7 8 8 9 9 10 10 11 11 12 12 13 13
REMARK SMILES IDX 14 14
REMARK H PARENT
REMARK Flexibility Score: inf
ROOT
ATOM      1  C   UNL     1       3.491   9.874   2.689  1.00  0.00     0.000 C 
ENDROOT
BRANCH   1   2
ATOM      2  C   UNL     1       4.245  10.481   1.492  1.00  0.00     0.000 C 
BRANCH   2   3
ATOM      3  C   UNL     1       5.189  11.647   1.838  1.00  0.00     0.006 C 
BRANCH   3   4
ATOM      4  C   UNL     1       6.634  11.194   2.088  1.00  0.00     0.053 C 
BRANCH   4   5
ATOM      5  C   UNL     1       7.536  11.710   1.012  1.00  0.00     0.041 C 
ATOM      6  O   UNL     1       7.418  11.291  -0.169  1.00  0.00    -0.550 OA
ATOM      7  O   UNL     1       8.475  12.691   1.304  1.00  0.00    -0.550 OA
ENDBRANCH   4   5
ENDBRANCH   3   4
ENDBRANCH   2   3
ENDBRANCH   1   2
BRANCH   1   8
ATOM      8  C   UNL     1       3.770   8.374   2.874  1.00  0.00     0.000 C 
BRANCH   8   9
ATOM      9  C   UNL     1       4.969   8.150   3.808  1.00  0.00     0.000 C 
BRANCH   9  10
ATOM     10  C   UNL     1       6.211   7.625   3.061  1.00  0.00     0.006 C 
BRANCH  10  11
ATOM     11  C   UNL     1       5.907   7.111   1.643  1.00  0.00     0.053 C 
BRANCH  11  12
ATOM     12  C   UNL     1       6.680   7.843   0.591  1.00  0.00     0.041 C 
ATOM     13  O   UNL     1       7.884   8.153   0.790  1.00  0.00    -0.550 OA
ATOM     14  O   UNL     1       6.078   8.165  -0.619  1.00  0.00    -0.550 OA
ENDBRANCH  11  12
ENDBRANCH  10  11
ENDBRANCH   9  10
ENDBRANCH   8   9
ENDBRANCH   1   8
TORSDOF 9
ENDMDL
