MODEL 1
REMARK VINA RESULT:    -3.142      0.000      0.000
REMARK INTER + INTRA:          -5.052
REMARK INTER:                  -4.795
REMARK INTRA:                  -0.257
REMARK UNBOUND:                -0.257
REMARK SMILES CC1=CCC[C@@H](C)C(=O)C[C@H](C(C)C)C(=O)C1
REMARK SMILES IDX 8 1 9 2 6 3 7 4 5 5 4 6 3 7 2 8 1 9 10 11 11 12 15 13 16 14
REMARK SMILES IDX 17 15 12 17 13 18 14 19
REMARK H PARENT
REMARK Flexibility Score: 70.00
ROOT
ATOM      1  C   UNL     1      34.648   9.856 107.073  1.00  0.00     0.136 C 
ATOM      2  O   UNL     1      34.767  10.203 108.241  1.00  0.00    -0.299 OA
ENDROOT
BRANCH   1   3
ATOM      3  C   UNL     1      35.244  10.717 105.975  1.00  0.00     0.053 C 
ATOM      4  C   UNL     1      36.758  10.872 106.178  1.00  0.00     0.016 C 
BRANCH   3   5
ATOM      5  C   UNL     1      34.551  12.098 105.930  1.00  0.00     0.015 C 
BRANCH   5   6
ATOM      6  C   UNL     1      33.567  12.201 104.747  1.00  0.00     0.028 C 
BRANCH   6   7
ATOM      7  C   UNL     1      32.120  12.171 105.172  1.00  0.00    -0.028 C 
ATOM      8  C   UNL     1      31.313  11.082 105.136  1.00  0.00    -0.070 CG0
ATOM      9  C   UNL     1      29.863  11.274 105.509  1.00  0.00     0.039 C 
ATOM     10  G   UNL     1      31.799   9.681 104.789  1.00  0.00     0.000 G0
ENDBRANCH   6   7
ENDBRANCH   5   6
ENDBRANCH   3   5
ENDBRANCH   1   3
BRANCH   1  11
ATOM     11  C   UNL     1      33.920   8.568 106.762  1.00  0.00     0.087 C 
BRANCH  11  12
ATOM     12  C   UNL     1      32.412   8.644 107.118  1.00  0.00     0.066 C 
BRANCH  12  13
ATOM     13  C   UNL     1      31.548   8.645 105.864  1.00  0.00     0.140 C 
ATOM     14  O   UNL     1      30.630   7.846 105.743  1.00  0.00    -0.299 OA
BRANCH  13  15
ATOM     15  C   UNL     1      31.784   9.676 104.785  1.00  0.00     0.106 CG0
ATOM     16  G   UNL     1      31.306  11.074 105.152  1.00  0.00     0.000 G0
ENDBRANCH  13  15
ENDBRANCH  12  13
BRANCH  12  17
ATOM     17  C   UNL     1      31.957   7.548 108.137  1.00  0.00    -0.006 C 
ATOM     18  C   UNL     1      32.843   6.289 108.133  1.00  0.00     0.008 C 
ATOM     19  C   UNL     1      31.861   8.111 109.564  1.00  0.00     0.008 C 
ENDBRANCH  12  17
ENDBRANCH  11  12
ENDBRANCH   1  11
TORSDOF 1
ENDMDL
MODEL 2
REMARK VINA RESULT:    -2.766      2.120      4.882
REMARK INTER + INTRA:          -4.479
REMARK INTER:                  -4.394
REMARK INTRA:                  -0.085
REMARK UNBOUND:                -0.257
REMARK SMILES CC1=CCC[C@@H](C)C(=O)C[C@H](C(C)C)C(=O)C1
REMARK SMILES IDX 8 1 9 2 6 3 7 4 5 5 4 6 3 7 2 8 1 9 10 11 11 12 15 13 16 14
REMARK SMILES IDX 17 15 12 17 13 18 14 19
REMARK H PARENT
REMARK Flexibility Score: 70.00
ROOT
ATOM      1  C   UNL     1      32.657  11.163 105.099  1.00  0.00     0.136 C 
ATOM      2  O   UNL     1      32.674  12.381 105.211  1.00  0.00    -0.299 OA
ENDROOT
BRANCH   1   3
ATOM      3  C   UNL     1      31.349  10.462 104.778  1.00  0.00     0.053 C 
ATOM      4  C   UNL     1      30.180  11.161 105.485  1.00  0.00     0.016 C 
BRANCH   3   5
ATOM      5  C   UNL     1      31.421   8.970 105.176  1.00  0.00     0.015 C 
BRANCH   5   6
ATOM      6  C   UNL     1      31.004   8.754 106.645  1.00  0.00     0.028 C 
BRANCH   6   7
ATOM      7  C   UNL     1      31.604   7.513 107.258  1.00  0.00    -0.028 C 
ATOM      8  C   UNL     1      32.755   7.469 107.974  1.00  0.00    -0.070 CG0
ATOM      9  C   UNL     1      33.246   6.114 108.422  1.00  0.00     0.039 C 
ATOM     10  G   UNL     1      33.543   8.705 108.385  1.00  0.00     0.000 G0
ENDBRANCH   6   7
ENDBRANCH   5   6
ENDBRANCH   3   5
ENDBRANCH   1   3
BRANCH   1  11
ATOM     11  C   UNL     1      33.946  10.393 105.270  1.00  0.00     0.087 C 
BRANCH  11  12
ATOM     12  C   UNL     1      34.509  10.501 106.712  1.00  0.00     0.066 C 
BRANCH  12  13
ATOM     13  C   UNL     1      34.590   9.133 107.376  1.00  0.00     0.140 C 
ATOM     14  O   UNL     1      35.530   8.386 107.143  1.00  0.00    -0.299 OA
BRANCH  13  15
ATOM     15  C   UNL     1      33.539   8.716 108.377  1.00  0.00     0.106 CG0
ATOM     16  G   UNL     1      32.764   7.468 107.975  1.00  0.00     0.000 G0
ENDBRANCH  13  15
ENDBRANCH  12  13
BRANCH  12  17
ATOM     17  C   UNL     1      35.868  11.269 106.794  1.00  0.00    -0.006 C 
ATOM     18  C   UNL     1      35.953  12.485 105.853  1.00  0.00     0.008 C 
ATOM     19  C   UNL     1      36.184  11.705 108.234  1.00  0.00     0.008 C 
ENDBRANCH  12  17
ENDBRANCH  11  12
ENDBRANCH   1  11
TORSDOF 1
ENDMDL
MODEL 3
REMARK VINA RESULT:    -2.686      3.802      5.897
REMARK INTER + INTRA:          -4.356
REMARK INTER:                  -4.974
REMARK INTRA:                   0.618
REMARK UNBOUND:                -0.257
REMARK SMILES CC1=CCC[C@@H](C)C(=O)C[C@H](C(C)C)C(=O)C1
REMARK SMILES IDX 8 1 9 2 6 3 7 4 5 5 4 6 3 7 2 8 1 9 10 11 11 12 15 13 16 14
REMARK SMILES IDX 17 15 12 17 13 18 14 19
REMARK H PARENT
REMARK Flexibility Score: 70.00
ROOT
ATOM      1  C   UNL     1      36.999  12.707 107.261  1.00  0.00     0.136 C 
ATOM      2  O   UNL     1      36.794  13.890 107.495  1.00  0.00    -0.299 OA
ENDROOT
BRANCH   1   3
ATOM      3  C   UNL     1      35.971  11.674 107.682  1.00  0.00     0.053 C 
ATOM      4  C   UNL     1      36.037  11.439 109.198  1.00  0.00     0.016 C 
BRANCH   3   5
ATOM      5  C   UNL     1      36.183  10.351 106.911  1.00  0.00     0.015 C 
BRANCH   5   6
ATOM      6  C   UNL     1      35.083  10.128 105.853  1.00  0.00     0.028 C 
BRANCH   6   7
ATOM      7  C   UNL     1      34.233  11.350 105.611  1.00  0.00    -0.028 C 
ATOM      8  C   UNL     1      34.539  12.365 104.765  1.00  0.00    -0.070 CG0
ATOM      9  C   UNL     1      33.608  13.552 104.733  1.00  0.00     0.039 C 
ATOM     10  G   UNL     1      35.735  12.348 103.822  1.00  0.00     0.000 G0
ENDBRANCH   6   7
ENDBRANCH   5   6
ENDBRANCH   3   5
ENDBRANCH   1   3
BRANCH   1  11
ATOM     11  C   UNL     1      38.269  12.312 106.543  1.00  0.00     0.087 C 
BRANCH  11  12
ATOM     12  C   UNL     1      38.019  11.965 105.052  1.00  0.00     0.066 C 
BRANCH  12  13
ATOM     13  C   UNL     1      37.009  12.917 104.425  1.00  0.00     0.140 C 
ATOM     14  O   UNL     1      37.243  14.115 104.364  1.00  0.00    -0.299 OA
BRANCH  13  15
ATOM     15  C   UNL     1      35.736  12.375 103.820  1.00  0.00     0.106 CG0
ATOM     16  G   UNL     1      34.558  12.346 104.783  1.00  0.00     0.000 G0
ENDBRANCH  13  15
ENDBRANCH  12  13
BRANCH  12  17
ATOM     17  C   UNL     1      39.332  11.870 104.207  1.00  0.00    -0.006 C 
ATOM     18  C   UNL     1      40.536  11.311 104.987  1.00  0.00     0.008 C 
ATOM     19  C   UNL     1      39.118  11.049 102.924  1.00  0.00     0.008 C 
ENDBRANCH  12  17
ENDBRANCH  11  12
ENDBRANCH   1  11
TORSDOF 1
ENDMDL
MODEL 4
REMARK VINA RESULT:    -2.568      2.711      5.332
REMARK INTER + INTRA:          -4.176
REMARK INTER:                  -4.467
REMARK INTRA:                   0.291
REMARK UNBOUND:                -0.257
REMARK SMILES CC1=CCC[C@@H](C)C(=O)C[C@H](C(C)C)C(=O)C1
REMARK SMILES IDX 8 1 9 2 6 3 7 4 5 5 4 6 3 7 2 8 1 9 10 11 11 12 15 13 16 14
REMARK SMILES IDX 17 15 12 17 13 18 14 19
REMARK H PARENT
REMARK Flexibility Score: 70.00
ROOT
ATOM      1  C   UNL     1      33.603   9.724 105.957  1.00  0.00     0.136 C 
ATOM      2  O   UNL     1      32.476   9.250 105.996  1.00  0.00    -0.299 OA
ENDROOT
BRANCH   1   3
ATOM      3  C   UNL     1      34.638   9.273 106.972  1.00  0.00     0.053 C 
ATOM      4  C   UNL     1      34.204   9.671 108.390  1.00  0.00     0.016 C 
BRANCH   3   5
ATOM      5  C   UNL     1      36.024   9.866 106.633  1.00  0.00     0.015 C 
BRANCH   5   6
ATOM      6  C   UNL     1      36.318  11.132 107.462  1.00  0.00     0.028 C 
BRANCH   6   7
ATOM      7  C   UNL     1      37.284  12.075 106.788  1.00  0.00    -0.028 C 
ATOM      8  C   UNL     1      36.942  13.203 106.118  1.00  0.00    -0.070 CG0
ATOM      9  C   UNL     1      38.044  13.965 105.424  1.00  0.00     0.039 C 
ATOM     10  G   UNL     1      35.525  13.761 106.070  1.00  0.00     0.000 G0
ENDBRANCH   6   7
ENDBRANCH   5   6
ENDBRANCH   3   5
ENDBRANCH   1   3
BRANCH   1  11
ATOM     11  C   UNL     1      33.935  10.737 104.886  1.00  0.00     0.087 C 
BRANCH  11  12
ATOM     12  C   UNL     1      33.554  12.182 105.304  1.00  0.00     0.066 C 
BRANCH  12  13
ATOM     13  C   UNL     1      34.662  13.168 104.957  1.00  0.00     0.140 C 
ATOM     14  O   UNL     1      34.841  13.516 103.799  1.00  0.00    -0.299 OA
BRANCH  13  15
ATOM     15  C   UNL     1      35.507  13.769 106.055  1.00  0.00     0.106 CG0
ATOM     16  G   UNL     1      36.925  13.216 106.115  1.00  0.00     0.000 G0
ENDBRANCH  13  15
ENDBRANCH  12  13
BRANCH  12  17
ATOM     17  C   UNL     1      32.167  12.646 104.748  1.00  0.00    -0.006 C 
ATOM     18  C   UNL     1      31.000  11.720 105.135  1.00  0.00     0.008 C 
ATOM     19  C   UNL     1      31.845  14.090 105.168  1.00  0.00     0.008 C 
ENDBRANCH  12  17
ENDBRANCH  11  12
ENDBRANCH   1  11
TORSDOF 1
ENDMDL
MODEL 5
REMARK VINA RESULT:    -2.553      2.234      4.929
REMARK INTER + INTRA:          -4.153
REMARK INTER:                  -4.086
REMARK INTRA:                  -0.066
REMARK UNBOUND:                -0.257
REMARK SMILES CC1=CCC[C@@H](C)C(=O)C[C@H](C(C)C)C(=O)C1
REMARK SMILES IDX 8 1 9 2 6 3 7 4 5 5 4 6 3 7 2 8 1 9 10 11 11 12 15 13 16 14
REMARK SMILES IDX 17 15 12 17 13 18 14 19
REMARK H PARENT
REMARK Flexibility Score: 70.00
ROOT
ATOM      1  C   UNL     1      35.453   9.820 106.837  1.00  0.00     0.136 C 
ATOM      2  O   UNL     1      36.017   8.935 106.209  1.00  0.00    -0.299 OA
ENDROOT
BRANCH   1   3
ATOM      3  C   UNL     1      34.076   9.559 107.420  1.00  0.00     0.053 C 
ATOM      4  C   UNL     1      34.137   8.423 108.451  1.00  0.00     0.016 C 
BRANCH   3   5
ATOM      5  C   UNL     1      33.064   9.230 106.298  1.00  0.00     0.015 C 
BRANCH   5   6
ATOM      6  C   UNL     1      33.267  10.136 105.067  1.00  0.00     0.028 C 
BRANCH   6   7
ATOM      7  C   UNL     1      32.470  11.415 105.131  1.00  0.00    -0.028 C 
ATOM      8  C   UNL     1      32.959  12.658 104.894  1.00  0.00    -0.070 CG0
ATOM      9  C   UNL     1      32.027  13.826 105.105  1.00  0.00     0.039 C 
ATOM     10  G   UNL     1      34.369  12.929 104.386  1.00  0.00     0.000 G0
ENDBRANCH   6   7
ENDBRANCH   5   6
ENDBRANCH   3   5
ENDBRANCH   1   3
BRANCH   1  11
ATOM     11  C   UNL     1      36.153  11.146 107.027  1.00  0.00     0.087 C 
BRANCH  11  12
ATOM     12  C   UNL     1      36.415  11.871 105.680  1.00  0.00     0.066 C 
BRANCH  12  13
ATOM     13  C   UNL     1      35.434  13.017 105.470  1.00  0.00     0.140 C 
ATOM     14  O   UNL     1      35.518  14.034 106.143  1.00  0.00    -0.299 OA
BRANCH  13  15
ATOM     15  C   UNL     1      34.387  12.925 104.385  1.00  0.00     0.106 CG0
ATOM     16  G   UNL     1      32.981  12.660 104.905  1.00  0.00     0.000 G0
ENDBRANCH  13  15
ENDBRANCH  12  13
BRANCH  12  17
ATOM     17  C   UNL     1      37.898  12.334 105.500  1.00  0.00    -0.006 C 
ATOM     18  C   UNL     1      38.695  12.393 106.816  1.00  0.00     0.008 C 
ATOM     19  C   UNL     1      38.643  11.456 104.481  1.00  0.00     0.008 C 
ENDBRANCH  12  17
ENDBRANCH  11  12
ENDBRANCH   1  11
TORSDOF 1
ENDMDL
MODEL 6
REMARK VINA RESULT:    -2.537      1.670      4.134
REMARK INTER + INTRA:          -4.129
REMARK INTER:                  -4.805
REMARK INTRA:                   0.676
REMARK UNBOUND:                -0.257
REMARK SMILES CC1=CCC[C@@H](C)C(=O)C[C@H](C(C)C)C(=O)C1
REMARK SMILES IDX 8 1 9 2 6 3 7 4 5 5 4 6 3 7 2 8 1 9 10 11 11 12 15 13 16 14
REMARK SMILES IDX 17 15 12 17 13 18 14 19
REMARK H PARENT
REMARK Flexibility Score: 70.00
ROOT
ATOM      1  C   UNL     1      33.429   7.976 108.029  1.00  0.00     0.136 C 
ATOM      2  O   UNL     1      33.989   6.898 108.175  1.00  0.00    -0.299 OA
ENDROOT
BRANCH   1   3
ATOM      3  C   UNL     1      31.915   8.026 107.949  1.00  0.00     0.053 C 
ATOM      4  C   UNL     1      31.304   8.030 109.358  1.00  0.00     0.016 C 
BRANCH   3   5
ATOM      5  C   UNL     1      31.375   6.840 107.118  1.00  0.00     0.015 C 
BRANCH   5   6
ATOM      6  C   UNL     1      31.111   7.246 105.654  1.00  0.00     0.028 C 
BRANCH   6   7
ATOM      7  C   UNL     1      30.620   8.665 105.509  1.00  0.00    -0.028 C 
ATOM      8  C   UNL     1      31.390   9.733 105.183  1.00  0.00    -0.070 CG0
ATOM      9  C   UNL     1      30.734  11.092 105.183  1.00  0.00     0.039 C 
ATOM     10  G   UNL     1      32.853   9.627 104.775  1.00  0.00     0.000 G0
ENDBRANCH   6   7
ENDBRANCH   5   6
ENDBRANCH   3   5
ENDBRANCH   1   3
BRANCH   1  11
ATOM     11  C   UNL     1      34.268   9.231 107.947  1.00  0.00     0.087 C 
BRANCH  11  12
ATOM     12  C   UNL     1      34.805   9.488 106.514  1.00  0.00     0.066 C 
BRANCH  12  13
ATOM     13  C   UNL     1      33.818  10.304 105.692  1.00  0.00     0.140 C 
ATOM     14  O   UNL     1      33.833  11.526 105.740  1.00  0.00    -0.299 OA
BRANCH  13  15
ATOM     15  C   UNL     1      32.851   9.608 104.764  1.00  0.00     0.106 CG0
ATOM     16  G   UNL     1      31.395   9.715 105.195  1.00  0.00     0.000 G0
ENDBRANCH  13  15
ENDBRANCH  12  13
BRANCH  12  17
ATOM     17  C   UNL     1      36.239  10.112 106.490  1.00  0.00    -0.006 C 
ATOM     18  C   UNL     1      36.646  10.684 105.120  1.00  0.00     0.008 C 
ATOM     19  C   UNL     1      36.402  11.192 107.573  1.00  0.00     0.008 C 
ENDBRANCH  12  17
ENDBRANCH  11  12
ENDBRANCH   1  11
TORSDOF 1
ENDMDL
MODEL 7
REMARK VINA RESULT:    -2.531      2.919      5.050
REMARK INTER + INTRA:          -4.120
REMARK INTER:                  -5.047
REMARK INTRA:                   0.927
REMARK UNBOUND:                -0.257
REMARK SMILES CC1=CCC[C@@H](C)C(=O)C[C@H](C(C)C)C(=O)C1
REMARK SMILES IDX 8 1 9 2 6 3 7 4 5 5 4 6 3 7 2 8 1 9 10 11 11 12 15 13 16 14
REMARK SMILES IDX 17 15 12 17 13 18 14 19
REMARK H PARENT
REMARK Flexibility Score: 70.00
ROOT
ATOM      1  C   UNL     1      35.713  13.472 104.034  1.00  0.00     0.136 C 
ATOM      2  O   UNL     1      35.421  13.189 102.880  1.00  0.00    -0.299 OA
ENDROOT
BRANCH   1   3
ATOM      3  C   UNL     1      37.148  13.830 104.375  1.00  0.00     0.053 C 
ATOM      4  C   UNL     1      38.113  12.790 103.787  1.00  0.00     0.016 C 
BRANCH   3   5
ATOM      5  C   UNL     1      37.331  13.948 105.905  1.00  0.00     0.015 C 
BRANCH   5   6
ATOM      6  C   UNL     1      37.939  12.664 106.504  1.00  0.00     0.028 C 
BRANCH   6   7
ATOM      7  C   UNL     1      37.031  11.982 107.497  1.00  0.00    -0.028 C 
ATOM      8  C   UNL     1      35.954  11.220 107.181  1.00  0.00    -0.070 CG0
ATOM      9  C   UNL     1      35.108  10.702 108.318  1.00  0.00     0.039 C 
ATOM     10  G   UNL     1      35.585  10.827 105.756  1.00  0.00     0.000 G0
ENDBRANCH   6   7
ENDBRANCH   5   6
ENDBRANCH   3   5
ENDBRANCH   1   3
BRANCH   1  11
ATOM     11  C   UNL     1      34.628  13.469 105.087  1.00  0.00     0.087 C 
BRANCH  11  12
ATOM     12  C   UNL     1      33.596  12.331 104.866  1.00  0.00     0.066 C 
BRANCH  12  13
ATOM     13  C   UNL     1      34.097  11.013 105.441  1.00  0.00     0.140 C 
ATOM     14  O   UNL     1      33.327  10.079 105.610  1.00  0.00    -0.299 OA
BRANCH  13  15
ATOM     15  C   UNL     1      35.565  10.834 105.750  1.00  0.00     0.106 CG0
ATOM     16  G   UNL     1      35.948  11.220 107.172  1.00  0.00     0.000 G0
ENDBRANCH  13  15
ENDBRANCH  12  13
BRANCH  12  17
ATOM     17  C   UNL     1      32.162  12.683 105.379  1.00  0.00    -0.006 C 
ATOM     18  C   UNL     1      31.681  14.087 104.970  1.00  0.00     0.008 C 
ATOM     19  C   UNL     1      31.131  11.632 104.936  1.00  0.00     0.008 C 
ENDBRANCH  12  17
ENDBRANCH  11  12
ENDBRANCH   1  11
TORSDOF 1
ENDMDL
MODEL 8
REMARK VINA RESULT:    -2.378      4.625      7.180
REMARK INTER + INTRA:          -3.886
REMARK INTER:                  -4.170
REMARK INTRA:                   0.284
REMARK UNBOUND:                -0.257
REMARK SMILES CC1=CCC[C@@H](C)C(=O)C[C@H](C(C)C)C(=O)C1
REMARK SMILES IDX 8 1 9 2 6 3 7 4 5 5 4 6 3 7 2 8 1 9 10 11 11 12 15 13 16 14
REMARK SMILES IDX 17 15 12 17 13 18 14 19
REMARK H PARENT
REMARK Flexibility Score: 70.00
ROOT
ATOM      1  C   UNL     1      38.034  11.492 103.824  1.00  0.00     0.136 C 
ATOM      2  O   UNL     1      37.398  10.517 104.202  1.00  0.00    -0.299 OA
ENDROOT
BRANCH   1   3
ATOM      3  C   UNL     1      37.367  12.515 102.924  1.00  0.00     0.053 C 
ATOM      4  C   UNL     1      38.090  13.867 103.023  1.00  0.00     0.016 C 
BRANCH   3   5
ATOM      5  C   UNL     1      35.872  12.663 103.283  1.00  0.00     0.015 C 
BRANCH   5   6
ATOM      6  C   UNL     1      35.674  13.524 104.547  1.00  0.00     0.028 C 
BRANCH   6   7
ATOM      7  C   UNL     1      35.380  12.710 105.782  1.00  0.00    -0.028 C 
ATOM      8  C   UNL     1      36.233  12.523 106.820  1.00  0.00    -0.070 CG0
ATOM      9  C   UNL     1      35.796  11.592 107.924  1.00  0.00     0.039 C 
ATOM     10  G   UNL     1      37.575  13.232 106.950  1.00  0.00     0.000 G0
ENDBRANCH   6   7
ENDBRANCH   5   6
ENDBRANCH   3   5
ENDBRANCH   1   3
BRANCH   1  11
ATOM     11  C   UNL     1      39.466  11.654 104.281  1.00  0.00     0.087 C 
BRANCH  11  12
ATOM     12  C   UNL     1      39.613  12.733 105.387  1.00  0.00     0.066 C 
BRANCH  12  13
ATOM     13  C   UNL     1      38.775  12.387 106.610  1.00  0.00     0.140 C 
ATOM     14  O   UNL     1      39.096  11.458 107.337  1.00  0.00    -0.299 OA
BRANCH  13  15
ATOM     15  C   UNL     1      37.574  13.231 106.966  1.00  0.00     0.106 CG0
ATOM     16  G   UNL     1      36.243  12.508 106.808  1.00  0.00     0.000 G0
ENDBRANCH  13  15
ENDBRANCH  12  13
BRANCH  12  17
ATOM     17  C   UNL     1      41.099  13.038 105.766  1.00  0.00    -0.006 C 
ATOM     18  C   UNL     1      41.996  11.787 105.822  1.00  0.00     0.008 C 
ATOM     19  C   UNL     1      41.720  14.080 104.821  1.00  0.00     0.008 C 
ENDBRANCH  12  17
ENDBRANCH  11  12
ENDBRANCH   1  11
TORSDOF 1
ENDMDL
MODEL 9
REMARK VINA RESULT:    -2.288      1.989      4.662
REMARK INTER + INTRA:          -3.749
REMARK INTER:                  -4.728
REMARK INTRA:                   0.979
REMARK UNBOUND:                -0.257
REMARK SMILES CC1=CCC[C@@H](C)C(=O)C[C@H](C(C)C)C(=O)C1
REMARK SMILES IDX 8 1 9 2 6 3 7 4 5 5 4 6 3 7 2 8 1 9 10 11 11 12 15 13 16 14
REMARK SMILES IDX 17 15 12 17 13 18 14 19
REMARK H PARENT
REMARK Flexibility Score: 70.00
ROOT
ATOM      1  C   UNL     1      32.165   8.894 106.578  1.00  0.00     0.136 C 
ATOM      2  O   UNL     1      31.077   8.885 107.138  1.00  0.00    -0.299 OA
ENDROOT
BRANCH   1   3
ATOM      3  C   UNL     1      33.308   8.080 107.156  1.00  0.00     0.053 C 
ATOM      4  C   UNL     1      32.772   7.013 108.121  1.00  0.00     0.016 C 
BRANCH   3   5
ATOM      5  C   UNL     1      34.327   9.001 107.865  1.00  0.00     0.015 C 
BRANCH   5   6
ATOM      6  C   UNL     1      35.568   9.258 106.986  1.00  0.00     0.028 C 
BRANCH   6   7
ATOM      7  C   UNL     1      36.003  10.702 106.977  1.00  0.00    -0.028 C 
ATOM      8  C   UNL     1      35.669  11.617 106.032  1.00  0.00    -0.070 CG0
ATOM      9  C   UNL     1      36.285  12.990 106.142  1.00  0.00     0.039 C 
ATOM     10  G   UNL     1      34.681  11.346 104.906  1.00  0.00     0.000 G0
ENDBRANCH   6   7
ENDBRANCH   5   6
ENDBRANCH   3   5
ENDBRANCH   1   3
BRANCH   1  11
ATOM     11  C   UNL     1      32.332   9.707 105.315  1.00  0.00     0.087 C 
BRANCH  11  12
ATOM     12  C   UNL     1      32.133  11.226 105.563  1.00  0.00     0.066 C 
BRANCH  12  13
ATOM     13  C   UNL     1      33.336  12.026 105.080  1.00  0.00     0.140 C 
ATOM     14  O   UNL     1      33.240  13.228 104.880  1.00  0.00    -0.299 OA
BRANCH  13  15
ATOM     15  C   UNL     1      34.673  11.346 104.904  1.00  0.00     0.106 CG0
ATOM     16  G   UNL     1      35.659  11.623 106.030  1.00  0.00     0.000 G0
ENDBRANCH  13  15
ENDBRANCH  12  13
BRANCH  12  17
ATOM     17  C   UNL     1      30.793  11.781 104.979  1.00  0.00    -0.006 C 
ATOM     18  C   UNL     1      29.538  11.061 105.506  1.00  0.00     0.008 C 
ATOM     19  C   UNL     1      30.659  13.295 105.215  1.00  0.00     0.008 C 
ENDBRANCH  12  17
ENDBRANCH  11  12
ENDBRANCH   1  11
TORSDOF 1
ENDMDL
