MODEL 1
REMARK VINA RESULT:    -5.218      0.000      0.000
REMARK INTER + INTRA:          -9.922
REMARK INTER:                  -9.184
REMARK INTRA:                  -0.738
REMARK UNBOUND:                -0.738
REMARK SMILES CCCCCCCCCCCCCCC(=O)[O-]
REMARK SMILES IDX 9 1 10 2 11 3 12 4 13 5 14 6 15 7 16 8 17 9 8 10 7 11 6 12
REMARK SMILES IDX 5 13 4 14 3 15 2 16 1 17
REMARK H PARENT
REMARK Flexibility Score: inf
ROOT
ATOM      1  C   UNL     1       5.164  42.633  46.028  1.00  0.00     0.000 C 
ENDROOT
BRANCH   1   2
ATOM      2  C   UNL     1       6.027  41.860  45.014  1.00  0.00     0.000 C 
BRANCH   2   3
ATOM      3  C   UNL     1       6.261  42.579  43.670  1.00  0.00     0.000 C 
BRANCH   3   4
ATOM      4  C   UNL     1       6.588  44.082  43.778  1.00  0.00     0.000 C 
BRANCH   4   5
ATOM      5  C   UNL     1       7.842  44.533  43.002  1.00  0.00     0.006 C 
BRANCH   5   6
ATOM      6  C   UNL     1       7.573  44.943  41.546  1.00  0.00     0.053 C 
BRANCH   6   7
ATOM      7  C   UNL     1       8.327  46.179  41.166  1.00  0.00     0.041 C 
ATOM      8  O   UNL     1       9.523  46.331  41.531  1.00  0.00    -0.550 OA
ATOM      9  O   UNL     1       7.720  47.150  40.380  1.00  0.00    -0.550 OA
ENDBRANCH   6   7
ENDBRANCH   5   6
ENDBRANCH   4   5
ENDBRANCH   3   4
ENDBRANCH   2   3
ENDBRANCH   1   2
BRANCH   1  10
ATOM     10  C   UNL     1       4.659  41.748  47.180  1.00  0.00     0.000 C 
BRANCH  10  11
ATOM     11  C   UNL     1       5.195  42.190  48.554  1.00  0.00    -0.000 C 
BRANCH  11  12
ATOM     12  C   UNL     1       6.470  41.465  49.029  1.00  0.00    -0.000 C 
BRANCH  12  13
ATOM     13  C   UNL     1       6.784  40.149  48.297  1.00  0.00    -0.000 C 
BRANCH  13  14
ATOM     14  C   UNL     1       8.269  40.006  47.933  1.00  0.00    -0.000 C 
BRANCH  14  15
ATOM     15  C   UNL     1       9.164  40.401  49.118  1.00  0.00    -0.000 C 
BRANCH  15  16
ATOM     16  C   UNL     1      10.590  39.843  48.991  1.00  0.00    -0.003 C 
ATOM     17  C   UNL     1      11.557  40.461  50.000  1.00  0.00     0.004 C 
ENDBRANCH  15  16
ENDBRANCH  14  15
ENDBRANCH  13  14
ENDBRANCH  12  13
ENDBRANCH  11  12
ENDBRANCH  10  11
ENDBRANCH   1  10
TORSDOF 13
ENDMDL
MODEL 2
REMARK VINA RESULT:    -5.057      3.591      7.188
REMARK INTER + INTRA:          -9.637
REMARK INTER:                  -8.552
REMARK INTRA:                  -1.085
REMARK UNBOUND:                -0.738
REMARK SMILES CCCCCCCCCCCCCCC(=O)[O-]
REMARK SMILES IDX 9 1 10 2 11 3 12 4 13 5 14 6 15 7 16 8 17 9 8 10 7 11 6 12
REMARK SMILES IDX 5 13 4 14 3 15 2 16 1 17
REMARK H PARENT
REMARK Flexibility Score: inf
ROOT
ATOM      1  C   UNL     1       5.219  42.647  44.806  1.00  0.00     0.000 C 
ENDROOT
BRANCH   1   2
ATOM      2  C   UNL     1       5.888  41.682  45.801  1.00  0.00     0.000 C 
BRANCH   2   3
ATOM      3  C   UNL     1       5.553  41.936  47.286  1.00  0.00     0.000 C 
BRANCH   3   4
ATOM      4  C   UNL     1       6.212  40.961  48.282  1.00  0.00     0.000 C 
BRANCH   4   5
ATOM      5  C   UNL     1       7.540  40.340  47.804  1.00  0.00     0.006 C 
BRANCH   5   6
ATOM      6  C   UNL     1       8.702  40.483  48.799  1.00  0.00     0.053 C 
BRANCH   6   7
ATOM      7  C   UNL     1      10.012  40.095  48.188  1.00  0.00     0.041 C 
ATOM      8  O   UNL     1      10.096  39.883  46.949  1.00  0.00    -0.550 OA
ATOM      9  O   UNL     1      11.148  39.999  48.981  1.00  0.00    -0.550 OA
ENDBRANCH   6   7
ENDBRANCH   5   6
ENDBRANCH   4   5
ENDBRANCH   3   4
ENDBRANCH   2   3
ENDBRANCH   1   2
BRANCH   1  10
ATOM     10  C   UNL     1       6.072  42.898  43.552  1.00  0.00     0.000 C 
BRANCH  10  11
ATOM     11  C   UNL     1       6.981  44.133  43.683  1.00  0.00    -0.000 C 
BRANCH  11  12
ATOM     12  C   UNL     1       7.368  44.812  42.353  1.00  0.00    -0.000 C 
BRANCH  12  13
ATOM     13  C   UNL     1       7.810  43.852  41.235  1.00  0.00    -0.000 C 
BRANCH  13  14
ATOM     14  C   UNL     1       9.336  43.786  41.073  1.00  0.00    -0.000 C 
BRANCH  14  15
ATOM     15  C   UNL     1       9.825  42.330  41.081  1.00  0.00    -0.000 C 
BRANCH  15  16
ATOM     16  C   UNL     1       8.722  41.339  41.486  1.00  0.00    -0.003 C 
ATOM     17  C   UNL     1       9.048  40.587  42.776  1.00  0.00     0.004 C 
ENDBRANCH  15  16
ENDBRANCH  14  15
ENDBRANCH  13  14
ENDBRANCH  12  13
ENDBRANCH  11  12
ENDBRANCH  10  11
ENDBRANCH   1  10
TORSDOF 13
ENDMDL
MODEL 3
REMARK VINA RESULT:    -5.022      1.401      2.884
REMARK INTER + INTRA:          -9.576
REMARK INTER:                  -8.650
REMARK INTRA:                  -0.926
REMARK UNBOUND:                -0.738
REMARK SMILES CCCCCCCCCCCCCCC(=O)[O-]
REMARK SMILES IDX 9 1 10 2 11 3 12 4 13 5 14 6 15 7 16 8 17 9 8 10 7 11 6 12
REMARK SMILES IDX 5 13 4 14 3 15 2 16 1 17
REMARK H PARENT
REMARK Flexibility Score: inf
ROOT
ATOM      1  C   UNL     1       7.462  41.538  43.373  1.00  0.00     0.000 C 
ENDROOT
BRANCH   1   2
ATOM      2  C   UNL     1       7.836  41.461  41.881  1.00  0.00     0.000 C 
BRANCH   2   3
ATOM      3  C   UNL     1       9.259  41.944  41.535  1.00  0.00     0.000 C 
BRANCH   3   4
ATOM      4  C   UNL     1       9.377  43.440  41.185  1.00  0.00     0.000 C 
BRANCH   4   5
ATOM      5  C   UNL     1       8.034  44.193  41.085  1.00  0.00     0.006 C 
BRANCH   5   6
ATOM      6  C   UNL     1       7.937  45.437  41.981  1.00  0.00     0.053 C 
BRANCH   6   7
ATOM      7  C   UNL     1       8.340  46.682  41.254  1.00  0.00     0.041 C 
ATOM      8  O   UNL     1       9.261  47.412  41.707  1.00  0.00    -0.550 OA
ATOM      9  O   UNL     1       7.719  47.021  40.059  1.00  0.00    -0.550 OA
ENDBRANCH   6   7
ENDBRANCH   5   6
ENDBRANCH   4   5
ENDBRANCH   3   4
ENDBRANCH   2   3
ENDBRANCH   1   2
BRANCH   1  10
ATOM     10  C   UNL     1       6.031  42.051  43.604  1.00  0.00     0.000 C 
BRANCH  10  11
ATOM     11  C   UNL     1       5.918  42.979  44.827  1.00  0.00    -0.000 C 
BRANCH  11  12
ATOM     12  C   UNL     1       5.024  42.457  45.970  1.00  0.00    -0.000 C 
BRANCH  12  13
ATOM     13  C   UNL     1       5.681  41.411  46.888  1.00  0.00    -0.000 C 
BRANCH  13  14
ATOM     14  C   UNL     1       5.568  41.767  48.377  1.00  0.00    -0.000 C 
BRANCH  14  15
ATOM     15  C   UNL     1       6.859  41.404  49.127  1.00  0.00    -0.000 C 
BRANCH  15  16
ATOM     16  C   UNL     1       7.758  40.450  48.325  1.00  0.00    -0.003 C 
ATOM     17  C   UNL     1       9.178  40.367  48.884  1.00  0.00     0.004 C 
ENDBRANCH  15  16
ENDBRANCH  14  15
ENDBRANCH  13  14
ENDBRANCH  12  13
ENDBRANCH  11  12
ENDBRANCH  10  11
ENDBRANCH   1  10
TORSDOF 13
ENDMDL
MODEL 4
REMARK VINA RESULT:    -4.992      1.575      2.822
REMARK INTER + INTRA:          -9.523
REMARK INTER:                  -8.491
REMARK INTRA:                  -1.033
REMARK UNBOUND:                -0.738
REMARK SMILES CCCCCCCCCCCCCCC(=O)[O-]
REMARK SMILES IDX 9 1 10 2 11 3 12 4 13 5 14 6 15 7 16 8 17 9 8 10 7 11 6 12
REMARK SMILES IDX 5 13 4 14 3 15 2 16 1 17
REMARK H PARENT
REMARK Flexibility Score: inf
ROOT
ATOM      1  C   UNL     1       5.795  40.866  47.814  1.00  0.00     0.000 C 
ENDROOT
BRANCH   1   2
ATOM      2  C   UNL     1       5.052  42.113  47.301  1.00  0.00     0.000 C 
BRANCH   2   3
ATOM      3  C   UNL     1       5.266  42.437  45.808  1.00  0.00     0.000 C 
BRANCH   3   4
ATOM      4  C   UNL     1       6.290  41.541  45.083  1.00  0.00     0.000 C 
BRANCH   4   5
ATOM      5  C   UNL     1       6.699  42.025  43.677  1.00  0.00     0.006 C 
BRANCH   5   6
ATOM      6  C   UNL     1       6.488  43.529  43.439  1.00  0.00     0.053 C 
BRANCH   6   7
ATOM      7  C   UNL     1       7.338  44.041  42.317  1.00  0.00     0.041 C 
ATOM      8  O   UNL     1       7.725  43.260  41.408  1.00  0.00    -0.550 OA
ATOM      9  O   UNL     1       7.677  45.386  42.260  1.00  0.00    -0.550 OA
ENDBRANCH   6   7
ENDBRANCH   5   6
ENDBRANCH   4   5
ENDBRANCH   3   4
ENDBRANCH   2   3
ENDBRANCH   1   2
BRANCH   1  10
ATOM     10  C   UNL     1       6.804  41.188  48.928  1.00  0.00     0.000 C 
BRANCH  10  11
ATOM     11  C   UNL     1       8.211  40.633  48.640  1.00  0.00    -0.000 C 
BRANCH  11  12
ATOM     12  C   UNL     1       8.250  39.333  47.810  1.00  0.00    -0.000 C 
BRANCH  12  13
ATOM     13  C   UNL     1       9.646  38.917  47.315  1.00  0.00    -0.000 C 
BRANCH  13  14
ATOM     14  C   UNL     1      10.445  38.135  48.367  1.00  0.00    -0.000 C 
BRANCH  14  15
ATOM     15  C   UNL     1      11.886  38.660  48.464  1.00  0.00    -0.000 C 
BRANCH  15  16
ATOM     16  C   UNL     1      11.945  40.170  48.744  1.00  0.00    -0.003 C 
ATOM     17  C   UNL     1      12.811  40.924  47.735  1.00  0.00     0.004 C 
ENDBRANCH  15  16
ENDBRANCH  14  15
ENDBRANCH  13  14
ENDBRANCH  12  13
ENDBRANCH  11  12
ENDBRANCH  10  11
ENDBRANCH   1  10
TORSDOF 13
ENDMDL
MODEL 5
REMARK VINA RESULT:    -4.976      3.022      5.719
REMARK INTER + INTRA:          -9.495
REMARK INTER:                  -8.126
REMARK INTRA:                  -1.369
REMARK UNBOUND:                -0.738
REMARK SMILES CCCCCCCCCCCCCCC(=O)[O-]
REMARK SMILES IDX 9 1 10 2 11 3 12 4 13 5 14 6 15 7 16 8 17 9 8 10 7 11 6 12
REMARK SMILES IDX 5 13 4 14 3 15 2 16 1 17
REMARK H PARENT
REMARK Flexibility Score: inf
ROOT
ATOM      1  C   UNL     1       9.373  39.687  48.164  1.00  0.00     0.000 C 
ENDROOT
BRANCH   1   2
ATOM      2  C   UNL     1       7.926  40.120  47.861  1.00  0.00     0.000 C 
BRANCH   2   3
ATOM      3  C   UNL     1       7.263  40.995  48.945  1.00  0.00     0.000 C 
BRANCH   3   4
ATOM      4  C   UNL     1       5.871  41.547  48.581  1.00  0.00     0.000 C 
BRANCH   4   5
ATOM      5  C   UNL     1       5.360  41.152  47.180  1.00  0.00     0.006 C 
BRANCH   5   6
ATOM      6  C   UNL     1       5.067  42.342  46.253  1.00  0.00     0.053 C 
BRANCH   6   7
ATOM      7  C   UNL     1       5.832  42.251  44.970  1.00  0.00     0.041 C 
ATOM      8  O   UNL     1       5.874  43.235  44.185  1.00  0.00    -0.550 OA
ATOM      9  O   UNL     1       6.526  41.091  44.654  1.00  0.00    -0.550 OA
ENDBRANCH   6   7
ENDBRANCH   5   6
ENDBRANCH   4   5
ENDBRANCH   3   4
ENDBRANCH   2   3
ENDBRANCH   1   2
BRANCH   1  10
ATOM     10  C   UNL     1       9.969  40.409  49.383  1.00  0.00     0.000 C 
BRANCH  10  11
ATOM     11  C   UNL     1      11.462  40.097  49.593  1.00  0.00    -0.000 C 
BRANCH  11  12
ATOM     12  C   UNL     1      12.224  39.642  48.331  1.00  0.00    -0.000 C 
BRANCH  12  13
ATOM     13  C   UNL     1      12.984  40.755  47.590  1.00  0.00    -0.000 C 
BRANCH  13  14
ATOM     14  C   UNL     1      13.035  40.535  46.071  1.00  0.00    -0.000 C 
BRANCH  14  15
ATOM     15  C   UNL     1      11.631  40.635  45.456  1.00  0.00    -0.000 C 
BRANCH  15  16
ATOM     16  C   UNL     1      11.220  39.354  44.714  1.00  0.00    -0.003 C 
ATOM     17  C   UNL     1       9.716  39.281  44.450  1.00  0.00     0.004 C 
ENDBRANCH  15  16
ENDBRANCH  14  15
ENDBRANCH  13  14
ENDBRANCH  12  13
ENDBRANCH  11  12
ENDBRANCH  10  11
ENDBRANCH   1  10
TORSDOF 13
ENDMDL
MODEL 6
REMARK VINA RESULT:    -4.929      3.821      7.941
REMARK INTER + INTRA:          -9.413
REMARK INTER:                  -8.583
REMARK INTRA:                  -0.830
REMARK UNBOUND:                -0.738
REMARK SMILES CCCCCCCCCCCCCCC(=O)[O-]
REMARK SMILES IDX 9 1 10 2 11 3 12 4 13 5 14 6 15 7 16 8 17 9 8 10 7 11 6 12
REMARK SMILES IDX 5 13 4 14 3 15 2 16 1 17
REMARK H PARENT
REMARK Flexibility Score: inf
ROOT
ATOM      1  C   UNL     1       5.546  41.794  46.096  1.00  0.00     0.000 C 
ENDROOT
BRANCH   1   2
ATOM      2  C   UNL     1       6.150  41.387  47.453  1.00  0.00     0.000 C 
BRANCH   2   3
ATOM      3  C   UNL     1       5.953  39.907  47.840  1.00  0.00     0.000 C 
BRANCH   3   4
ATOM      4  C   UNL     1       7.232  39.171  48.287  1.00  0.00     0.000 C 
BRANCH   4   5
ATOM      5  C   UNL     1       8.552  39.883  47.929  1.00  0.00     0.006 C 
BRANCH   5   6
ATOM      6  C   UNL     1       9.348  40.390  49.142  1.00  0.00     0.053 C 
BRANCH   6   7
ATOM      7  C   UNL     1      10.794  40.013  49.058  1.00  0.00     0.041 C 
ATOM      8  O   UNL     1      11.684  40.828  49.418  1.00  0.00    -0.550 OA
ATOM      9  O   UNL     1      11.159  38.749  48.612  1.00  0.00    -0.550 OA
ENDBRANCH   6   7
ENDBRANCH   5   6
ENDBRANCH   4   5
ENDBRANCH   3   4
ENDBRANCH   2   3
ENDBRANCH   1   2
BRANCH   1  10
ATOM     10  C   UNL     1       6.320  41.216  44.900  1.00  0.00     0.000 C 
BRANCH  10  11
ATOM     11  C   UNL     1       6.513  42.235  43.763  1.00  0.00    -0.000 C 
BRANCH  11  12
ATOM     12  C   UNL     1       6.396  43.716  44.178  1.00  0.00    -0.000 C 
BRANCH  12  13
ATOM     13  C   UNL     1       7.151  44.708  43.276  1.00  0.00    -0.000 C 
BRANCH  13  14
ATOM     14  C   UNL     1       7.477  44.129  41.891  1.00  0.00    -0.000 C 
BRANCH  14  15
ATOM     15  C   UNL     1       8.061  45.210  40.969  1.00  0.00    -0.000 C 
BRANCH  15  16
ATOM     16  C   UNL     1       8.036  46.607  41.608  1.00  0.00    -0.003 C 
ATOM     17  C   UNL     1       7.975  47.729  40.572  1.00  0.00     0.004 C 
ENDBRANCH  15  16
ENDBRANCH  14  15
ENDBRANCH  13  14
ENDBRANCH  12  13
ENDBRANCH  11  12
ENDBRANCH  10  11
ENDBRANCH   1  10
TORSDOF 13
ENDMDL
MODEL 7
REMARK VINA RESULT:    -4.916      3.006      6.748
REMARK INTER + INTRA:          -9.390
REMARK INTER:                  -8.350
REMARK INTRA:                  -1.040
REMARK UNBOUND:                -0.738
REMARK SMILES CCCCCCCCCCCCCCC(=O)[O-]
REMARK SMILES IDX 9 1 10 2 11 3 12 4 13 5 14 6 15 7 16 8 17 9 8 10 7 11 6 12
REMARK SMILES IDX 5 13 4 14 3 15 2 16 1 17
REMARK H PARENT
REMARK Flexibility Score: inf
ROOT
ATOM      1  C   UNL     1       9.030  39.319  48.237  1.00  0.00     0.000 C 
ENDROOT
BRANCH   1   2
ATOM      2  C   UNL     1       9.715  40.462  49.009  1.00  0.00     0.000 C 
BRANCH   2   3
ATOM      3  C   UNL     1      11.078  40.105  49.636  1.00  0.00     0.000 C 
BRANCH   3   4
ATOM      4  C   UNL     1      11.823  38.935  48.964  1.00  0.00     0.000 C 
BRANCH   4   5
ATOM      5  C   UNL     1      12.846  39.348  47.886  1.00  0.00     0.006 C 
BRANCH   5   6
ATOM      6  C   UNL     1      12.969  40.865  47.677  1.00  0.00     0.053 C 
BRANCH   6   7
ATOM      7  C   UNL     1      12.398  41.296  46.362  1.00  0.00     0.041 C 
ATOM      8  O   UNL     1      12.917  42.252  45.727  1.00  0.00    -0.550 OA
ATOM      9  O   UNL     1      11.313  40.620  45.820  1.00  0.00    -0.550 OA
ENDBRANCH   6   7
ENDBRANCH   5   6
ENDBRANCH   4   5
ENDBRANCH   3   4
ENDBRANCH   2   3
ENDBRANCH   1   2
BRANCH   1  10
ATOM     10  C   UNL     1       7.496  39.406  48.279  1.00  0.00     0.000 C 
BRANCH  10  11
ATOM     11  C   UNL     1       6.981  40.850  48.423  1.00  0.00    -0.000 C 
BRANCH  11  12
ATOM     12  C   UNL     1       5.609  41.128  47.777  1.00  0.00    -0.000 C 
BRANCH  12  13
ATOM     13  C   UNL     1       5.659  41.884  46.437  1.00  0.00    -0.000 C 
BRANCH  13  14
ATOM     14  C   UNL     1       6.374  41.093  45.331  1.00  0.00    -0.000 C 
BRANCH  14  15
ATOM     15  C   UNL     1       6.477  41.924  44.043  1.00  0.00    -0.000 C 
BRANCH  15  16
ATOM     16  C   UNL     1       5.998  43.371  44.234  1.00  0.00    -0.003 C 
ATOM     17  C   UNL     1       7.000  44.399  43.709  1.00  0.00     0.004 C 
ENDBRANCH  15  16
ENDBRANCH  14  15
ENDBRANCH  13  14
ENDBRANCH  12  13
ENDBRANCH  11  12
ENDBRANCH  10  11
ENDBRANCH   1  10
TORSDOF 13
ENDMDL
MODEL 8
REMARK VINA RESULT:    -4.911      4.269      6.487
REMARK INTER + INTRA:          -9.381
REMARK INTER:                  -7.916
REMARK INTRA:                  -1.464
REMARK UNBOUND:                -0.738
REMARK SMILES CCCCCCCCCCCCCCC(=O)[O-]
REMARK SMILES IDX 9 1 10 2 11 3 12 4 13 5 14 6 15 7 16 8 17 9 8 10 7 11 6 12
REMARK SMILES IDX 5 13 4 14 3 15 2 16 1 17
REMARK H PARENT
REMARK Flexibility Score: inf
ROOT
ATOM      1  C   UNL     1       7.206  44.119  43.615  1.00  0.00     0.000 C 
ENDROOT
BRANCH   1   2
ATOM      2  C   UNL     1       5.937  43.259  43.762  1.00  0.00     0.000 C 
BRANCH   2   3
ATOM      3  C   UNL     1       5.810  42.501  45.099  1.00  0.00     0.000 C 
BRANCH   3   4
ATOM      4  C   UNL     1       6.360  41.061  45.092  1.00  0.00     0.000 C 
BRANCH   4   5
ATOM      5  C   UNL     1       6.716  40.494  46.481  1.00  0.00     0.006 C 
BRANCH   5   6
ATOM      6  C   UNL     1       5.798  40.973  47.616  1.00  0.00     0.053 C 
BRANCH   6   7
ATOM      7  C   UNL     1       6.574  41.348  48.841  1.00  0.00     0.041 C 
ATOM      8  O   UNL     1       7.775  40.990  48.966  1.00  0.00    -0.550 OA
ATOM      9  O   UNL     1       5.980  42.120  49.831  1.00  0.00    -0.550 OA
ENDBRANCH   6   7
ENDBRANCH   5   6
ENDBRANCH   4   5
ENDBRANCH   3   4
ENDBRANCH   2   3
ENDBRANCH   1   2
BRANCH   1  10
ATOM     10  C   UNL     1       8.221  43.522  42.626  1.00  0.00     0.000 C 
BRANCH  10  11
ATOM     11  C   UNL     1       7.627  42.391  41.767  1.00  0.00    -0.000 C 
BRANCH  11  12
ATOM     12  C   UNL     1       8.408  41.061  41.796  1.00  0.00    -0.000 C 
BRANCH  12  13
ATOM     13  C   UNL     1       9.925  41.199  42.014  1.00  0.00    -0.000 C 
BRANCH  13  14
ATOM     14  C   UNL     1      10.407  40.525  43.307  1.00  0.00    -0.000 C 
BRANCH  14  15
ATOM     15  C   UNL     1       9.367  39.516  43.819  1.00  0.00    -0.000 C 
BRANCH  15  16
ATOM     16  C   UNL     1       9.973  38.480  44.777  1.00  0.00    -0.003 C 
ATOM     17  C   UNL     1      11.215  37.798  44.202  1.00  0.00     0.004 C 
ENDBRANCH  15  16
ENDBRANCH  14  15
ENDBRANCH  13  14
ENDBRANCH  12  13
ENDBRANCH  11  12
ENDBRANCH  10  11
ENDBRANCH   1  10
TORSDOF 13
ENDMDL
MODEL 9
REMARK VINA RESULT:    -4.900      3.483      8.118
REMARK INTER + INTRA:          -9.362
REMARK INTER:                  -8.654
REMARK INTRA:                  -0.708
REMARK UNBOUND:                -0.738
REMARK SMILES CCCCCCCCCCCCCCC(=O)[O-]
REMARK SMILES IDX 9 1 10 2 11 3 12 4 13 5 14 6 15 7 16 8 17 9 8 10 7 11 6 12
REMARK SMILES IDX 5 13 4 14 3 15 2 16 1 17
REMARK H PARENT
REMARK Flexibility Score: inf
ROOT
ATOM      1  C   UNL     1       5.630  42.504  43.967  1.00  0.00     0.000 C 
ENDROOT
BRANCH   1   2
ATOM      2  C   UNL     1       5.987  42.056  45.396  1.00  0.00     0.000 C 
BRANCH   2   3
ATOM      3  C   UNL     1       4.991  42.497  46.489  1.00  0.00     0.000 C 
BRANCH   3   4
ATOM      4  C   UNL     1       5.248  41.904  47.888  1.00  0.00     0.000 C 
BRANCH   4   5
ATOM      5  C   UNL     1       6.252  40.734  47.925  1.00  0.00     0.006 C 
BRANCH   5   6
ATOM      6  C   UNL     1       7.445  40.951  48.870  1.00  0.00     0.053 C 
BRANCH   6   7
ATOM      7  C   UNL     1       8.665  40.219  48.406  1.00  0.00     0.041 C 
ATOM      8  O   UNL     1       9.668  40.114  49.161  1.00  0.00    -0.550 OA
ATOM      9  O   UNL     1       8.685  39.624  47.152  1.00  0.00    -0.550 OA
ENDBRANCH   6   7
ENDBRANCH   5   6
ENDBRANCH   4   5
ENDBRANCH   3   4
ENDBRANCH   2   3
ENDBRANCH   1   2
BRANCH   1  10
ATOM     10  C   UNL     1       6.403  43.756  43.522  1.00  0.00     0.000 C 
BRANCH  10  11
ATOM     11  C   UNL     1       7.499  43.446  42.486  1.00  0.00    -0.000 C 
BRANCH  11  12
ATOM     12  C   UNL     1       8.488  44.597  42.209  1.00  0.00    -0.000 C 
BRANCH  12  13
ATOM     13  C   UNL     1       9.201  44.531  40.847  1.00  0.00    -0.000 C 
BRANCH  13  14
ATOM     14  C   UNL     1       9.690  45.904  40.362  1.00  0.00    -0.000 C 
BRANCH  14  15
ATOM     15  C   UNL     1       9.530  46.963  41.463  1.00  0.00    -0.000 C 
BRANCH  15  16
ATOM     16  C   UNL     1       8.620  48.125  41.035  1.00  0.00    -0.003 C 
ATOM     17  C   UNL     1       7.190  47.978  41.557  1.00  0.00     0.004 C 
ENDBRANCH  15  16
ENDBRANCH  14  15
ENDBRANCH  13  14
ENDBRANCH  12  13
ENDBRANCH  11  12
ENDBRANCH  10  11
ENDBRANCH   1  10
TORSDOF 13
ENDMDL
