MODEL 1
REMARK VINA RESULT:    -5.821      0.000      0.000
REMARK INTER + INTRA:         -11.558
REMARK INTER:                 -10.245
REMARK INTRA:                  -1.313
REMARK UNBOUND:                -1.313
REMARK SMILES CCCCCCC=CCCCCCCCC(=O)[O-]
REMARK SMILES IDX 10 1 11 2 12 3 13 4 14 5 15 6 16 7 17 8 18 9 9 10 8 11 7 12
REMARK SMILES IDX 6 13 5 14 4 15 3 16 2 17 1 18
REMARK H PARENT
REMARK Flexibility Score: inf
ROOT
ATOM      1  C   UNL     1      45.522  46.102  44.334  1.00  0.00     0.004 C 
ENDROOT
BRANCH   1   2
ATOM      2  C   UNL     1      44.048  45.733  44.105  1.00  0.00     0.000 C 
BRANCH   2   3
ATOM      3  C   UNL     1      43.741  45.401  42.637  1.00  0.00     0.000 C 
BRANCH   3   4
ATOM      4  C   UNL     1      42.235  45.383  42.336  1.00  0.00     0.000 C 
BRANCH   4   5
ATOM      5  C   UNL     1      41.977  45.237  40.831  1.00  0.00     0.006 C 
BRANCH   5   6
ATOM      6  C   UNL     1      43.294  45.137  40.055  1.00  0.00     0.053 C 
BRANCH   6   7
ATOM      7  C   UNL     1      43.034  44.764  38.629  1.00  0.00     0.041 C 
ATOM      8  O   UNL     1      41.913  45.001  38.107  1.00  0.00    -0.550 OA
ATOM      9  O   UNL     1      44.045  44.200  37.862  1.00  0.00    -0.550 OA
ENDBRANCH   6   7
ENDBRANCH   5   6
ENDBRANCH   4   5
ENDBRANCH   3   4
ENDBRANCH   2   3
ENDBRANCH   1   2
BRANCH   1  10
ATOM     10  C   UNL     1      46.032  45.523  45.658  1.00  0.00     0.027 C 
BRANCH  10  11
ATOM     11  C   UNL     1      46.332  46.626  46.641  1.00  0.00    -0.031 C 
ATOM     12  C   UNL     1      45.450  47.121  47.528  1.00  0.00    -0.031 C 
BRANCH  12  13
ATOM     13  C   UNL     1      43.998  46.720  47.614  1.00  0.00     0.027 C 
BRANCH  13  14
ATOM     14  C   UNL     1      43.782  45.513  48.543  1.00  0.00     0.004 C 
BRANCH  14  15
ATOM     15  C   UNL     1      44.879  45.333  49.609  1.00  0.00     0.000 C 
BRANCH  15  16
ATOM     16  C   UNL     1      45.624  43.994  49.475  1.00  0.00    -0.000 C 
BRANCH  16  17
ATOM     17  C   UNL     1      47.138  44.179  49.293  1.00  0.00    -0.003 C 
ATOM     18  C   UNL     1      47.700  43.350  48.138  1.00  0.00     0.004 C 
ENDBRANCH  16  17
ENDBRANCH  15  16
ENDBRANCH  14  15
ENDBRANCH  13  14
ENDBRANCH  12  13
ENDBRANCH  10  11
ENDBRANCH   1  10
TORSDOF 13
ENDMDL
MODEL 2
REMARK VINA RESULT:    -5.611      2.025      3.773
REMARK INTER + INTRA:         -11.189
REMARK INTER:                  -9.700
REMARK INTRA:                  -1.489
REMARK UNBOUND:                -1.313
REMARK SMILES CCCCCCC=CCCCCCCCC(=O)[O-]
REMARK SMILES IDX 10 1 11 2 12 3 13 4 14 5 15 6 16 7 17 8 18 9 9 10 8 11 7 12
REMARK SMILES IDX 6 13 5 14 4 15 3 16 2 17 1 18
REMARK H PARENT
REMARK Flexibility Score: inf
ROOT
ATOM      1  C   UNL     1      44.873  47.367  47.251  1.00  0.00     0.004 C 
ENDROOT
BRANCH   1   2
ATOM      2  C   UNL     1      46.129  46.951  46.469  1.00  0.00     0.000 C 
BRANCH   2   3
ATOM      3  C   UNL     1      45.822  46.579  45.010  1.00  0.00     0.000 C 
BRANCH   3   4
ATOM      4  C   UNL     1      45.580  45.074  44.821  1.00  0.00     0.000 C 
BRANCH   4   5
ATOM      5  C   UNL     1      44.831  44.798  43.512  1.00  0.00     0.006 C 
BRANCH   5   6
ATOM      6  C   UNL     1      43.549  45.630  43.425  1.00  0.00     0.053 C 
BRANCH   6   7
ATOM      7  C   UNL     1      42.838  45.365  42.136  1.00  0.00     0.041 C 
ATOM      8  O   UNL     1      41.603  45.117  42.133  1.00  0.00    -0.550 OA
ATOM      9  O   UNL     1      43.527  45.441  40.932  1.00  0.00    -0.550 OA
ENDBRANCH   6   7
ENDBRANCH   5   6
ENDBRANCH   4   5
ENDBRANCH   3   4
ENDBRANCH   2   3
ENDBRANCH   1   2
BRANCH   1  10
ATOM     10  C   UNL     1      44.464  46.276  48.248  1.00  0.00     0.027 C 
BRANCH  10  11
ATOM     11  C   UNL     1      45.475  46.165  49.361  1.00  0.00    -0.031 C 
ATOM     12  C   UNL     1      46.304  45.121  49.539  1.00  0.00    -0.031 C 
BRANCH  12  13
ATOM     13  C   UNL     1      46.287  43.857  48.714  1.00  0.00     0.027 C 
BRANCH  13  14
ATOM     14  C   UNL     1      47.689  43.474  48.208  1.00  0.00     0.004 C 
BRANCH  14  15
ATOM     15  C   UNL     1      47.729  43.030  46.735  1.00  0.00     0.000 C 
BRANCH  15  16
ATOM     16  C   UNL     1      46.689  41.944  46.411  1.00  0.00    -0.000 C 
BRANCH  16  17
ATOM     17  C   UNL     1      47.283  40.784  45.598  1.00  0.00    -0.003 C 
ATOM     18  C   UNL     1      48.130  39.838  46.451  1.00  0.00     0.004 C 
ENDBRANCH  16  17
ENDBRANCH  15  16
ENDBRANCH  14  15
ENDBRANCH  13  14
ENDBRANCH  12  13
ENDBRANCH  10  11
ENDBRANCH   1  10
TORSDOF 13
ENDMDL
MODEL 3
REMARK VINA RESULT:    -5.516      0.666      2.563
REMARK INTER + INTRA:         -11.021
REMARK INTER:                  -9.656
REMARK INTRA:                  -1.366
REMARK UNBOUND:                -1.313
REMARK SMILES CCCCCCC=CCCCCCCCC(=O)[O-]
REMARK SMILES IDX 10 1 11 2 12 3 13 4 14 5 15 6 16 7 17 8 18 9 9 10 8 11 7 12
REMARK SMILES IDX 6 13 5 14 4 15 3 16 2 17 1 18
REMARK H PARENT
REMARK Flexibility Score: inf
ROOT
ATOM      1  C   UNL     1      45.634  46.241  44.462  1.00  0.00     0.004 C 
ENDROOT
BRANCH   1   2
ATOM      2  C   UNL     1      44.348  45.478  44.109  1.00  0.00     0.000 C 
BRANCH   2   3
ATOM      3  C   UNL     1      44.084  45.431  42.596  1.00  0.00     0.000 C 
BRANCH   3   4
ATOM      4  C   UNL     1      42.586  45.399  42.257  1.00  0.00     0.000 C 
BRANCH   4   5
ATOM      5  C   UNL     1      42.367  45.319  40.741  1.00  0.00     0.006 C 
BRANCH   5   6
ATOM      6  C   UNL     1      43.675  44.992  40.013  1.00  0.00     0.053 C 
BRANCH   6   7
ATOM      7  C   UNL     1      43.396  44.527  38.619  1.00  0.00     0.041 C 
ATOM      8  O   UNL     1      44.262  43.866  37.987  1.00  0.00    -0.550 OA
ATOM      9  O   UNL     1      42.162  44.779  38.034  1.00  0.00    -0.550 OA
ENDBRANCH   6   7
ENDBRANCH   5   6
ENDBRANCH   4   5
ENDBRANCH   3   4
ENDBRANCH   2   3
ENDBRANCH   1   2
BRANCH   1  10
ATOM     10  C   UNL     1      46.336  45.602  45.666  1.00  0.00     0.027 C 
BRANCH  10  11
ATOM     11  C   UNL     1      45.930  44.157  45.814  1.00  0.00    -0.031 C 
ATOM     12  C   UNL     1      46.514  43.281  46.652  1.00  0.00    -0.031 C 
BRANCH  12  13
ATOM     13  C   UNL     1      47.726  43.579  47.502  1.00  0.00     0.027 C 
BRANCH  13  14
ATOM     14  C   UNL     1      47.343  44.115  48.892  1.00  0.00     0.004 C 
BRANCH  14  15
ATOM     15  C   UNL     1      45.865  43.902  49.266  1.00  0.00     0.000 C 
BRANCH  15  16
ATOM     16  C   UNL     1      45.112  45.223  49.497  1.00  0.00    -0.000 C 
BRANCH  16  17
ATOM     17  C   UNL     1      43.813  45.311  48.682  1.00  0.00    -0.003 C 
ATOM     18  C   UNL     1      43.700  46.614  47.890  1.00  0.00     0.004 C 
ENDBRANCH  16  17
ENDBRANCH  15  16
ENDBRANCH  14  15
ENDBRANCH  13  14
ENDBRANCH  12  13
ENDBRANCH  10  11
ENDBRANCH   1  10
TORSDOF 13
ENDMDL
MODEL 4
REMARK VINA RESULT:    -5.511      3.457      7.587
REMARK INTER + INTRA:         -11.013
REMARK INTER:                  -9.777
REMARK INTRA:                  -1.235
REMARK UNBOUND:                -1.313
REMARK SMILES CCCCCCC=CCCCCCCCC(=O)[O-]
REMARK SMILES IDX 10 1 11 2 12 3 13 4 14 5 15 6 16 7 17 8 18 9 9 10 8 11 7 12
REMARK SMILES IDX 6 13 5 14 4 15 3 16 2 17 1 18
REMARK H PARENT
REMARK Flexibility Score: inf
ROOT
ATOM      1  C   UNL     1      43.460  45.869  47.163  1.00  0.00     0.004 C 
ENDROOT
BRANCH   1   2
ATOM      2  C   UNL     1      43.914  45.860  48.631  1.00  0.00     0.000 C 
BRANCH   2   3
ATOM      3  C   UNL     1      44.757  44.625  48.982  1.00  0.00     0.000 C 
BRANCH   3   4
ATOM      4  C   UNL     1      46.256  44.944  49.095  1.00  0.00     0.000 C 
BRANCH   4   5
ATOM      5  C   UNL     1      47.105  43.803  48.520  1.00  0.00     0.006 C 
BRANCH   5   6
ATOM      6  C   UNL     1      46.517  43.290  47.202  1.00  0.00     0.053 C 
BRANCH   6   7
ATOM      7  C   UNL     1      47.229  42.051  46.759  1.00  0.00     0.041 C 
ATOM      8  O   UNL     1      46.637  41.204  46.039  1.00  0.00    -0.550 OA
ATOM      9  O   UNL     1      48.562  41.854  47.097  1.00  0.00    -0.550 OA
ENDBRANCH   6   7
ENDBRANCH   5   6
ENDBRANCH   4   5
ENDBRANCH   3   4
ENDBRANCH   2   3
ENDBRANCH   1   2
BRANCH   1  10
ATOM     10  C   UNL     1      44.099  47.034  46.399  1.00  0.00     0.027 C 
BRANCH  10  11
ATOM     11  C   UNL     1      45.415  46.615  45.793  1.00  0.00    -0.031 C 
ATOM     12  C   UNL     1      45.546  45.986  44.610  1.00  0.00    -0.031 C 
BRANCH  12  13
ATOM     13  C   UNL     1      44.396  45.517  43.752  1.00  0.00     0.027 C 
BRANCH  13  14
ATOM     14  C   UNL     1      44.875  44.838  42.458  1.00  0.00     0.004 C 
BRANCH  14  15
ATOM     15  C   UNL     1      44.046  45.198  41.212  1.00  0.00     0.000 C 
BRANCH  15  16
ATOM     16  C   UNL     1      42.582  45.532  41.547  1.00  0.00    -0.000 C 
BRANCH  16  17
ATOM     17  C   UNL     1      41.708  45.670  40.291  1.00  0.00    -0.003 C 
ATOM     18  C   UNL     1      40.959  44.381  39.948  1.00  0.00     0.004 C 
ENDBRANCH  16  17
ENDBRANCH  15  16
ENDBRANCH  14  15
ENDBRANCH  13  14
ENDBRANCH  12  13
ENDBRANCH  10  11
ENDBRANCH   1  10
TORSDOF 13
ENDMDL
MODEL 5
REMARK VINA RESULT:    -5.492      3.348      7.080
REMARK INTER + INTRA:         -10.978
REMARK INTER:                  -9.509
REMARK INTRA:                  -1.470
REMARK UNBOUND:                -1.313
REMARK SMILES CCCCCCC=CCCCCCCCC(=O)[O-]
REMARK SMILES IDX 10 1 11 2 12 3 13 4 14 5 15 6 16 7 17 8 18 9 9 10 8 11 7 12
REMARK SMILES IDX 6 13 5 14 4 15 3 16 2 17 1 18
REMARK H PARENT
REMARK Flexibility Score: inf
ROOT
ATOM      1  C   UNL     1      43.849  45.968  48.542  1.00  0.00     0.004 C 
ENDROOT
BRANCH   1   2
ATOM      2  C   UNL     1      44.488  44.581  48.371  1.00  0.00     0.000 C 
BRANCH   2   3
ATOM      3  C   UNL     1      45.377  44.188  49.560  1.00  0.00     0.000 C 
BRANCH   3   4
ATOM      4  C   UNL     1      46.809  43.828  49.137  1.00  0.00     0.000 C 
BRANCH   4   5
ATOM      5  C   UNL     1      46.888  43.577  47.626  1.00  0.00     0.006 C 
BRANCH   5   6
ATOM      6  C   UNL     1      47.938  42.511  47.300  1.00  0.00     0.053 C 
BRANCH   6   7
ATOM      7  C   UNL     1      47.301  41.335  46.630  1.00  0.00     0.041 C 
ATOM      8  O   UNL     1      47.776  40.180  46.791  1.00  0.00    -0.550 OA
ATOM      9  O   UNL     1      46.152  41.506  45.867  1.00  0.00    -0.550 OA
ENDBRANCH   6   7
ENDBRANCH   5   6
ENDBRANCH   4   5
ENDBRANCH   3   4
ENDBRANCH   2   3
ENDBRANCH   1   2
BRANCH   1  10
ATOM     10  C   UNL     1      44.270  46.908  47.407  1.00  0.00     0.027 C 
BRANCH  10  11
ATOM     11  C   UNL     1      45.773  46.979  47.305  1.00  0.00    -0.031 C 
ATOM     12  C   UNL     1      46.464  46.934  46.151  1.00  0.00    -0.031 C 
BRANCH  12  13
ATOM     13  C   UNL     1      45.853  46.707  44.790  1.00  0.00     0.027 C 
BRANCH  13  14
ATOM     14  C   UNL     1      45.382  45.254  44.599  1.00  0.00     0.004 C 
BRANCH  14  15
ATOM     15  C   UNL     1      44.701  44.984  43.245  1.00  0.00     0.000 C 
BRANCH  15  16
ATOM     16  C   UNL     1      43.285  45.580  43.161  1.00  0.00    -0.000 C 
BRANCH  16  17
ATOM     17  C   UNL     1      42.664  45.426  41.764  1.00  0.00    -0.003 C 
ATOM     18  C   UNL     1      43.716  45.267  40.666  1.00  0.00     0.004 C 
ENDBRANCH  16  17
ENDBRANCH  15  16
ENDBRANCH  14  15
ENDBRANCH  13  14
ENDBRANCH  12  13
ENDBRANCH  10  11
ENDBRANCH   1  10
TORSDOF 13
ENDMDL
MODEL 6
REMARK VINA RESULT:    -5.488      1.528      2.644
REMARK INTER + INTRA:         -10.971
REMARK INTER:                  -9.888
REMARK INTRA:                  -1.083
REMARK UNBOUND:                -1.313
REMARK SMILES CCCCCCC=CCCCCCCCC(=O)[O-]
REMARK SMILES IDX 10 1 11 2 12 3 13 4 14 5 15 6 16 7 17 8 18 9 9 10 8 11 7 12
REMARK SMILES IDX 6 13 5 14 4 15 3 16 2 17 1 18
REMARK H PARENT
REMARK Flexibility Score: inf
ROOT
ATOM      1  C   UNL     1      43.995  46.677  45.360  1.00  0.00     0.004 C 
ENDROOT
BRANCH   1   2
ATOM      2  C   UNL     1      45.243  45.916  44.886  1.00  0.00     0.000 C 
BRANCH   2   3
ATOM      3  C   UNL     1      44.946  44.958  43.722  1.00  0.00     0.000 C 
BRANCH   3   4
ATOM      4  C   UNL     1      45.201  45.597  42.349  1.00  0.00     0.000 C 
BRANCH   4   5
ATOM      5  C   UNL     1      44.131  45.171  41.336  1.00  0.00     0.006 C 
BRANCH   5   6
ATOM      6  C   UNL     1      42.725  45.468  41.865  1.00  0.00     0.053 C 
BRANCH   6   7
ATOM      7  C   UNL     1      41.716  45.343  40.767  1.00  0.00     0.041 C 
ATOM      8  O   UNL     1      40.771  44.517  40.866  1.00  0.00    -0.550 OA
ATOM      9  O   UNL     1      41.789  46.174  39.657  1.00  0.00    -0.550 OA
ENDBRANCH   6   7
ENDBRANCH   5   6
ENDBRANCH   4   5
ENDBRANCH   3   4
ENDBRANCH   2   3
ENDBRANCH   1   2
BRANCH   1  10
ATOM     10  C   UNL     1      44.060  46.950  46.866  1.00  0.00     0.027 C 
BRANCH  10  11
ATOM     11  C   UNL     1      43.394  45.840  47.638  1.00  0.00    -0.031 C 
ATOM     12  C   UNL     1      43.888  45.284  48.760  1.00  0.00    -0.031 C 
BRANCH  12  13
ATOM     13  C   UNL     1      45.230  45.617  49.366  1.00  0.00     0.027 C 
BRANCH  13  14
ATOM     14  C   UNL     1      46.396  45.264  48.426  1.00  0.00     0.004 C 
BRANCH  14  15
ATOM     15  C   UNL     1      47.172  43.998  48.830  1.00  0.00     0.000 C 
BRANCH  15  16
ATOM     16  C   UNL     1      47.783  43.263  47.624  1.00  0.00    -0.000 C 
BRANCH  16  17
ATOM     17  C   UNL     1      46.714  42.710  46.669  1.00  0.00    -0.003 C 
ATOM     18  C   UNL     1      47.111  41.369  46.053  1.00  0.00     0.004 C 
ENDBRANCH  16  17
ENDBRANCH  15  16
ENDBRANCH  14  15
ENDBRANCH  13  14
ENDBRANCH  12  13
ENDBRANCH  10  11
ENDBRANCH   1  10
TORSDOF 13
ENDMDL
MODEL 7
REMARK VINA RESULT:    -5.365      3.727      6.890
REMARK INTER + INTRA:         -10.754
REMARK INTER:                  -9.261
REMARK INTRA:                  -1.493
REMARK UNBOUND:                -1.313
REMARK SMILES CCCCCCC=CCCCCCCCC(=O)[O-]
REMARK SMILES IDX 10 1 11 2 12 3 13 4 14 5 15 6 16 7 17 8 18 9 9 10 8 11 7 12
REMARK SMILES IDX 6 13 5 14 4 15 3 16 2 17 1 18
REMARK H PARENT
REMARK Flexibility Score: inf
ROOT
ATOM      1  C   UNL     1      45.485  43.973  48.586  1.00  0.00     0.004 C 
ENDROOT
BRANCH   1   2
ATOM      2  C   UNL     1      46.960  43.922  49.014  1.00  0.00     0.000 C 
BRANCH   2   3
ATOM      3  C   UNL     1      47.906  43.605  47.845  1.00  0.00     0.000 C 
BRANCH   3   4
ATOM      4  C   UNL     1      47.381  42.473  46.949  1.00  0.00     0.000 C 
BRANCH   4   5
ATOM      5  C   UNL     1      48.449  41.391  46.747  1.00  0.00     0.006 C 
BRANCH   5   6
ATOM      6  C   UNL     1      47.807  40.040  46.418  1.00  0.00     0.053 C 
BRANCH   6   7
ATOM      7  C   UNL     1      48.536  39.374  45.294  1.00  0.00     0.041 C 
ATOM      8  O   UNL     1      48.515  38.120  45.181  1.00  0.00    -0.550 OA
ATOM      9  O   UNL     1      49.196  40.140  44.341  1.00  0.00    -0.550 OA
ENDBRANCH   6   7
ENDBRANCH   5   6
ENDBRANCH   4   5
ENDBRANCH   3   4
ENDBRANCH   2   3
ENDBRANCH   1   2
BRANCH   1  10
ATOM     10  C   UNL     1      44.752  45.123  49.284  1.00  0.00     0.027 C 
BRANCH  10  11
ATOM     11  C   UNL     1      45.709  46.242  49.613  1.00  0.00    -0.031 C 
ATOM     12  C   UNL     1      45.986  47.275  48.797  1.00  0.00    -0.031 C 
BRANCH  12  13
ATOM     13  C   UNL     1      45.460  47.427  47.390  1.00  0.00     0.027 C 
BRANCH  13  14
ATOM     14  C   UNL     1      46.493  46.996  46.334  1.00  0.00     0.004 C 
BRANCH  14  15
ATOM     15  C   UNL     1      46.071  45.772  45.501  1.00  0.00     0.000 C 
BRANCH  15  16
ATOM     16  C   UNL     1      44.735  45.982  44.767  1.00  0.00    -0.000 C 
BRANCH  16  17
ATOM     17  C   UNL     1      44.748  45.404  43.344  1.00  0.00    -0.003 C 
ATOM     18  C   UNL     1      43.360  45.380  42.704  1.00  0.00     0.004 C 
ENDBRANCH  16  17
ENDBRANCH  15  16
ENDBRANCH  14  15
ENDBRANCH  13  14
ENDBRANCH  12  13
ENDBRANCH  10  11
ENDBRANCH   1  10
TORSDOF 13
ENDMDL
MODEL 8
REMARK VINA RESULT:    -5.330      3.138      5.492
REMARK INTER + INTRA:         -10.693
REMARK INTER:                  -8.938
REMARK INTRA:                  -1.755
REMARK UNBOUND:                -1.313
REMARK SMILES CCCCCCC=CCCCCCCCC(=O)[O-]
REMARK SMILES IDX 10 1 11 2 12 3 13 4 14 5 15 6 16 7 17 8 18 9 9 10 8 11 7 12
REMARK SMILES IDX 6 13 5 14 4 15 3 16 2 17 1 18
REMARK H PARENT
REMARK Flexibility Score: inf
ROOT
ATOM      1  C   UNL     1      45.146  45.510  49.938  1.00  0.00     0.004 C 
ENDROOT
BRANCH   1   2
ATOM      2  C   UNL     1      46.274  46.484  49.567  1.00  0.00     0.000 C 
BRANCH   2   3
ATOM      3  C   UNL     1      45.917  47.375  48.367  1.00  0.00     0.000 C 
BRANCH   3   4
ATOM      4  C   UNL     1      44.537  47.049  47.778  1.00  0.00     0.000 C 
BRANCH   4   5
ATOM      5  C   UNL     1      44.488  47.375  46.280  1.00  0.00     0.006 C 
BRANCH   5   6
ATOM      6  C   UNL     1      45.317  46.372  45.472  1.00  0.00     0.053 C 
BRANCH   6   7
ATOM      7  C   UNL     1      44.459  45.675  44.464  1.00  0.00     0.041 C 
ATOM      8  O   UNL     1      44.969  44.850  43.661  1.00  0.00    -0.550 OA
ATOM      9  O   UNL     1      43.088  45.899  44.442  1.00  0.00    -0.550 OA
ENDBRANCH   6   7
ENDBRANCH   5   6
ENDBRANCH   4   5
ENDBRANCH   3   4
ENDBRANCH   2   3
ENDBRANCH   1   2
BRANCH   1  10
ATOM     10  C   UNL     1      45.565  44.060  49.671  1.00  0.00     0.027 C 
BRANCH  10  11
ATOM     11  C   UNL     1      46.928  44.009  49.028  1.00  0.00    -0.031 C 
ATOM     12  C   UNL     1      47.157  43.662  47.748  1.00  0.00    -0.031 C 
BRANCH  12  13
ATOM     13  C   UNL     1      46.101  43.176  46.785  1.00  0.00     0.027 C 
BRANCH  13  14
ATOM     14  C   UNL     1      46.615  42.040  45.884  1.00  0.00     0.004 C 
BRANCH  14  15
ATOM     15  C   UNL     1      47.576  41.063  46.586  1.00  0.00     0.000 C 
BRANCH  15  16
ATOM     16  C   UNL     1      48.781  40.679  45.709  1.00  0.00    -0.000 C 
BRANCH  16  17
ATOM     17  C   UNL     1      49.924  41.702  45.800  1.00  0.00    -0.003 C 
ATOM     18  C   UNL     1      50.360  41.972  47.240  1.00  0.00     0.004 C 
ENDBRANCH  16  17
ENDBRANCH  15  16
ENDBRANCH  14  15
ENDBRANCH  13  14
ENDBRANCH  12  13
ENDBRANCH  10  11
ENDBRANCH   1  10
TORSDOF 13
ENDMDL
MODEL 9
REMARK VINA RESULT:    -5.303      9.519     11.135
REMARK INTER + INTRA:         -10.646
REMARK INTER:                  -8.500
REMARK INTRA:                  -2.147
REMARK UNBOUND:                -1.313
REMARK SMILES CCCCCCC=CCCCCCCCC(=O)[O-]
REMARK SMILES IDX 10 1 11 2 12 3 13 4 14 5 15 6 16 7 17 8 18 9 9 10 8 11 7 12
REMARK SMILES IDX 6 13 5 14 4 15 3 16 2 17 1 18
REMARK H PARENT
REMARK Flexibility Score: inf
ROOT
ATOM      1  C   UNL     1      49.731  45.272  34.550  1.00  0.00     0.004 C 
ENDROOT
BRANCH   1   2
ATOM      2  C   UNL     1      49.393  44.135  35.527  1.00  0.00     0.000 C 
BRANCH   2   3
ATOM      3  C   UNL     1      48.032  43.487  35.233  1.00  0.00     0.000 C 
BRANCH   3   4
ATOM      4  C   UNL     1      48.163  42.113  34.559  1.00  0.00     0.000 C 
BRANCH   4   5
ATOM      5  C   UNL     1      47.659  42.160  33.111  1.00  0.00     0.006 C 
BRANCH   5   6
ATOM      6  C   UNL     1      48.776  42.582  32.153  1.00  0.00     0.053 C 
BRANCH   6   7
ATOM      7  C   UNL     1      48.371  43.795  31.377  1.00  0.00     0.041 C 
ATOM      8  O   UNL     1      47.411  44.509  31.773  1.00  0.00    -0.550 OA
ATOM      9  O   UNL     1      49.082  44.167  30.244  1.00  0.00    -0.550 OA
ENDBRANCH   6   7
ENDBRANCH   5   6
ENDBRANCH   4   5
ENDBRANCH   3   4
ENDBRANCH   2   3
ENDBRANCH   1   2
BRANCH   1  10
ATOM     10  C   UNL     1      48.658  46.365  34.590  1.00  0.00     0.027 C 
BRANCH  10  11
ATOM     11  C   UNL     1      49.283  47.717  34.826  1.00  0.00    -0.031 C 
ATOM     12  C   UNL     1      49.451  48.280  36.036  1.00  0.00    -0.031 C 
BRANCH  12  13
ATOM     13  C   UNL     1      48.955  47.694  37.335  1.00  0.00     0.027 C 
BRANCH  13  14
ATOM     14  C   UNL     1      50.100  47.430  38.329  1.00  0.00     0.004 C 
BRANCH  14  15
ATOM     15  C   UNL     1      50.595  45.972  38.350  1.00  0.00     0.000 C 
BRANCH  15  16
ATOM     16  C   UNL     1      52.123  45.864  38.491  1.00  0.00    -0.000 C 
BRANCH  16  17
ATOM     17  C   UNL     1      52.789  45.276  37.238  1.00  0.00    -0.003 C 
ATOM     18  C   UNL     1      52.841  46.269  36.076  1.00  0.00     0.004 C 
ENDBRANCH  16  17
ENDBRANCH  15  16
ENDBRANCH  14  15
ENDBRANCH  13  14
ENDBRANCH  12  13
ENDBRANCH  10  11
ENDBRANCH   1  10
TORSDOF 13
ENDMDL
