MODEL 1
REMARK VINA RESULT:    -3.421      0.000      0.000
REMARK INTER + INTRA:          -5.703
REMARK INTER:                  -4.922
REMARK INTRA:                  -0.781
REMARK UNBOUND:                -0.781
REMARK SMILES CCCCCCCCCO
REMARK SMILES IDX 6 1 5 2 4 3 3 4 2 5 1 6 7 7 8 8 9 9 10 10
REMARK H PARENT 10 11
REMARK Flexibility Score: inf
ROOT
ATOM      1  C   UNL     1     143.009 127.822 117.620  1.00  0.00     0.000 C 
ENDROOT
BRANCH   1   2
ATOM      2  C   UNL     1     142.230 127.569 116.321  1.00  0.00     0.000 C 
BRANCH   2   3
ATOM      3  C   UNL     1     143.173 127.535 115.112  1.00  0.00    -0.000 C 
BRANCH   3   4
ATOM      4  C   UNL     1     143.734 128.933 114.812  1.00  0.00    -0.000 C 
BRANCH   4   5
ATOM      5  C   UNL     1     145.194 128.893 114.332  1.00  0.00    -0.003 C 
ATOM      6  C   UNL     1     145.737 127.470 114.207  1.00  0.00     0.004 C 
ENDBRANCH   4   5
ENDBRANCH   3   4
ENDBRANCH   2   3
ENDBRANCH   1   2
BRANCH   1   7
ATOM      7  C   UNL     1     144.222 126.888 117.784  1.00  0.00     0.002 C 
BRANCH   7   8
ATOM      8  C   UNL     1     145.532 127.590 118.183  1.00  0.00     0.028 C 
BRANCH   8   9
ATOM      9  C   UNL     1     145.449 129.118 118.076  1.00  0.00     0.156 C 
BRANCH   9  10
ATOM     10  O   UNL     1     146.111 129.714 119.159  1.00  0.00    -0.396 OA
ATOM     11  H   UNL     1     146.163 129.026 119.875  1.00  0.00     0.210 HD
ENDBRANCH   9  10
ENDBRANCH   8   9
ENDBRANCH   7   8
ENDBRANCH   1   7
TORSDOF 8
ENDMDL
MODEL 2
REMARK VINA RESULT:    -3.332      2.248      3.919
REMARK INTER + INTRA:          -5.574
REMARK INTER:                  -4.965
REMARK INTRA:                  -0.608
REMARK UNBOUND:                -0.781
REMARK SMILES CCCCCCCCCO
REMARK SMILES IDX 6 1 5 2 4 3 3 4 2 5 1 6 7 7 8 8 9 9 10 10
REMARK H PARENT 10 11
REMARK Flexibility Score: inf
ROOT
ATOM      1  C   UNL     1     145.432 129.047 114.376  1.00  0.00     0.000 C 
ENDROOT
BRANCH   1   2
ATOM      2  C   UNL     1     144.926 127.679 114.854  1.00  0.00     0.000 C 
BRANCH   2   3
ATOM      3  C   UNL     1     146.053 126.876 115.515  1.00  0.00    -0.000 C 
BRANCH   3   4
ATOM      4  C   UNL     1     145.903 126.875 117.044  1.00  0.00    -0.000 C 
BRANCH   4   5
ATOM      5  C   UNL     1     144.454 127.117 117.496  1.00  0.00    -0.003 C 
ATOM      6  C   UNL     1     144.351 128.141 118.627  1.00  0.00     0.004 C 
ENDBRANCH   4   5
ENDBRANCH   3   4
ENDBRANCH   2   3
ENDBRANCH   1   2
BRANCH   1   7
ATOM      7  C   UNL     1     145.136 130.181 115.374  1.00  0.00     0.002 C 
BRANCH   7   8
ATOM      8  C   UNL     1     146.371 130.969 115.846  1.00  0.00     0.028 C 
BRANCH   8   9
ATOM      9  C   UNL     1     146.136 132.484 115.888  1.00  0.00     0.156 C 
BRANCH   9  10
ATOM     10  O   UNL     1     146.783 133.042 116.998  1.00  0.00    -0.396 OA
ATOM     11  H   UNL     1     147.427 133.712 116.645  1.00  0.00     0.210 HD
ENDBRANCH   9  10
ENDBRANCH   8   9
ENDBRANCH   7   8
ENDBRANCH   1   7
TORSDOF 8
ENDMDL
MODEL 3
REMARK VINA RESULT:    -3.297      2.194      3.764
REMARK INTER + INTRA:          -5.524
REMARK INTER:                  -5.142
REMARK INTRA:                  -0.382
REMARK UNBOUND:                -0.781
REMARK SMILES CCCCCCCCCO
REMARK SMILES IDX 6 1 5 2 4 3 3 4 2 5 1 6 7 7 8 8 9 9 10 10
REMARK H PARENT 10 11
REMARK Flexibility Score: inf
ROOT
ATOM      1  C   UNL     1     145.560 129.256 114.331  1.00  0.00     0.000 C 
ENDROOT
BRANCH   1   2
ATOM      2  C   UNL     1     145.516 127.722 114.360  1.00  0.00     0.000 C 
BRANCH   2   3
ATOM      3  C   UNL     1     144.558 127.219 115.446  1.00  0.00    -0.000 C 
BRANCH   3   4
ATOM      4  C   UNL     1     143.095 127.447 115.037  1.00  0.00    -0.000 C 
BRANCH   4   5
ATOM      5  C   UNL     1     142.136 127.433 116.239  1.00  0.00    -0.003 C 
ATOM      6  C   UNL     1     142.870 127.416 117.580  1.00  0.00     0.004 C 
ENDBRANCH   4   5
ENDBRANCH   3   4
ENDBRANCH   2   3
ENDBRANCH   1   2
BRANCH   1   7
ATOM      7  C   UNL     1     145.801 129.876 115.720  1.00  0.00     0.002 C 
BRANCH   7   8
ATOM      8  C   UNL     1     146.797 131.050 115.742  1.00  0.00     0.028 C 
BRANCH   8   9
ATOM      9  C   UNL     1     146.121 132.406 115.976  1.00  0.00     0.156 C 
BRANCH   9  10
ATOM     10  O   UNL     1     146.833 133.142 116.933  1.00  0.00    -0.396 OA
ATOM     11  H   UNL     1     147.690 133.409 116.507  1.00  0.00     0.210 HD
ENDBRANCH   9  10
ENDBRANCH   8   9
ENDBRANCH   7   8
ENDBRANCH   1   7
TORSDOF 8
ENDMDL
MODEL 4
REMARK VINA RESULT:    -3.288      1.372      2.150
REMARK INTER + INTRA:          -5.511
REMARK INTER:                  -4.939
REMARK INTRA:                  -0.572
REMARK UNBOUND:                -0.781
REMARK SMILES CCCCCCCCCO
REMARK SMILES IDX 6 1 5 2 4 3 3 4 2 5 1 6 7 7 8 8 9 9 10 10
REMARK H PARENT 10 11
REMARK Flexibility Score: inf
ROOT
ATOM      1  C   UNL     1     144.065 127.275 116.264  1.00  0.00     0.000 C 
ENDROOT
BRANCH   1   2
ATOM      2  C   UNL     1     145.428 127.006 115.608  1.00  0.00     0.000 C 
BRANCH   2   3
ATOM      3  C   UNL     1     145.566 127.776 114.290  1.00  0.00    -0.000 C 
BRANCH   3   4
ATOM      4  C   UNL     1     145.137 129.241 114.461  1.00  0.00    -0.000 C 
BRANCH   4   5
ATOM      5  C   UNL     1     146.065 130.022 115.406  1.00  0.00    -0.003 C 
ATOM      6  C   UNL     1     145.374 131.220 116.057  1.00  0.00     0.004 C 
ENDBRANCH   4   5
ENDBRANCH   3   4
ENDBRANCH   2   3
ENDBRANCH   1   2
BRANCH   1   7
ATOM      7  C   UNL     1     144.100 127.146 117.797  1.00  0.00     0.002 C 
BRANCH   7   8
ATOM      8  C   UNL     1     145.443 127.520 118.449  1.00  0.00     0.028 C 
BRANCH   8   9
ATOM      9  C   UNL     1     145.310 128.625 119.505  1.00  0.00     0.156 C 
BRANCH   9  10
ATOM     10  O   UNL     1     146.107 129.724 119.156  1.00  0.00    -0.396 OA
ATOM     11  H   UNL     1     145.501 130.509 119.101  1.00  0.00     0.210 HD
ENDBRANCH   9  10
ENDBRANCH   8   9
ENDBRANCH   7   8
ENDBRANCH   1   7
TORSDOF 8
ENDMDL
MODEL 5
REMARK VINA RESULT:    -3.276      1.280      3.113
REMARK INTER + INTRA:          -5.493
REMARK INTER:                  -4.745
REMARK INTRA:                  -0.749
REMARK UNBOUND:                -0.781
REMARK SMILES CCCCCCCCCO
REMARK SMILES IDX 6 1 5 2 4 3 3 4 2 5 1 6 7 7 8 8 9 9 10 10
REMARK H PARENT 10 11
REMARK Flexibility Score: inf
ROOT
ATOM      1  C   UNL     1     145.169 129.619 114.722  1.00  0.00     0.000 C 
ENDROOT
BRANCH   1   2
ATOM      2  C   UNL     1     145.573 128.183 114.358  1.00  0.00     0.000 C 
BRANCH   2   3
ATOM      3  C   UNL     1     144.704 127.161 115.100  1.00  0.00    -0.000 C 
BRANCH   3   4
ATOM      4  C   UNL     1     143.218 127.541 115.018  1.00  0.00    -0.000 C 
BRANCH   4   5
ATOM      5  C   UNL     1     142.512 127.462 116.382  1.00  0.00    -0.003 C 
ATOM      6  C   UNL     1     143.485 127.241 117.539  1.00  0.00     0.004 C 
ENDBRANCH   4   5
ENDBRANCH   3   4
ENDBRANCH   2   3
ENDBRANCH   1   2
BRANCH   1   7
ATOM      7  C   UNL     1     145.691 130.059 116.101  1.00  0.00     0.002 C 
BRANCH   7   8
ATOM      8  C   UNL     1     144.678 130.839 116.959  1.00  0.00     0.028 C 
BRANCH   8   9
ATOM      9  C   UNL     1     144.865 130.610 118.464  1.00  0.00     0.156 C 
BRANCH   9  10
ATOM     10  O   UNL     1     146.073 129.940 118.704  1.00  0.00    -0.396 OA
ATOM     11  H   UNL     1     146.572 130.481 119.371  1.00  0.00     0.210 HD
ENDBRANCH   9  10
ENDBRANCH   8   9
ENDBRANCH   7   8
ENDBRANCH   1   7
TORSDOF 8
ENDMDL
MODEL 6
REMARK VINA RESULT:    -3.188      2.833      3.845
REMARK INTER + INTRA:          -5.367
REMARK INTER:                  -4.860
REMARK INTRA:                  -0.507
REMARK UNBOUND:                -0.781
REMARK SMILES CCCCCCCCCO
REMARK SMILES IDX 6 1 5 2 4 3 3 4 2 5 1 6 7 7 8 8 9 9 10 10
REMARK H PARENT 10 11
REMARK Flexibility Score: inf
ROOT
ATOM      1  C   UNL     1     144.436 130.783 115.827  1.00  0.00     0.000 C 
ENDROOT
BRANCH   1   2
ATOM      2  C   UNL     1     144.132 129.582 114.919  1.00  0.00     0.000 C 
BRANCH   2   3
ATOM      3  C   UNL     1     145.397 129.105 114.195  1.00  0.00    -0.000 C 
BRANCH   3   4
ATOM      4  C   UNL     1     145.673 127.623 114.489  1.00  0.00    -0.000 C 
BRANCH   4   5
ATOM      5  C   UNL     1     144.958 127.129 115.757  1.00  0.00    -0.003 C 
ATOM      6  C   UNL     1     145.915 126.914 116.929  1.00  0.00     0.004 C 
ENDBRANCH   4   5
ENDBRANCH   3   4
ENDBRANCH   2   3
ENDBRANCH   1   2
BRANCH   1   7
ATOM      7  C   UNL     1     145.942 130.975 116.084  1.00  0.00     0.002 C 
BRANCH   7   8
ATOM      8  C   UNL     1     146.465 132.401 115.838  1.00  0.00     0.028 C 
BRANCH   8   9
ATOM      9  C   UNL     1     145.963 133.412 116.876  1.00  0.00     0.156 C 
BRANCH   9  10
ATOM     10  O   UNL     1     147.002 134.273 117.254  1.00  0.00    -0.396 OA
ATOM     11  H   UNL     1     147.184 134.096 118.215  1.00  0.00     0.210 HD
ENDBRANCH   9  10
ENDBRANCH   8   9
ENDBRANCH   7   8
ENDBRANCH   1   7
TORSDOF 8
ENDMDL
MODEL 7
REMARK VINA RESULT:    -3.082     14.708     16.406
REMARK INTER + INTRA:          -5.214
REMARK INTER:                  -4.614
REMARK INTRA:                  -0.600
REMARK UNBOUND:                -0.781
REMARK SMILES CCCCCCCCCO
REMARK SMILES IDX 6 1 5 2 4 3 3 4 2 5 1 6 7 7 8 8 9 9 10 10
REMARK H PARENT 10 11
REMARK Flexibility Score: inf
ROOT
ATOM      1  C   UNL     1     129.504 132.244 114.372  1.00  0.00     0.000 C 
ENDROOT
BRANCH   1   2
ATOM      2  C   UNL     1     128.208 131.650 113.801  1.00  0.00     0.000 C 
BRANCH   2   3
ATOM      3  C   UNL     1     127.952 130.246 114.363  1.00  0.00    -0.000 C 
BRANCH   3   4
ATOM      4  C   UNL     1     128.938 129.919 115.495  1.00  0.00    -0.000 C 
BRANCH   4   5
ATOM      5  C   UNL     1     129.706 128.611 115.249  1.00  0.00    -0.003 C 
ATOM      6  C   UNL     1     131.178 128.844 114.908  1.00  0.00     0.004 C 
ENDBRANCH   4   5
ENDBRANCH   3   4
ENDBRANCH   2   3
ENDBRANCH   1   2
BRANCH   1   7
ATOM      7  C   UNL     1     129.295 133.621 115.029  1.00  0.00     0.002 C 
BRANCH   7   8
ATOM      8  C   UNL     1     127.837 133.949 115.397  1.00  0.00     0.028 C 
BRANCH   8   9
ATOM      9  C   UNL     1     127.594 133.985 116.911  1.00  0.00     0.156 C 
BRANCH   9  10
ATOM     10  O   UNL     1     127.364 132.689 117.393  1.00  0.00    -0.396 OA
ATOM     11  H   UNL     1     128.193 132.409 117.864  1.00  0.00     0.210 HD
ENDBRANCH   9  10
ENDBRANCH   8   9
ENDBRANCH   7   8
ENDBRANCH   1   7
TORSDOF 8
ENDMDL
MODEL 8
REMARK VINA RESULT:    -3.058      1.414      3.050
REMARK INTER + INTRA:          -5.180
REMARK INTER:                  -4.737
REMARK INTRA:                  -0.443
REMARK UNBOUND:                -0.781
REMARK SMILES CCCCCCCCCO
REMARK SMILES IDX 6 1 5 2 4 3 3 4 2 5 1 6 7 7 8 8 9 9 10 10
REMARK H PARENT 10 11
REMARK Flexibility Score: inf
ROOT
ATOM      1  C   UNL     1     145.602 128.115 114.882  1.00  0.00     0.000 C 
ENDROOT
BRANCH   1   2
ATOM      2  C   UNL     1     144.332 127.270 114.705  1.00  0.00     0.000 C 
BRANCH   2   3
ATOM      3  C   UNL     1     143.217 127.749 115.642  1.00  0.00    -0.000 C 
BRANCH   3   4
ATOM      4  C   UNL     1     141.833 127.471 115.036  1.00  0.00    -0.000 C 
BRANCH   4   5
ATOM      5  C   UNL     1     140.952 128.729 114.975  1.00  0.00    -0.003 C 
ATOM      6  C   UNL     1     141.706 129.956 114.463  1.00  0.00     0.004 C 
ENDBRANCH   4   5
ENDBRANCH   3   4
ENDBRANCH   2   3
ENDBRANCH   1   2
BRANCH   1   7
ATOM      7  C   UNL     1     145.302 129.584 115.233  1.00  0.00     0.002 C 
BRANCH   7   8
ATOM      8  C   UNL     1     145.992 130.099 116.509  1.00  0.00     0.028 C 
BRANCH   8   9
ATOM      9  C   UNL     1     145.554 129.348 117.772  1.00  0.00     0.156 C 
BRANCH   9  10
ATOM     10  O   UNL     1     146.023 130.011 118.914  1.00  0.00    -0.396 OA
ATOM     11  H   UNL     1     145.431 129.739 119.665  1.00  0.00     0.210 HD
ENDBRANCH   9  10
ENDBRANCH   8   9
ENDBRANCH   7   8
ENDBRANCH   1   7
TORSDOF 8
ENDMDL
