MODEL 1
REMARK VINA RESULT:    -4.772      0.000      0.000
REMARK INTER + INTRA:          -7.807
REMARK INTER:                  -7.004
REMARK INTRA:                  -0.803
REMARK UNBOUND:                -0.803
REMARK SMILES O=C([O-])CCCCCCCC(=O)[O-]
REMARK SMILES IDX 7 1 6 2 5 3 4 4 2 5 1 6 3 7 8 8 9 9 10 10 11 11 12 12 13 13
REMARK H PARENT
REMARK Flexibility Score: inf
ROOT
ATOM      1  C   UNL     1      16.261  21.512  11.380  1.00  0.00     0.000 C 
ENDROOT
BRANCH   1   2
ATOM      2  C   UNL     1      15.256  21.192  12.501  1.00  0.00     0.000 C 
BRANCH   2   3
ATOM      3  C   UNL     1      15.327  22.199  13.660  1.00  0.00     0.006 C 
BRANCH   3   4
ATOM      4  C   UNL     1      14.231  21.968  14.709  1.00  0.00     0.053 C 
BRANCH   4   5
ATOM      5  C   UNL     1      14.829  21.876  16.077  1.00  0.00     0.041 C 
ATOM      6  O   UNL     1      14.564  20.893  16.820  1.00  0.00    -0.550 OA
ATOM      7  O   UNL     1      15.640  22.898  16.553  1.00  0.00    -0.550 OA
ENDBRANCH   4   5
ENDBRANCH   3   4
ENDBRANCH   2   3
ENDBRANCH   1   2
BRANCH   1   8
ATOM      8  C   UNL     1      17.673  20.986  11.685  1.00  0.00     0.000 C 
BRANCH   8   9
ATOM      9  C   UNL     1      17.655  19.617  12.388  1.00  0.00     0.006 C 
BRANCH   9  10
ATOM     10  C   UNL     1      18.519  19.606  13.656  1.00  0.00     0.053 C 
BRANCH  10  11
ATOM     11  C   UNL     1      17.685  19.636  14.900  1.00  0.00     0.041 C 
ATOM     12  O   UNL     1      18.024  20.362  15.872  1.00  0.00    -0.550 OA
ATOM     13  O   UNL     1      16.518  18.886  14.976  1.00  0.00    -0.550 OA
ENDBRANCH  10  11
ENDBRANCH   9  10
ENDBRANCH   8   9
ENDBRANCH   1   8
TORSDOF 8
ENDMDL
MODEL 2
REMARK VINA RESULT:    -4.650     14.209     16.010
REMARK INTER + INTRA:          -7.628
REMARK INTER:                  -6.866
REMARK INTRA:                  -0.762
REMARK UNBOUND:                -0.803
REMARK SMILES O=C([O-])CCCCCCCC(=O)[O-]
REMARK SMILES IDX 7 1 6 2 5 3 4 4 2 5 1 6 3 7 8 8 9 9 10 10 11 11 12 12 13 13
REMARK H PARENT
REMARK Flexibility Score: inf
ROOT
ATOM      1  C   UNL     1      28.335  17.360   5.745  1.00  0.00     0.000 C 
ENDROOT
BRANCH   1   2
ATOM      2  C   UNL     1      27.541  18.130   6.814  1.00  0.00     0.000 C 
BRANCH   2   3
ATOM      3  C   UNL     1      28.212  19.457   7.204  1.00  0.00     0.006 C 
BRANCH   3   4
ATOM      4  C   UNL     1      28.590  19.512   8.690  1.00  0.00     0.053 C 
BRANCH   4   5
ATOM      5  C   UNL     1      30.066  19.703   8.846  1.00  0.00     0.041 C 
ATOM      6  O   UNL     1      30.719  20.331   7.971  1.00  0.00    -0.550 OA
ATOM      7  O   UNL     1      30.728  19.145   9.932  1.00  0.00    -0.550 OA
ENDBRANCH   4   5
ENDBRANCH   3   4
ENDBRANCH   2   3
ENDBRANCH   1   2
BRANCH   1   8
ATOM      8  C   UNL     1      29.819  17.759   5.710  1.00  0.00     0.000 C 
BRANCH   8   9
ATOM      9  C   UNL     1      30.704  16.818   6.545  1.00  0.00     0.006 C 
BRANCH   9  10
ATOM     10  C   UNL     1      32.199  17.111   6.359  1.00  0.00     0.053 C 
BRANCH  10  11
ATOM     11  C   UNL     1      32.861  17.482   7.651  1.00  0.00     0.041 C 
ATOM     12  O   UNL     1      32.836  16.686   8.626  1.00  0.00    -0.550 OA
ATOM     13  O   UNL     1      33.531  18.693   7.768  1.00  0.00    -0.550 OA
ENDBRANCH  10  11
ENDBRANCH   9  10
ENDBRANCH   8   9
ENDBRANCH   1   8
TORSDOF 8
ENDMDL
MODEL 3
REMARK VINA RESULT:    -4.642      0.303      3.769
REMARK INTER + INTRA:          -7.617
REMARK INTER:                  -6.857
REMARK INTRA:                  -0.759
REMARK UNBOUND:                -0.803
REMARK SMILES O=C([O-])CCCCCCCC(=O)[O-]
REMARK SMILES IDX 7 1 6 2 5 3 4 4 2 5 1 6 3 7 8 8 9 9 10 10 11 11 12 12 13 13
REMARK H PARENT
REMARK Flexibility Score: inf
ROOT
ATOM      1  C   UNL     1      16.790  21.608  11.610  1.00  0.00     0.000 C 
ENDROOT
BRANCH   1   2
ATOM      2  C   UNL     1      17.803  20.451  11.534  1.00  0.00     0.000 C 
BRANCH   2   3
ATOM      3  C   UNL     1      17.579  19.399  12.632  1.00  0.00     0.006 C 
BRANCH   3   4
ATOM      4  C   UNL     1      18.527  19.580  13.824  1.00  0.00     0.053 C 
BRANCH   4   5
ATOM      5  C   UNL     1      17.753  19.645  15.102  1.00  0.00     0.041 C 
ATOM      6  O   UNL     1      18.151  20.376  16.048  1.00  0.00    -0.550 OA
ATOM      7  O   UNL     1      16.619  18.862  15.269  1.00  0.00    -0.550 OA
ENDBRANCH   4   5
ENDBRANCH   3   4
ENDBRANCH   2   3
ENDBRANCH   1   2
BRANCH   1   8
ATOM      8  C   UNL     1      15.597  21.288  12.525  1.00  0.00     0.000 C 
BRANCH   8   9
ATOM      9  C   UNL     1      15.467  22.278  13.695  1.00  0.00     0.006 C 
BRANCH   9  10
ATOM     10  C   UNL     1      14.324  21.901  14.648  1.00  0.00     0.053 C 
BRANCH  10  11
ATOM     11  C   UNL     1      14.780  21.850  16.074  1.00  0.00     0.041 C 
ATOM     12  O   UNL     1      14.433  20.893  16.815  1.00  0.00    -0.550 OA
ATOM     13  O   UNL     1      15.613  22.842  16.576  1.00  0.00    -0.550 OA
ENDBRANCH  10  11
ENDBRANCH   9  10
ENDBRANCH   8   9
ENDBRANCH   1   8
TORSDOF 8
ENDMDL
MODEL 4
REMARK VINA RESULT:    -4.615     14.206     16.394
REMARK INTER + INTRA:          -7.576
REMARK INTER:                  -6.898
REMARK INTRA:                  -0.678
REMARK UNBOUND:                -0.803
REMARK SMILES O=C([O-])CCCCCCCC(=O)[O-]
REMARK SMILES IDX 7 1 6 2 5 3 4 4 2 5 1 6 3 7 8 8 9 9 10 10 11 11 12 12 13 13
REMARK H PARENT
REMARK Flexibility Score: inf
ROOT
ATOM      1  C   UNL     1      27.923  17.385   6.188  1.00  0.00     0.000 C 
ENDROOT
BRANCH   1   2
ATOM      2  C   UNL     1      29.292  17.794   5.617  1.00  0.00     0.000 C 
BRANCH   2   3
ATOM      3  C   UNL     1      30.436  16.907   6.136  1.00  0.00     0.006 C 
BRANCH   3   4
ATOM      4  C   UNL     1      31.797  17.614   6.092  1.00  0.00     0.053 C 
BRANCH   4   5
ATOM      5  C   UNL     1      32.734  17.004   7.085  1.00  0.00     0.041 C 
ATOM      6  O   UNL     1      32.421  16.954   8.304  1.00  0.00    -0.550 OA
ATOM      7  O   UNL     1      33.975  16.536   6.673  1.00  0.00    -0.550 OA
ENDBRANCH   4   5
ENDBRANCH   3   4
ENDBRANCH   2   3
ENDBRANCH   1   2
BRANCH   1   8
ATOM      8  C   UNL     1      27.363  18.419   7.178  1.00  0.00     0.000 C 
BRANCH   8   9
ATOM      9  C   UNL     1      28.278  19.646   7.331  1.00  0.00     0.006 C 
BRANCH   9  10
ATOM     10  C   UNL     1      28.704  19.874   8.788  1.00  0.00     0.053 C 
BRANCH  10  11
ATOM     11  C   UNL     1      30.191  19.808   8.952  1.00  0.00     0.041 C 
ATOM     12  O   UNL     1      30.692  19.235   9.955  1.00  0.00    -0.550 OA
ATOM     13  O   UNL     1      31.025  20.351   7.983  1.00  0.00    -0.550 OA
ENDBRANCH  10  11
ENDBRANCH   9  10
ENDBRANCH   8   9
ENDBRANCH   1   8
TORSDOF 8
ENDMDL
MODEL 5
REMARK VINA RESULT:    -4.602      2.560      4.349
REMARK INTER + INTRA:          -7.557
REMARK INTER:                  -7.039
REMARK INTRA:                  -0.519
REMARK UNBOUND:                -0.803
REMARK SMILES O=C([O-])CCCCCCCC(=O)[O-]
REMARK SMILES IDX 7 1 6 2 5 3 4 4 2 5 1 6 3 7 8 8 9 9 10 10 11 11 12 12 13 13
REMARK H PARENT
REMARK Flexibility Score: inf
ROOT
ATOM      1  C   UNL     1      15.640  22.003  14.897  1.00  0.00     0.000 C 
ENDROOT
BRANCH   1   2
ATOM      2  C   UNL     1      15.362  22.372  13.429  1.00  0.00     0.000 C 
BRANCH   2   3
ATOM      3  C   UNL     1      15.471  21.163  12.487  1.00  0.00     0.006 C 
BRANCH   3   4
ATOM      4  C   UNL     1      16.122  21.517  11.144  1.00  0.00     0.053 C 
BRANCH   4   5
ATOM      5  C   UNL     1      17.418  20.787  10.983  1.00  0.00     0.041 C 
ATOM      6  O   UNL     1      17.815  20.448   9.836  1.00  0.00    -0.550 OA
ATOM      7  O   UNL     1      18.163  20.437  12.101  1.00  0.00    -0.550 OA
ENDBRANCH   4   5
ENDBRANCH   3   4
ENDBRANCH   2   3
ENDBRANCH   1   2
BRANCH   1   8
ATOM      8  C   UNL     1      16.026  20.525  15.072  1.00  0.00     0.000 C 
BRANCH   8   9
ATOM      9  C   UNL     1      17.293  20.343  15.925  1.00  0.00     0.006 C 
BRANCH   9  10
ATOM     10  C   UNL     1      17.232  21.146  17.231  1.00  0.00     0.053 C 
BRANCH  10  11
ATOM     11  C   UNL     1      16.456  20.429  18.293  1.00  0.00     0.041 C 
ATOM     12  O   UNL     1      15.689  21.070  19.058  1.00  0.00    -0.550 OA
ATOM     13  O   UNL     1      16.556  19.049  18.418  1.00  0.00    -0.550 OA
ENDBRANCH  10  11
ENDBRANCH   9  10
ENDBRANCH   8   9
ENDBRANCH   1   8
TORSDOF 8
ENDMDL
MODEL 6
REMARK VINA RESULT:    -4.592      2.459      3.742
REMARK INTER + INTRA:          -7.543
REMARK INTER:                  -7.250
REMARK INTRA:                  -0.293
REMARK UNBOUND:                -0.803
REMARK SMILES O=C([O-])CCCCCCCC(=O)[O-]
REMARK SMILES IDX 7 1 6 2 5 3 4 4 2 5 1 6 3 7 8 8 9 9 10 10 11 11 12 12 13 13
REMARK H PARENT
REMARK Flexibility Score: inf
ROOT
ATOM      1  C   UNL     1      15.721  21.681  15.096  1.00  0.00     0.000 C 
ENDROOT
BRANCH   1   2
ATOM      2  C   UNL     1      15.301  22.650  16.216  1.00  0.00     0.000 C 
BRANCH   2   3
ATOM      3  C   UNL     1      13.928  22.301  16.811  1.00  0.00     0.006 C 
BRANCH   3   4
ATOM      4  C   UNL     1      13.879  22.491  18.332  1.00  0.00     0.053 C 
BRANCH   4   5
ATOM      5  C   UNL     1      14.482  21.311  19.026  1.00  0.00     0.041 C 
ATOM      6  O   UNL     1      14.419  20.167  18.501  1.00  0.00    -0.550 OA
ATOM      7  O   UNL     1      15.069  21.464  20.275  1.00  0.00    -0.550 OA
ENDBRANCH   4   5
ENDBRANCH   3   4
ENDBRANCH   2   3
ENDBRANCH   1   2
BRANCH   1   8
ATOM      8  C   UNL     1      15.380  22.214  13.695  1.00  0.00     0.000 C 
BRANCH   8   9
ATOM      9  C   UNL     1      15.384  21.109  12.625  1.00  0.00     0.006 C 
BRANCH   9  10
ATOM     10  C   UNL     1      16.088  21.553  11.336  1.00  0.00     0.053 C 
BRANCH  10  11
ATOM     11  C   UNL     1      17.343  20.772  11.088  1.00  0.00     0.041 C 
ATOM     12  O   UNL     1      17.684  20.481   9.911  1.00  0.00    -0.550 OA
ATOM     13  O   UNL     1      18.151  20.393  12.152  1.00  0.00    -0.550 OA
ENDBRANCH  10  11
ENDBRANCH   9  10
ENDBRANCH   8   9
ENDBRANCH   1   8
TORSDOF 8
ENDMDL
MODEL 7
REMARK VINA RESULT:    -4.577      1.457      2.058
REMARK INTER + INTRA:          -7.521
REMARK INTER:                  -6.989
REMARK INTRA:                  -0.532
REMARK UNBOUND:                -0.803
REMARK SMILES O=C([O-])CCCCCCCC(=O)[O-]
REMARK SMILES IDX 7 1 6 2 5 3 4 4 2 5 1 6 3 7 8 8 9 9 10 10 11 11 12 12 13 13
REMARK H PARENT
REMARK Flexibility Score: inf
ROOT
ATOM      1  C   UNL     1      17.913  20.312  11.602  1.00  0.00     0.000 C 
ENDROOT
BRANCH   1   2
ATOM      2  C   UNL     1      16.974  21.501  11.334  1.00  0.00     0.000 C 
BRANCH   2   3
ATOM      3  C   UNL     1      15.657  21.400  12.121  1.00  0.00     0.006 C 
BRANCH   3   4
ATOM      4  C   UNL     1      15.422  22.610  13.034  1.00  0.00     0.053 C 
BRANCH   4   5
ATOM      5  C   UNL     1      15.067  22.159  14.416  1.00  0.00     0.041 C 
ATOM      6  O   UNL     1      13.875  22.225  14.817  1.00  0.00    -0.550 OA
ATOM      7  O   UNL     1      16.060  21.713  15.279  1.00  0.00    -0.550 OA
ENDBRANCH   4   5
ENDBRANCH   3   4
ENDBRANCH   2   3
ENDBRANCH   1   2
BRANCH   1   8
ATOM      8  C   UNL     1      17.494  19.494  12.834  1.00  0.00     0.000 C 
BRANCH   8   9
ATOM      9  C   UNL     1      18.697  18.906  13.591  1.00  0.00     0.006 C 
BRANCH   9  10
ATOM     10  C   UNL     1      18.769  19.405  15.041  1.00  0.00     0.053 C 
BRANCH  10  11
ATOM     11  C   UNL     1      18.079  18.471  15.988  1.00  0.00     0.041 C 
ATOM     12  O   UNL     1      16.827  18.512  16.117  1.00  0.00    -0.550 OA
ATOM     13  O   UNL     1      18.815  17.535  16.704  1.00  0.00    -0.550 OA
ENDBRANCH  10  11
ENDBRANCH   9  10
ENDBRANCH   8   9
ENDBRANCH   1   8
TORSDOF 8
ENDMDL
MODEL 8
REMARK VINA RESULT:    -4.557      2.505      3.740
REMARK INTER + INTRA:          -7.491
REMARK INTER:                  -7.007
REMARK INTRA:                  -0.484
REMARK UNBOUND:                -0.803
REMARK SMILES O=C([O-])CCCCCCCC(=O)[O-]
REMARK SMILES IDX 7 1 6 2 5 3 4 4 2 5 1 6 3 7 8 8 9 9 10 10 11 11 12 12 13 13
REMARK H PARENT
REMARK Flexibility Score: inf
ROOT
ATOM      1  C   UNL     1      15.593  21.876  14.883  1.00  0.00     0.000 C 
ENDROOT
BRANCH   1   2
ATOM      2  C   UNL     1      16.184  20.455  14.932  1.00  0.00     0.000 C 
BRANCH   2   3
ATOM      3  C   UNL     1      17.147  20.258  16.114  1.00  0.00     0.006 C 
BRANCH   3   4
ATOM      4  C   UNL     1      16.809  21.162  17.307  1.00  0.00     0.053 C 
BRANCH   4   5
ATOM      5  C   UNL     1      16.141  20.373  18.388  1.00  0.00     0.041 C 
ATOM      6  O   UNL     1      16.623  20.356  19.551  1.00  0.00    -0.550 OA
ATOM      7  O   UNL     1      15.013  19.614  18.099  1.00  0.00    -0.550 OA
ENDBRANCH   4   5
ENDBRANCH   3   4
ENDBRANCH   2   3
ENDBRANCH   1   2
BRANCH   1   8
ATOM      8  C   UNL     1      15.259  22.327  13.452  1.00  0.00     0.000 C 
BRANCH   8   9
ATOM      9  C   UNL     1      15.437  21.200  12.420  1.00  0.00     0.006 C 
BRANCH   9  10
ATOM     10  C   UNL     1      16.294  21.640  11.225  1.00  0.00     0.053 C 
BRANCH  10  11
ATOM     11  C   UNL     1      17.469  20.734  11.017  1.00  0.00     0.041 C 
ATOM     12  O   UNL     1      17.708  20.262   9.874  1.00  0.00    -0.550 OA
ATOM     13  O   UNL     1      18.317  20.436  12.076  1.00  0.00    -0.550 OA
ENDBRANCH  10  11
ENDBRANCH   9  10
ENDBRANCH   8   9
ENDBRANCH   1   8
TORSDOF 8
ENDMDL
MODEL 9
REMARK VINA RESULT:    -4.538      2.384      5.170
REMARK INTER + INTRA:          -7.464
REMARK INTER:                  -7.129
REMARK INTRA:                  -0.335
REMARK UNBOUND:                -0.803
REMARK SMILES O=C([O-])CCCCCCCC(=O)[O-]
REMARK SMILES IDX 7 1 6 2 5 3 4 4 2 5 1 6 3 7 8 8 9 9 10 10 11 11 12 12 13 13
REMARK H PARENT
REMARK Flexibility Score: inf
ROOT
ATOM      1  C   UNL     1      15.620  21.620  15.099  1.00  0.00     0.000 C 
ENDROOT
BRANCH   1   2
ATOM      2  C   UNL     1      15.172  22.162  13.730  1.00  0.00     0.000 C 
BRANCH   2   3
ATOM      3  C   UNL     1      15.385  21.145  12.596  1.00  0.00     0.006 C 
BRANCH   3   4
ATOM      4  C   UNL     1      16.256  21.700  11.462  1.00  0.00     0.053 C 
BRANCH   4   5
ATOM      5  C   UNL     1      17.398  20.776  11.181  1.00  0.00     0.041 C 
ATOM      6  O   UNL     1      18.149  20.394  12.117  1.00  0.00    -0.550 OA
ATOM      7  O   UNL     1      17.665  20.377   9.878  1.00  0.00    -0.550 OA
ENDBRANCH   4   5
ENDBRANCH   3   4
ENDBRANCH   2   3
ENDBRANCH   1   2
BRANCH   1   8
ATOM      8  C   UNL     1      15.372  22.621  16.239  1.00  0.00     0.000 C 
BRANCH   8   9
ATOM      9  C   UNL     1      13.928  22.568  16.768  1.00  0.00     0.006 C 
BRANCH   9  10
ATOM     10  C   UNL     1      13.875  22.471  18.299  1.00  0.00     0.053 C 
BRANCH  10  11
ATOM     11  C   UNL     1      14.402  21.158  18.793  1.00  0.00     0.041 C 
ATOM     12  O   UNL     1      15.148  21.117  19.807  1.00  0.00    -0.550 OA
ATOM     13  O   UNL     1      14.044  19.978  18.155  1.00  0.00    -0.550 OA
ENDBRANCH  10  11
ENDBRANCH   9  10
ENDBRANCH   8   9
ENDBRANCH   1   8
TORSDOF 8
ENDMDL
