MODEL 1
REMARK VINA RESULT:    -5.656      0.000      0.000
REMARK INTER + INTRA:          -9.405
REMARK INTER:                  -8.631
REMARK INTRA:                  -0.774
REMARK UNBOUND:                -0.774
REMARK SMILES O=C([O-])CCCCCCCCC(=O)[O-]
REMARK SMILES IDX 7 1 6 2 5 3 4 4 2 5 1 6 3 7 8 8 9 9 10 10 11 11 12 12 13 13
REMARK SMILES IDX 14 14
REMARK H PARENT
REMARK Flexibility Score: inf
ROOT
ATOM      1  C   UNL     1       7.842  13.893   0.752  1.00  0.00     0.000 C 
ENDROOT
BRANCH   1   2
ATOM      2  C   UNL     1       8.498  14.623   1.940  1.00  0.00     0.000 C 
BRANCH   2   3
ATOM      3  C   UNL     1       7.700  14.571   3.255  1.00  0.00     0.006 C 
BRANCH   3   4
ATOM      4  C   UNL     1       7.258  15.956   3.742  1.00  0.00     0.053 C 
BRANCH   4   5
ATOM      5  C   UNL     1       5.766  16.066   3.720  1.00  0.00     0.041 C 
ATOM      6  O   UNL     1       5.188  16.653   2.768  1.00  0.00    -0.550 OA
ATOM      7  O   UNL     1       5.017  15.563   4.775  1.00  0.00    -0.550 OA
ENDBRANCH   4   5
ENDBRANCH   3   4
ENDBRANCH   2   3
ENDBRANCH   1   2
BRANCH   1   8
ATOM      8  C   UNL     1       6.345  14.206   0.611  1.00  0.00     0.000 C 
BRANCH   8   9
ATOM      9  C   UNL     1       5.493  12.967   0.924  1.00  0.00     0.000 C 
BRANCH   9  10
ATOM     10  C   UNL     1       4.290  13.275   1.835  1.00  0.00     0.006 C 
BRANCH  10  11
ATOM     11  C   UNL     1       3.061  13.817   1.085  1.00  0.00     0.053 C 
BRANCH  11  12
ATOM     12  C   UNL     1       1.972  14.264   2.013  1.00  0.00     0.041 C 
ATOM     13  O   UNL     1       2.233  15.041   2.969  1.00  0.00    -0.550 OA
ATOM     14  O   UNL     1       0.675  13.795   1.846  1.00  0.00    -0.550 OA
ENDBRANCH  11  12
ENDBRANCH  10  11
ENDBRANCH   9  10
ENDBRANCH   8   9
ENDBRANCH   1   8
TORSDOF 9
ENDMDL
MODEL 2
REMARK VINA RESULT:    -5.643      0.225      4.151
REMARK INTER + INTRA:          -9.385
REMARK INTER:                  -8.536
REMARK INTRA:                  -0.850
REMARK UNBOUND:                -0.774
REMARK SMILES O=C([O-])CCCCCCCCC(=O)[O-]
REMARK SMILES IDX 7 1 6 2 5 3 4 4 2 5 1 6 3 7 8 8 9 9 10 10 11 11 12 12 13 13
REMARK SMILES IDX 14 14
REMARK H PARENT
REMARK Flexibility Score: inf
ROOT
ATOM      1  C   UNL     1       6.322  14.314   0.503  1.00  0.00     0.000 C 
ENDROOT
BRANCH   1   2
ATOM      2  C   UNL     1       5.336  13.139   0.641  1.00  0.00     0.000 C 
BRANCH   2   3
ATOM      3  C   UNL     1       4.223  13.345   1.684  1.00  0.00     0.006 C 
BRANCH   3   4
ATOM      4  C   UNL     1       3.094  14.255   1.184  1.00  0.00     0.053 C 
BRANCH   4   5
ATOM      5  C   UNL     1       2.007  14.349   2.207  1.00  0.00     0.041 C 
ATOM      6  O   UNL     1       2.186  15.011   3.263  1.00  0.00    -0.550 OA
ATOM      7  O   UNL     1       0.813  13.667   2.016  1.00  0.00    -0.550 OA
ENDBRANCH   4   5
ENDBRANCH   3   4
ENDBRANCH   2   3
ENDBRANCH   1   2
BRANCH   1   8
ATOM      8  C   UNL     1       7.785  13.892   0.702  1.00  0.00     0.000 C 
BRANCH   8   9
ATOM      9  C   UNL     1       8.420  14.648   1.879  1.00  0.00     0.000 C 
BRANCH   9  10
ATOM     10  C   UNL     1       7.609  14.532   3.182  1.00  0.00     0.006 C 
BRANCH  10  11
ATOM     11  C   UNL     1       7.221  15.887   3.799  1.00  0.00     0.053 C 
BRANCH  11  12
ATOM     12  C   UNL     1       5.740  16.122   3.787  1.00  0.00     0.041 C 
ATOM     13  O   UNL     1       5.191  16.652   2.785  1.00  0.00    -0.550 OA
ATOM     14  O   UNL     1       4.971  15.791   4.895  1.00  0.00    -0.550 OA
ENDBRANCH  11  12
ENDBRANCH  10  11
ENDBRANCH   9  10
ENDBRANCH   8   9
ENDBRANCH   1   8
TORSDOF 9
ENDMDL
MODEL 3
REMARK VINA RESULT:    -5.438      2.529      4.073
REMARK INTER + INTRA:          -9.073
REMARK INTER:                  -8.501
REMARK INTRA:                  -0.571
REMARK UNBOUND:                -0.774
REMARK SMILES O=C([O-])CCCCCCCCC(=O)[O-]
REMARK SMILES IDX 7 1 6 2 5 3 4 4 2 5 1 6 3 7 8 8 9 9 10 10 11 11 12 12 13 13
REMARK SMILES IDX 14 14
REMARK H PARENT
REMARK Flexibility Score: inf
ROOT
ATOM      1  C   UNL     1       5.153  13.490   0.514  1.00  0.00     0.000 C 
ENDROOT
BRANCH   1   2
ATOM      2  C   UNL     1       6.259  14.505   0.853  1.00  0.00     0.000 C 
BRANCH   2   3
ATOM      3  C   UNL     1       7.690  13.937   0.840  1.00  0.00     0.006 C 
BRANCH   3   4
ATOM      4  C   UNL     1       8.554  14.466   1.991  1.00  0.00     0.053 C 
BRANCH   4   5
ATOM      5  C   UNL     1       9.951  14.720   1.520  1.00  0.00     0.041 C 
ATOM      6  O   UNL     1      10.294  15.873   1.146  1.00  0.00    -0.550 OA
ATOM      7  O   UNL     1      10.862  13.674   1.450  1.00  0.00    -0.550 OA
ENDBRANCH   4   5
ENDBRANCH   3   4
ENDBRANCH   2   3
ENDBRANCH   1   2
BRANCH   1   8
ATOM      8  C   UNL     1       4.224  13.198   1.701  1.00  0.00     0.000 C 
BRANCH   8   9
ATOM      9  C   UNL     1       3.078  14.218   1.768  1.00  0.00     0.000 C 
BRANCH   9  10
ATOM     10  C   UNL     1       3.056  15.019   3.082  1.00  0.00     0.006 C 
BRANCH  10  11
ATOM     11  C   UNL     1       4.134  14.589   4.093  1.00  0.00     0.053 C 
BRANCH  11  12
ATOM     12  C   UNL     1       4.817  15.758   4.738  1.00  0.00     0.041 C 
ATOM     13  O   UNL     1       4.284  16.341   5.718  1.00  0.00    -0.550 OA
ATOM     14  O   UNL     1       6.024  16.227   4.234  1.00  0.00    -0.550 OA
ENDBRANCH  11  12
ENDBRANCH  10  11
ENDBRANCH   9  10
ENDBRANCH   8   9
ENDBRANCH   1   8
TORSDOF 9
ENDMDL
MODEL 4
REMARK VINA RESULT:    -5.404      2.452      5.016
REMARK INTER + INTRA:          -9.021
REMARK INTER:                  -8.296
REMARK INTRA:                  -0.725
REMARK UNBOUND:                -0.774
REMARK SMILES O=C([O-])CCCCCCCCC(=O)[O-]
REMARK SMILES IDX 7 1 6 2 5 3 4 4 2 5 1 6 3 7 8 8 9 9 10 10 11 11 12 12 13 13
REMARK SMILES IDX 14 14
REMARK H PARENT
REMARK Flexibility Score: inf
ROOT
ATOM      1  C   UNL     1       4.478  13.124   1.487  1.00  0.00     0.000 C 
ENDROOT
BRANCH   1   2
ATOM      2  C   UNL     1       3.210  13.972   1.697  1.00  0.00     0.000 C 
BRANCH   2   3
ATOM      3  C   UNL     1       3.242  14.897   2.926  1.00  0.00     0.006 C 
BRANCH   3   4
ATOM      4  C   UNL     1       4.349  14.530   3.923  1.00  0.00     0.053 C 
BRANCH   4   5
ATOM      5  C   UNL     1       4.967  15.765   4.495  1.00  0.00     0.041 C 
ATOM      6  O   UNL     1       6.121  16.121   4.135  1.00  0.00    -0.550 OA
ATOM      7  O   UNL     1       4.291  16.498   5.462  1.00  0.00    -0.550 OA
ENDBRANCH   4   5
ENDBRANCH   3   4
ENDBRANCH   2   3
ENDBRANCH   1   2
BRANCH   1   8
ATOM      8  C   UNL     1       5.297  13.565   0.265  1.00  0.00     0.000 C 
BRANCH   8   9
ATOM      9  C   UNL     1       6.280  14.684   0.637  1.00  0.00     0.000 C 
BRANCH   9  10
ATOM     10  C   UNL     1       7.453  14.196   1.506  1.00  0.00     0.006 C 
BRANCH  10  11
ATOM     11  C   UNL     1       8.704  13.799   0.702  1.00  0.00     0.053 C 
BRANCH  11  12
ATOM     12  C   UNL     1       9.736  14.886   0.671  1.00  0.00     0.041 C 
ATOM     13  O   UNL     1      10.026  15.515   1.723  1.00  0.00    -0.550 OA
ATOM     14  O   UNL     1      10.352  15.231  -0.526  1.00  0.00    -0.550 OA
ENDBRANCH  11  12
ENDBRANCH  10  11
ENDBRANCH   9  10
ENDBRANCH   8   9
ENDBRANCH   1   8
TORSDOF 9
ENDMDL
MODEL 5
REMARK VINA RESULT:    -5.377      2.500      3.862
REMARK INTER + INTRA:          -8.980
REMARK INTER:                  -8.136
REMARK INTRA:                  -0.843
REMARK UNBOUND:                -0.774
REMARK SMILES O=C([O-])CCCCCCCCC(=O)[O-]
REMARK SMILES IDX 7 1 6 2 5 3 4 4 2 5 1 6 3 7 8 8 9 9 10 10 11 11 12 12 13 13
REMARK SMILES IDX 14 14
REMARK H PARENT
REMARK Flexibility Score: inf
ROOT
ATOM      1  C   UNL     1       5.428  14.173   0.293  1.00  0.00     0.000 C 
ENDROOT
BRANCH   1   2
ATOM      2  C   UNL     1       6.872  14.579   0.642  1.00  0.00     0.000 C 
BRANCH   2   3
ATOM      3  C   UNL     1       7.390  14.045   1.989  1.00  0.00     0.006 C 
BRANCH   3   4
ATOM      4  C   UNL     1       8.593  14.833   2.522  1.00  0.00     0.053 C 
BRANCH   4   5
ATOM      5  C   UNL     1       9.789  14.613   1.652  1.00  0.00     0.041 C 
ATOM      6  O   UNL     1      10.349  13.485   1.619  1.00  0.00    -0.550 OA
ATOM      7  O   UNL     1      10.315  15.664   0.913  1.00  0.00    -0.550 OA
ENDBRANCH   4   5
ENDBRANCH   3   4
ENDBRANCH   2   3
ENDBRANCH   1   2
BRANCH   1   8
ATOM      8  C   UNL     1       4.852  13.124   1.256  1.00  0.00     0.000 C 
BRANCH   8   9
ATOM      9  C   UNL     1       3.437  13.512   1.709  1.00  0.00     0.000 C 
BRANCH   9  10
ATOM     10  C   UNL     1       3.418  14.713   2.672  1.00  0.00     0.006 C 
BRANCH  10  11
ATOM     11  C   UNL     1       4.236  14.496   3.958  1.00  0.00     0.053 C 
BRANCH  11  12
ATOM     12  C   UNL     1       4.790  15.775   4.510  1.00  0.00     0.041 C 
ATOM     13  O   UNL     1       5.675  16.408   3.874  1.00  0.00    -0.550 OA
ATOM     14  O   UNL     1       4.359  16.250   5.742  1.00  0.00    -0.550 OA
ENDBRANCH  11  12
ENDBRANCH  10  11
ENDBRANCH   9  10
ENDBRANCH   8   9
ENDBRANCH   1   8
TORSDOF 9
ENDMDL
MODEL 6
REMARK VINA RESULT:    -5.368      1.394      2.172
REMARK INTER + INTRA:          -8.966
REMARK INTER:                  -8.315
REMARK INTRA:                  -0.651
REMARK UNBOUND:                -0.774
REMARK SMILES O=C([O-])CCCCCCCCC(=O)[O-]
REMARK SMILES IDX 7 1 6 2 5 3 4 4 2 5 1 6 3 7 8 8 9 9 10 10 11 11 12 12 13 13
REMARK SMILES IDX 14 14
REMARK H PARENT
REMARK Flexibility Score: inf
ROOT
ATOM      1  C   UNL     1       7.614  14.513   2.856  1.00  0.00     0.000 C 
ENDROOT
BRANCH   1   2
ATOM      2  C   UNL     1       7.260  15.763   3.684  1.00  0.00     0.000 C 
BRANCH   2   3
ATOM      3  C   UNL     1       5.771  16.150   3.673  1.00  0.00     0.006 C 
BRANCH   3   4
ATOM      4  C   UNL     1       4.866  15.062   4.267  1.00  0.00     0.053 C 
BRANCH   4   5
ATOM      5  C   UNL     1       3.864  15.668   5.198  1.00  0.00     0.041 C 
ATOM      6  O   UNL     1       2.735  15.131   5.348  1.00  0.00    -0.550 OA
ATOM      7  O   UNL     1       4.158  16.851   5.862  1.00  0.00    -0.550 OA
ENDBRANCH   4   5
ENDBRANCH   3   4
ENDBRANCH   2   3
ENDBRANCH   1   2
BRANCH   1   8
ATOM      8  C   UNL     1       7.126  14.600   1.403  1.00  0.00     0.000 C 
BRANCH   8   9
ATOM      9  C   UNL     1       6.389  13.318   0.991  1.00  0.00     0.000 C 
BRANCH   9  10
ATOM     10  C   UNL     1       4.932  13.568   0.562  1.00  0.00     0.006 C 
BRANCH  10  11
ATOM     11  C   UNL     1       3.896  13.262   1.658  1.00  0.00     0.053 C 
BRANCH  11  12
ATOM     12  C   UNL     1       2.553  13.858   1.362  1.00  0.00     0.041 C 
ATOM     13  O   UNL     1       2.139  13.930   0.175  1.00  0.00    -0.550 OA
ATOM     14  O   UNL     1       1.772  14.368   2.392  1.00  0.00    -0.550 OA
ENDBRANCH  11  12
ENDBRANCH  10  11
ENDBRANCH   9  10
ENDBRANCH   8   9
ENDBRANCH   1   8
TORSDOF 9
ENDMDL
MODEL 7
REMARK VINA RESULT:    -5.342      2.227      4.610
REMARK INTER + INTRA:          -8.927
REMARK INTER:                  -8.155
REMARK INTRA:                  -0.772
REMARK UNBOUND:                -0.774
REMARK SMILES O=C([O-])CCCCCCCCC(=O)[O-]
REMARK SMILES IDX 7 1 6 2 5 3 4 4 2 5 1 6 3 7 8 8 9 9 10 10 11 11 12 12 13 13
REMARK SMILES IDX 14 14
REMARK H PARENT
REMARK Flexibility Score: inf
ROOT
ATOM      1  C   UNL     1       2.689  14.051   2.112  1.00  0.00     0.000 C 
ENDROOT
BRANCH   1   2
ATOM      2  C   UNL     1       2.715  15.041   3.292  1.00  0.00     0.000 C 
BRANCH   2   3
ATOM      3  C   UNL     1       3.787  14.753   4.358  1.00  0.00     0.006 C 
BRANCH   3   4
ATOM      4  C   UNL     1       4.598  15.998   4.742  1.00  0.00     0.053 C 
BRANCH   4   5
ATOM      5  C   UNL     1       5.675  16.250   3.735  1.00  0.00     0.041 C 
ATOM      6  O   UNL     1       6.880  16.030   4.029  1.00  0.00    -0.550 OA
ATOM      7  O   UNL     1       5.354  16.773   2.490  1.00  0.00    -0.550 OA
ENDBRANCH   4   5
ENDBRANCH   3   4
ENDBRANCH   2   3
ENDBRANCH   1   2
BRANCH   1   8
ATOM      8  C   UNL     1       4.029  13.331   1.906  1.00  0.00     0.000 C 
BRANCH   8   9
ATOM      9  C   UNL     1       4.505  13.459   0.452  1.00  0.00     0.000 C 
BRANCH   9  10
ATOM     10  C   UNL     1       5.880  14.139   0.322  1.00  0.00     0.006 C 
BRANCH  10  11
ATOM     11  C   UNL     1       6.908  13.673   1.368  1.00  0.00     0.053 C 
BRANCH  11  12
ATOM     12  C   UNL     1       8.314  14.032   0.992  1.00  0.00     0.041 C 
ATOM     13  O   UNL     1       8.887  13.436   0.041  1.00  0.00    -0.550 OA
ATOM     14  O   UNL     1       9.007  14.996   1.713  1.00  0.00    -0.550 OA
ENDBRANCH  11  12
ENDBRANCH  10  11
ENDBRANCH   9  10
ENDBRANCH   8   9
ENDBRANCH   1   8
TORSDOF 9
ENDMDL
MODEL 8
REMARK VINA RESULT:    -5.290      1.479      5.171
REMARK INTER + INTRA:          -8.846
REMARK INTER:                  -8.313
REMARK INTRA:                  -0.534
REMARK UNBOUND:                -0.774
REMARK SMILES O=C([O-])CCCCCCCCC(=O)[O-]
REMARK SMILES IDX 7 1 6 2 5 3 4 4 2 5 1 6 3 7 8 8 9 9 10 10 11 11 12 12 13 13
REMARK SMILES IDX 14 14
REMARK H PARENT
REMARK Flexibility Score: inf
ROOT
ATOM      1  C   UNL     1       3.916  13.283   1.354  1.00  0.00     0.000 C 
ENDROOT
BRANCH   1   2
ATOM      2  C   UNL     1       2.879  14.410   1.518  1.00  0.00     0.000 C 
BRANCH   2   3
ATOM      3  C   UNL     1       1.452  13.938   1.848  1.00  0.00     0.006 C 
BRANCH   3   4
ATOM      4  C   UNL     1       0.799  14.749   2.975  1.00  0.00     0.053 C 
BRANCH   4   5
ATOM      5  C   UNL     1      -0.604  14.284   3.207  1.00  0.00     0.041 C 
ATOM      6  O   UNL     1      -1.050  14.177   4.379  1.00  0.00    -0.550 OA
ATOM      7  O   UNL     1      -1.404  13.924   2.130  1.00  0.00    -0.550 OA
ENDBRANCH   4   5
ENDBRANCH   3   4
ENDBRANCH   2   3
ENDBRANCH   1   2
BRANCH   1   8
ATOM      8  C   UNL     1       5.137  13.710   0.526  1.00  0.00     0.000 C 
BRANCH   8   9
ATOM      9  C   UNL     1       6.443  13.407   1.275  1.00  0.00     0.000 C 
BRANCH   9  10
ATOM     10  C   UNL     1       7.178  14.675   1.745  1.00  0.00     0.006 C 
BRANCH  10  11
ATOM     11  C   UNL     1       7.021  14.967   3.248  1.00  0.00     0.053 C 
BRANCH  11  12
ATOM     12  C   UNL     1       5.865  15.875   3.540  1.00  0.00     0.041 C 
ATOM     13  O   UNL     1       5.370  15.918   4.697  1.00  0.00    -0.550 OA
ATOM     14  O   UNL     1       5.308  16.647   2.527  1.00  0.00    -0.550 OA
ENDBRANCH  11  12
ENDBRANCH  10  11
ENDBRANCH   9  10
ENDBRANCH   8   9
ENDBRANCH   1   8
TORSDOF 9
ENDMDL
MODEL 9
REMARK VINA RESULT:    -5.283      1.662      5.348
REMARK INTER + INTRA:          -8.836
REMARK INTER:                  -8.328
REMARK INTRA:                  -0.508
REMARK UNBOUND:                -0.774
REMARK SMILES O=C([O-])CCCCCCCCC(=O)[O-]
REMARK SMILES IDX 7 1 6 2 5 3 4 4 2 5 1 6 3 7 8 8 9 9 10 10 11 11 12 12 13 13
REMARK SMILES IDX 14 14
REMARK H PARENT
REMARK Flexibility Score: inf
ROOT
ATOM      1  C   UNL     1       3.885  13.176   1.939  1.00  0.00     0.000 C 
ENDROOT
BRANCH   1   2
ATOM      2  C   UNL     1       2.917  14.302   1.531  1.00  0.00     0.000 C 
BRANCH   2   3
ATOM      3  C   UNL     1       1.425  13.973   1.711  1.00  0.00     0.006 C 
BRANCH   3   4
ATOM      4  C   UNL     1       0.778  14.743   2.869  1.00  0.00     0.053 C 
BRANCH   4   5
ATOM      5  C   UNL     1      -0.598  14.220   3.140  1.00  0.00     0.041 C 
ATOM      6  O   UNL     1      -1.417  14.075   2.195  1.00  0.00    -0.550 OA
ATOM      7  O   UNL     1      -0.990  13.938   4.442  1.00  0.00    -0.550 OA
ENDBRANCH   4   5
ENDBRANCH   3   4
ENDBRANCH   2   3
ENDBRANCH   1   2
BRANCH   1   8
ATOM      8  C   UNL     1       5.082  13.042   0.986  1.00  0.00     0.000 C 
BRANCH   8   9
ATOM      9  C   UNL     1       5.592  14.422   0.546  1.00  0.00     0.000 C 
BRANCH   9  10
ATOM     10  C   UNL     1       7.058  14.679   0.938  1.00  0.00     0.006 C 
BRANCH  10  11
ATOM     11  C   UNL     1       7.399  14.270   2.382  1.00  0.00     0.053 C 
BRANCH  11  12
ATOM     12  C   UNL     1       7.031  15.327   3.381  1.00  0.00     0.041 C 
ATOM     13  O   UNL     1       7.900  16.140   3.792  1.00  0.00    -0.550 OA
ATOM     14  O   UNL     1       5.738  15.391   3.886  1.00  0.00    -0.550 OA
ENDBRANCH  11  12
ENDBRANCH  10  11
ENDBRANCH   9  10
ENDBRANCH   8   9
ENDBRANCH   1   8
TORSDOF 9
ENDMDL
