MODEL 1
REMARK VINA RESULT:    -6.028      0.000      0.000
REMARK INTER + INTRA:         -10.703
REMARK INTER:                  -9.200
REMARK INTRA:                  -1.504
REMARK UNBOUND:                -1.504
REMARK SMILES OC[C@@H]1O[C@@H](O[C@@]2(CO)O[C@H](CO)[C@@H](O)[C@@H]2O)[C@@H](O)[C@H](O)[C@@H]1O
REMARK SMILES IDX 6 1 5 2 3 3 22 4 4 5 20 6 18 7 2 8 1 9 23 11 21 13 19 15
REMARK SMILES IDX 7 17 16 18 10 19 14 20 11 21 8 22 9 23 17 25 15 27 12 29
REMARK SMILES IDX 13 30
REMARK H PARENT 1 10 23 12 21 14 19 16 9 24 17 26 15 28 13 31
REMARK Flexibility Score: inf
ROOT
ATOM      1  O   UNL     1     -37.830 -30.175   7.817  1.00  0.00    -0.313 OA
ENDROOT
BRANCH   1   2
ATOM      2  C   UNL     1     -36.549 -29.583   7.613  1.00  0.00     0.285 C 
ATOM      3  C   UNL     1     -37.047 -27.786   9.045  1.00  0.00     0.178 C 
ATOM      4  C   UNL     1     -37.061 -26.752   7.900  1.00  0.00     0.177 C 
ATOM      5  O   UNL     1     -36.141 -28.841   8.756  1.00  0.00    -0.341 OA
ATOM      6  C   UNL     1     -37.468 -27.457   6.592  1.00  0.00     0.179 C 
ATOM      7  C   UNL     1     -36.575 -28.688   6.357  1.00  0.00     0.202 C 
BRANCH   3   8
ATOM      8  C   UNL     1     -36.642 -27.132  10.373  1.00  0.00     0.191 C 
BRANCH   8   9
ATOM      9  O   UNL     1     -37.146 -25.826  10.448  1.00  0.00    -0.394 OA
ATOM     10  H   UNL     1     -36.567 -25.263   9.870  1.00  0.00     0.210 HD
ENDBRANCH   8   9
ENDBRANCH   3   8
BRANCH   4  11
ATOM     11  O   UNL     1     -35.787 -26.173   7.764  1.00  0.00    -0.387 OA
ATOM     12  H   UNL     1     -35.130 -26.918   7.749  1.00  0.00     0.211 HD
ENDBRANCH   4  11
BRANCH   6  13
ATOM     13  O   UNL     1     -37.353 -26.577   5.503  1.00  0.00    -0.387 OA
ATOM     14  H   UNL     1     -36.392 -26.555   5.255  1.00  0.00     0.211 HD
ENDBRANCH   6  13
BRANCH   7  15
ATOM     15  O   UNL     1     -37.051 -29.432   5.265  1.00  0.00    -0.385 OA
ATOM     16  H   UNL     1     -37.161 -28.798   4.509  1.00  0.00     0.211 HD
ENDBRANCH   7  15
ENDBRANCH   1   2
BRANCH   1  17
ATOM     17  C   UNL     1     -37.799 -31.574   8.094  1.00  0.00     0.224 C 
ATOM     18  C   UNL     1     -38.975 -31.981   9.020  1.00  0.00     0.208 C 
ATOM     19  O   UNL     1     -36.594 -31.816   8.799  1.00  0.00    -0.337 OA
ATOM     20  C   UNL     1     -38.318 -32.837  10.070  1.00  0.00     0.180 C 
ATOM     21  C   UNL     1     -36.910 -32.272  10.094  1.00  0.00     0.179 C 
BRANCH  17  22
ATOM     22  C   UNL     1     -37.716 -32.414   6.790  1.00  0.00     0.225 C 
BRANCH  22  23
ATOM     23  O   UNL     1     -38.588 -31.897   5.822  1.00  0.00    -0.391 OA
ATOM     24  H   UNL     1     -38.210 -32.158   4.943  1.00  0.00     0.210 HD
ENDBRANCH  22  23
ENDBRANCH  17  22
BRANCH  18  25
ATOM     25  O   UNL     1     -39.980 -32.695   8.343  1.00  0.00    -0.385 OA
ATOM     26  H   UNL     1     -40.165 -33.506   8.883  1.00  0.00     0.211 HD
ENDBRANCH  18  25
BRANCH  20  27
ATOM     27  O   UNL     1     -38.938 -32.685  11.320  1.00  0.00    -0.387 OA
ATOM     28  H   UNL     1     -38.410 -33.224  11.964  1.00  0.00     0.211 HD
ENDBRANCH  20  27
BRANCH  21  29
ATOM     29  C   UNL     1     -35.871 -33.312  10.538  1.00  0.00     0.191 C 
BRANCH  29  30
ATOM     30  O   UNL     1     -36.236 -33.891  11.762  1.00  0.00    -0.394 OA
ATOM     31  H   UNL     1     -36.856 -33.253  12.204  1.00  0.00     0.210 HD
ENDBRANCH  29  30
ENDBRANCH  21  29
ENDBRANCH   1  17
TORSDOF 13
ENDMDL
MODEL 2
REMARK VINA RESULT:    -5.994      2.034      3.491
REMARK INTER + INTRA:         -10.652
REMARK INTER:                  -9.244
REMARK INTRA:                  -1.408
REMARK UNBOUND:                -1.504
REMARK SMILES OC[C@@H]1O[C@@H](O[C@@]2(CO)O[C@H](CO)[C@@H](O)[C@@H]2O)[C@@H](O)[C@H](O)[C@@H]1O
REMARK SMILES IDX 6 1 5 2 3 3 22 4 4 5 20 6 18 7 2 8 1 9 23 11 21 13 19 15
REMARK SMILES IDX 7 17 16 18 10 19 14 20 11 21 8 22 9 23 17 25 15 27 12 29
REMARK SMILES IDX 13 30
REMARK H PARENT 1 10 23 12 21 14 19 16 9 24 17 26 15 28 13 31
REMARK Flexibility Score: inf
ROOT
ATOM      1  O   UNL     1     -36.531 -29.978   6.895  1.00  0.00    -0.313 OA
ENDROOT
BRANCH   1   2
ATOM      2  C   UNL     1     -35.630 -29.575   7.923  1.00  0.00     0.285 C 
ATOM      3  C   UNL     1     -36.897 -27.655   8.410  1.00  0.00     0.178 C 
ATOM      4  C   UNL     1     -35.813 -26.689   7.886  1.00  0.00     0.177 C 
ATOM      5  O   UNL     1     -36.304 -28.835   8.933  1.00  0.00    -0.341 OA
ATOM      6  C   UNL     1     -34.993 -27.401   6.792  1.00  0.00     0.179 C 
ATOM      7  C   UNL     1     -34.475 -28.752   7.318  1.00  0.00     0.202 C 
BRANCH   3   8
ATOM      8  C   UNL     1     -37.740 -26.992   9.508  1.00  0.00     0.191 C 
BRANCH   8   9
ATOM      9  O   UNL     1     -37.777 -25.602   9.324  1.00  0.00    -0.394 OA
ATOM     10  H   UNL     1     -36.962 -25.236   9.756  1.00  0.00     0.210 HD
ENDBRANCH   8   9
ENDBRANCH   3   8
BRANCH   4  11
ATOM     11  O   UNL     1     -34.974 -26.294   8.943  1.00  0.00    -0.387 OA
ATOM     12  H   UNL     1     -35.473 -25.616   9.471  1.00  0.00     0.211 HD
ENDBRANCH   4  11
BRANCH   6  13
ATOM     13  O   UNL     1     -33.908 -26.603   6.394  1.00  0.00    -0.387 OA
ATOM     14  H   UNL     1     -33.852 -26.671   5.405  1.00  0.00     0.211 HD
ENDBRANCH   6  13
BRANCH   7  15
ATOM     15  O   UNL     1     -33.878 -29.481   6.278  1.00  0.00    -0.385 OA
ATOM     16  H   UNL     1     -34.438 -29.343   5.469  1.00  0.00     0.211 HD
ENDBRANCH   7  15
ENDBRANCH   1   2
BRANCH   1  17
ATOM     17  C   UNL     1     -36.827 -31.374   6.881  1.00  0.00     0.224 C 
ATOM     18  C   UNL     1     -35.798 -32.167   7.728  1.00  0.00     0.208 C 
ATOM     19  O   UNL     1     -36.694 -31.798   5.535  1.00  0.00    -0.337 OA
ATOM     20  C   UNL     1     -35.419 -33.319   6.836  1.00  0.00     0.180 C 
ATOM     21  C   UNL     1     -35.639 -32.728   5.455  1.00  0.00     0.179 C 
BRANCH  17  22
ATOM     22  C   UNL     1     -38.303 -31.650   7.279  1.00  0.00     0.225 C 
BRANCH  22  23
ATOM     23  O   UNL     1     -38.651 -30.899   8.410  1.00  0.00    -0.391 OA
ATOM     24  H   UNL     1     -39.338 -31.427   8.892  1.00  0.00     0.210 HD
ENDBRANCH  22  23
ENDBRANCH  17  22
BRANCH  18  25
ATOM     25  O   UNL     1     -36.331 -32.625   8.945  1.00  0.00    -0.385 OA
ATOM     26  H   UNL     1     -36.463 -33.603   8.848  1.00  0.00     0.211 HD
ENDBRANCH  18  25
BRANCH  20  27
ATOM     27  O   UNL     1     -34.076 -33.688   7.013  1.00  0.00    -0.387 OA
ATOM     28  H   UNL     1     -33.638 -32.935   7.486  1.00  0.00     0.211 HD
ENDBRANCH  20  27
BRANCH  21  29
ATOM     29  C   UNL     1     -35.979 -33.799   4.409  1.00  0.00     0.191 C 
BRANCH  29  30
ATOM     30  O   UNL     1     -37.278 -33.620   3.914  1.00  0.00    -0.394 OA
ATOM     31  H   UNL     1     -37.250 -33.863   2.952  1.00  0.00     0.210 HD
ENDBRANCH  29  30
ENDBRANCH  21  29
ENDBRANCH   1  17
TORSDOF 13
ENDMDL
MODEL 3
REMARK VINA RESULT:    -5.931      1.973      5.917
REMARK INTER + INTRA:         -10.555
REMARK INTER:                  -9.400
REMARK INTRA:                  -1.154
REMARK UNBOUND:                -1.504
REMARK SMILES OC[C@@H]1O[C@@H](O[C@@]2(CO)O[C@H](CO)[C@@H](O)[C@@H]2O)[C@@H](O)[C@H](O)[C@@H]1O
REMARK SMILES IDX 6 1 5 2 3 3 22 4 4 5 20 6 18 7 2 8 1 9 23 11 21 13 19 15
REMARK SMILES IDX 7 17 16 18 10 19 14 20 11 21 8 22 9 23 17 25 15 27 12 29
REMARK SMILES IDX 13 30
REMARK H PARENT 1 10 23 12 21 14 19 16 9 24 17 26 15 28 13 31
REMARK Flexibility Score: inf
ROOT
ATOM      1  O   UNL     1     -35.662 -29.545   7.550  1.00  0.00    -0.313 OA
ENDROOT
BRANCH   1   2
ATOM      2  C   UNL     1     -36.485 -30.356   6.714  1.00  0.00     0.285 C 
ATOM      3  C   UNL     1     -36.862 -31.911   8.438  1.00  0.00     0.178 C 
ATOM      4  C   UNL     1     -36.058 -33.027   7.739  1.00  0.00     0.177 C 
ATOM      5  O   UNL     1     -37.462 -31.050   7.480  1.00  0.00    -0.341 OA
ATOM      6  C   UNL     1     -34.974 -32.383   6.851  1.00  0.00     0.179 C 
ATOM      7  C   UNL     1     -35.612 -31.343   5.913  1.00  0.00     0.202 C 
BRANCH   3   8
ATOM      8  C   UNL     1     -37.960 -32.502   9.333  1.00  0.00     0.191 C 
BRANCH   8   9
ATOM      9  O   UNL     1     -37.920 -31.916  10.607  1.00  0.00    -0.394 OA
ATOM     10  H   UNL     1     -38.680 -32.296  11.120  1.00  0.00     0.210 HD
ENDBRANCH   8   9
ENDBRANCH   3   8
BRANCH   4  11
ATOM     11  O   UNL     1     -36.919 -33.819   6.958  1.00  0.00    -0.387 OA
ATOM     12  H   UNL     1     -37.818 -33.768   7.377  1.00  0.00     0.211 HD
ENDBRANCH   4  11
BRANCH   6  13
ATOM     13  O   UNL     1     -34.317 -33.364   6.090  1.00  0.00    -0.387 OA
ATOM     14  H   UNL     1     -34.451 -33.122   5.137  1.00  0.00     0.211 HD
ENDBRANCH   6  13
BRANCH   7  15
ATOM     15  O   UNL     1     -34.614 -30.631   5.228  1.00  0.00    -0.385 OA
ATOM     16  H   UNL     1     -34.535 -31.039   4.326  1.00  0.00     0.211 HD
ENDBRANCH   7  15
ENDBRANCH   1   2
BRANCH   1  17
ATOM     17  C   UNL     1     -35.927 -28.146   7.463  1.00  0.00     0.224 C 
ATOM     18  C   UNL     1     -34.609 -27.329   7.501  1.00  0.00     0.208 C 
ATOM     19  O   UNL     1     -36.676 -27.807   8.616  1.00  0.00    -0.337 OA
ATOM     20  C   UNL     1     -34.896 -26.243   8.503  1.00  0.00     0.180 C 
ATOM     21  C   UNL     1     -35.923 -26.910   9.399  1.00  0.00     0.179 C 
BRANCH  17  22
ATOM     22  C   UNL     1     -36.830 -27.809   6.244  1.00  0.00     0.225 C 
BRANCH  22  23
ATOM     23  O   UNL     1     -37.247 -26.472   6.302  1.00  0.00    -0.391 OA
ATOM     24  H   UNL     1     -37.619 -26.337   7.211  1.00  0.00     0.210 HD
ENDBRANCH  22  23
ENDBRANCH  17  22
BRANCH  18  25
ATOM     25  O   UNL     1     -34.268 -26.785   6.250  1.00  0.00    -0.385 OA
ATOM     26  H   UNL     1     -33.277 -26.782   6.202  1.00  0.00     0.211 HD
ENDBRANCH  18  25
BRANCH  20  27
ATOM     27  O   UNL     1     -33.747 -25.897   9.231  1.00  0.00    -0.387 OA
ATOM     28  H   UNL     1     -34.006 -25.147   9.827  1.00  0.00     0.211 HD
ENDBRANCH  20  27
BRANCH  21  29
ATOM     29  C   UNL     1     -36.864 -25.896  10.064  1.00  0.00     0.191 C 
BRANCH  29  30
ATOM     30  O   UNL     1     -37.904 -25.534   9.196  1.00  0.00    -0.394 OA
ATOM     31  H   UNL     1     -37.541 -24.827   8.599  1.00  0.00     0.210 HD
ENDBRANCH  29  30
ENDBRANCH  21  29
ENDBRANCH   1  17
TORSDOF 13
ENDMDL
MODEL 4
REMARK VINA RESULT:    -5.737      2.397      4.641
REMARK INTER + INTRA:         -10.258
REMARK INTER:                  -9.093
REMARK INTRA:                  -1.166
REMARK UNBOUND:                -1.504
REMARK SMILES OC[C@@H]1O[C@@H](O[C@@]2(CO)O[C@H](CO)[C@@H](O)[C@@H]2O)[C@@H](O)[C@H](O)[C@@H]1O
REMARK SMILES IDX 6 1 5 2 3 3 22 4 4 5 20 6 18 7 2 8 1 9 23 11 21 13 19 15
REMARK SMILES IDX 7 17 16 18 10 19 14 20 11 21 8 22 9 23 17 25 15 27 12 29
REMARK SMILES IDX 13 30
REMARK H PARENT 1 10 23 12 21 14 19 16 9 24 17 26 15 28 13 31
REMARK Flexibility Score: inf
ROOT
ATOM      1  O   UNL     1     -36.117 -30.193   7.698  1.00  0.00    -0.313 OA
ENDROOT
BRANCH   1   2
ATOM      2  C   UNL     1     -36.734 -29.037   7.137  1.00  0.00     0.285 C 
ATOM      3  C   UNL     1     -35.051 -27.621   7.969  1.00  0.00     0.178 C 
ATOM      4  C   UNL     1     -35.998 -26.925   8.970  1.00  0.00     0.177 C 
ATOM      5  O   UNL     1     -35.766 -28.045   6.817  1.00  0.00    -0.341 OA
ATOM      6  C   UNL     1     -37.116 -27.908   9.371  1.00  0.00     0.179 C 
ATOM      7  C   UNL     1     -37.791 -28.479   8.111  1.00  0.00     0.202 C 
BRANCH   3   8
ATOM      8  C   UNL     1     -33.921 -26.678   7.535  1.00  0.00     0.191 C 
BRANCH   8   9
ATOM      9  O   UNL     1     -33.729 -26.753   6.148  1.00  0.00    -0.394 OA
ATOM     10  H   UNL     1     -33.684 -27.717   5.918  1.00  0.00     0.210 HD
ENDBRANCH   8   9
ENDBRANCH   3   8
BRANCH   4  11
ATOM     11  O   UNL     1     -36.552 -25.773   8.383  1.00  0.00    -0.387 OA
ATOM     12  H   UNL     1     -36.022 -25.582   7.565  1.00  0.00     0.211 HD
ENDBRANCH   4  11
BRANCH   6  13
ATOM     13  O   UNL     1     -38.074 -27.263  10.169  1.00  0.00    -0.387 OA
ATOM     14  H   UNL     1     -37.667 -26.409  10.469  1.00  0.00     0.211 HD
ENDBRANCH   6  13
BRANCH   7  15
ATOM     15  O   UNL     1     -38.687 -29.502   8.462  1.00  0.00    -0.385 OA
ATOM     16  H   UNL     1     -39.368 -29.097   9.059  1.00  0.00     0.211 HD
ENDBRANCH   7  15
ENDBRANCH   1   2
BRANCH   1  17
ATOM     17  C   UNL     1     -36.180 -31.357   6.874  1.00  0.00     0.224 C 
ATOM     18  C   UNL     1     -34.760 -31.807   6.442  1.00  0.00     0.208 C 
ATOM     19  O   UNL     1     -36.887 -30.982   5.705  1.00  0.00    -0.337 OA
ATOM     20  C   UNL     1     -34.902 -32.050   4.963  1.00  0.00     0.180 C 
ATOM     21  C   UNL     1     -36.022 -31.094   4.598  1.00  0.00     0.179 C 
BRANCH  17  22
ATOM     22  C   UNL     1     -37.013 -32.485   7.541  1.00  0.00     0.225 C 
BRANCH  22  23
ATOM     23  O   UNL     1     -37.411 -32.100   8.830  1.00  0.00    -0.391 OA
ATOM     24  H   UNL     1     -38.403 -32.117   8.829  1.00  0.00     0.210 HD
ENDBRANCH  22  23
ENDBRANCH  17  22
BRANCH  18  25
ATOM     25  O   UNL     1     -34.332 -32.971   7.105  1.00  0.00    -0.385 OA
ATOM     26  H   UNL     1     -33.801 -32.672   7.889  1.00  0.00     0.211 HD
ENDBRANCH  18  25
BRANCH  20  27
ATOM     27  O   UNL     1     -33.723 -31.725   4.273  1.00  0.00    -0.387 OA
ATOM     28  H   UNL     1     -33.159 -32.541   4.279  1.00  0.00     0.211 HD
ENDBRANCH  20  27
BRANCH  21  29
ATOM     29  C   UNL     1     -36.818 -31.568   3.373  1.00  0.00     0.191 C 
BRANCH  29  30
ATOM     30  O   UNL     1     -35.997 -31.633   2.238  1.00  0.00    -0.394 OA
ATOM     31  H   UNL     1     -36.318 -32.404   1.700  1.00  0.00     0.210 HD
ENDBRANCH  29  30
ENDBRANCH  21  29
ENDBRANCH   1  17
TORSDOF 13
ENDMDL
MODEL 5
REMARK VINA RESULT:    -5.710      2.519      4.016
REMARK INTER + INTRA:         -10.218
REMARK INTER:                  -8.917
REMARK INTRA:                  -1.300
REMARK UNBOUND:                -1.504
REMARK SMILES OC[C@@H]1O[C@@H](O[C@@]2(CO)O[C@H](CO)[C@@H](O)[C@@H]2O)[C@@H](O)[C@H](O)[C@@H]1O
REMARK SMILES IDX 6 1 5 2 3 3 22 4 4 5 20 6 18 7 2 8 1 9 23 11 21 13 19 15
REMARK SMILES IDX 7 17 16 18 10 19 14 20 11 21 8 22 9 23 17 25 15 27 12 29
REMARK SMILES IDX 13 30
REMARK H PARENT 1 10 23 12 21 14 19 16 9 24 17 26 15 28 13 31
REMARK Flexibility Score: inf
ROOT
ATOM      1  O   UNL     1     -35.897 -29.329   7.240  1.00  0.00    -0.313 OA
ENDROOT
BRANCH   1   2
ATOM      2  C   UNL     1     -36.666 -28.127   7.239  1.00  0.00     0.285 C 
ATOM      3  C   UNL     1     -34.973 -26.934   8.353  1.00  0.00     0.178 C 
ATOM      4  C   UNL     1     -35.802 -26.775   9.645  1.00  0.00     0.177 C 
ATOM      5  O   UNL     1     -35.823 -26.982   7.216  1.00  0.00    -0.341 OA
ATOM      6  C   UNL     1     -36.781 -27.960   9.763  1.00  0.00     0.179 C 
ATOM      7  C   UNL     1     -37.599 -28.098   8.466  1.00  0.00     0.202 C 
BRANCH   3   8
ATOM      8  C   UNL     1     -33.984 -25.773   8.187  1.00  0.00     0.191 C 
BRANCH   8   9
ATOM      9  O   UNL     1     -33.468 -25.389   9.434  1.00  0.00    -0.394 OA
ATOM     10  H   UNL     1     -33.652 -26.136  10.061  1.00  0.00     0.210 HD
ENDBRANCH   8   9
ENDBRANCH   3   8
BRANCH   4  11
ATOM     11  O   UNL     1     -36.511 -25.561   9.611  1.00  0.00    -0.387 OA
ATOM     12  H   UNL     1     -37.448 -25.765   9.871  1.00  0.00     0.211 HD
ENDBRANCH   4  11
BRANCH   6  13
ATOM     13  O   UNL     1     -37.649 -27.773  10.850  1.00  0.00    -0.387 OA
ATOM     14  H   UNL     1     -38.010 -26.852  10.772  1.00  0.00     0.211 HD
ENDBRANCH   6  13
BRANCH   7  15
ATOM     15  O   UNL     1     -38.364 -29.275   8.498  1.00  0.00    -0.385 OA
ATOM     16  H   UNL     1     -37.823 -29.983   8.059  1.00  0.00     0.211 HD
ENDBRANCH   7  15
ENDBRANCH   1   2
BRANCH   1  17
ATOM     17  C   UNL     1     -36.214 -30.234   6.184  1.00  0.00     0.224 C 
ATOM     18  C   UNL     1     -36.620 -31.622   6.748  1.00  0.00     0.208 C 
ATOM     19  O   UNL     1     -35.025 -30.407   5.433  1.00  0.00    -0.337 OA
ATOM     20  C   UNL     1     -35.826 -32.588   5.910  1.00  0.00     0.180 C 
ATOM     21  C   UNL     1     -34.618 -31.752   5.531  1.00  0.00     0.179 C 
BRANCH  17  22
ATOM     22  C   UNL     1     -37.261 -29.632   5.208  1.00  0.00     0.225 C 
BRANCH  22  23
ATOM     23  O   UNL     1     -37.430 -30.471   4.097  1.00  0.00    -0.391 OA
ATOM     24  H   UNL     1     -36.957 -31.315   4.314  1.00  0.00     0.210 HD
ENDBRANCH  22  23
ENDBRANCH  17  22
BRANCH  18  25
ATOM     25  O   UNL     1     -37.998 -31.873   6.639  1.00  0.00    -0.385 OA
ATOM     26  H   UNL     1     -38.414 -31.037   6.302  1.00  0.00     0.211 HD
ENDBRANCH  18  25
BRANCH  20  27
ATOM     27  O   UNL     1     -35.439 -33.716   6.653  1.00  0.00    -0.387 OA
ATOM     28  H   UNL     1     -34.448 -33.709   6.679  1.00  0.00     0.211 HD
ENDBRANCH  20  27
BRANCH  21  29
ATOM     29  C   UNL     1     -33.996 -32.196   4.199  1.00  0.00     0.191 C 
BRANCH  29  30
ATOM     30  O   UNL     1     -34.591 -33.380   3.740  1.00  0.00    -0.394 OA
ATOM     31  H   UNL     1     -34.067 -33.670   2.947  1.00  0.00     0.210 HD
ENDBRANCH  29  30
ENDBRANCH  21  29
ENDBRANCH   1  17
TORSDOF 13
ENDMDL
MODEL 6
REMARK VINA RESULT:    -5.672      2.309      6.303
REMARK INTER + INTRA:         -10.159
REMARK INTER:                  -8.864
REMARK INTRA:                  -1.296
REMARK UNBOUND:                -1.504
REMARK SMILES OC[C@@H]1O[C@@H](O[C@@]2(CO)O[C@H](CO)[C@@H](O)[C@@H]2O)[C@@H](O)[C@H](O)[C@@H]1O
REMARK SMILES IDX 6 1 5 2 3 3 22 4 4 5 20 6 18 7 2 8 1 9 23 11 21 13 19 15
REMARK SMILES IDX 7 17 16 18 10 19 14 20 11 21 8 22 9 23 17 25 15 27 12 29
REMARK SMILES IDX 13 30
REMARK H PARENT 1 10 23 12 21 14 19 16 9 24 17 26 15 28 13 31
REMARK Flexibility Score: inf
ROOT
ATOM      1  O   UNL     1     -36.290 -29.539   7.138  1.00  0.00    -0.313 OA
ENDROOT
BRANCH   1   2
ATOM      2  C   UNL     1     -34.999 -30.088   7.388  1.00  0.00     0.285 C 
ATOM      3  C   UNL     1     -35.329 -31.815   5.827  1.00  0.00     0.178 C 
ATOM      4  C   UNL     1     -35.365 -32.916   6.908  1.00  0.00     0.177 C 
ATOM      5  O   UNL     1     -34.490 -30.743   6.233  1.00  0.00    -0.341 OA
ATOM      6  C   UNL     1     -35.882 -32.308   8.227  1.00  0.00     0.179 C 
ATOM      7  C   UNL     1     -35.061 -31.057   8.586  1.00  0.00     0.202 C 
BRANCH   3   8
ATOM      8  C   UNL     1     -34.815 -32.372   4.492  1.00  0.00     0.191 C 
BRANCH   8   9
ATOM      9  O   UNL     1     -33.778 -31.568   3.995  1.00  0.00    -0.394 OA
ATOM     10  H   UNL     1     -33.748 -31.717   3.014  1.00  0.00     0.210 HD
ENDBRANCH   8   9
ENDBRANCH   3   8
BRANCH   4  11
ATOM     11  O   UNL     1     -34.077 -33.449   7.091  1.00  0.00    -0.387 OA
ATOM     12  H   UNL     1     -33.438 -32.811   6.676  1.00  0.00     0.211 HD
ENDBRANCH   4  11
BRANCH   6  13
ATOM     13  O   UNL     1     -35.793 -33.246   9.268  1.00  0.00    -0.387 OA
ATOM     14  H   UNL     1     -35.069 -33.879   9.021  1.00  0.00     0.211 HD
ENDBRANCH   6  13
BRANCH   7  15
ATOM     15  O   UNL     1     -35.634 -30.400   9.687  1.00  0.00    -0.385 OA
ATOM     16  H   UNL     1     -35.508 -29.426   9.540  1.00  0.00     0.211 HD
ENDBRANCH   7  15
ENDBRANCH   1   2
BRANCH   1  17
ATOM     17  C   UNL     1     -36.338 -28.113   7.140  1.00  0.00     0.224 C 
ATOM     18  C   UNL     1     -34.911 -27.512   7.238  1.00  0.00     0.208 C 
ATOM     19  O   UNL     1     -37.044 -27.737   8.310  1.00  0.00    -0.337 OA
ATOM     20  C   UNL     1     -35.045 -26.459   8.306  1.00  0.00     0.180 C 
ATOM     21  C   UNL     1     -36.174 -27.017   9.152  1.00  0.00     0.179 C 
BRANCH  17  22
ATOM     22  C   UNL     1     -37.161 -27.566   5.942  1.00  0.00     0.225 C 
BRANCH  22  23
ATOM     23  O   UNL     1     -37.472 -26.214   6.141  1.00  0.00    -0.391 OA
ATOM     24  H   UNL     1     -38.241 -26.196   6.767  1.00  0.00     0.210 HD
ENDBRANCH  22  23
ENDBRANCH  17  22
BRANCH  18  25
ATOM     25  O   UNL     1     -34.473 -26.948   6.027  1.00  0.00    -0.385 OA
ATOM     26  H   UNL     1     -34.164 -27.701   5.458  1.00  0.00     0.211 HD
ENDBRANCH  18  25
BRANCH  20  27
ATOM     27  O   UNL     1     -33.867 -26.340   9.062  1.00  0.00    -0.387 OA
ATOM     28  H   UNL     1     -33.990 -26.907   9.866  1.00  0.00     0.211 HD
ENDBRANCH  20  27
BRANCH  21  29
ATOM     29  C   UNL     1     -36.960 -25.915   9.877  1.00  0.00     0.191 C 
BRANCH  29  30
ATOM     30  O   UNL     1     -38.030 -25.464   9.091  1.00  0.00    -0.394 OA
ATOM     31  H   UNL     1     -37.671 -25.329   8.175  1.00  0.00     0.210 HD
ENDBRANCH  29  30
ENDBRANCH  21  29
ENDBRANCH   1  17
TORSDOF 13
ENDMDL
MODEL 7
REMARK VINA RESULT:    -5.623      1.895      2.633
REMARK INTER + INTRA:         -10.084
REMARK INTER:                  -8.623
REMARK INTRA:                  -1.462
REMARK UNBOUND:                -1.504
REMARK SMILES OC[C@@H]1O[C@@H](O[C@@]2(CO)O[C@H](CO)[C@@H](O)[C@@H]2O)[C@@H](O)[C@H](O)[C@@H]1O
REMARK SMILES IDX 6 1 5 2 3 3 22 4 4 5 20 6 18 7 2 8 1 9 23 11 21 13 19 15
REMARK SMILES IDX 7 17 16 18 10 19 14 20 11 21 8 22 9 23 17 25 15 27 12 29
REMARK SMILES IDX 13 30
REMARK H PARENT 1 10 23 12 21 14 19 16 9 24 17 26 15 28 13 31
REMARK Flexibility Score: inf
ROOT
ATOM      1  O   UNL     1     -36.627 -29.924   6.904  1.00  0.00    -0.313 OA
ENDROOT
BRANCH   1   2
ATOM      2  C   UNL     1     -35.702 -29.533   7.917  1.00  0.00     0.285 C 
ATOM      3  C   UNL     1     -36.900 -27.562   8.379  1.00  0.00     0.178 C 
ATOM      4  C   UNL     1     -35.789 -26.644   7.827  1.00  0.00     0.177 C 
ATOM      5  O   UNL     1     -36.342 -28.752   8.919  1.00  0.00    -0.341 OA
ATOM      6  C   UNL     1     -35.004 -27.403   6.739  1.00  0.00     0.179 C 
ATOM      7  C   UNL     1     -34.527 -28.760   7.286  1.00  0.00     0.202 C 
BRANCH   3   8
ATOM      8  C   UNL     1     -37.710 -26.851   9.471  1.00  0.00     0.191 C 
BRANCH   8   9
ATOM      9  O   UNL     1     -37.935 -25.513   9.119  1.00  0.00    -0.394 OA
ATOM     10  H   UNL     1     -37.546 -25.387   8.214  1.00  0.00     0.210 HD
ENDBRANCH   8   9
ENDBRANCH   3   8
BRANCH   4  11
ATOM     11  O   UNL     1     -34.927 -26.257   8.868  1.00  0.00    -0.387 OA
ATOM     12  H   UNL     1     -35.498 -25.908   9.602  1.00  0.00     0.211 HD
ENDBRANCH   4  11
BRANCH   6  13
ATOM     13  O   UNL     1     -33.897 -26.650   6.316  1.00  0.00    -0.387 OA
ATOM     14  H   UNL     1     -33.126 -27.273   6.277  1.00  0.00     0.211 HD
ENDBRANCH   6  13
BRANCH   7  15
ATOM     15  O   UNL     1     -33.965 -29.529   6.254  1.00  0.00    -0.385 OA
ATOM     16  H   UNL     1     -34.621 -30.240   6.032  1.00  0.00     0.211 HD
ENDBRANCH   7  15
ENDBRANCH   1   2
BRANCH   1  17
ATOM     17  C   UNL     1     -37.064 -31.279   6.994  1.00  0.00     0.224 C 
ATOM     18  C   UNL     1     -38.350 -31.503   6.155  1.00  0.00     0.208 C 
ATOM     19  O   UNL     1     -37.395 -31.505   8.354  1.00  0.00    -0.337 OA
ATOM     20  C   UNL     1     -39.253 -32.263   7.089  1.00  0.00     0.180 C 
ATOM     21  C   UNL     1     -38.773 -31.783   8.446  1.00  0.00     0.179 C 
BRANCH  17  22
ATOM     22  C   UNL     1     -35.920 -32.274   6.655  1.00  0.00     0.225 C 
BRANCH  22  23
ATOM     23  O   UNL     1     -35.337 -31.942   5.424  1.00  0.00    -0.391 OA
ATOM     24  H   UNL     1     -35.171 -30.965   5.451  1.00  0.00     0.210 HD
ENDBRANCH  22  23
ENDBRANCH  17  22
BRANCH  18  25
ATOM     25  O   UNL     1     -38.112 -32.234   4.977  1.00  0.00    -0.385 OA
ATOM     26  H   UNL     1     -38.991 -32.580   4.675  1.00  0.00     0.211 HD
ENDBRANCH  18  25
BRANCH  20  27
ATOM     27  O   UNL     1     -40.602 -31.927   6.888  1.00  0.00    -0.387 OA
ATOM     28  H   UNL     1     -40.929 -32.504   6.152  1.00  0.00     0.211 HD
ENDBRANCH  20  27
BRANCH  21  29
ATOM     29  C   UNL     1     -39.014 -32.820   9.551  1.00  0.00     0.191 C 
BRANCH  29  30
ATOM     30  O   UNL     1     -40.273 -33.420   9.408  1.00  0.00    -0.394 OA
ATOM     31  H   UNL     1     -40.880 -32.721   9.048  1.00  0.00     0.210 HD
ENDBRANCH  29  30
ENDBRANCH  21  29
ENDBRANCH   1  17
TORSDOF 13
ENDMDL
MODEL 8
REMARK VINA RESULT:    -5.545      1.882      5.999
REMARK INTER + INTRA:          -9.966
REMARK INTER:                  -8.718
REMARK INTRA:                  -1.248
REMARK UNBOUND:                -1.504
REMARK SMILES OC[C@@H]1O[C@@H](O[C@@]2(CO)O[C@H](CO)[C@@H](O)[C@@H]2O)[C@@H](O)[C@H](O)[C@@H]1O
REMARK SMILES IDX 6 1 5 2 3 3 22 4 4 5 20 6 18 7 2 8 1 9 23 11 21 13 19 15
REMARK SMILES IDX 7 17 16 18 10 19 14 20 11 21 8 22 9 23 17 25 15 27 12 29
REMARK SMILES IDX 13 30
REMARK H PARENT 1 10 23 12 21 14 19 16 9 24 17 26 15 28 13 31
REMARK Flexibility Score: inf
ROOT
ATOM      1  O   UNL     1     -37.875 -30.351   7.726  1.00  0.00    -0.313 OA
ENDROOT
BRANCH   1   2
ATOM      2  C   UNL     1     -37.684 -31.748   7.511  1.00  0.00     0.285 C 
ATOM      3  C   UNL     1     -38.034 -31.534   5.196  1.00  0.00     0.178 C 
ATOM      4  C   UNL     1     -39.366 -32.314   5.228  1.00  0.00     0.177 C 
ATOM      5  O   UNL     1     -37.158 -31.998   6.214  1.00  0.00    -0.341 OA
ATOM      6  C   UNL     1     -40.019 -32.135   6.613  1.00  0.00     0.179 C 
ATOM      7  C   UNL     1     -39.014 -32.500   7.720  1.00  0.00     0.202 C 
BRANCH   3   8
ATOM      8  C   UNL     1     -37.341 -31.685   3.835  1.00  0.00     0.191 C 
BRANCH   8   9
ATOM      9  O   UNL     1     -36.689 -32.924   3.754  1.00  0.00    -0.394 OA
ATOM     10  H   UNL     1     -36.281 -32.973   2.850  1.00  0.00     0.210 HD
ENDBRANCH   8   9
ENDBRANCH   3   8
BRANCH   4  11
ATOM     11  O   UNL     1     -39.128 -33.676   4.975  1.00  0.00    -0.387 OA
ATOM     12  H   UNL     1     -39.875 -34.001   4.407  1.00  0.00     0.211 HD
ENDBRANCH   4  11
BRANCH   6  13
ATOM     13  O   UNL     1     -41.160 -32.946   6.726  1.00  0.00    -0.387 OA
ATOM     14  H   UNL     1     -41.884 -32.491   6.221  1.00  0.00     0.211 HD
ENDBRANCH   6  13
BRANCH   7  15
ATOM     15  O   UNL     1     -39.540 -32.174   8.980  1.00  0.00    -0.385 OA
ATOM     16  H   UNL     1     -38.781 -31.862   9.539  1.00  0.00     0.211 HD
ENDBRANCH   7  15
ENDBRANCH   1   2
BRANCH   1  17
ATOM     17  C   UNL     1     -36.753 -29.682   8.299  1.00  0.00     0.224 C 
ATOM     18  C   UNL     1     -37.101 -28.209   8.639  1.00  0.00     0.208 C 
ATOM     19  O   UNL     1     -35.745 -29.666   7.303  1.00  0.00    -0.337 OA
ATOM     20  C   UNL     1     -35.936 -27.434   8.083  1.00  0.00     0.180 C 
ATOM     21  C   UNL     1     -35.481 -28.329   6.946  1.00  0.00     0.179 C 
BRANCH  17  22
ATOM     22  C   UNL     1     -36.165 -30.473   9.499  1.00  0.00     0.225 C 
BRANCH  22  23
ATOM     23  O   UNL     1     -37.172 -30.762  10.432  1.00  0.00    -0.391 OA
ATOM     24  H   UNL     1     -37.002 -30.175  11.213  1.00  0.00     0.210 HD
ENDBRANCH  22  23
ENDBRANCH  17  22
BRANCH  18  25
ATOM     25  O   UNL     1     -37.243 -27.987  10.020  1.00  0.00    -0.385 OA
ATOM     26  H   UNL     1     -38.040 -27.407  10.134  1.00  0.00     0.211 HD
ENDBRANCH  18  25
BRANCH  20  27
ATOM     27  O   UNL     1     -36.336 -26.177   7.601  1.00  0.00    -0.387 OA
ATOM     28  H   UNL     1     -35.652 -25.899   6.939  1.00  0.00     0.211 HD
ENDBRANCH  20  27
BRANCH  21  29
ATOM     29  C   UNL     1     -33.985 -28.167   6.638  1.00  0.00     0.191 C 
BRANCH  29  30
ATOM     30  O   UNL     1     -33.693 -26.849   6.260  1.00  0.00    -0.394 OA
ATOM     31  H   UNL     1     -34.326 -26.616   5.531  1.00  0.00     0.210 HD
ENDBRANCH  29  30
ENDBRANCH  21  29
ENDBRANCH   1  17
TORSDOF 13
ENDMDL
MODEL 9
REMARK VINA RESULT:    -5.539      2.561      4.395
REMARK INTER + INTRA:          -9.956
REMARK INTER:                  -8.706
REMARK INTRA:                  -1.250
REMARK UNBOUND:                -1.504
REMARK SMILES OC[C@@H]1O[C@@H](O[C@@]2(CO)O[C@H](CO)[C@@H](O)[C@@H]2O)[C@@H](O)[C@H](O)[C@@H]1O
REMARK SMILES IDX 6 1 5 2 3 3 22 4 4 5 20 6 18 7 2 8 1 9 23 11 21 13 19 15
REMARK SMILES IDX 7 17 16 18 10 19 14 20 11 21 8 22 9 23 17 25 15 27 12 29
REMARK SMILES IDX 13 30
REMARK H PARENT 1 10 23 12 21 14 19 16 9 24 17 26 15 28 13 31
REMARK Flexibility Score: inf
ROOT
ATOM      1  O   UNL     1     -36.211 -29.544   6.464  1.00  0.00    -0.313 OA
ENDROOT
BRANCH   1   2
ATOM      2  C   UNL     1     -35.495 -29.316   7.677  1.00  0.00     0.285 C 
ATOM      3  C   UNL     1     -36.838 -27.465   8.229  1.00  0.00     0.178 C 
ATOM      4  C   UNL     1     -35.687 -26.454   8.043  1.00  0.00     0.177 C 
ATOM      5  O   UNL     1     -36.334 -28.722   8.660  1.00  0.00    -0.341 OA
ATOM      6  C   UNL     1     -34.691 -27.011   7.006  1.00  0.00     0.179 C 
ATOM      7  C   UNL     1     -34.261 -28.434   7.402  1.00  0.00     0.202 C 
BRANCH   3   8
ATOM      8  C   UNL     1     -37.856 -26.957   9.258  1.00  0.00     0.191 C 
BRANCH   8   9
ATOM      9  O   UNL     1     -37.892 -25.555   9.259  1.00  0.00    -0.394 OA
ATOM     10  H   UNL     1     -37.484 -25.259   8.403  1.00  0.00     0.210 HD
ENDBRANCH   8   9
ENDBRANCH   3   8
BRANCH   4  11
ATOM     11  O   UNL     1     -35.039 -26.236   9.271  1.00  0.00    -0.387 OA
ATOM     12  H   UNL     1     -35.605 -25.607   9.790  1.00  0.00     0.211 HD
ENDBRANCH   4  11
BRANCH   6  13
ATOM     13  O   UNL     1     -33.560 -26.183   6.918  1.00  0.00    -0.387 OA
ATOM     14  H   UNL     1     -32.991 -26.394   7.703  1.00  0.00     0.211 HD
ENDBRANCH   6  13
BRANCH   7  15
ATOM     15  O   UNL     1     -33.494 -29.013   6.378  1.00  0.00    -0.385 OA
ATOM     16  H   UNL     1     -33.916 -28.750   5.518  1.00  0.00     0.211 HD
ENDBRANCH   7  15
ENDBRANCH   1   2
BRANCH   1  17
ATOM     17  C   UNL     1     -36.257 -30.909   6.053  1.00  0.00     0.224 C 
ATOM     18  C   UNL     1     -35.454 -31.120   4.742  1.00  0.00     0.208 C 
ATOM     19  O   UNL     1     -37.617 -31.198   5.774  1.00  0.00    -0.337 OA
ATOM     20  C   UNL     1     -36.386 -31.935   3.885  1.00  0.00     0.180 C 
ATOM     21  C   UNL     1     -37.744 -31.503   4.405  1.00  0.00     0.179 C 
BRANCH  17  22
ATOM     22  C   UNL     1     -35.836 -31.868   7.200  1.00  0.00     0.225 C 
BRANCH  22  23
ATOM     23  O   UNL     1     -36.813 -32.855   7.393  1.00  0.00    -0.391 OA
ATOM     24  H   UNL     1     -36.384 -33.718   7.162  1.00  0.00     0.210 HD
ENDBRANCH  22  23
ENDBRANCH  17  22
BRANCH  18  25
ATOM     25  O   UNL     1     -34.239 -31.796   4.951  1.00  0.00    -0.385 OA
ATOM     26  H   UNL     1     -34.402 -32.749   4.729  1.00  0.00     0.211 HD
ENDBRANCH  18  25
BRANCH  20  27
ATOM     27  O   UNL     1     -36.246 -31.614   2.525  1.00  0.00    -0.387 OA
ATOM     28  H   UNL     1     -35.679 -32.323   2.125  1.00  0.00     0.211 HD
ENDBRANCH  20  27
BRANCH  21  29
ATOM     29  C   UNL     1     -38.812 -32.590   4.220  1.00  0.00     0.191 C 
BRANCH  29  30
ATOM     30  O   UNL     1     -38.225 -33.813   3.864  1.00  0.00    -0.394 OA
ATOM     31  H   UNL     1     -38.819 -34.526   4.216  1.00  0.00     0.210 HD
ENDBRANCH  29  30
ENDBRANCH  21  29
ENDBRANCH   1  17
TORSDOF 13
ENDMDL
