MODEL 1
REMARK VINA RESULT:    -7.796      0.000      0.000
REMARK INTER + INTRA:         -12.486
REMARK INTER:                 -10.758
REMARK INTRA:                  -1.728
REMARK UNBOUND:                -1.728
REMARK SMILES O=C([O-])[C@@H]1O[C@H](Oc2cc3oc(-c4ccccc4)cc(=O)c3c(O)c2O)[C@H](O)[C@H](O)[C@@H]1O
REMARK SMILES IDX 7 1 6 2 4 3 31 4 5 5 29 6 27 7 2 8 1 9 3 10 32 11 30 13
REMARK SMILES IDX 28 15 8 17 25 18 9 19 23 20 10 21 22 22 11 23 20 24 12 25
REMARK SMILES IDX 19 26 21 27 26 28 24 30 13 32 14 33 18 34 15 35 17 36 16 37
REMARK H PARENT 32 12 30 14 28 16 26 29 24 31
REMARK Flexibility Score: inf
ROOT
ATOM      1  O   UNL     1      29.172 -42.457  14.422  1.00  0.00    -0.458 OA
ENDROOT
BRANCH   1   2
ATOM      2  C   UNL     1      29.727 -43.201  15.512  1.00  0.00     0.339 C 
ATOM      3  C   UNL     1      27.744 -43.222  16.832  1.00  0.00     0.199 C 
ATOM      4  C   UNL     1      27.508 -44.733  16.551  1.00  0.00     0.180 C 
ATOM      5  O   UNL     1      29.115 -42.848  16.748  1.00  0.00    -0.328 OA
ATOM      6  C   UNL     1      28.190 -45.205  15.251  1.00  0.00     0.181 C 
ATOM      7  C   UNL     1      29.646 -44.717  15.248  1.00  0.00     0.214 C 
BRANCH   3   8
ATOM      8  C   UNL     1      26.857 -42.253  16.084  1.00  0.00     0.073 C 
ATOM      9  O   UNL     1      26.091 -42.633  15.161  1.00  0.00    -0.547 OA
ATOM     10  O   UNL     1      26.885 -40.907  16.427  1.00  0.00    -0.547 OA
ENDBRANCH   3   8
BRANCH   4  11
ATOM     11  O   UNL     1      26.134 -45.025  16.538  1.00  0.00    -0.387 OA
ATOM     12  H   UNL     1      25.792 -44.762  15.643  1.00  0.00     0.211 HD
ENDBRANCH   4  11
BRANCH   6  13
ATOM     13  O   UNL     1      27.509 -44.730  14.118  1.00  0.00    -0.387 OA
ATOM     14  H   UNL     1      26.693 -44.265  14.443  1.00  0.00     0.211 HD
ENDBRANCH   6  13
BRANCH   7  15
ATOM     15  O   UNL     1      30.310 -45.077  14.061  1.00  0.00    -0.384 OA
ATOM     16  H   UNL     1      30.655 -44.250  13.635  1.00  0.00     0.211 HD
ENDBRANCH   7  15
ENDBRANCH   1   2
BRANCH   1  17
ATOM     17  C   UNL     1      29.500 -41.132  14.093  1.00  0.00     0.172 A 
ATOM     18  C   UNL     1      28.611 -40.411  13.288  1.00  0.00     0.201 A 
ATOM     19  C   UNL     1      30.677 -40.518  14.542  1.00  0.00     0.098 A 
ATOM     20  C   UNL     1      28.884 -39.078  12.925  1.00  0.00     0.176 A 
ATOM     21  C   UNL     1      30.948 -39.186  14.231  1.00  0.00     0.146 A 
ATOM     22  C   UNL     1      30.045 -38.431  13.442  1.00  0.00     0.111 A 
ATOM     23  O   UNL     1      32.064 -38.639  14.700  1.00  0.00    -0.456 OA
ATOM     24  C   UNL     1      30.350 -37.061  13.256  1.00  0.00     0.197 A 
ATOM     25  C   UNL     1      32.406 -37.372  14.489  1.00  0.00     0.138 A 
ATOM     26  C   UNL     1      31.540 -36.541  13.766  1.00  0.00     0.100 A 
ATOM     27  O   UNL     1      29.559 -36.274  12.673  1.00  0.00    -0.289 OA
BRANCH  18  28
ATOM     28  O   UNL     1      27.454 -41.051  12.839  1.00  0.00    -0.502 OA
ATOM     29  H   UNL     1      26.525 -40.705  13.048  1.00  0.00     0.293 HD
ENDBRANCH  18  28
BRANCH  20  30
ATOM     30  O   UNL     1      27.995 -38.462  12.037  1.00  0.00    -0.504 OA
ATOM     31  H   UNL     1      27.272 -37.813  12.310  1.00  0.00     0.293 HD
ENDBRANCH  20  30
BRANCH  25  32
ATOM     32  C   UNL     1      33.685 -36.873  15.053  1.00  0.00     0.017 A 
ATOM     33  C   UNL     1      34.313 -35.714  14.553  1.00  0.00     0.012 A 
ATOM     34  C   UNL     1      34.309 -37.587  16.093  1.00  0.00     0.012 A 
ATOM     35  C   UNL     1      35.523 -35.273  15.099  1.00  0.00     0.001 A 
ATOM     36  C   UNL     1      35.518 -37.140  16.634  1.00  0.00     0.001 A 
ATOM     37  C   UNL     1      36.124 -35.984  16.140  1.00  0.00     0.000 A 
ENDBRANCH  25  32
ENDBRANCH   1  17
TORSDOF 9
ENDMDL
MODEL 2
REMARK VINA RESULT:    -7.729      2.328      8.109
REMARK INTER + INTRA:         -12.394
REMARK INTER:                 -11.203
REMARK INTRA:                  -1.191
REMARK UNBOUND:                -1.728
REMARK SMILES O=C([O-])[C@@H]1O[C@H](Oc2cc3oc(-c4ccccc4)cc(=O)c3c(O)c2O)[C@H](O)[C@H](O)[C@@H]1O
REMARK SMILES IDX 7 1 6 2 4 3 31 4 5 5 29 6 27 7 2 8 1 9 3 10 32 11 30 13
REMARK SMILES IDX 28 15 8 17 25 18 9 19 23 20 10 21 22 22 11 23 20 24 12 25
REMARK SMILES IDX 19 26 21 27 26 28 24 30 13 32 14 33 18 34 15 35 17 36 16 37
REMARK H PARENT 32 12 30 14 28 16 26 29 24 31
REMARK Flexibility Score: inf
ROOT
ATOM      1  O   UNL     1      29.307 -38.577  14.111  1.00  0.00    -0.458 OA
ENDROOT
BRANCH   1   2
ATOM      2  C   UNL     1      28.617 -37.716  13.199  1.00  0.00     0.339 C 
ATOM      3  C   UNL     1      30.125 -35.883  13.397  1.00  0.00     0.199 C 
ATOM      4  C   UNL     1      30.700 -36.132  11.975  1.00  0.00     0.180 C 
ATOM      5  O   UNL     1      28.787 -36.346  13.545  1.00  0.00    -0.328 OA
ATOM      6  C   UNL     1      30.502 -37.587  11.504  1.00  0.00     0.181 C 
ATOM      7  C   UNL     1      29.042 -37.993  11.744  1.00  0.00     0.214 C 
BRANCH   3   8
ATOM      8  C   UNL     1      30.994 -36.314  14.558  1.00  0.00     0.073 C 
ATOM      9  O   UNL     1      32.113 -36.861  14.380  1.00  0.00    -0.547 OA
ATOM     10  O   UNL     1      30.546 -36.098  15.854  1.00  0.00    -0.547 OA
ENDBRANCH   3   8
BRANCH   4  11
ATOM     11  O   UNL     1      32.054 -35.760  11.916  1.00  0.00    -0.387 OA
ATOM     12  H   UNL     1      32.076 -34.774  11.795  1.00  0.00     0.211 HD
ENDBRANCH   4  11
BRANCH   6  13
ATOM     13  O   UNL     1      31.373 -38.462  12.177  1.00  0.00    -0.387 OA
ATOM     14  H   UNL     1      32.297 -38.140  12.005  1.00  0.00     0.211 HD
ENDBRANCH   6  13
BRANCH   7  15
ATOM     15  O   UNL     1      28.809 -39.332  11.378  1.00  0.00    -0.384 OA
ATOM     16  H   UNL     1      29.559 -39.883  11.720  1.00  0.00     0.211 HD
ENDBRANCH   7  15
ENDBRANCH   1   2
BRANCH   1  17
ATOM     17  C   UNL     1      28.813 -39.791  14.614  1.00  0.00     0.172 A 
ATOM     18  C   UNL     1      27.788 -39.745  15.565  1.00  0.00     0.201 A 
ATOM     19  C   UNL     1      29.312 -41.033  14.196  1.00  0.00     0.098 A 
ATOM     20  C   UNL     1      27.250 -40.930  16.105  1.00  0.00     0.176 A 
ATOM     21  C   UNL     1      28.767 -42.219  14.686  1.00  0.00     0.146 A 
ATOM     22  C   UNL     1      27.707 -42.193  15.627  1.00  0.00     0.111 A 
ATOM     23  O   UNL     1      29.255 -43.373  14.242  1.00  0.00    -0.456 OA
ATOM     24  C   UNL     1      27.150 -43.441  15.996  1.00  0.00     0.197 A 
ATOM     25  C   UNL     1      28.792 -44.559  14.620  1.00  0.00     0.138 A 
ATOM     26  C   UNL     1      27.707 -44.622  15.505  1.00  0.00     0.100 A 
ATOM     27  O   UNL     1      26.132 -43.525  16.732  1.00  0.00    -0.289 OA
BRANCH  18  28
ATOM     28  O   UNL     1      27.319 -38.496  15.976  1.00  0.00    -0.502 OA
ATOM     29  H   UNL     1      26.433 -38.117  15.665  1.00  0.00     0.293 HD
ENDBRANCH  18  28
BRANCH  20  30
ATOM     30  O   UNL     1      26.298 -40.794  17.122  1.00  0.00    -0.504 OA
ATOM     31  H   UNL     1      25.516 -41.416  17.259  1.00  0.00     0.293 HD
ENDBRANCH  20  30
BRANCH  25  32
ATOM     32  C   UNL     1      29.424 -45.783  14.066  1.00  0.00     0.017 A 
ATOM     33  C   UNL     1      29.195 -46.201  12.740  1.00  0.00     0.012 A 
ATOM     34  C   UNL     1      30.251 -46.569  14.891  1.00  0.00     0.012 A 
ATOM     35  C   UNL     1      29.798 -47.365  12.250  1.00  0.00     0.001 A 
ATOM     36  C   UNL     1      30.851 -47.730  14.395  1.00  0.00     0.001 A 
ATOM     37  C   UNL     1      30.627 -48.127  13.076  1.00  0.00     0.000 A 
ENDBRANCH  25  32
ENDBRANCH   1  17
TORSDOF 9
ENDMDL
MODEL 3
REMARK VINA RESULT:    -7.390      2.671      4.585
REMARK INTER + INTRA:         -11.926
REMARK INTER:                 -10.619
REMARK INTRA:                  -1.307
REMARK UNBOUND:                -1.728
REMARK SMILES O=C([O-])[C@@H]1O[C@H](Oc2cc3oc(-c4ccccc4)cc(=O)c3c(O)c2O)[C@H](O)[C@H](O)[C@@H]1O
REMARK SMILES IDX 7 1 6 2 4 3 31 4 5 5 29 6 27 7 2 8 1 9 3 10 32 11 30 13
REMARK SMILES IDX 28 15 8 17 25 18 9 19 23 20 10 21 22 22 11 23 20 24 12 25
REMARK SMILES IDX 19 26 21 27 26 28 24 30 13 32 14 33 18 34 15 35 17 36 16 37
REMARK H PARENT 32 12 30 14 28 16 26 29 24 31
REMARK Flexibility Score: inf
ROOT
ATOM      1  O   UNL     1      30.046 -37.609  14.526  1.00  0.00    -0.458 OA
ENDROOT
BRANCH   1   2
ATOM      2  C   UNL     1      30.434 -38.828  15.170  1.00  0.00     0.339 C 
ATOM      3  C   UNL     1      28.221 -39.648  15.500  1.00  0.00     0.199 C 
ATOM      4  C   UNL     1      28.402 -40.734  14.403  1.00  0.00     0.180 C 
ATOM      5  O   UNL     1      29.450 -39.258  16.105  1.00  0.00    -0.328 OA
ATOM      6  C   UNL     1      29.495 -40.364  13.380  1.00  0.00     0.181 C 
ATOM      7  C   UNL     1      30.756 -39.925  14.137  1.00  0.00     0.214 C 
BRANCH   3   8
ATOM      8  C   UNL     1      27.381 -38.447  15.125  1.00  0.00     0.073 C 
ATOM      9  O   UNL     1      27.232 -38.091  13.928  1.00  0.00    -0.547 OA
ATOM     10  O   UNL     1      26.755 -37.720  16.129  1.00  0.00    -0.547 OA
ENDBRANCH   3   8
BRANCH   4  11
ATOM     11  O   UNL     1      27.179 -41.001  13.765  1.00  0.00    -0.387 OA
ATOM     12  H   UNL     1      26.500 -40.413  14.188  1.00  0.00     0.211 HD
ENDBRANCH   4  11
BRANCH   6  13
ATOM     13  O   UNL     1      29.059 -39.345  12.517  1.00  0.00    -0.387 OA
ATOM     14  H   UNL     1      29.320 -38.481  12.932  1.00  0.00     0.211 HD
ENDBRANCH   6  13
BRANCH   7  15
ATOM     15  O   UNL     1      31.778 -39.527  13.255  1.00  0.00    -0.384 OA
ATOM     16  H   UNL     1      31.507 -39.775  12.333  1.00  0.00     0.211 HD
ENDBRANCH   7  15
ENDBRANCH   1   2
BRANCH   1  17
ATOM     17  C   UNL     1      30.928 -36.664  13.977  1.00  0.00     0.172 A 
ATOM     18  C   UNL     1      30.501 -35.926  12.869  1.00  0.00     0.201 A 
ATOM     19  C   UNL     1      32.209 -36.442  14.503  1.00  0.00     0.098 A 
ATOM     20  C   UNL     1      31.340 -34.962  12.276  1.00  0.00     0.176 A 
ATOM     21  C   UNL     1      33.040 -35.463  13.959  1.00  0.00     0.146 A 
ATOM     22  C   UNL     1      32.613 -34.685  12.855  1.00  0.00     0.111 A 
ATOM     23  O   UNL     1      34.236 -35.271  14.507  1.00  0.00    -0.456 OA
ATOM     24  C   UNL     1      33.481 -33.650  12.429  1.00  0.00     0.197 A 
ATOM     25  C   UNL     1      35.095 -34.348  14.087  1.00  0.00     0.138 A 
ATOM     26  C   UNL     1      34.728 -33.497  13.036  1.00  0.00     0.100 A 
ATOM     27  O   UNL     1      33.149 -32.826  11.537  1.00  0.00    -0.289 OA
BRANCH  18  28
ATOM     28  O   UNL     1      29.228 -36.178  12.354  1.00  0.00    -0.502 OA
ATOM     29  H   UNL     1      29.065 -36.370  11.373  1.00  0.00     0.293 HD
ENDBRANCH  18  28
BRANCH  20  30
ATOM     30  O   UNL     1      30.876 -34.339  11.112  1.00  0.00    -0.504 OA
ATOM     31  H   UNL     1      31.411 -34.241  10.263  1.00  0.00     0.293 HD
ENDBRANCH  20  30
BRANCH  25  32
ATOM     32  C   UNL     1      36.409 -34.232  14.768  1.00  0.00     0.017 A 
ATOM     33  C   UNL     1      36.668 -34.878  15.994  1.00  0.00     0.012 A 
ATOM     34  C   UNL     1      37.417 -33.433  14.196  1.00  0.00     0.012 A 
ATOM     35  C   UNL     1      37.914 -34.741  16.616  1.00  0.00     0.001 A 
ATOM     36  C   UNL     1      38.660 -33.301  14.823  1.00  0.00     0.001 A 
ATOM     37  C   UNL     1      38.909 -33.956  16.030  1.00  0.00     0.000 A 
ENDBRANCH  25  32
ENDBRANCH   1  17
TORSDOF 9
ENDMDL
MODEL 4
REMARK VINA RESULT:    -7.368      2.721      4.669
REMARK INTER + INTRA:         -11.895
REMARK INTER:                 -10.035
REMARK INTRA:                  -1.861
REMARK UNBOUND:                -1.728
REMARK SMILES O=C([O-])[C@@H]1O[C@H](Oc2cc3oc(-c4ccccc4)cc(=O)c3c(O)c2O)[C@H](O)[C@H](O)[C@@H]1O
REMARK SMILES IDX 7 1 6 2 4 3 31 4 5 5 29 6 27 7 2 8 1 9 3 10 32 11 30 13
REMARK SMILES IDX 28 15 8 17 25 18 9 19 23 20 10 21 22 22 11 23 20 24 12 25
REMARK SMILES IDX 19 26 21 27 26 28 24 30 13 32 14 33 18 34 15 35 17 36 16 37
REMARK H PARENT 32 12 30 14 28 16 26 29 24 31
REMARK Flexibility Score: inf
ROOT
ATOM      1  O   UNL     1      30.003 -37.750  13.924  1.00  0.00    -0.458 OA
ENDROOT
BRANCH   1   2
ATOM      2  C   UNL     1      30.087 -39.140  13.593  1.00  0.00     0.339 C 
ATOM      3  C   UNL     1      29.664 -39.945  15.795  1.00  0.00     0.199 C 
ATOM      4  C   UNL     1      28.240 -40.431  15.402  1.00  0.00     0.180 C 
ATOM      5  O   UNL     1      30.563 -39.909  14.692  1.00  0.00    -0.328 OA
ATOM      6  C   UNL     1      27.676 -39.681  14.178  1.00  0.00     0.181 C 
ATOM      7  C   UNL     1      28.738 -39.669  13.070  1.00  0.00     0.214 C 
BRANCH   3   8
ATOM      8  C   UNL     1      29.737 -38.676  16.614  1.00  0.00     0.073 C 
ATOM      9  O   UNL     1      28.704 -38.030  16.929  1.00  0.00    -0.547 OA
ATOM     10  O   UNL     1      30.977 -38.212  17.032  1.00  0.00    -0.547 OA
ENDBRANCH   3   8
BRANCH   4  11
ATOM     11  O   UNL     1      27.366 -40.343  16.498  1.00  0.00    -0.387 OA
ATOM     12  H   UNL     1      27.850 -40.714  17.282  1.00  0.00     0.211 HD
ENDBRANCH   4  11
BRANCH   6  13
ATOM     13  O   UNL     1      27.303 -38.369  14.516  1.00  0.00    -0.387 OA
ATOM     14  H   UNL     1      26.312 -38.359  14.591  1.00  0.00     0.211 HD
ENDBRANCH   6  13
BRANCH   7  15
ATOM     15  O   UNL     1      28.299 -38.954  11.940  1.00  0.00    -0.384 OA
ATOM     16  H   UNL     1      27.873 -39.594  11.313  1.00  0.00     0.211 HD
ENDBRANCH   7  15
ENDBRANCH   1   2
BRANCH   1  17
ATOM     17  C   UNL     1      30.906 -36.758  13.506  1.00  0.00     0.172 A 
ATOM     18  C   UNL     1      30.541 -35.942  12.431  1.00  0.00     0.201 A 
ATOM     19  C   UNL     1      32.147 -36.567  14.129  1.00  0.00     0.098 A 
ATOM     20  C   UNL     1      31.404 -34.929  11.968  1.00  0.00     0.176 A 
ATOM     21  C   UNL     1      32.999 -35.544  13.715  1.00  0.00     0.146 A 
ATOM     22  C   UNL     1      32.634 -34.687  12.647  1.00  0.00     0.111 A 
ATOM     23  O   UNL     1      34.155 -35.384  14.351  1.00  0.00    -0.456 OA
ATOM     24  C   UNL     1      33.514 -33.616  12.357  1.00  0.00     0.197 A 
ATOM     25  C   UNL     1      35.028 -34.426  14.058  1.00  0.00     0.138 A 
ATOM     26  C   UNL     1      34.718 -33.501  13.052  1.00  0.00     0.100 A 
ATOM     27  O   UNL     1      33.230 -32.730  11.509  1.00  0.00    -0.289 OA
BRANCH  18  28
ATOM     28  O   UNL     1      29.306 -36.164  11.818  1.00  0.00    -0.502 OA
ATOM     29  H   UNL     1      28.818 -37.049  11.881  1.00  0.00     0.293 HD
ENDBRANCH  18  28
BRANCH  20  30
ATOM     30  O   UNL     1      31.007 -34.224  10.827  1.00  0.00    -0.504 OA
ATOM     31  H   UNL     1      31.609 -33.618  10.290  1.00  0.00     0.293 HD
ENDBRANCH  20  30
BRANCH  25  32
ATOM     32  C   UNL     1      36.294 -34.351  14.829  1.00  0.00     0.017 A 
ATOM     33  C   UNL     1      37.348 -33.497  14.444  1.00  0.00     0.012 A 
ATOM     34  C   UNL     1      36.468 -35.175  15.958  1.00  0.00     0.012 A 
ATOM     35  C   UNL     1      38.533 -33.456  15.185  1.00  0.00     0.001 A 
ATOM     36  C   UNL     1      37.654 -35.128  16.695  1.00  0.00     0.001 A 
ATOM     37  C   UNL     1      38.685 -34.269  16.311  1.00  0.00     0.000 A 
ENDBRANCH  25  32
ENDBRANCH   1  17
TORSDOF 9
ENDMDL
MODEL 5
REMARK VINA RESULT:    -6.943      2.372      8.196
REMARK INTER + INTRA:         -11.309
REMARK INTER:                  -9.500
REMARK INTRA:                  -1.809
REMARK UNBOUND:                -1.728
REMARK SMILES O=C([O-])[C@@H]1O[C@H](Oc2cc3oc(-c4ccccc4)cc(=O)c3c(O)c2O)[C@H](O)[C@H](O)[C@@H]1O
REMARK SMILES IDX 7 1 6 2 4 3 31 4 5 5 29 6 27 7 2 8 1 9 3 10 32 11 30 13
REMARK SMILES IDX 28 15 8 17 25 18 9 19 23 20 10 21 22 22 11 23 20 24 12 25
REMARK SMILES IDX 19 26 21 27 26 28 24 30 13 32 14 33 18 34 15 35 17 36 16 37
REMARK H PARENT 32 12 30 14 28 16 26 29 24 31
REMARK Flexibility Score: inf
ROOT
ATOM      1  O   UNL     1      29.670 -38.245  14.535  1.00  0.00    -0.458 OA
ENDROOT
BRANCH   1   2
ATOM      2  C   UNL     1      30.912 -37.730  15.028  1.00  0.00     0.339 C 
ATOM      3  C   UNL     1      31.278 -36.205  13.234  1.00  0.00     0.199 C 
ATOM      4  C   UNL     1      30.963 -34.981  14.139  1.00  0.00     0.180 C 
ATOM      5  O   UNL     1      31.767 -37.325  13.964  1.00  0.00    -0.328 OA
ATOM      6  C   UNL     1      30.083 -35.351  15.350  1.00  0.00     0.181 C 
ATOM      7  C   UNL     1      30.679 -36.588  16.037  1.00  0.00     0.214 C 
BRANCH   3   8
ATOM      8  C   UNL     1      30.200 -36.609  12.253  1.00  0.00     0.073 C 
ATOM      9  O   UNL     1      29.127 -35.961  12.144  1.00  0.00    -0.547 OA
ATOM     10  O   UNL     1      30.402 -37.723  11.448  1.00  0.00    -0.547 OA
ENDBRANCH   3   8
BRANCH   4  11
ATOM     11  O   UNL     1      30.381 -33.946  13.387  1.00  0.00    -0.387 OA
ATOM     12  H   UNL     1      30.720 -34.040  12.459  1.00  0.00     0.211 HD
ENDBRANCH   4  11
BRANCH   6  13
ATOM     13  O   UNL     1      28.756 -35.597  14.957  1.00  0.00    -0.387 OA
ATOM     14  H   UNL     1      28.720 -36.533  14.627  1.00  0.00     0.211 HD
ENDBRANCH   6  13
BRANCH   7  15
ATOM     15  O   UNL     1      29.890 -37.006  17.125  1.00  0.00    -0.384 OA
ATOM     16  H   UNL     1      29.674 -37.967  17.002  1.00  0.00     0.211 HD
ENDBRANCH   7  15
ENDBRANCH   1   2
BRANCH   1  17
ATOM     17  C   UNL     1      29.070 -39.447  14.943  1.00  0.00     0.172 A 
ATOM     18  C   UNL     1      27.944 -39.376  15.769  1.00  0.00     0.201 A 
ATOM     19  C   UNL     1      29.561 -40.700  14.550  1.00  0.00     0.098 A 
ATOM     20  C   UNL     1      27.297 -40.548  16.210  1.00  0.00     0.176 A 
ATOM     21  C   UNL     1      28.912 -41.871  14.940  1.00  0.00     0.146 A 
ATOM     22  C   UNL     1      27.752 -41.818  15.752  1.00  0.00     0.111 A 
ATOM     23  O   UNL     1      29.399 -43.035  14.523  1.00  0.00    -0.456 OA
ATOM     24  C   UNL     1      27.103 -43.048  16.019  1.00  0.00     0.197 A 
ATOM     25  C   UNL     1      28.845 -44.208  14.810  1.00  0.00     0.138 A 
ATOM     26  C   UNL     1      27.663 -44.241  15.561  1.00  0.00     0.100 A 
ATOM     27  O   UNL     1      26.003 -43.103  16.629  1.00  0.00    -0.289 OA
BRANCH  18  28
ATOM     28  O   UNL     1      27.484 -38.117  16.160  1.00  0.00    -0.502 OA
ATOM     29  H   UNL     1      27.650 -37.739  17.085  1.00  0.00     0.293 HD
ENDBRANCH  18  28
BRANCH  20  30
ATOM     30  O   UNL     1      26.239 -40.393  17.113  1.00  0.00    -0.504 OA
ATOM     31  H   UNL     1      25.811 -39.510  17.347  1.00  0.00     0.293 HD
ENDBRANCH  20  30
BRANCH  25  32
ATOM     32  C   UNL     1      29.485 -45.446  14.299  1.00  0.00     0.017 A 
ATOM     33  C   UNL     1      30.355 -46.215  15.099  1.00  0.00     0.012 A 
ATOM     34  C   UNL     1      29.247 -45.852  12.973  1.00  0.00     0.012 A 
ATOM     35  C   UNL     1      30.951 -47.372  14.586  1.00  0.00     0.001 A 
ATOM     36  C   UNL     1      29.845 -47.010  12.467  1.00  0.00     0.001 A 
ATOM     37  C   UNL     1      30.694 -47.771  13.272  1.00  0.00     0.000 A 
ENDBRANCH  25  32
ENDBRANCH   1  17
TORSDOF 9
ENDMDL
MODEL 6
REMARK VINA RESULT:    -6.653      1.886      3.122
REMARK INTER + INTRA:         -10.909
REMARK INTER:                  -9.129
REMARK INTRA:                  -1.781
REMARK UNBOUND:                -1.728
REMARK SMILES O=C([O-])[C@@H]1O[C@H](Oc2cc3oc(-c4ccccc4)cc(=O)c3c(O)c2O)[C@H](O)[C@H](O)[C@@H]1O
REMARK SMILES IDX 7 1 6 2 4 3 31 4 5 5 29 6 27 7 2 8 1 9 3 10 32 11 30 13
REMARK SMILES IDX 28 15 8 17 25 18 9 19 23 20 10 21 22 22 11 23 20 24 12 25
REMARK SMILES IDX 19 26 21 27 26 28 24 30 13 32 14 33 18 34 15 35 17 36 16 37
REMARK H PARENT 32 12 30 14 28 16 26 29 24 31
REMARK Flexibility Score: inf
ROOT
ATOM      1  O   UNL     1      29.320 -39.435  14.085  1.00  0.00    -0.458 OA
ENDROOT
BRANCH   1   2
ATOM      2  C   UNL     1      29.682 -40.767  13.705  1.00  0.00     0.339 C 
ATOM      3  C   UNL     1      29.830 -41.625  15.923  1.00  0.00     0.199 C 
ATOM      4  C   UNL     1      28.522 -42.446  15.750  1.00  0.00     0.180 C 
ATOM      5  O   UNL     1      30.503 -41.384  14.692  1.00  0.00    -0.328 OA
ATOM      6  C   UNL     1      27.602 -41.870  14.655  1.00  0.00     0.181 C 
ATOM      7  C   UNL     1      28.435 -41.614  13.391  1.00  0.00     0.214 C 
BRANCH   3   8
ATOM      8  C   UNL     1      29.727 -40.366  16.755  1.00  0.00     0.073 C 
ATOM      9  O   UNL     1      28.616 -39.905  17.125  1.00  0.00    -0.547 OA
ATOM     10  O   UNL     1      30.890 -39.703  17.124  1.00  0.00    -0.547 OA
ENDBRANCH   3   8
BRANCH   4  11
ATOM     11  O   UNL     1      27.843 -42.560  16.975  1.00  0.00    -0.387 OA
ATOM     12  H   UNL     1      28.453 -42.209  17.675  1.00  0.00     0.211 HD
ENDBRANCH   4  11
BRANCH   6  13
ATOM     13  O   UNL     1      26.983 -40.684  15.085  1.00  0.00    -0.387 OA
ATOM     14  H   UNL     1      26.063 -40.684  14.709  1.00  0.00     0.211 HD
ENDBRANCH   6  13
BRANCH   7  15
ATOM     15  O   UNL     1      27.658 -41.040  12.367  1.00  0.00    -0.384 OA
ATOM     16  H   UNL     1      26.761 -41.465  12.381  1.00  0.00     0.211 HD
ENDBRANCH   7  15
ENDBRANCH   1   2
BRANCH   1  17
ATOM     17  C   UNL     1      29.931 -38.261  13.613  1.00  0.00     0.172 A 
ATOM     18  C   UNL     1      29.252 -37.502  12.655  1.00  0.00     0.201 A 
ATOM     19  C   UNL     1      31.185 -37.835  14.071  1.00  0.00     0.098 A 
ATOM     20  C   UNL     1      29.812 -36.314  12.145  1.00  0.00     0.176 A 
ATOM     21  C   UNL     1      31.740 -36.640  13.612  1.00  0.00     0.146 A 
ATOM     22  C   UNL     1      31.054 -35.842  12.663  1.00  0.00     0.111 A 
ATOM     23  O   UNL     1      32.921 -36.263  14.092  1.00  0.00    -0.456 OA
ATOM     24  C   UNL     1      31.645 -34.600  12.326  1.00  0.00     0.197 A 
ATOM     25  C   UNL     1      33.527 -35.133  13.746  1.00  0.00     0.138 A 
ATOM     26  C   UNL     1      32.889 -34.258  12.855  1.00  0.00     0.100 A 
ATOM     27  O   UNL     1      31.063 -33.764  11.586  1.00  0.00    -0.289 OA
BRANCH  18  28
ATOM     28  O   UNL     1      28.011 -37.957  12.204  1.00  0.00    -0.502 OA
ATOM     29  H   UNL     1      27.285 -38.273  12.835  1.00  0.00     0.293 HD
ENDBRANCH  18  28
BRANCH  20  30
ATOM     30  O   UNL     1      29.115 -35.667  11.119  1.00  0.00    -0.504 OA
ATOM     31  H   UNL     1      29.452 -34.858  10.620  1.00  0.00     0.293 HD
ENDBRANCH  20  30
BRANCH  25  32
ATOM     32  C   UNL     1      34.852 -34.821  14.338  1.00  0.00     0.017 A 
ATOM     33  C   UNL     1      35.687 -33.821  13.800  1.00  0.00     0.012 A 
ATOM     34  C   UNL     1      35.306 -35.559  15.448  1.00  0.00     0.012 A 
ATOM     35  C   UNL     1      36.935 -33.557  14.375  1.00  0.00     0.001 A 
ATOM     36  C   UNL     1      36.553 -35.289  16.018  1.00  0.00     0.001 A 
ATOM     37  C   UNL     1      37.366 -34.287  15.484  1.00  0.00     0.000 A 
ENDBRANCH  25  32
ENDBRANCH   1  17
TORSDOF 9
ENDMDL
MODEL 7
REMARK VINA RESULT:    -6.574      1.904      3.439
REMARK INTER + INTRA:         -10.800
REMARK INTER:                  -9.608
REMARK INTRA:                  -1.192
REMARK UNBOUND:                -1.728
REMARK SMILES O=C([O-])[C@@H]1O[C@H](Oc2cc3oc(-c4ccccc4)cc(=O)c3c(O)c2O)[C@H](O)[C@H](O)[C@@H]1O
REMARK SMILES IDX 7 1 6 2 4 3 31 4 5 5 29 6 27 7 2 8 1 9 3 10 32 11 30 13
REMARK SMILES IDX 28 15 8 17 25 18 9 19 23 20 10 21 22 22 11 23 20 24 12 25
REMARK SMILES IDX 19 26 21 27 26 28 24 30 13 32 14 33 18 34 15 35 17 36 16 37
REMARK H PARENT 32 12 30 14 28 16 26 29 24 31
REMARK Flexibility Score: inf
ROOT
ATOM      1  O   UNL     1      29.169 -39.392  14.419  1.00  0.00    -0.458 OA
ENDROOT
BRANCH   1   2
ATOM      2  C   UNL     1      28.135 -39.310  15.406  1.00  0.00     0.339 C 
ATOM      3  C   UNL     1      27.463 -41.590  15.250  1.00  0.00     0.199 C 
ATOM      4  C   UNL     1      28.091 -41.925  16.632  1.00  0.00     0.180 C 
ATOM      5  O   UNL     1      27.080 -40.224  15.130  1.00  0.00    -0.328 OA
ATOM      6  C   UNL     1      29.209 -40.941  17.028  1.00  0.00     0.181 C 
ATOM      7  C   UNL     1      28.703 -39.506  16.824  1.00  0.00     0.214 C 
BRANCH   3   8
ATOM      8  C   UNL     1      28.227 -42.061  14.033  1.00  0.00     0.073 C 
ATOM      9  O   UNL     1      27.806 -41.855  12.866  1.00  0.00    -0.547 OA
ATOM     10  O   UNL     1      29.428 -42.737  14.209  1.00  0.00    -0.547 OA
ENDBRANCH   3   8
BRANCH   4  11
ATOM     11  O   UNL     1      28.551 -43.253  16.657  1.00  0.00    -0.387 OA
ATOM     12  H   UNL     1      27.747 -43.836  16.678  1.00  0.00     0.211 HD
ENDBRANCH   4  11
BRANCH   6  13
ATOM     13  O   UNL     1      30.373 -41.164  16.272  1.00  0.00    -0.387 OA
ATOM     14  H   UNL     1      30.120 -41.073  15.316  1.00  0.00     0.211 HD
ENDBRANCH   6  13
BRANCH   7  15
ATOM     15  O   UNL     1      29.700 -38.558  17.124  1.00  0.00    -0.384 OA
ATOM     16  H   UNL     1      30.578 -39.020  17.128  1.00  0.00     0.211 HD
ENDBRANCH   7  15
ENDBRANCH   1   2
BRANCH   1  17
ATOM     17  C   UNL     1      29.834 -38.296  13.845  1.00  0.00     0.172 A 
ATOM     18  C   UNL     1      29.209 -37.622  12.790  1.00  0.00     0.201 A 
ATOM     19  C   UNL     1      31.089 -37.863  14.294  1.00  0.00     0.098 A 
ATOM     20  C   UNL     1      29.825 -36.515  12.175  1.00  0.00     0.176 A 
ATOM     21  C   UNL     1      31.699 -36.743  13.728  1.00  0.00     0.146 A 
ATOM     22  C   UNL     1      31.068 -36.030  12.679  1.00  0.00     0.111 A 
ATOM     23  O   UNL     1      32.878 -36.354  14.203  1.00  0.00    -0.456 OA
ATOM     24  C   UNL     1      31.711 -34.851  12.230  1.00  0.00     0.197 A 
ATOM     25  C   UNL     1      33.532 -35.288  13.758  1.00  0.00     0.138 A 
ATOM     26  C   UNL     1      32.951 -34.494  12.760  1.00  0.00     0.100 A 
ATOM     27  O   UNL     1      31.181 -34.081  11.388  1.00  0.00    -0.289 OA
BRANCH  18  28
ATOM     28  O   UNL     1      27.966 -38.083  12.351  1.00  0.00    -0.502 OA
ATOM     29  H   UNL     1      27.122 -37.979  12.900  1.00  0.00     0.293 HD
ENDBRANCH  18  28
BRANCH  20  30
ATOM     30  O   UNL     1      29.180 -35.960  11.064  1.00  0.00    -0.504 OA
ATOM     31  H   UNL     1      29.363 -36.222  10.107  1.00  0.00     0.293 HD
ENDBRANCH  20  30
BRANCH  25  32
ATOM     32  C   UNL     1      34.851 -34.956  14.356  1.00  0.00     0.017 A 
ATOM     33  C   UNL     1      35.371 -35.678  15.449  1.00  0.00     0.012 A 
ATOM     34  C   UNL     1      35.591 -33.875  13.844  1.00  0.00     0.012 A 
ATOM     35  C   UNL     1      36.612 -35.336  15.997  1.00  0.00     0.001 A 
ATOM     36  C   UNL     1      36.831 -33.538  14.395  1.00  0.00     0.001 A 
ATOM     37  C   UNL     1      37.342 -34.269  15.469  1.00  0.00     0.000 A 
ENDBRANCH  25  32
ENDBRANCH   1  17
TORSDOF 9
ENDMDL
MODEL 8
REMARK VINA RESULT:    -6.482      3.103      8.645
REMARK INTER + INTRA:         -10.673
REMARK INTER:                  -8.922
REMARK INTRA:                  -1.751
REMARK UNBOUND:                -1.728
REMARK SMILES O=C([O-])[C@@H]1O[C@H](Oc2cc3oc(-c4ccccc4)cc(=O)c3c(O)c2O)[C@H](O)[C@H](O)[C@@H]1O
REMARK SMILES IDX 7 1 6 2 4 3 31 4 5 5 29 6 27 7 2 8 1 9 3 10 32 11 30 13
REMARK SMILES IDX 28 15 8 17 25 18 9 19 23 20 10 21 22 22 11 23 20 24 12 25
REMARK SMILES IDX 19 26 21 27 26 28 24 30 13 32 14 33 18 34 15 35 17 36 16 37
REMARK H PARENT 32 12 30 14 28 16 26 29 24 31
REMARK Flexibility Score: inf
ROOT
ATOM      1  O   UNL     1      30.675 -35.928  14.095  1.00  0.00    -0.458 OA
ENDROOT
BRANCH   1   2
ATOM      2  C   UNL     1      30.364 -35.145  12.938  1.00  0.00     0.339 C 
ATOM      3  C   UNL     1      31.425 -33.151  13.696  1.00  0.00     0.199 C 
ATOM      4  C   UNL     1      32.588 -33.318  12.678  1.00  0.00     0.180 C 
ATOM      5  O   UNL     1      30.216 -33.768  13.266  1.00  0.00    -0.328 OA
ATOM      6  C   UNL     1      32.775 -34.782  12.230  1.00  0.00     0.181 C 
ATOM      7  C   UNL     1      31.410 -35.357  11.827  1.00  0.00     0.214 C 
BRANCH   3   8
ATOM      8  C   UNL     1      31.740 -33.490  15.136  1.00  0.00     0.073 C 
ATOM      9  O   UNL     1      30.907 -33.299  16.059  1.00  0.00    -0.547 OA
ATOM     10  O   UNL     1      32.981 -34.030  15.448  1.00  0.00    -0.547 OA
ENDBRANCH   3   8
BRANCH   4  11
ATOM     11  O   UNL     1      33.782 -32.790  13.199  1.00  0.00    -0.387 OA
ATOM     12  H   UNL     1      34.474 -32.895  12.495  1.00  0.00     0.211 HD
ENDBRANCH   4  11
BRANCH   6  13
ATOM     13  O   UNL     1      33.353 -35.556  13.251  1.00  0.00    -0.387 OA
ATOM     14  H   UNL     1      34.208 -35.915  12.895  1.00  0.00     0.211 HD
ENDBRANCH   6  13
BRANCH   7  15
ATOM     15  O   UNL     1      31.508 -36.710  11.452  1.00  0.00    -0.384 OA
ATOM     16  H   UNL     1      32.368 -37.066  11.797  1.00  0.00     0.211 HD
ENDBRANCH   7  15
ENDBRANCH   1   2
BRANCH   1  17
ATOM     17  C   UNL     1      29.803 -36.833  14.722  1.00  0.00     0.172 A 
ATOM     18  C   UNL     1      28.812 -36.320  15.565  1.00  0.00     0.201 A 
ATOM     19  C   UNL     1      29.897 -38.219  14.529  1.00  0.00     0.098 A 
ATOM     20  C   UNL     1      27.907 -37.178  16.221  1.00  0.00     0.176 A 
ATOM     21  C   UNL     1      28.985 -39.083  15.135  1.00  0.00     0.146 A 
ATOM     22  C   UNL     1      27.956 -38.580  15.968  1.00  0.00     0.111 A 
ATOM     23  O   UNL     1      29.098 -40.387  14.903  1.00  0.00    -0.456 OA
ATOM     24  C   UNL     1      27.018 -39.518  16.462  1.00  0.00     0.197 A 
ATOM     25  C   UNL     1      28.268 -41.296  15.404  1.00  0.00     0.138 A 
ATOM     26  C   UNL     1      27.188 -40.877  16.193  1.00  0.00     0.100 A 
ATOM     27  O   UNL     1      25.999 -39.165  17.112  1.00  0.00    -0.289 OA
BRANCH  18  28
ATOM     28  O   UNL     1      28.750 -34.938  15.753  1.00  0.00    -0.502 OA
ATOM     29  H   UNL     1      28.700 -34.285  14.981  1.00  0.00     0.293 HD
ENDBRANCH  18  28
BRANCH  20  30
ATOM     30  O   UNL     1      27.010 -36.593  17.122  1.00  0.00    -0.504 OA
ATOM     31  H   UNL     1      26.496 -35.743  16.948  1.00  0.00     0.293 HD
ENDBRANCH  20  30
BRANCH  25  32
ATOM     32  C   UNL     1      28.499 -42.728  15.087  1.00  0.00     0.017 A 
ATOM     33  C   UNL     1      29.798 -43.253  14.935  1.00  0.00     0.012 A 
ATOM     34  C   UNL     1      27.396 -43.582  14.901  1.00  0.00     0.012 A 
ATOM     35  C   UNL     1      29.983 -44.605  14.627  1.00  0.00     0.001 A 
ATOM     36  C   UNL     1      27.588 -44.932  14.594  1.00  0.00     0.001 A 
ATOM     37  C   UNL     1      28.880 -45.444  14.459  1.00  0.00     0.000 A 
ENDBRANCH  25  32
ENDBRANCH   1  17
TORSDOF 9
ENDMDL
