MODEL 1
REMARK VINA RESULT:    -4.947      0.000      0.000
REMARK INTER + INTRA:          -4.896
REMARK INTER:                  -5.381
REMARK INTRA:                   0.486
REMARK UNBOUND:                 0.486
REMARK SMILES C=C(C)[C@@H]1CC[C@@H](C)C[C@@H]1O
REMARK SMILES IDX 8 1 7 2 6 3 5 4 4 5 10 6 9 7 11 8 2 10 1 11 3 12
REMARK H PARENT 11 9
REMARK Flexibility Score: inf
ROOT
ATOM      1  C   UNL     1     -38.125  24.681   4.062  1.00  0.00     0.008 C 
ATOM      2  C   UNL     1     -37.499  23.596   4.945  1.00  0.00    -0.012 C 
ATOM      3  C   UNL     1     -38.123  22.222   4.634  1.00  0.00     0.004 C 
ATOM      4  C   UNL     1     -37.528  21.128   5.530  1.00  0.00     0.011 C 
ATOM      5  C   UNL     1     -37.707  21.485   7.021  1.00  0.00     0.043 C 
ATOM      6  C   UNL     1     -37.075  22.860   7.349  1.00  0.00     0.121 C 
ATOM      7  C   UNL     1     -37.672  23.950   6.437  1.00  0.00     0.035 C 
ENDROOT
BRANCH   6   8
ATOM      8  O   UNL     1     -35.679  22.817   7.192  1.00  0.00    -0.392 OA
ATOM      9  H   UNL     1     -35.489  22.123   6.509  1.00  0.00     0.210 HD
ENDBRANCH   6   8
BRANCH   5  10
ATOM     10  C   UNL     1     -37.199  20.381   7.945  1.00  0.00    -0.075 C 
ATOM     11  C   UNL     1     -35.934  20.365   8.402  1.00  0.00     0.008 C 
ATOM     12  C   UNL     1     -38.124  19.266   8.362  1.00  0.00     0.039 C 
ENDBRANCH   5  10
TORSDOF 2
ENDMDL
MODEL 2
REMARK VINA RESULT:    -4.626      1.420      1.995
REMARK INTER + INTRA:          -4.546
REMARK INTER:                  -4.730
REMARK INTRA:                   0.184
REMARK UNBOUND:                 0.486
REMARK SMILES C=C(C)[C@@H]1CC[C@@H](C)C[C@@H]1O
REMARK SMILES IDX 8 1 7 2 6 3 5 4 4 5 10 6 9 7 11 8 2 10 1 11 3 12
REMARK H PARENT 11 9
REMARK Flexibility Score: inf
ROOT
ATOM      1  C   UNL     1     -38.125  25.301   3.860  1.00  0.00     0.008 C 
ATOM      2  C   UNL     1     -38.125  24.045   4.738  1.00  0.00    -0.012 C 
ATOM      3  C   UNL     1     -38.029  24.428   6.228  1.00  0.00     0.004 C 
ATOM      4  C   UNL     1     -37.998  23.180   7.120  1.00  0.00     0.011 C 
ATOM      5  C   UNL     1     -36.835  22.249   6.718  1.00  0.00     0.043 C 
ATOM      6  C   UNL     1     -36.926  21.848   5.226  1.00  0.00     0.121 C 
ATOM      7  C   UNL     1     -36.966  23.107   4.339  1.00  0.00     0.035 C 
ENDROOT
BRANCH   6   8
ATOM      8  O   UNL     1     -38.066  21.061   4.990  1.00  0.00    -0.392 OA
ATOM      9  H   UNL     1     -38.711  21.265   5.716  1.00  0.00     0.210 HD
ENDBRANCH   6   8
BRANCH   5  10
ATOM     10  C   UNL     1     -36.723  21.035   7.637  1.00  0.00    -0.075 C 
ATOM     11  C   UNL     1     -35.587  20.746   8.296  1.00  0.00     0.008 C 
ATOM     12  C   UNL     1     -37.907  20.119   7.817  1.00  0.00     0.039 C 
ENDBRANCH   5  10
TORSDOF 2
ENDMDL
MODEL 3
REMARK VINA RESULT:    -3.637      1.328      4.486
REMARK INTER + INTRA:          -3.470
REMARK INTER:                  -3.905
REMARK INTRA:                   0.435
REMARK UNBOUND:                 0.486
REMARK SMILES C=C(C)[C@@H]1CC[C@@H](C)C[C@@H]1O
REMARK SMILES IDX 8 1 7 2 6 3 5 4 4 5 10 6 9 7 11 8 2 10 1 11 3 12
REMARK H PARENT 11 9
REMARK Flexibility Score: inf
ROOT
ATOM      1  C   UNL     1     -37.415  19.251   8.440  1.00  0.00     0.008 C 
ATOM      2  C   UNL     1     -37.139  20.407   7.473  1.00  0.00    -0.012 C 
ATOM      3  C   UNL     1     -37.239  21.759   8.206  1.00  0.00     0.004 C 
ATOM      4  C   UNL     1     -36.994  22.930   7.245  1.00  0.00     0.011 C 
ATOM      5  C   UNL     1     -37.978  22.878   6.057  1.00  0.00     0.043 C 
ATOM      6  C   UNL     1     -37.880  21.528   5.305  1.00  0.00     0.121 C 
ATOM      7  C   UNL     1     -38.118  20.358   6.281  1.00  0.00     0.035 C 
ENDROOT
BRANCH   6   8
ATOM      8  O   UNL     1     -36.623  21.390   4.691  1.00  0.00    -0.392 OA
ATOM      9  H   UNL     1     -36.385  20.428   4.738  1.00  0.00     0.210 HD
ENDBRANCH   6   8
BRANCH   5  10
ATOM     10  C   UNL     1     -37.818  24.072   5.121  1.00  0.00    -0.075 C 
ATOM     11  C   UNL     1     -37.400  23.927   3.851  1.00  0.00     0.008 C 
ATOM     12  C   UNL     1     -38.125  25.462   5.618  1.00  0.00     0.039 C 
ENDBRANCH   5  10
TORSDOF 2
ENDMDL
MODEL 4
REMARK VINA RESULT:    -2.361      1.152      1.697
REMARK INTER + INTRA:          -2.083
REMARK INTER:                  -1.913
REMARK INTRA:                  -0.170
REMARK UNBOUND:                 0.486
REMARK SMILES C=C(C)[C@@H]1CC[C@@H](C)C[C@@H]1O
REMARK SMILES IDX 8 1 7 2 6 3 5 4 4 5 10 6 9 7 11 8 2 10 1 11 3 12
REMARK H PARENT 11 9
REMARK Flexibility Score: inf
ROOT
ATOM      1  C   UNL     1     -38.073  26.613   4.485  1.00  0.00     0.008 C 
ATOM      2  C   UNL     1     -37.564  25.299   5.086  1.00  0.00    -0.012 C 
ATOM      3  C   UNL     1     -37.943  24.110   4.182  1.00  0.00     0.004 C 
ATOM      4  C   UNL     1     -37.466  22.782   4.785  1.00  0.00     0.011 C 
ATOM      5  C   UNL     1     -38.033  22.591   6.208  1.00  0.00     0.043 C 
ATOM      6  C   UNL     1     -37.650  23.775   7.129  1.00  0.00     0.121 C 
ATOM      7  C   UNL     1     -38.125  25.104   6.511  1.00  0.00     0.035 C 
ENDROOT
BRANCH   6   8
ATOM      8  O   UNL     1     -36.261  23.814   7.337  1.00  0.00    -0.392 OA
ATOM      9  H   UNL     1     -35.884  22.996   6.922  1.00  0.00     0.210 HD
ENDBRANCH   6   8
BRANCH   5  10
ATOM     10  C   UNL     1     -37.644  21.243   6.809  1.00  0.00    -0.075 C 
ATOM     11  C   UNL     1     -37.022  20.296   6.083  1.00  0.00     0.008 C 
ATOM     12  C   UNL     1     -37.964  20.944   8.251  1.00  0.00     0.039 C 
ENDBRANCH   5  10
TORSDOF 2
ENDMDL
