MODEL 1
REMARK VINA RESULT:    -4.498      0.000      0.000
REMARK INTER + INTRA:          -7.481
REMARK INTER:                  -6.864
REMARK INTRA:                  -0.616
REMARK UNBOUND:                -0.616
REMARK SMILES O=C([O-])CCCCCCCCC(=O)[O-]
REMARK SMILES IDX 7 1 6 2 5 3 4 4 2 5 1 6 3 7 8 8 9 9 10 10 11 11 12 12 13 13
REMARK SMILES IDX 14 14
REMARK H PARENT
REMARK Flexibility Score: inf
ROOT
ATOM      1  C   UNL     1     192.761   3.484  99.401  1.00  0.00     0.000 C 
ENDROOT
BRANCH   1   2
ATOM      2  C   UNL     1     192.328   2.014  99.553  1.00  0.00     0.000 C 
BRANCH   2   3
ATOM      3  C   UNL     1     192.794   1.322 100.850  1.00  0.00     0.006 C 
BRANCH   3   4
ATOM      4  C   UNL     1     193.516   2.247 101.844  1.00  0.00     0.053 C 
BRANCH   4   5
ATOM      5  C   UNL     1     193.012   2.071 103.243  1.00  0.00     0.041 C 
ATOM      6  O   UNL     1     193.766   2.310 104.223  1.00  0.00    -0.550 OA
ATOM      7  O   UNL     1     191.722   1.606 103.465  1.00  0.00    -0.550 OA
ENDBRANCH   4   5
ENDBRANCH   3   4
ENDBRANCH   2   3
ENDBRANCH   1   2
BRANCH   1   8
ATOM      8  C   UNL     1     191.866   4.274  98.430  1.00  0.00     0.000 C 
BRANCH   8   9
ATOM      9  C   UNL     1     190.612   3.490  98.012  1.00  0.00     0.000 C 
BRANCH   9  10
ATOM     10  C   UNL     1     190.378   3.513  96.492  1.00  0.00     0.006 C 
BRANCH  10  11
ATOM     11  C   UNL     1     191.695   3.524  95.704  1.00  0.00     0.053 C 
BRANCH  11  12
ATOM     12  C   UNL     1     192.007   2.181  95.120  1.00  0.00     0.041 C 
ATOM     13  O   UNL     1     192.535   1.287  95.834  1.00  0.00    -0.550 OA
ATOM     14  O   UNL     1     191.746   1.926  93.780  1.00  0.00    -0.550 OA
ENDBRANCH  11  12
ENDBRANCH  10  11
ENDBRANCH   9  10
ENDBRANCH   8   9
ENDBRANCH   1   8
TORSDOF 9
ENDMDL
MODEL 2
REMARK VINA RESULT:    -4.400      1.219      7.219
REMARK INTER + INTRA:          -7.332
REMARK INTER:                  -6.938
REMARK INTRA:                  -0.394
REMARK UNBOUND:                -0.616
REMARK SMILES O=C([O-])CCCCCCCCC(=O)[O-]
REMARK SMILES IDX 7 1 6 2 5 3 4 4 2 5 1 6 3 7 8 8 9 9 10 10 11 11 12 12 13 13
REMARK SMILES IDX 14 14
REMARK H PARENT
REMARK Flexibility Score: inf
ROOT
ATOM      1  C   UNL     1     191.603   2.756  98.836  1.00  0.00     0.000 C 
ENDROOT
BRANCH   1   2
ATOM      2  C   UNL     1     191.567   4.174  98.239  1.00  0.00     0.000 C 
BRANCH   2   3
ATOM      3  C   UNL     1     190.383   4.459  97.293  1.00  0.00     0.006 C 
BRANCH   3   4
ATOM      4  C   UNL     1     190.302   3.529  96.072  1.00  0.00     0.053 C 
BRANCH   4   5
ATOM      5  C   UNL     1     191.495   3.673  95.177  1.00  0.00     0.041 C 
ATOM      6  O   UNL     1     191.689   4.746  94.547  1.00  0.00    -0.550 OA
ATOM      7  O   UNL     1     192.373   2.609  95.010  1.00  0.00    -0.550 OA
ENDBRANCH   4   5
ENDBRANCH   3   4
ENDBRANCH   2   3
ENDBRANCH   1   2
BRANCH   1   8
ATOM      8  C   UNL     1     192.755   2.556  99.837  1.00  0.00     0.000 C 
BRANCH   8   9
ATOM      9  C   UNL     1     192.695   1.190 100.540  1.00  0.00     0.000 C 
BRANCH   9  10
ATOM     10  C   UNL     1     193.532   1.151 101.831  1.00  0.00     0.006 C 
BRANCH  10  11
ATOM     11  C   UNL     1     193.698   2.543 102.455  1.00  0.00     0.053 C 
BRANCH  11  12
ATOM     12  C   UNL     1     193.424   2.530 103.928  1.00  0.00     0.041 C 
ATOM     13  O   UNL     1     192.238   2.565 104.351  1.00  0.00    -0.550 OA
ATOM     14  O   UNL     1     194.478   2.512 104.832  1.00  0.00    -0.550 OA
ENDBRANCH  11  12
ENDBRANCH  10  11
ENDBRANCH   9  10
ENDBRANCH   8   9
ENDBRANCH   1   8
TORSDOF 9
ENDMDL
MODEL 3
REMARK VINA RESULT:    -4.378      1.510      6.343
REMARK INTER + INTRA:          -7.299
REMARK INTER:                  -6.591
REMARK INTRA:                  -0.708
REMARK UNBOUND:                -0.616
REMARK SMILES O=C([O-])CCCCCCCCC(=O)[O-]
REMARK SMILES IDX 7 1 6 2 5 3 4 4 2 5 1 6 3 7 8 8 9 9 10 10 11 11 12 12 13 13
REMARK SMILES IDX 14 14
REMARK H PARENT
REMARK Flexibility Score: inf
ROOT
ATOM      1  C   UNL     1     189.135   3.514  96.766  1.00  0.00     0.000 C 
ENDROOT
BRANCH   1   2
ATOM      2  C   UNL     1     189.757   4.609  95.880  1.00  0.00     0.000 C 
BRANCH   2   3
ATOM      3  C   UNL     1     190.523   4.097  94.643  1.00  0.00     0.006 C 
BRANCH   3   4
ATOM      4  C   UNL     1     191.914   3.518  94.947  1.00  0.00     0.053 C 
BRANCH   4   5
ATOM      5  C   UNL     1     192.000   2.060  94.616  1.00  0.00     0.041 C 
ATOM      6  O   UNL     1     191.536   1.629  93.528  1.00  0.00    -0.550 OA
ATOM      7  O   UNL     1     192.559   1.171  95.526  1.00  0.00    -0.550 OA
ENDBRANCH   4   5
ENDBRANCH   3   4
ENDBRANCH   2   3
ENDBRANCH   1   2
BRANCH   1   8
ATOM      8  C   UNL     1     189.488   3.675  98.254  1.00  0.00     0.000 C 
BRANCH   8   9
ATOM      9  C   UNL     1     190.982   3.964  98.478  1.00  0.00     0.000 C 
BRANCH   9  10
ATOM     10  C   UNL     1     191.823   2.680  98.590  1.00  0.00     0.006 C 
BRANCH  10  11
ATOM     11  C   UNL     1     192.778   2.718  99.790  1.00  0.00     0.053 C 
BRANCH  11  12
ATOM     12  C   UNL     1     192.546   1.571 100.724  1.00  0.00     0.041 C 
ATOM     13  O   UNL     1     191.377   1.152 100.934  1.00  0.00    -0.550 OA
ATOM     14  O   UNL     1     193.616   0.984 101.387  1.00  0.00    -0.550 OA
ENDBRANCH  11  12
ENDBRANCH  10  11
ENDBRANCH   9  10
ENDBRANCH   8   9
ENDBRANCH   1   8
TORSDOF 9
ENDMDL
MODEL 4
REMARK VINA RESULT:    -4.299      1.583      6.715
REMARK INTER + INTRA:          -7.177
REMARK INTER:                  -6.605
REMARK INTRA:                  -0.572
REMARK UNBOUND:                -0.616
REMARK SMILES O=C([O-])CCCCCCCCC(=O)[O-]
REMARK SMILES IDX 7 1 6 2 5 3 4 4 2 5 1 6 3 7 8 8 9 9 10 10 11 11 12 12 13 13
REMARK SMILES IDX 14 14
REMARK H PARENT
REMARK Flexibility Score: inf
ROOT
ATOM      1  C   UNL     1     190.502   4.862  98.197  1.00  0.00     0.000 C 
ENDROOT
BRANCH   1   2
ATOM      2  C   UNL     1     189.354   3.839  98.134  1.00  0.00     0.000 C 
BRANCH   2   3
ATOM      3  C   UNL     1     188.912   3.433  96.713  1.00  0.00     0.006 C 
BRANCH   3   4
ATOM      4  C   UNL     1     189.378   4.388  95.602  1.00  0.00     0.053 C 
BRANCH   4   5
ATOM      5  C   UNL     1     190.238   3.694  94.591  1.00  0.00     0.041 C 
ATOM      6  O   UNL     1     190.170   4.014  93.375  1.00  0.00    -0.550 OA
ATOM      7  O   UNL     1     191.089   2.669  94.985  1.00  0.00    -0.550 OA
ENDBRANCH   4   5
ENDBRANCH   3   4
ENDBRANCH   2   3
ENDBRANCH   1   2
BRANCH   1   8
ATOM      8  C   UNL     1     191.858   4.222  98.542  1.00  0.00     0.000 C 
BRANCH   8   9
ATOM      9  C   UNL     1     191.841   2.692  98.394  1.00  0.00     0.000 C 
BRANCH   9  10
ATOM     10  C   UNL     1     192.253   1.967  99.687  1.00  0.00     0.006 C 
BRANCH  10  11
ATOM     11  C   UNL     1     193.179   2.824 100.561  1.00  0.00     0.053 C 
BRANCH  11  12
ATOM     12  C   UNL     1     193.580   2.110 101.815  1.00  0.00     0.041 C 
ATOM     13  O   UNL     1     193.558   0.851 101.862  1.00  0.00    -0.550 OA
ATOM     14  O   UNL     1     193.950   2.834 102.941  1.00  0.00    -0.550 OA
ENDBRANCH  11  12
ENDBRANCH  10  11
ENDBRANCH   9  10
ENDBRANCH   8   9
ENDBRANCH   1   8
TORSDOF 9
ENDMDL
MODEL 5
REMARK VINA RESULT:    -4.291      1.611      7.500
REMARK INTER + INTRA:          -7.165
REMARK INTER:                  -6.888
REMARK INTRA:                  -0.277
REMARK UNBOUND:                -0.616
REMARK SMILES O=C([O-])CCCCCCCCC(=O)[O-]
REMARK SMILES IDX 7 1 6 2 5 3 4 4 2 5 1 6 3 7 8 8 9 9 10 10 11 11 12 12 13 13
REMARK SMILES IDX 14 14
REMARK H PARENT
REMARK Flexibility Score: inf
ROOT
ATOM      1  C   UNL     1     192.886   2.768  99.776  1.00  0.00     0.000 C 
ENDROOT
BRANCH   1   2
ATOM      2  C   UNL     1     191.675   2.761  98.826  1.00  0.00     0.000 C 
BRANCH   2   3
ATOM      3  C   UNL     1     191.570   3.979  97.885  1.00  0.00     0.006 C 
BRANCH   3   4
ATOM      4  C   UNL     1     190.784   3.720  96.590  1.00  0.00     0.053 C 
BRANCH   4   5
ATOM      5  C   UNL     1     191.681   3.651  95.393  1.00  0.00     0.041 C 
ATOM      6  O   UNL     1     192.344   2.607  95.157  1.00  0.00    -0.550 OA
ATOM      7  O   UNL     1     191.814   4.753  94.557  1.00  0.00    -0.550 OA
ENDBRANCH   4   5
ENDBRANCH   3   4
ENDBRANCH   2   3
ENDBRANCH   1   2
BRANCH   1   8
ATOM      8  C   UNL     1     192.710   1.824 100.978  1.00  0.00     0.000 C 
BRANCH   8   9
ATOM      9  C   UNL     1     193.625   2.193 102.157  1.00  0.00     0.000 C 
BRANCH   9  10
ATOM     10  C   UNL     1     193.019   1.810 103.519  1.00  0.00     0.006 C 
BRANCH  10  11
ATOM     11  C   UNL     1     191.528   1.464 103.412  1.00  0.00     0.053 C 
BRANCH  11  12
ATOM     12  C   UNL     1     190.792   1.770 104.680  1.00  0.00     0.041 C 
ATOM     13  O   UNL     1     189.876   2.635 104.687  1.00  0.00    -0.550 OA
ATOM     14  O   UNL     1     191.136   1.123 105.859  1.00  0.00    -0.550 OA
ENDBRANCH  11  12
ENDBRANCH  10  11
ENDBRANCH   9  10
ENDBRANCH   8   9
ENDBRANCH   1   8
TORSDOF 9
ENDMDL
MODEL 6
REMARK VINA RESULT:    -4.257      1.604      2.379
REMARK INTER + INTRA:          -7.114
REMARK INTER:                  -6.847
REMARK INTRA:                  -0.267
REMARK UNBOUND:                -0.616
REMARK SMILES O=C([O-])CCCCCCCCC(=O)[O-]
REMARK SMILES IDX 7 1 6 2 5 3 4 4 2 5 1 6 3 7 8 8 9 9 10 10 11 11 12 12 13 13
REMARK SMILES IDX 14 14
REMARK H PARENT
REMARK Flexibility Score: inf
ROOT
ATOM      1  C   UNL     1     192.604   1.622 100.779  1.00  0.00     0.000 C 
ENDROOT
BRANCH   1   2
ATOM      2  C   UNL     1     193.625   1.698 101.929  1.00  0.00     0.000 C 
BRANCH   2   3
ATOM      3  C   UNL     1     193.027   1.601 103.347  1.00  0.00     0.006 C 
BRANCH   3   4
ATOM      4  C   UNL     1     191.509   1.365 103.386  1.00  0.00     0.053 C 
BRANCH   4   5
ATOM      5  C   UNL     1     190.905   1.809 104.682  1.00  0.00     0.041 C 
ATOM      6  O   UNL     1     191.350   1.366 105.773  1.00  0.00    -0.550 OA
ATOM      7  O   UNL     1     189.825   2.683 104.685  1.00  0.00    -0.550 OA
ENDBRANCH   4   5
ENDBRANCH   3   4
ENDBRANCH   2   3
ENDBRANCH   1   2
BRANCH   1   8
ATOM      8  C   UNL     1     192.764   2.763  99.759  1.00  0.00     0.000 C 
BRANCH   8   9
ATOM      9  C   UNL     1     191.665   2.750  98.683  1.00  0.00     0.000 C 
BRANCH   9  10
ATOM     10  C   UNL     1     191.663   4.026  97.824  1.00  0.00     0.006 C 
BRANCH  10  11
ATOM     11  C   UNL     1     190.840   3.858  96.540  1.00  0.00     0.053 C 
BRANCH  11  12
ATOM     12  C   UNL     1     191.714   3.748  95.328  1.00  0.00     0.041 C 
ATOM     13  O   UNL     1     191.894   4.748  94.585  1.00  0.00    -0.550 OA
ATOM     14  O   UNL     1     192.303   2.533  95.002  1.00  0.00    -0.550 OA
ENDBRANCH  11  12
ENDBRANCH  10  11
ENDBRANCH   9  10
ENDBRANCH   8   9
ENDBRANCH   1   8
TORSDOF 9
ENDMDL
MODEL 7
REMARK VINA RESULT:    -4.234      2.046      7.027
REMARK INTER + INTRA:          -7.077
REMARK INTER:                  -6.607
REMARK INTRA:                  -0.470
REMARK UNBOUND:                -0.616
REMARK SMILES O=C([O-])CCCCCCCCC(=O)[O-]
REMARK SMILES IDX 7 1 6 2 5 3 4 4 2 5 1 6 3 7 8 8 9 9 10 10 11 11 12 12 13 13
REMARK SMILES IDX 14 14
REMARK H PARENT
REMARK Flexibility Score: inf
ROOT
ATOM      1  C   UNL     1     192.975   3.437  99.708  1.00  0.00     0.000 C 
ENDROOT
BRANCH   1   2
ATOM      2  C   UNL     1     192.140   4.172  98.643  1.00  0.00     0.000 C 
BRANCH   2   3
ATOM      3  C   UNL     1     191.091   3.305  97.917  1.00  0.00     0.006 C 
BRANCH   3   4
ATOM      4  C   UNL     1     189.634   3.739  98.147  1.00  0.00     0.053 C 
BRANCH   4   5
ATOM      5  C   UNL     1     188.785   3.520  96.933  1.00  0.00     0.041 C 
ATOM      6  O   UNL     1     187.682   2.921  97.031  1.00  0.00    -0.550 OA
ATOM      7  O   UNL     1     189.228   3.946  95.687  1.00  0.00    -0.550 OA
ENDBRANCH   4   5
ENDBRANCH   3   4
ENDBRANCH   2   3
ENDBRANCH   1   2
BRANCH   1   8
ATOM      8  C   UNL     1     192.537   1.975  99.909  1.00  0.00     0.000 C 
BRANCH   8   9
ATOM      9  C   UNL     1     193.016   1.395 101.250  1.00  0.00     0.000 C 
BRANCH   9  10
ATOM     10  C   UNL     1     193.569   2.474 102.198  1.00  0.00     0.006 C 
BRANCH  10  11
ATOM     11  C   UNL     1     193.681   1.971 103.643  1.00  0.00     0.053 C 
BRANCH  11  12
ATOM     12  C   UNL     1     192.355   1.536 104.188  1.00  0.00     0.041 C 
ATOM     13  O   UNL     1     191.450   2.386 104.404  1.00  0.00    -0.550 OA
ATOM     14  O   UNL     1     192.128   0.199 104.485  1.00  0.00    -0.550 OA
ENDBRANCH  11  12
ENDBRANCH  10  11
ENDBRANCH   9  10
ENDBRANCH   8   9
ENDBRANCH   1   8
TORSDOF 9
ENDMDL
MODEL 8
REMARK VINA RESULT:    -4.213      2.450      3.502
REMARK INTER + INTRA:          -7.046
REMARK INTER:                  -6.645
REMARK INTRA:                  -0.401
REMARK UNBOUND:                -0.616
REMARK SMILES O=C([O-])CCCCCCCCC(=O)[O-]
REMARK SMILES IDX 7 1 6 2 5 3 4 4 2 5 1 6 3 7 8 8 9 9 10 10 11 11 12 12 13 13
REMARK SMILES IDX 14 14
REMARK H PARENT
REMARK Flexibility Score: inf
ROOT
ATOM      1  C   UNL     1     192.811   1.006 101.833  1.00  0.00     0.000 C 
ENDROOT
BRANCH   1   2
ATOM      2  C   UNL     1     193.646   2.232 102.242  1.00  0.00     0.000 C 
BRANCH   2   3
ATOM      3  C   UNL     1     193.878   2.393 103.758  1.00  0.00     0.006 C 
BRANCH   3   4
ATOM      4  C   UNL     1     192.593   2.481 104.596  1.00  0.00     0.053 C 
BRANCH   4   5
ATOM      5  C   UNL     1     192.625   1.556 105.773  1.00  0.00     0.041 C 
ATOM      6  O   UNL     1     192.224   1.950 106.900  1.00  0.00    -0.550 OA
ATOM      7  O   UNL     1     193.132   0.270 105.635  1.00  0.00    -0.550 OA
ENDBRANCH   4   5
ENDBRANCH   3   4
ENDBRANCH   2   3
ENDBRANCH   1   2
BRANCH   1   8
ATOM      8  C   UNL     1     192.017   1.228 100.533  1.00  0.00     0.000 C 
BRANCH   8   9
ATOM      9  C   UNL     1     192.555   2.409  99.708  1.00  0.00     0.000 C 
BRANCH   9  10
ATOM     10  C   UNL     1     191.670   2.735  98.493  1.00  0.00     0.006 C 
BRANCH  10  11
ATOM     11  C   UNL     1     191.548   4.246  98.255  1.00  0.00     0.053 C 
BRANCH  11  12
ATOM     12  C   UNL     1     190.153   4.641  97.879  1.00  0.00     0.041 C 
ATOM     13  O   UNL     1     189.695   5.760  98.232  1.00  0.00    -0.550 OA
ATOM     14  O   UNL     1     189.347   3.761  97.168  1.00  0.00    -0.550 OA
ENDBRANCH  11  12
ENDBRANCH  10  11
ENDBRANCH   9  10
ENDBRANCH   8   9
ENDBRANCH   1   8
TORSDOF 9
ENDMDL
MODEL 9
REMARK VINA RESULT:    -4.198      2.238      2.794
REMARK INTER + INTRA:          -7.023
REMARK INTER:                  -6.552
REMARK INTRA:                  -0.471
REMARK UNBOUND:                -0.616
REMARK SMILES O=C([O-])CCCCCCCCC(=O)[O-]
REMARK SMILES IDX 7 1 6 2 5 3 4 4 2 5 1 6 3 7 8 8 9 9 10 10 11 11 12 12 13 13
REMARK SMILES IDX 14 14
REMARK H PARENT
REMARK Flexibility Score: inf
ROOT
ATOM      1  C   UNL     1     192.859   3.366  99.780  1.00  0.00     0.000 C 
ENDROOT
BRANCH   1   2
ATOM      2  C   UNL     1     192.430   1.903  99.568  1.00  0.00     0.000 C 
BRANCH   2   3
ATOM      3  C   UNL     1     192.608   0.981 100.791  1.00  0.00     0.006 C 
BRANCH   3   4
ATOM      4  C   UNL     1     193.494   1.563 101.905  1.00  0.00     0.053 C 
BRANCH   4   5
ATOM      5  C   UNL     1     192.753   1.694 103.200  1.00  0.00     0.041 C 
ATOM      6  O   UNL     1     191.658   1.096 103.367  1.00  0.00    -0.550 OA
ATOM      7  O   UNL     1     193.254   2.507 104.209  1.00  0.00    -0.550 OA
ENDBRANCH   4   5
ENDBRANCH   3   4
ENDBRANCH   2   3
ENDBRANCH   1   2
BRANCH   1   8
ATOM      8  C   UNL     1     192.334   4.310  98.684  1.00  0.00     0.000 C 
BRANCH   8   9
ATOM      9  C   UNL     1     191.142   3.715  97.915  1.00  0.00     0.000 C 
BRANCH   9  10
ATOM     10  C   UNL     1     189.935   4.668  97.865  1.00  0.00     0.006 C 
BRANCH  10  11
ATOM     11  C   UNL     1     188.629   3.967  98.262  1.00  0.00     0.053 C 
BRANCH  11  12
ATOM     12  C   UNL     1     187.880   3.462  97.067  1.00  0.00     0.041 C 
ATOM     13  O   UNL     1     186.908   2.675  97.215  1.00  0.00    -0.550 OA
ATOM     14  O   UNL     1     188.276   3.835  95.789  1.00  0.00    -0.550 OA
ENDBRANCH  11  12
ENDBRANCH  10  11
ENDBRANCH   9  10
ENDBRANCH   8   9
ENDBRANCH   1   8
TORSDOF 9
ENDMDL
