MODEL 1
REMARK VINA RESULT:    -5.268      0.000      0.000
REMARK INTER + INTRA:          -5.268
REMARK INTER:                  -5.268
REMARK INTRA:                   0.000
REMARK UNBOUND:                 0.000
REMARK SMILES CC(C)=C1CC[C@H](C)CC1=O
REMARK SMILES IDX 8 1 7 2 6 3 5 4 4 5 2 6 1 7 3 8 10 9 11 10 9 11
REMARK H PARENT
REMARK Flexibility Score: inf
ROOT
ATOM      1  C   UNL     1      29.739  59.006  12.091  1.00  0.00     0.008 C 
ATOM      2  C   UNL     1      29.393  57.726  11.322  1.00  0.00    -0.006 C 
ATOM      3  C   UNL     1      30.265  56.555  11.802  1.00  0.00     0.008 C 
ATOM      4  C   UNL     1      30.004  55.289  10.974  1.00  0.00     0.039 C 
ATOM      5  C   UNL     1      28.526  54.929  10.908  1.00  0.00    -0.006 C 
ATOM      6  C   UNL     1      28.116  53.630  10.822  1.00  0.00    -0.070 C 
ATOM      7  C   UNL     1      29.113  52.495  10.769  1.00  0.00     0.039 C 
ATOM      8  C   UNL     1      26.651  53.256  10.814  1.00  0.00     0.039 C 
ATOM      9  C   UNL     1      27.575  56.077  10.828  1.00  0.00     0.159 C 
ATOM     10  O   UNL     1      26.486  55.983  10.198  1.00  0.00    -0.295 OA
ATOM     11  C   UNL     1      27.907  57.379  11.497  1.00  0.00     0.084 C 
ENDROOT
TORSDOF 0
ENDMDL
MODEL 2
REMARK VINA RESULT:    -5.217      6.673      8.453
REMARK INTER + INTRA:          -5.217
REMARK INTER:                  -5.217
REMARK INTRA:                   0.000
REMARK UNBOUND:                 0.000
REMARK SMILES CC(C)=C1CC[C@H](C)CC1=O
REMARK SMILES IDX 8 1 7 2 6 3 5 4 4 5 2 6 1 7 3 8 10 9 11 10 9 11
REMARK H PARENT
REMARK Flexibility Score: inf
ROOT
ATOM      1  C   UNL     1      29.810  47.223  15.486  1.00  0.00     0.008 C 
ATOM      2  C   UNL     1      29.432  48.489  16.265  1.00  0.00    -0.006 C 
ATOM      3  C   UNL     1      30.260  49.689  15.781  1.00  0.00     0.008 C 
ATOM      4  C   UNL     1      29.968  50.942  16.618  1.00  0.00     0.039 C 
ATOM      5  C   UNL     1      28.480  51.253  16.704  1.00  0.00    -0.006 C 
ATOM      6  C   UNL     1      28.029  52.538  16.802  1.00  0.00    -0.070 C 
ATOM      7  C   UNL     1      28.989  53.705  16.848  1.00  0.00     0.039 C 
ATOM      8  C   UNL     1      26.554  52.864  16.830  1.00  0.00     0.039 C 
ATOM      9  C   UNL     1      27.568  50.075  16.791  1.00  0.00     0.159 C 
ATOM     10  O   UNL     1      26.485  50.131  17.434  1.00  0.00    -0.295 OA
ATOM     11  C   UNL     1      27.934  48.788  16.111  1.00  0.00     0.084 C 
ENDROOT
TORSDOF 0
ENDMDL
MODEL 3
REMARK VINA RESULT:    -5.130      8.055      8.548
REMARK INTER + INTRA:          -5.130
REMARK INTER:                  -5.130
REMARK INTRA:                   0.000
REMARK UNBOUND:                 0.000
REMARK SMILES CC(C)=C1CC[C@H](C)CC1=O
REMARK SMILES IDX 8 1 7 2 6 3 5 4 4 5 2 6 1 7 3 8 10 9 11 10 9 11
REMARK H PARENT
REMARK Flexibility Score: inf
ROOT
ATOM      1  C   UNL     1      29.534  54.324  16.596  1.00  0.00     0.008 C 
ATOM      2  C   UNL     1      28.126  54.070  17.146  1.00  0.00    -0.006 C 
ATOM      3  C   UNL     1      27.756  52.584  17.019  1.00  0.00     0.008 C 
ATOM      4  C   UNL     1      26.311  52.328  17.471  1.00  0.00     0.039 C 
ATOM      5  C   UNL     1      26.027  52.884  18.859  1.00  0.00    -0.006 C 
ATOM      6  C   UNL     1      25.134  52.279  19.696  1.00  0.00    -0.070 C 
ATOM      7  C   UNL     1      24.376  51.042  19.272  1.00  0.00     0.039 C 
ATOM      8  C   UNL     1      24.886  52.789  21.097  1.00  0.00     0.039 C 
ATOM      9  C   UNL     1      26.691  54.179  19.195  1.00  0.00     0.159 C 
ATOM     10  O   UNL     1      26.141  55.018  19.959  1.00  0.00    -0.295 OA
ATOM     11  C   UNL     1      28.035  54.508  18.616  1.00  0.00     0.084 C 
ENDROOT
TORSDOF 0
ENDMDL
MODEL 4
REMARK VINA RESULT:    -5.129      1.659      2.724
REMARK INTER + INTRA:          -5.129
REMARK INTER:                  -5.129
REMARK INTRA:                   0.000
REMARK UNBOUND:                 0.000
REMARK SMILES CC(C)=C1CC[C@H](C)CC1=O
REMARK SMILES IDX 8 1 7 2 6 3 5 4 4 5 2 6 1 7 3 8 10 9 11 10 9 11
REMARK H PARENT
REMARK Flexibility Score: inf
ROOT
ATOM      1  C   UNL     1      31.059  57.129  11.282  1.00  0.00     0.008 C 
ATOM      2  C   UNL     1      29.733  56.378  11.448  1.00  0.00    -0.006 C 
ATOM      3  C   UNL     1      28.624  57.049  10.624  1.00  0.00     0.008 C 
ATOM      4  C   UNL     1      27.267  56.372  10.857  1.00  0.00     0.039 C 
ATOM      5  C   UNL     1      27.323  54.865  10.645  1.00  0.00    -0.006 C 
ATOM      6  C   UNL     1      26.243  54.175  10.174  1.00  0.00    -0.070 C 
ATOM      7  C   UNL     1      24.941  54.875   9.861  1.00  0.00     0.039 C 
ATOM      8  C   UNL     1      26.304  52.688   9.905  1.00  0.00     0.039 C 
ATOM      9  C   UNL     1      28.577  54.186  11.089  1.00  0.00     0.159 C 
ATOM     10  O   UNL     1      28.561  53.006  11.532  1.00  0.00    -0.295 OA
ATOM     11  C   UNL     1      29.889  54.911  11.021  1.00  0.00     0.084 C 
ENDROOT
TORSDOF 0
ENDMDL
MODEL 5
REMARK VINA RESULT:    -5.118      3.380      5.074
REMARK INTER + INTRA:          -5.118
REMARK INTER:                  -5.118
REMARK INTRA:                   0.000
REMARK UNBOUND:                 0.000
REMARK SMILES CC(C)=C1CC[C@H](C)CC1=O
REMARK SMILES IDX 8 1 7 2 6 3 5 4 4 5 2 6 1 7 3 8 10 9 11 10 9 11
REMARK H PARENT
REMARK Flexibility Score: inf
ROOT
ATOM      1  C   UNL     1      29.335  52.264  11.456  1.00  0.00     0.008 C 
ATOM      2  C   UNL     1      27.953  52.410  10.809  1.00  0.00    -0.006 C 
ATOM      3  C   UNL     1      27.509  53.880  10.809  1.00  0.00     0.008 C 
ATOM      4  C   UNL     1      26.084  54.033  10.258  1.00  0.00     0.039 C 
ATOM      5  C   UNL     1      25.910  53.369   8.899  1.00  0.00    -0.006 C 
ATOM      6  C   UNL     1      25.043  53.870   7.971  1.00  0.00    -0.070 C 
ATOM      7  C   UNL     1      24.205  55.094   8.262  1.00  0.00     0.039 C 
ATOM      8  C   UNL     1      24.903  53.255   6.598  1.00  0.00     0.039 C 
ATOM      9  C   UNL     1      26.651  52.089   8.695  1.00  0.00     0.159 C 
ATOM     10  O   UNL     1      26.187  51.174   7.962  1.00  0.00    -0.295 OA
ATOM     11  C   UNL     1      27.972  51.868   9.372  1.00  0.00     0.084 C 
ENDROOT
TORSDOF 0
ENDMDL
MODEL 6
REMARK VINA RESULT:    -5.111      7.893      9.423
REMARK INTER + INTRA:          -5.111
REMARK INTER:                  -5.111
REMARK INTRA:                   0.000
REMARK UNBOUND:                 0.000
REMARK SMILES CC(C)=C1CC[C@H](C)CC1=O
REMARK SMILES IDX 8 1 7 2 6 3 5 4 4 5 2 6 1 7 3 8 10 9 11 10 9 11
REMARK H PARENT
REMARK Flexibility Score: inf
ROOT
ATOM      1  C   UNL     1      25.802  49.146  15.739  1.00  0.00     0.008 C 
ATOM      2  C   UNL     1      25.366  50.339  16.597  1.00  0.00    -0.006 C 
ATOM      3  C   UNL     1      25.245  49.929  18.072  1.00  0.00     0.008 C 
ATOM      4  C   UNL     1      24.712  51.084  18.931  1.00  0.00     0.039 C 
ATOM      5  C   UNL     1      25.511  52.367  18.744  1.00  0.00    -0.006 C 
ATOM      6  C   UNL     1      25.668  53.259  19.766  1.00  0.00    -0.070 C 
ATOM      7  C   UNL     1      25.041  53.019  21.120  1.00  0.00     0.039 C 
ATOM      8  C   UNL     1      26.506  54.507  19.610  1.00  0.00     0.039 C 
ATOM      9  C   UNL     1      26.003  52.637  17.361  1.00  0.00     0.159 C 
ATOM     10  O   UNL     1      26.118  53.815  16.925  1.00  0.00    -0.295 OA
ATOM     11  C   UNL     1      26.366  51.497  16.455  1.00  0.00     0.084 C 
ENDROOT
TORSDOF 0
ENDMDL
MODEL 7
REMARK VINA RESULT:    -5.088      3.215      4.494
REMARK INTER + INTRA:          -5.088
REMARK INTER:                  -5.088
REMARK INTRA:                   0.000
REMARK UNBOUND:                 0.000
REMARK SMILES CC(C)=C1CC[C@H](C)CC1=O
REMARK SMILES IDX 8 1 7 2 6 3 5 4 4 5 2 6 1 7 3 8 10 9 11 10 9 11
REMARK H PARENT
REMARK Flexibility Score: inf
ROOT
ATOM      1  C   UNL     1      25.730  56.886  11.866  1.00  0.00     0.008 C 
ATOM      2  C   UNL     1      25.293  55.667  11.044  1.00  0.00    -0.006 C 
ATOM      3  C   UNL     1      25.094  56.052   9.570  1.00  0.00     0.008 C 
ATOM      4  C   UNL     1      24.558  54.869   8.751  1.00  0.00     0.039 C 
ATOM      5  C   UNL     1      25.403  53.614   8.920  1.00  0.00    -0.006 C 
ATOM      6  C   UNL     1      25.542  52.712   7.904  1.00  0.00    -0.070 C 
ATOM      7  C   UNL     1      24.848  52.913   6.576  1.00  0.00     0.039 C 
ATOM      8  C   UNL     1      26.422  51.491   8.039  1.00  0.00     0.039 C 
ATOM      9  C   UNL     1      25.963  53.378  10.283  1.00  0.00     0.159 C 
ATOM     10  O   UNL     1      26.133  52.211  10.729  1.00  0.00    -0.295 OA
ATOM     11  C   UNL     1      26.332  54.542  11.157  1.00  0.00     0.084 C 
ENDROOT
TORSDOF 0
ENDMDL
MODEL 8
REMARK VINA RESULT:    -5.082      6.660      7.948
REMARK INTER + INTRA:          -5.082
REMARK INTER:                  -5.082
REMARK INTRA:                   0.000
REMARK UNBOUND:                 0.000
REMARK SMILES CC(C)=C1CC[C@H](C)CC1=O
REMARK SMILES IDX 8 1 7 2 6 3 5 4 4 5 2 6 1 7 3 8 10 9 11 10 9 11
REMARK H PARENT
REMARK Flexibility Score: inf
ROOT
ATOM      1  C   UNL     1      26.890  53.113  16.254  1.00  0.00     0.008 C 
ATOM      2  C   UNL     1      27.084  51.593  16.220  1.00  0.00    -0.006 C 
ATOM      3  C   UNL     1      26.777  51.040  14.820  1.00  0.00     0.008 C 
ATOM      4  C   UNL     1      26.867  49.508  14.793  1.00  0.00     0.039 C 
ATOM      5  C   UNL     1      28.187  48.992  15.348  1.00  0.00    -0.006 C 
ATOM      6  C   UNL     1      28.755  47.843  14.876  1.00  0.00    -0.070 C 
ATOM      7  C   UNL     1      28.087  47.026  13.793  1.00  0.00     0.039 C 
ATOM      8  C   UNL     1      30.092  47.351  15.379  1.00  0.00     0.039 C 
ATOM      9  C   UNL     1      28.752  49.747  16.506  1.00  0.00     0.159 C 
ATOM     10  O   UNL     1      29.423  49.167  17.402  1.00  0.00    -0.295 OA
ATOM     11  C   UNL     1      28.520  51.225  16.625  1.00  0.00     0.084 C 
ENDROOT
TORSDOF 0
ENDMDL
MODEL 9
REMARK VINA RESULT:    -5.011      2.323      5.012
REMARK INTER + INTRA:          -5.011
REMARK INTER:                  -5.011
REMARK INTRA:                   0.000
REMARK UNBOUND:                 0.000
REMARK SMILES CC(C)=C1CC[C@H](C)CC1=O
REMARK SMILES IDX 8 1 7 2 6 3 5 4 4 5 2 6 1 7 3 8 10 9 11 10 9 11
REMARK H PARENT
REMARK Flexibility Score: inf
ROOT
ATOM      1  C   UNL     1      24.151  52.624   6.878  1.00  0.00     0.008 C 
ATOM      2  C   UNL     1      24.942  52.639   8.192  1.00  0.00    -0.006 C 
ATOM      3  C   UNL     1      26.311  51.968   8.005  1.00  0.00     0.008 C 
ATOM      4  C   UNL     1      27.077  51.883   9.334  1.00  0.00     0.039 C 
ATOM      5  C   UNL     1      27.176  53.229  10.037  1.00  0.00    -0.006 C 
ATOM      6  C   UNL     1      28.257  53.548  10.808  1.00  0.00    -0.070 C 
ATOM      7  C   UNL     1      29.392  52.570  11.011  1.00  0.00     0.039 C 
ATOM      8  C   UNL     1      28.394  54.903  11.464  1.00  0.00     0.039 C 
ATOM      9  C   UNL     1      25.981  54.117   9.925  1.00  0.00     0.159 C 
ATOM     10  O   UNL     1      25.661  54.905  10.856  1.00  0.00    -0.295 OA
ATOM     11  C   UNL     1      25.128  54.080   8.690  1.00  0.00     0.084 C 
ENDROOT
TORSDOF 0
ENDMDL
