MODEL 1
REMARK VINA RESULT:    -6.174      0.000      0.000
REMARK INTER + INTRA:         -10.335
REMARK INTER:                  -9.242
REMARK INTRA:                  -1.094
REMARK UNBOUND:                -1.094
REMARK SMILES COC(=O)C1=CO[C@@H](O[C@@H]2O[C@@H](CO)[C@H](O)[C@H](O)[C@H]2O)[C@H]2C(CO)=CC[C@H]12
REMARK SMILES IDX 9 1 8 2 5 3 6 4 27 5 7 6 21 7 26 8 22 9 25 10 3 11 4 12 2 13
REMARK SMILES IDX 1 14 23 15 24 16 10 18 19 19 11 20 17 21 12 22 15 23 20 24
REMARK SMILES IDX 18 26 13 28 14 29 16 31
REMARK H PARENT 24 17 20 25 18 27 14 30 16 32
REMARK Flexibility Score: inf
ROOT
ATOM      1  O   UNL     1      15.983  32.155  67.477  1.00  0.00    -0.310 OA
ENDROOT
BRANCH   1   2
ATOM      2  C   UNL     1      16.474  30.866  67.155  1.00  0.00     0.316 C 
ATOM      3  C   UNL     1      17.028  29.520  69.704  1.00  0.00     0.076 C 
ATOM      4  C   UNL     1      15.942  29.187  68.972  1.00  0.00     0.202 C 
ATOM      5  C   UNL     1      17.806  30.722  69.232  1.00  0.00     0.047 C 
ATOM      6  O   UNL     1      15.649  29.839  67.749  1.00  0.00    -0.471 OA
ATOM      7  C   UNL     1      17.895  30.695  67.709  1.00  0.00     0.094 C 
ATOM      8  C   UNL     1      19.257  30.951  69.652  1.00  0.00     0.037 C 
ATOM      9  C   UNL     1      18.967  31.705  67.442  1.00  0.00    -0.039 C 
ATOM     10  C   UNL     1      19.756  31.796  68.517  1.00  0.00    -0.024 C 
BRANCH   3  11
ATOM     11  C   UNL     1      17.299  28.854  70.998  1.00  0.00     0.337 C 
ATOM     12  O   UNL     1      18.166  27.941  71.073  1.00  0.00    -0.246 OA
BRANCH  11  13
ATOM     13  O   UNL     1      16.593  29.244  72.143  1.00  0.00    -0.466 OA
ATOM     14  C   UNL     1      16.093  28.310  73.092  1.00  0.00     0.282 C 
ENDBRANCH  11  13
ENDBRANCH   3  11
BRANCH   9  15
ATOM     15  C   UNL     1      19.342  32.295  66.110  1.00  0.00     0.187 C 
BRANCH  15  16
ATOM     16  O   UNL     1      19.684  31.287  65.199  1.00  0.00    -0.392 OA
ATOM     17  H   UNL     1      19.808  30.463  65.738  1.00  0.00     0.211 HD
ENDBRANCH  15  16
ENDBRANCH   9  15
ENDBRANCH   1   2
BRANCH   1  18
ATOM     18  C   UNL     1      15.059  32.613  66.500  1.00  0.00     0.286 C 
ATOM     19  C   UNL     1      13.646  32.091  66.828  1.00  0.00     0.202 C 
ATOM     20  O   UNL     1      15.065  34.030  66.385  1.00  0.00    -0.341 OA
ATOM     21  C   UNL     1      13.089  32.772  68.092  1.00  0.00     0.179 C 
ATOM     22  C   UNL     1      14.694  34.662  67.601  1.00  0.00     0.178 C 
ATOM     23  C   UNL     1      13.240  34.301  67.979  1.00  0.00     0.177 C 
BRANCH  19  24
ATOM     24  O   UNL     1      12.800  32.344  65.734  1.00  0.00    -0.385 OA
ATOM     25  H   UNL     1      13.117  31.771  64.987  1.00  0.00     0.211 HD
ENDBRANCH  19  24
BRANCH  21  26
ATOM     26  O   UNL     1      13.774  32.290  69.223  1.00  0.00    -0.387 OA
ATOM     27  H   UNL     1      13.458  31.362  69.380  1.00  0.00     0.211 HD
ENDBRANCH  21  26
BRANCH  22  28
ATOM     28  C   UNL     1      14.845  36.181  67.423  1.00  0.00     0.191 C 
BRANCH  28  29
ATOM     29  O   UNL     1      13.620  36.756  67.050  1.00  0.00    -0.394 OA
ATOM     30  H   UNL     1      12.914  36.091  67.264  1.00  0.00     0.210 HD
ENDBRANCH  28  29
ENDBRANCH  22  28
BRANCH  23  31
ATOM     31  O   UNL     1      12.894  34.914  69.196  1.00  0.00    -0.387 OA
ATOM     32  H   UNL     1      13.649  35.512  69.438  1.00  0.00     0.211 HD
ENDBRANCH  23  31
ENDBRANCH   1  18
TORSDOF 11
ENDMDL
MODEL 2
REMARK VINA RESULT:    -6.005      2.154      5.156
REMARK INTER + INTRA:         -10.082
REMARK INTER:                  -9.186
REMARK INTRA:                  -0.896
REMARK UNBOUND:                -1.094
REMARK SMILES COC(=O)C1=CO[C@@H](O[C@@H]2O[C@@H](CO)[C@H](O)[C@H](O)[C@H]2O)[C@H]2C(CO)=CC[C@H]12
REMARK SMILES IDX 9 1 8 2 5 3 6 4 27 5 7 6 21 7 26 8 22 9 25 10 3 11 4 12 2 13
REMARK SMILES IDX 1 14 23 15 24 16 10 18 19 19 11 20 17 21 12 22 15 23 20 24
REMARK SMILES IDX 18 26 13 28 14 29 16 31
REMARK H PARENT 24 17 20 25 18 27 14 30 16 32
REMARK Flexibility Score: inf
ROOT
ATOM      1  O   UNL     1      18.264  31.735  67.476  1.00  0.00    -0.310 OA
ENDROOT
BRANCH   1   2
ATOM      2  C   UNL     1      17.542  30.516  67.484  1.00  0.00     0.316 C 
ATOM      3  C   UNL     1      14.756  31.198  68.113  1.00  0.00     0.076 C 
ATOM      4  C   UNL     1      15.117  30.868  66.853  1.00  0.00     0.202 C 
ATOM      5  C   UNL     1      15.881  31.372  69.103  1.00  0.00     0.047 C 
ATOM      6  O   UNL     1      16.459  30.555  66.528  1.00  0.00    -0.471 OA
ATOM      7  C   UNL     1      16.926  30.285  68.870  1.00  0.00     0.094 C 
ATOM      8  C   UNL     1      15.639  31.294  70.609  1.00  0.00     0.037 C 
ATOM      9  C   UNL     1      17.748  30.372  70.118  1.00  0.00    -0.039 C 
ATOM     10  C   UNL     1      16.998  30.885  71.098  1.00  0.00    -0.024 C 
BRANCH   3  11
ATOM     11  C   UNL     1      13.356  31.559  68.427  1.00  0.00     0.337 C 
ATOM     12  O   UNL     1      12.449  30.683  68.380  1.00  0.00    -0.246 OA
BRANCH  11  13
ATOM     13  O   UNL     1      13.039  32.875  68.785  1.00  0.00    -0.466 OA
ATOM     14  C   UNL     1      13.445  33.999  68.014  1.00  0.00     0.282 C 
ENDBRANCH  11  13
ENDBRANCH   3  11
BRANCH   9  15
ATOM     15  C   UNL     1      19.073  29.708  70.375  1.00  0.00     0.187 C 
BRANCH  15  16
ATOM     16  O   UNL     1      19.801  30.411  71.343  1.00  0.00    -0.392 OA
ATOM     17  H   UNL     1      19.611  29.961  72.208  1.00  0.00     0.211 HD
ENDBRANCH  15  16
ENDBRANCH   9  15
ENDBRANCH   1   2
BRANCH   1  18
ATOM     18  C   UNL     1      19.148  31.802  66.366  1.00  0.00     0.286 C 
ATOM     19  C   UNL     1      18.380  32.256  65.109  1.00  0.00     0.202 C 
ATOM     20  O   UNL     1      20.258  32.654  66.621  1.00  0.00    -0.341 OA
ATOM     21  C   UNL     1      17.955  33.732  65.228  1.00  0.00     0.179 C 
ATOM     22  C   UNL     1      19.853  33.990  66.878  1.00  0.00     0.178 C 
ATOM     23  C   UNL     1      19.162  34.598  65.637  1.00  0.00     0.177 C 
BRANCH  19  24
ATOM     24  O   UNL     1      19.202  32.083  63.983  1.00  0.00    -0.385 OA
ATOM     25  H   UNL     1      18.640  32.266  63.185  1.00  0.00     0.211 HD
ENDBRANCH  19  24
BRANCH  21  26
ATOM     26  O   UNL     1      16.922  33.846  66.177  1.00  0.00    -0.387 OA
ATOM     27  H   UNL     1      16.836  32.960  66.619  1.00  0.00     0.211 HD
ENDBRANCH  21  26
BRANCH  22  28
ATOM     28  C   UNL     1      21.095  34.808  67.261  1.00  0.00     0.191 C 
BRANCH  28  29
ATOM     29  O   UNL     1      21.821  34.155  68.270  1.00  0.00    -0.394 OA
ATOM     30  H   UNL     1      21.750  33.181  68.091  1.00  0.00     0.210 HD
ENDBRANCH  28  29
ENDBRANCH  22  28
BRANCH  23  31
ATOM     31  O   UNL     1      18.745  35.911  65.915  1.00  0.00    -0.387 OA
ATOM     32  H   UNL     1      19.242  36.202  66.723  1.00  0.00     0.211 HD
ENDBRANCH  23  31
ENDBRANCH   1  18
TORSDOF 11
ENDMDL
MODEL 3
REMARK VINA RESULT:    -5.773     11.362     14.108
REMARK INTER + INTRA:          -9.736
REMARK INTER:                  -8.544
REMARK INTRA:                  -1.191
REMARK UNBOUND:                -1.094
REMARK SMILES COC(=O)C1=CO[C@@H](O[C@@H]2O[C@@H](CO)[C@H](O)[C@H](O)[C@H]2O)[C@H]2C(CO)=CC[C@H]12
REMARK SMILES IDX 9 1 8 2 5 3 6 4 27 5 7 6 21 7 26 8 22 9 25 10 3 11 4 12 2 13
REMARK SMILES IDX 1 14 23 15 24 16 10 18 19 19 11 20 17 21 12 22 15 23 20 24
REMARK SMILES IDX 18 26 13 28 14 29 16 31
REMARK H PARENT 24 17 20 25 18 27 14 30 16 32
REMARK Flexibility Score: inf
ROOT
ATOM      1  O   UNL     1      17.440  44.340  62.258  1.00  0.00    -0.310 OA
ENDROOT
BRANCH   1   2
ATOM      2  C   UNL     1      18.521  44.416  61.345  1.00  0.00     0.316 C 
ATOM      3  C   UNL     1      20.484  42.409  62.202  1.00  0.00     0.076 C 
ATOM      4  C   UNL     1      19.706  42.193  61.119  1.00  0.00     0.202 C 
ATOM      5  C   UNL     1      20.153  43.629  63.026  1.00  0.00     0.047 C 
ATOM      6  O   UNL     1      18.741  43.141  60.702  1.00  0.00    -0.471 OA
ATOM      7  C   UNL     1      19.809  44.786  62.092  1.00  0.00     0.094 C 
ATOM      8  C   UNL     1      21.173  44.252  63.976  1.00  0.00     0.037 C 
ATOM      9  C   UNL     1      19.870  45.960  63.018  1.00  0.00    -0.039 C 
ATOM     10  C   UNL     1      20.682  45.669  64.038  1.00  0.00    -0.024 C 
BRANCH   3  11
ATOM     11  C   UNL     1      21.462  41.391  62.646  1.00  0.00     0.337 C 
ATOM     12  O   UNL     1      22.635  41.392  62.180  1.00  0.00    -0.246 OA
BRANCH  11  13
ATOM     13  O   UNL     1      21.085  40.427  63.589  1.00  0.00    -0.466 OA
ATOM     14  C   UNL     1      21.742  40.283  64.842  1.00  0.00     0.282 C 
ENDBRANCH  11  13
ENDBRANCH   3  11
BRANCH   9  15
ATOM     15  C   UNL     1      19.395  47.360  62.734  1.00  0.00     0.187 C 
BRANCH  15  16
ATOM     16  O   UNL     1      20.096  47.913  61.655  1.00  0.00    -0.392 OA
ATOM     17  H   UNL     1      20.536  47.151  61.196  1.00  0.00     0.211 HD
ENDBRANCH  15  16
ENDBRANCH   9  15
ENDBRANCH   1   2
BRANCH   1  18
ATOM     18  C   UNL     1      16.517  45.400  62.053  1.00  0.00     0.286 C 
ATOM     19  C   UNL     1      15.746  45.179  60.737  1.00  0.00     0.202 C 
ATOM     20  O   UNL     1      15.623  45.546  63.150  1.00  0.00    -0.341 OA
ATOM     21  C   UNL     1      14.785  43.981  60.858  1.00  0.00     0.179 C 
ATOM     22  C   UNL     1      14.839  44.380  63.354  1.00  0.00     0.178 C 
ATOM     23  C   UNL     1      13.930  44.116  62.133  1.00  0.00     0.177 C 
BRANCH  19  24
ATOM     24  O   UNL     1      15.023  46.344  60.429  1.00  0.00    -0.385 OA
ATOM     25  H   UNL     1      14.060  46.107  60.481  1.00  0.00     0.211 HD
ENDBRANCH  19  24
BRANCH  21  26
ATOM     26  O   UNL     1      15.529  42.786  60.886  1.00  0.00    -0.387 OA
ATOM     27  H   UNL     1      15.298  42.321  61.733  1.00  0.00     0.211 HD
ENDBRANCH  21  26
BRANCH  22  28
ATOM     28  C   UNL     1      13.997  44.578  64.623  1.00  0.00     0.191 C 
BRANCH  28  29
ATOM     29  O   UNL     1      12.923  45.446  64.368  1.00  0.00    -0.394 OA
ATOM     30  H   UNL     1      12.144  44.877  64.131  1.00  0.00     0.210 HD
ENDBRANCH  28  29
ENDBRANCH  22  28
BRANCH  23  31
ATOM     31  O   UNL     1      13.179  42.946  62.338  1.00  0.00    -0.387 OA
ATOM     32  H   UNL     1      13.144  42.798  63.319  1.00  0.00     0.211 HD
ENDBRANCH  23  31
ENDBRANCH   1  18
TORSDOF 11
ENDMDL
MODEL 4
REMARK VINA RESULT:    -5.743      1.475      1.994
REMARK INTER + INTRA:          -9.690
REMARK INTER:                  -8.542
REMARK INTRA:                  -1.147
REMARK UNBOUND:                -1.094
REMARK SMILES COC(=O)C1=CO[C@@H](O[C@@H]2O[C@@H](CO)[C@H](O)[C@H](O)[C@H]2O)[C@H]2C(CO)=CC[C@H]12
REMARK SMILES IDX 9 1 8 2 5 3 6 4 27 5 7 6 21 7 26 8 22 9 25 10 3 11 4 12 2 13
REMARK SMILES IDX 1 14 23 15 24 16 10 18 19 19 11 20 17 21 12 22 15 23 20 24
REMARK SMILES IDX 18 26 13 28 14 29 16 31
REMARK H PARENT 24 17 20 25 18 27 14 30 16 32
REMARK Flexibility Score: inf
ROOT
ATOM      1  O   UNL     1      15.757  31.958  67.280  1.00  0.00    -0.310 OA
ENDROOT
BRANCH   1   2
ATOM      2  C   UNL     1      15.964  30.557  67.259  1.00  0.00     0.316 C 
ATOM      3  C   UNL     1      18.101  29.997  69.192  1.00  0.00     0.076 C 
ATOM      4  C   UNL     1      16.814  29.708  69.486  1.00  0.00     0.202 C 
ATOM      5  C   UNL     1      18.336  30.775  67.922  1.00  0.00     0.047 C 
ATOM      6  O   UNL     1      15.768  29.989  68.574  1.00  0.00    -0.471 OA
ATOM      7  C   UNL     1      17.405  30.249  66.833  1.00  0.00     0.094 C 
ATOM      8  C   UNL     1      19.697  30.785  67.230  1.00  0.00     0.037 C 
ATOM      9  C   UNL     1      18.003  30.847  65.598  1.00  0.00    -0.039 C 
ATOM     10  C   UNL     1      19.300  31.089  65.815  1.00  0.00    -0.024 C 
BRANCH   3  11
ATOM     11  C   UNL     1      19.177  29.731  70.173  1.00  0.00     0.337 C 
ATOM     12  O   UNL     1      19.649  30.672  70.869  1.00  0.00    -0.246 OA
BRANCH  11  13
ATOM     13  O   UNL     1      19.669  28.429  70.332  1.00  0.00    -0.466 OA
ATOM     14  C   UNL     1      21.044  28.152  70.565  1.00  0.00     0.282 C 
ENDBRANCH  11  13
ENDBRANCH   3  11
BRANCH   9  15
ATOM     15  C   UNL     1      17.392  30.883  64.224  1.00  0.00     0.187 C 
BRANCH  15  16
ATOM     16  O   UNL     1      18.202  31.603  63.337  1.00  0.00    -0.392 OA
ATOM     17  H   UNL     1      17.818  32.517  63.297  1.00  0.00     0.211 HD
ENDBRANCH  15  16
ENDBRANCH   9  15
ENDBRANCH   1   2
BRANCH   1  18
ATOM     18  C   UNL     1      14.690  32.335  66.422  1.00  0.00     0.286 C 
ATOM     19  C   UNL     1      13.365  31.740  66.940  1.00  0.00     0.202 C 
ATOM     20  O   UNL     1      14.595  33.746  66.279  1.00  0.00    -0.341 OA
ATOM     21  C   UNL     1      12.933  32.421  68.252  1.00  0.00     0.179 C 
ATOM     22  C   UNL     1      14.343  34.388  67.520  1.00  0.00     0.178 C 
ATOM     23  C   UNL     1      12.974  33.954  68.089  1.00  0.00     0.177 C 
BRANCH  19  24
ATOM     24  O   UNL     1      12.372  31.913  65.960  1.00  0.00    -0.385 OA
ATOM     25  H   UNL     1      12.666  31.403  65.160  1.00  0.00     0.211 HD
ENDBRANCH  19  24
BRANCH  21  26
ATOM     26  O   UNL     1      13.786  32.012  69.294  1.00  0.00    -0.387 OA
ATOM     27  H   UNL     1      14.348  31.275  68.936  1.00  0.00     0.211 HD
ENDBRANCH  21  26
BRANCH  22  28
ATOM     28  C   UNL     1      14.377  35.908  67.294  1.00  0.00     0.191 C 
BRANCH  28  29
ATOM     29  O   UNL     1      15.579  36.448  67.775  1.00  0.00    -0.394 OA
ATOM     30  H   UNL     1      16.120  36.698  66.980  1.00  0.00     0.210 HD
ENDBRANCH  28  29
ENDBRANCH  22  28
BRANCH  23  31
ATOM     31  O   UNL     1      12.750  34.578  69.328  1.00  0.00    -0.387 OA
ATOM     32  H   UNL     1      13.193  35.466  69.285  1.00  0.00     0.211 HD
ENDBRANCH  23  31
ENDBRANCH   1  18
TORSDOF 11
ENDMDL
MODEL 5
REMARK VINA RESULT:    -5.694      2.273      6.034
REMARK INTER + INTRA:          -9.616
REMARK INTER:                  -8.061
REMARK INTRA:                  -1.555
REMARK UNBOUND:                -1.094
REMARK SMILES COC(=O)C1=CO[C@@H](O[C@@H]2O[C@@H](CO)[C@H](O)[C@H](O)[C@H]2O)[C@H]2C(CO)=CC[C@H]12
REMARK SMILES IDX 9 1 8 2 5 3 6 4 27 5 7 6 21 7 26 8 22 9 25 10 3 11 4 12 2 13
REMARK SMILES IDX 1 14 23 15 24 16 10 18 19 19 11 20 17 21 12 22 15 23 20 24
REMARK SMILES IDX 18 26 13 28 14 29 16 31
REMARK H PARENT 24 17 20 25 18 27 14 30 16 32
REMARK Flexibility Score: inf
ROOT
ATOM      1  O   UNL     1      16.629  31.355  66.472  1.00  0.00    -0.310 OA
ENDROOT
BRANCH   1   2
ATOM      2  C   UNL     1      15.575  30.421  66.313  1.00  0.00     0.316 C 
ATOM      3  C   UNL     1      13.086  31.857  66.913  1.00  0.00     0.076 C 
ATOM      4  C   UNL     1      13.418  31.558  65.638  1.00  0.00     0.202 C 
ATOM      5  C   UNL     1      14.138  31.580  67.957  1.00  0.00     0.047 C 
ATOM      6  O   UNL     1      14.624  30.883  65.328  1.00  0.00    -0.471 OA
ATOM      7  C   UNL     1      14.822  30.253  67.639  1.00  0.00     0.094 C 
ATOM      8  C   UNL     1      13.779  31.431  69.434  1.00  0.00     0.037 C 
ATOM      9  C   UNL     1      15.543  29.961  68.919  1.00  0.00    -0.039 C 
ATOM     10  C   UNL     1      14.915  30.580  69.923  1.00  0.00    -0.024 C 
BRANCH   3  11
ATOM     11  C   UNL     1      11.840  32.596  67.215  1.00  0.00     0.337 C 
ATOM     12  O   UNL     1      11.887  33.814  67.544  1.00  0.00    -0.246 OA
BRANCH  11  13
ATOM     13  O   UNL     1      10.604  31.943  67.130  1.00  0.00    -0.466 OA
ATOM     14  C   UNL     1       9.627  32.275  66.151  1.00  0.00     0.282 C 
ENDBRANCH  11  13
ENDBRANCH   3  11
BRANCH   9  15
ATOM     15  C   UNL     1      16.587  28.902  69.147  1.00  0.00     0.187 C 
BRANCH  15  16
ATOM     16  O   UNL     1      17.829  29.482  69.432  1.00  0.00    -0.392 OA
ATOM     17  H   UNL     1      17.722  29.940  70.306  1.00  0.00     0.211 HD
ENDBRANCH  15  16
ENDBRANCH   9  15
ENDBRANCH   1   2
BRANCH   1  18
ATOM     18  C   UNL     1      17.861  30.826  66.004  1.00  0.00     0.286 C 
ATOM     19  C   UNL     1      18.352  31.636  64.788  1.00  0.00     0.202 C 
ATOM     20  O   UNL     1      18.848  30.791  67.027  1.00  0.00    -0.341 OA
ATOM     21  C   UNL     1      18.789  33.050  65.211  1.00  0.00     0.179 C 
ATOM     22  C   UNL     1      19.143  32.089  67.522  1.00  0.00     0.178 C 
ATOM     23  C   UNL     1      19.755  32.969  66.409  1.00  0.00     0.177 C 
BRANCH  19  24
ATOM     24  O   UNL     1      19.430  30.958  64.192  1.00  0.00    -0.385 OA
ATOM     25  H   UNL     1      19.430  30.037  64.562  1.00  0.00     0.211 HD
ENDBRANCH  19  24
BRANCH  21  26
ATOM     26  O   UNL     1      17.653  33.811  65.543  1.00  0.00    -0.387 OA
ATOM     27  H   UNL     1      17.979  34.680  65.897  1.00  0.00     0.211 HD
ENDBRANCH  21  26
BRANCH  22  28
ATOM     28  C   UNL     1      20.121  31.947  68.698  1.00  0.00     0.191 C 
BRANCH  28  29
ATOM     29  O   UNL     1      20.481  30.603  68.878  1.00  0.00    -0.394 OA
ATOM     30  H   UNL     1      21.464  30.549  68.748  1.00  0.00     0.210 HD
ENDBRANCH  28  29
ENDBRANCH  22  28
BRANCH  23  31
ATOM     31  O   UNL     1      20.019  34.257  66.907  1.00  0.00    -0.387 OA
ATOM     32  H   UNL     1      19.172  34.587  67.307  1.00  0.00     0.211 HD
ENDBRANCH  23  31
ENDBRANCH   1  18
TORSDOF 11
ENDMDL
MODEL 6
REMARK VINA RESULT:    -5.692      1.943      6.616
REMARK INTER + INTRA:          -9.613
REMARK INTER:                  -8.849
REMARK INTRA:                  -0.765
REMARK UNBOUND:                -1.094
REMARK SMILES COC(=O)C1=CO[C@@H](O[C@@H]2O[C@@H](CO)[C@H](O)[C@H](O)[C@H]2O)[C@H]2C(CO)=CC[C@H]12
REMARK SMILES IDX 9 1 8 2 5 3 6 4 27 5 7 6 21 7 26 8 22 9 25 10 3 11 4 12 2 13
REMARK SMILES IDX 1 14 23 15 24 16 10 18 19 19 11 20 17 21 12 22 15 23 20 24
REMARK SMILES IDX 18 26 13 28 14 29 16 31
REMARK H PARENT 24 17 20 25 18 27 14 30 16 32
REMARK Flexibility Score: inf
ROOT
ATOM      1  O   UNL     1      16.765  30.876  68.436  1.00  0.00    -0.310 OA
ENDROOT
BRANCH   1   2
ATOM      2  C   UNL     1      16.414  31.193  67.100  1.00  0.00     0.316 C 
ATOM      3  C   UNL     1      16.165  34.115  66.971  1.00  0.00     0.076 C 
ATOM      4  C   UNL     1      17.241  33.492  66.442  1.00  0.00     0.202 C 
ATOM      5  C   UNL     1      15.224  33.253  67.773  1.00  0.00     0.047 C 
ATOM      6  O   UNL     1      17.388  32.085  66.512  1.00  0.00    -0.471 OA
ATOM      7  C   UNL     1      15.057  31.907  67.073  1.00  0.00     0.094 C 
ATOM      8  C   UNL     1      13.782  33.678  68.041  1.00  0.00     0.037 C 
ATOM      9  C   UNL     1      13.858  31.342  67.769  1.00  0.00    -0.039 C 
ATOM     10  C   UNL     1      13.124  32.346  68.257  1.00  0.00    -0.024 C 
BRANCH   3  11
ATOM     11  C   UNL     1      16.047  35.590  66.921  1.00  0.00     0.337 C 
ATOM     12  O   UNL     1      16.806  36.263  66.171  1.00  0.00    -0.246 OA
BRANCH  11  13
ATOM     13  O   UNL     1      15.085  36.238  67.705  1.00  0.00    -0.466 OA
ATOM     14  C   UNL     1      14.117  37.123  67.155  1.00  0.00     0.282 C 
ENDBRANCH  11  13
ENDBRANCH   3  11
BRANCH   9  15
ATOM     15  C   UNL     1      13.344  29.931  67.679  1.00  0.00     0.187 C 
BRANCH  15  16
ATOM     16  O   UNL     1      14.079  29.192  66.745  1.00  0.00    -0.392 OA
ATOM     17  H   UNL     1      14.072  28.254  67.071  1.00  0.00     0.211 HD
ENDBRANCH  15  16
ENDBRANCH   9  15
ENDBRANCH   1   2
BRANCH   1  18
ATOM     18  C   UNL     1      17.284  29.558  68.533  1.00  0.00     0.286 C 
ATOM     19  C   UNL     1      18.555  29.557  69.405  1.00  0.00     0.202 C 
ATOM     20  O   UNL     1      16.319  28.642  69.037  1.00  0.00    -0.341 OA
ATOM     21  C   UNL     1      18.211  29.840  70.879  1.00  0.00     0.179 C 
ATOM     22  C   UNL     1      15.890  28.990  70.344  1.00  0.00     0.178 C 
ATOM     23  C   UNL     1      17.068  28.914  71.341  1.00  0.00     0.177 C 
BRANCH  19  24
ATOM     24  O   UNL     1      19.187  28.306  69.291  1.00  0.00    -0.385 OA
ATOM     25  H   UNL     1      19.904  28.283  69.978  1.00  0.00     0.211 HD
ENDBRANCH  19  24
BRANCH  21  26
ATOM     26  O   UNL     1      17.841  31.190  71.022  1.00  0.00    -0.387 OA
ATOM     27  H   UNL     1      17.713  31.554  70.106  1.00  0.00     0.211 HD
ENDBRANCH  21  26
BRANCH  22  28
ATOM     28  C   UNL     1      14.768  28.026  70.759  1.00  0.00     0.191 C 
BRANCH  28  29
ATOM     29  O   UNL     1      14.060  28.540  71.855  1.00  0.00    -0.394 OA
ATOM     30  H   UNL     1      14.270  29.509  71.905  1.00  0.00     0.210 HD
ENDBRANCH  28  29
ENDBRANCH  22  28
BRANCH  23  31
ATOM     31  O   UNL     1      16.634  29.285  72.626  1.00  0.00    -0.387 OA
ATOM     32  H   UNL     1      16.981  28.598  73.253  1.00  0.00     0.211 HD
ENDBRANCH  23  31
ENDBRANCH   1  18
TORSDOF 11
ENDMDL
MODEL 7
REMARK VINA RESULT:    -5.609     11.992     13.988
REMARK INTER + INTRA:          -9.490
REMARK INTER:                  -8.453
REMARK INTRA:                  -1.037
REMARK UNBOUND:                -1.094
REMARK SMILES COC(=O)C1=CO[C@@H](O[C@@H]2O[C@@H](CO)[C@H](O)[C@H](O)[C@H]2O)[C@H]2C(CO)=CC[C@H]12
REMARK SMILES IDX 9 1 8 2 5 3 6 4 27 5 7 6 21 7 26 8 22 9 25 10 3 11 4 12 2 13
REMARK SMILES IDX 1 14 23 15 24 16 10 18 19 19 11 20 17 21 12 22 15 23 20 24
REMARK SMILES IDX 18 26 13 28 14 29 16 31
REMARK H PARENT 24 17 20 25 18 27 14 30 16 32
REMARK Flexibility Score: inf
ROOT
ATOM      1  O   UNL     1      17.643  43.777  64.153  1.00  0.00    -0.310 OA
ENDROOT
BRANCH   1   2
ATOM      2  C   UNL     1      17.603  42.458  63.638  1.00  0.00     0.316 C 
ATOM      3  C   UNL     1      19.882  42.203  61.806  1.00  0.00     0.076 C 
ATOM      4  C   UNL     1      19.913  41.626  63.027  1.00  0.00     0.202 C 
ATOM      5  C   UNL     1      18.713  43.116  61.530  1.00  0.00     0.047 C 
ATOM      6  O   UNL     1      18.831  41.754  63.932  1.00  0.00    -0.471 OA
ATOM      7  C   UNL     1      17.446  42.497  62.113  1.00  0.00     0.094 C 
ATOM      8  C   UNL     1      18.294  43.470  60.105  1.00  0.00     0.037 C 
ATOM      9  C   UNL     1      16.374  43.309  61.455  1.00  0.00    -0.039 C 
ATOM     10  C   UNL     1      16.844  43.800  60.305  1.00  0.00    -0.024 C 
BRANCH   3  11
ATOM     11  C   UNL     1      21.037  42.090  60.887  1.00  0.00     0.337 C 
ATOM     12  O   UNL     1      21.250  41.014  60.264  1.00  0.00    -0.246 OA
BRANCH  11  13
ATOM     13  O   UNL     1      21.892  43.184  60.705  1.00  0.00    -0.466 OA
ATOM     14  C   UNL     1      22.360  43.980  61.787  1.00  0.00     0.282 C 
ENDBRANCH  11  13
ENDBRANCH   3  11
BRANCH   9  15
ATOM     15  C   UNL     1      14.911  43.328  61.807  1.00  0.00     0.187 C 
BRANCH  15  16
ATOM     16  O   UNL     1      14.210  42.366  61.069  1.00  0.00    -0.392 OA
ATOM     17  H   UNL     1      14.076  42.758  60.167  1.00  0.00     0.211 HD
ENDBRANCH  15  16
ENDBRANCH   9  15
ENDBRANCH   1   2
BRANCH   1  18
ATOM     18  C   UNL     1      17.371  43.795  65.546  1.00  0.00     0.286 C 
ATOM     19  C   UNL     1      18.153  44.940  66.220  1.00  0.00     0.202 C 
ATOM     20  O   UNL     1      15.979  43.901  65.816  1.00  0.00    -0.341 OA
ATOM     21  C   UNL     1      17.591  46.311  65.800  1.00  0.00     0.179 C 
ATOM     22  C   UNL     1      15.428  45.101  65.295  1.00  0.00     0.178 C 
ATOM     23  C   UNL     1      16.060  46.332  65.983  1.00  0.00     0.177 C 
BRANCH  19  24
ATOM     24  O   UNL     1      18.068  44.794  67.615  1.00  0.00    -0.385 OA
ATOM     25  H   UNL     1      18.943  44.438  67.921  1.00  0.00     0.211 HD
ENDBRANCH  19  24
BRANCH  21  26
ATOM     26  O   UNL     1      17.931  46.564  64.458  1.00  0.00    -0.387 OA
ATOM     27  H   UNL     1      18.850  46.212  64.320  1.00  0.00     0.211 HD
ENDBRANCH  21  26
BRANCH  22  28
ATOM     28  C   UNL     1      13.909  45.076  65.522  1.00  0.00     0.191 C 
BRANCH  28  29
ATOM     29  O   UNL     1      13.229  45.155  64.297  1.00  0.00    -0.394 OA
ATOM     30  H   UNL     1      12.588  45.910  64.373  1.00  0.00     0.210 HD
ENDBRANCH  28  29
ENDBRANCH  22  28
BRANCH  23  31
ATOM     31  O   UNL     1      15.524  47.513  65.440  1.00  0.00    -0.387 OA
ATOM     32  H   UNL     1      15.337  48.118  66.204  1.00  0.00     0.211 HD
ENDBRANCH  23  31
ENDBRANCH   1  18
TORSDOF 11
ENDMDL
MODEL 8
REMARK VINA RESULT:    -5.568      2.352      5.497
REMARK INTER + INTRA:          -9.428
REMARK INTER:                  -8.065
REMARK INTRA:                  -1.364
REMARK UNBOUND:                -1.094
REMARK SMILES COC(=O)C1=CO[C@@H](O[C@@H]2O[C@@H](CO)[C@H](O)[C@H](O)[C@H]2O)[C@H]2C(CO)=CC[C@H]12
REMARK SMILES IDX 9 1 8 2 5 3 6 4 27 5 7 6 21 7 26 8 22 9 25 10 3 11 4 12 2 13
REMARK SMILES IDX 1 14 23 15 24 16 10 18 19 19 11 20 17 21 12 22 15 23 20 24
REMARK SMILES IDX 18 26 13 28 14 29 16 31
REMARK H PARENT 24 17 20 25 18 27 14 30 16 32
REMARK Flexibility Score: inf
ROOT
ATOM      1  O   UNL     1      16.537  31.266  67.487  1.00  0.00    -0.310 OA
ENDROOT
BRANCH   1   2
ATOM      2  C   UNL     1      15.695  31.554  68.589  1.00  0.00     0.316 C 
ATOM      3  C   UNL     1      13.282  29.917  68.251  1.00  0.00     0.076 C 
ATOM      4  C   UNL     1      14.215  29.586  69.170  1.00  0.00     0.202 C 
ATOM      5  C   UNL     1      13.642  31.041  67.311  1.00  0.00     0.047 C 
ATOM      6  O   UNL     1      15.394  30.352  69.334  1.00  0.00    -0.471 OA
ATOM      7  C   UNL     1      14.365  32.135  68.093  1.00  0.00     0.094 C 
ATOM      8  C   UNL     1      12.573  31.819  66.548  1.00  0.00     0.037 C 
ATOM      9  C   UNL     1      14.320  33.283  67.133  1.00  0.00    -0.039 C 
ATOM     10  C   UNL     1      13.278  33.122  66.311  1.00  0.00    -0.024 C 
BRANCH   3  11
ATOM     11  C   UNL     1      12.073  29.084  68.067  1.00  0.00     0.337 C 
ATOM     12  O   UNL     1      12.181  27.876  67.719  1.00  0.00    -0.246 OA
BRANCH  11  13
ATOM     13  O   UNL     1      10.805  29.637  68.287  1.00  0.00    -0.466 OA
ATOM     14  C   UNL     1       9.634  28.841  68.422  1.00  0.00     0.282 C 
ENDBRANCH  11  13
ENDBRANCH   3  11
BRANCH   9  15
ATOM     15  C   UNL     1      15.077  34.579  67.238  1.00  0.00     0.187 C 
BRANCH  15  16
ATOM     16  O   UNL     1      15.094  35.246  66.007  1.00  0.00    -0.392 OA
ATOM     17  H   UNL     1      15.908  35.815  66.016  1.00  0.00     0.211 HD
ENDBRANCH  15  16
ENDBRANCH   9  15
ENDBRANCH   1   2
BRANCH   1  18
ATOM     18  C   UNL     1      17.905  31.448  67.822  1.00  0.00     0.286 C 
ATOM     19  C   UNL     1      18.773  30.431  67.055  1.00  0.00     0.202 C 
ATOM     20  O   UNL     1      18.340  32.779  67.576  1.00  0.00    -0.341 OA
ATOM     21  C   UNL     1      18.800  30.757  65.550  1.00  0.00     0.179 C 
ATOM     22  C   UNL     1      18.224  33.130  66.205  1.00  0.00     0.178 C 
ATOM     23  C   UNL     1      19.145  32.244  65.337  1.00  0.00     0.177 C 
BRANCH  19  24
ATOM     24  O   UNL     1      20.079  30.459  67.575  1.00  0.00    -0.385 OA
ATOM     25  H   UNL     1      20.546  31.219  67.138  1.00  0.00     0.211 HD
ENDBRANCH  19  24
BRANCH  21  26
ATOM     26  O   UNL     1      17.548  30.455  64.984  1.00  0.00    -0.387 OA
ATOM     27  H   UNL     1      17.407  31.093  64.235  1.00  0.00     0.211 HD
ENDBRANCH  21  26
BRANCH  22  28
ATOM     28  C   UNL     1      18.597  34.612  66.051  1.00  0.00     0.191 C 
BRANCH  28  29
ATOM     29  O   UNL     1      17.845  35.203  65.025  1.00  0.00    -0.394 OA
ATOM     30  H   UNL     1      17.345  35.958  65.434  1.00  0.00     0.210 HD
ENDBRANCH  28  29
ENDBRANCH  22  28
BRANCH  23  31
ATOM     31  O   UNL     1      19.001  32.586  63.982  1.00  0.00    -0.387 OA
ATOM     32  H   UNL     1      19.660  32.040  63.478  1.00  0.00     0.211 HD
ENDBRANCH  23  31
ENDBRANCH   1  18
TORSDOF 11
ENDMDL
MODEL 9
REMARK VINA RESULT:    -5.520      2.275      6.472
REMARK INTER + INTRA:          -9.356
REMARK INTER:                  -7.937
REMARK INTRA:                  -1.419
REMARK UNBOUND:                -1.094
REMARK SMILES COC(=O)C1=CO[C@@H](O[C@@H]2O[C@@H](CO)[C@H](O)[C@H](O)[C@H]2O)[C@H]2C(CO)=CC[C@H]12
REMARK SMILES IDX 9 1 8 2 5 3 6 4 27 5 7 6 21 7 26 8 22 9 25 10 3 11 4 12 2 13
REMARK SMILES IDX 1 14 23 15 24 16 10 18 19 19 11 20 17 21 12 22 15 23 20 24
REMARK SMILES IDX 18 26 13 28 14 29 16 31
REMARK H PARENT 24 17 20 25 18 27 14 30 16 32
REMARK Flexibility Score: inf
ROOT
ATOM      1  O   UNL     1      18.075  31.071  67.978  1.00  0.00    -0.310 OA
ENDROOT
BRANCH   1   2
ATOM      2  C   UNL     1      17.948  31.308  66.587  1.00  0.00     0.316 C 
ATOM      3  C   UNL     1      19.071  33.974  66.086  1.00  0.00     0.076 C 
ATOM      4  C   UNL     1      19.757  32.862  65.740  1.00  0.00     0.202 C 
ATOM      5  C   UNL     1      17.816  33.757  66.893  1.00  0.00     0.047 C 
ATOM      6  O   UNL     1      19.239  31.568  65.991  1.00  0.00    -0.471 OA
ATOM      7  C   UNL     1      17.071  32.543  66.346  1.00  0.00     0.094 C 
ATOM      8  C   UNL     1      16.722  34.820  66.970  1.00  0.00     0.037 C 
ATOM      9  C   UNL     1      15.727  32.688  66.988  1.00  0.00    -0.039 C 
ATOM     10  C   UNL     1      15.520  33.976  67.281  1.00  0.00    -0.024 C 
BRANCH   3  11
ATOM     11  C   UNL     1      19.644  35.318  65.850  1.00  0.00     0.337 C 
ATOM     12  O   UNL     1      19.173  36.058  64.942  1.00  0.00    -0.246 OA
BRANCH  11  13
ATOM     13  O   UNL     1      20.706  35.772  66.641  1.00  0.00    -0.466 OA
ATOM     14  C   UNL     1      22.067  35.633  66.251  1.00  0.00     0.282 C 
ENDBRANCH  11  13
ENDBRANCH   3  11
BRANCH   9  15
ATOM     15  C   UNL     1      14.625  31.664  67.019  1.00  0.00     0.187 C 
BRANCH  15  16
ATOM     16  O   UNL     1      13.671  31.989  67.991  1.00  0.00    -0.392 OA
ATOM     17  H   UNL     1      13.516  31.158  68.511  1.00  0.00     0.211 HD
ENDBRANCH  15  16
ENDBRANCH   9  15
ENDBRANCH   1   2
BRANCH   1  18
ATOM     18  C   UNL     1      17.966  29.687  68.277  1.00  0.00     0.286 C 
ATOM     19  C   UNL     1      19.065  29.277  69.277  1.00  0.00     0.202 C 
ATOM     20  O   UNL     1      16.675  29.350  68.770  1.00  0.00    -0.341 OA
ATOM     21  C   UNL     1      18.802  29.892  70.664  1.00  0.00     0.179 C 
ATOM     22  C   UNL     1      16.374  30.034  69.977  1.00  0.00     0.178 C 
ATOM     23  C   UNL     1      17.350  29.615  71.099  1.00  0.00     0.177 C 
BRANCH  19  24
ATOM     24  O   UNL     1      19.097  27.875  69.372  1.00  0.00    -0.385 OA
ATOM     25  H   UNL     1      19.175  27.526  68.446  1.00  0.00     0.211 HD
ENDBRANCH  19  24
BRANCH  21  26
ATOM     26  O   UNL     1      19.047  31.277  70.616  1.00  0.00    -0.387 OA
ATOM     27  H   UNL     1      19.199  31.511  69.662  1.00  0.00     0.211 HD
ENDBRANCH  21  26
BRANCH  22  28
ATOM     28  C   UNL     1      14.925  29.707  70.370  1.00  0.00     0.191 C 
BRANCH  28  29
ATOM     29  O   UNL     1      14.245  30.873  70.754  1.00  0.00    -0.394 OA
ATOM     30  H   UNL     1      14.459  31.028  71.711  1.00  0.00     0.210 HD
ENDBRANCH  28  29
ENDBRANCH  22  28
BRANCH  23  31
ATOM     31  O   UNL     1      17.054  30.319  72.279  1.00  0.00    -0.387 OA
ATOM     32  H   UNL     1      17.282  29.716  73.034  1.00  0.00     0.211 HD
ENDBRANCH  23  31
ENDBRANCH   1  18
TORSDOF 11
ENDMDL
