MODEL 1
REMARK VINA RESULT:    -4.103      0.000      0.000
REMARK INTER + INTRA:          -6.517
REMARK INTER:                  -6.022
REMARK INTRA:                  -0.495
REMARK UNBOUND:                -0.495
REMARK SMILES O=C([O-])CCCCCCCC(=O)[O-]
REMARK SMILES IDX 7 1 6 2 5 3 4 4 2 5 1 6 3 7 8 8 9 9 10 10 11 11 12 12 13 13
REMARK H PARENT
REMARK Flexibility Score: inf
ROOT
ATOM      1  C   UNL     1     207.189 205.658 156.112  1.00  0.00     0.000 C 
ENDROOT
BRANCH   1   2
ATOM      2  C   UNL     1     207.181 204.129 155.971  1.00  0.00     0.000 C 
BRANCH   2   3
ATOM      3  C   UNL     1     205.804 203.551 156.333  1.00  0.00     0.006 C 
BRANCH   3   4
ATOM      4  C   UNL     1     205.272 204.103 157.662  1.00  0.00     0.053 C 
BRANCH   4   5
ATOM      5  C   UNL     1     205.911 203.431 158.838  1.00  0.00     0.041 C 
ATOM      6  O   UNL     1     205.854 202.179 158.962  1.00  0.00    -0.550 OA
ATOM      7  O   UNL     1     206.542 204.190 159.816  1.00  0.00    -0.550 OA
ENDBRANCH   4   5
ENDBRANCH   3   4
ENDBRANCH   2   3
ENDBRANCH   1   2
BRANCH   1   8
ATOM      8  C   UNL     1     208.328 206.163 157.010  1.00  0.00     0.000 C 
BRANCH   8   9
ATOM      9  C   UNL     1     208.839 207.554 156.594  1.00  0.00     0.006 C 
BRANCH   9  10
ATOM     10  C   UNL     1     209.514 207.535 155.217  1.00  0.00     0.053 C 
BRANCH  10  11
ATOM     11  C   UNL     1     210.956 207.138 155.312  1.00  0.00     0.041 C 
ATOM     12  O   UNL     1     211.807 207.946 155.768  1.00  0.00    -0.550 OA
ATOM     13  O   UNL     1     211.352 205.863 154.930  1.00  0.00    -0.550 OA
ENDBRANCH  10  11
ENDBRANCH   9  10
ENDBRANCH   8   9
ENDBRANCH   1   8
TORSDOF 8
ENDMDL
MODEL 2
REMARK VINA RESULT:    -4.103      0.134      6.107
REMARK INTER + INTRA:          -6.516
REMARK INTER:                  -6.005
REMARK INTRA:                  -0.511
REMARK UNBOUND:                -0.495
REMARK SMILES O=C([O-])CCCCCCCC(=O)[O-]
REMARK SMILES IDX 7 1 6 2 5 3 4 4 2 5 1 6 3 7 8 8 9 9 10 10 11 11 12 12 13 13
REMARK H PARENT
REMARK Flexibility Score: inf
ROOT
ATOM      1  C   UNL     1     207.183 205.685 156.120  1.00  0.00     0.000 C 
ENDROOT
BRANCH   1   2
ATOM      2  C   UNL     1     208.288 206.257 157.020  1.00  0.00     0.000 C 
BRANCH   2   3
ATOM      3  C   UNL     1     208.794 207.604 156.481  1.00  0.00     0.006 C 
BRANCH   3   4
ATOM      4  C   UNL     1     209.503 207.460 155.128  1.00  0.00     0.053 C 
BRANCH   4   5
ATOM      5  C   UNL     1     210.942 207.081 155.293  1.00  0.00     0.041 C 
ATOM      6  O   UNL     1     211.773 207.919 155.730  1.00  0.00    -0.550 OA
ATOM      7  O   UNL     1     211.373 205.811 154.930  1.00  0.00    -0.550 OA
ENDBRANCH   4   5
ENDBRANCH   3   4
ENDBRANCH   2   3
ENDBRANCH   1   2
BRANCH   1   8
ATOM      8  C   UNL     1     207.158 204.149 156.117  1.00  0.00     0.000 C 
BRANCH   8   9
ATOM      9  C   UNL     1     205.776 203.579 156.486  1.00  0.00     0.006 C 
BRANCH   9  10
ATOM     10  C   UNL     1     205.257 204.136 157.818  1.00  0.00     0.053 C 
BRANCH  10  11
ATOM     11  C   UNL     1     205.973 203.533 158.988  1.00  0.00     0.041 C 
ATOM     12  O   UNL     1     206.590 204.269 159.801  1.00  0.00    -0.550 OA
ATOM     13  O   UNL     1     205.928 202.160 159.197  1.00  0.00    -0.550 OA
ENDBRANCH  10  11
ENDBRANCH   9  10
ENDBRANCH   8   9
ENDBRANCH   1   8
TORSDOF 8
ENDMDL
MODEL 3
REMARK VINA RESULT:    -4.085      2.780      5.189
REMARK INTER + INTRA:          -6.490
REMARK INTER:                  -5.586
REMARK INTRA:                  -0.904
REMARK UNBOUND:                -0.495
REMARK SMILES O=C([O-])CCCCCCCC(=O)[O-]
REMARK SMILES IDX 7 1 6 2 5 3 4 4 2 5 1 6 3 7 8 8 9 9 10 10 11 11 12 12 13 13
REMARK H PARENT
REMARK Flexibility Score: inf
ROOT
ATOM      1  C   UNL     1     206.741 205.388 159.621  1.00  0.00     0.000 C 
ENDROOT
BRANCH   1   2
ATOM      2  C   UNL     1     208.188 205.677 159.196  1.00  0.00     0.000 C 
BRANCH   2   3
ATOM      3  C   UNL     1     208.227 206.642 158.001  1.00  0.00     0.006 C 
BRANCH   3   4
ATOM      4  C   UNL     1     206.936 207.461 157.872  1.00  0.00     0.053 C 
BRANCH   4   5
ATOM      5  C   UNL     1     206.497 207.585 156.445  1.00  0.00     0.041 C 
ATOM      6  O   UNL     1     205.482 208.268 156.151  1.00  0.00    -0.550 OA
ATOM      7  O   UNL     1     207.192 206.919 155.443  1.00  0.00    -0.550 OA
ENDBRANCH   4   5
ENDBRANCH   3   4
ENDBRANCH   2   3
ENDBRANCH   1   2
BRANCH   1   8
ATOM      8  C   UNL     1     206.342 203.921 159.399  1.00  0.00     0.000 C 
BRANCH   8   9
ATOM      9  C   UNL     1     205.187 203.768 158.392  1.00  0.00     0.006 C 
BRANCH   9  10
ATOM     10  C   UNL     1     205.638 204.025 156.949  1.00  0.00     0.053 C 
BRANCH  10  11
ATOM     11  C   UNL     1     206.725 203.082 156.532  1.00  0.00     0.041 C 
ATOM     12  O   UNL     1     206.487 201.851 156.417  1.00  0.00    -0.550 OA
ATOM     13  O   UNL     1     207.992 203.570 156.237  1.00  0.00    -0.550 OA
ENDBRANCH  10  11
ENDBRANCH   9  10
ENDBRANCH   8   9
ENDBRANCH   1   8
TORSDOF 8
ENDMDL
MODEL 4
REMARK VINA RESULT:    -4.070      2.361      2.911
REMARK INTER + INTRA:          -6.468
REMARK INTER:                  -5.569
REMARK INTRA:                  -0.899
REMARK UNBOUND:                -0.495
REMARK SMILES O=C([O-])CCCCCCCC(=O)[O-]
REMARK SMILES IDX 7 1 6 2 5 3 4 4 2 5 1 6 3 7 8 8 9 9 10 10 11 11 12 12 13 13
REMARK H PARENT
REMARK Flexibility Score: inf
ROOT
ATOM      1  C   UNL     1     206.982 204.206 156.037  1.00  0.00     0.000 C 
ENDROOT
BRANCH   1   2
ATOM      2  C   UNL     1     206.489 203.110 156.991  1.00  0.00     0.000 C 
BRANCH   2   3
ATOM      3  C   UNL     1     205.597 203.701 158.094  1.00  0.00     0.006 C 
BRANCH   3   4
ATOM      4  C   UNL     1     206.298 203.728 159.458  1.00  0.00     0.053 C 
BRANCH   4   5
ATOM      5  C   UNL     1     206.950 205.051 159.722  1.00  0.00     0.041 C 
ATOM      6  O   UNL     1     206.274 206.111 159.673  1.00  0.00    -0.550 OA
ATOM      7  O   UNL     1     208.312 205.115 159.990  1.00  0.00    -0.550 OA
ENDBRANCH   4   5
ENDBRANCH   3   4
ENDBRANCH   2   3
ENDBRANCH   1   2
BRANCH   1   8
ATOM      8  C   UNL     1     205.957 205.336 155.853  1.00  0.00     0.000 C 
BRANCH   8   9
ATOM      9  C   UNL     1     206.587 206.735 155.979  1.00  0.00     0.006 C 
BRANCH   9  10
ATOM     10  C   UNL     1     207.996 206.683 156.584  1.00  0.00     0.053 C 
BRANCH  10  11
ATOM     11  C   UNL     1     208.257 207.854 157.481  1.00  0.00     0.041 C 
ATOM     12  O   UNL     1     207.462 208.830 157.498  1.00  0.00    -0.550 OA
ATOM     13  O   UNL     1     209.361 207.849 158.325  1.00  0.00    -0.550 OA
ENDBRANCH  10  11
ENDBRANCH   9  10
ENDBRANCH   8   9
ENDBRANCH   1   8
TORSDOF 8
ENDMDL
MODEL 5
REMARK VINA RESULT:    -4.068      2.927      3.394
REMARK INTER + INTRA:          -6.466
REMARK INTER:                  -5.773
REMARK INTRA:                  -0.693
REMARK UNBOUND:                -0.495
REMARK SMILES O=C([O-])CCCCCCCC(=O)[O-]
REMARK SMILES IDX 7 1 6 2 5 3 4 4 2 5 1 6 3 7 8 8 9 9 10 10 11 11 12 12 13 13
REMARK H PARENT
REMARK Flexibility Score: inf
ROOT
ATOM      1  C   UNL     1     208.157 205.665 156.557  1.00  0.00     0.000 C 
ENDROOT
BRANCH   1   2
ATOM      2  C   UNL     1     206.785 205.030 156.290  1.00  0.00     0.000 C 
BRANCH   2   3
ATOM      3  C   UNL     1     205.731 205.569 157.271  1.00  0.00     0.006 C 
BRANCH   3   4
ATOM      4  C   UNL     1     204.927 204.445 157.937  1.00  0.00     0.053 C 
BRANCH   4   5
ATOM      5  C   UNL     1     205.815 203.489 158.674  1.00  0.00     0.041 C 
ATOM      6  O   UNL     1     206.422 203.859 159.712  1.00  0.00    -0.550 OA
ATOM      7  O   UNL     1     205.997 202.197 158.194  1.00  0.00    -0.550 OA
ENDBRANCH   4   5
ENDBRANCH   3   4
ENDBRANCH   2   3
ENDBRANCH   1   2
BRANCH   1   8
ATOM      8  C   UNL     1     208.238 206.344 157.932  1.00  0.00     0.000 C 
BRANCH   8   9
ATOM      9  C   UNL     1     208.667 207.819 157.840  1.00  0.00     0.006 C 
BRANCH   9  10
ATOM     10  C   UNL     1     207.791 208.617 156.867  1.00  0.00     0.053 C 
BRANCH  10  11
ATOM     11  C   UNL     1     206.805 209.483 157.592  1.00  0.00     0.041 C 
ATOM     12  O   UNL     1     205.597 209.139 157.670  1.00  0.00    -0.550 OA
ATOM     13  O   UNL     1     207.230 210.652 158.210  1.00  0.00    -0.550 OA
ENDBRANCH  10  11
ENDBRANCH   9  10
ENDBRANCH   8   9
ENDBRANCH   1   8
TORSDOF 8
ENDMDL
MODEL 6
REMARK VINA RESULT:    -4.045      2.982      5.255
REMARK INTER + INTRA:          -6.432
REMARK INTER:                  -5.593
REMARK INTRA:                  -0.839
REMARK UNBOUND:                -0.495
REMARK SMILES O=C([O-])CCCCCCCC(=O)[O-]
REMARK SMILES IDX 7 1 6 2 5 3 4 4 2 5 1 6 3 7 8 8 9 9 10 10 11 11 12 12 13 13
REMARK H PARENT
REMARK Flexibility Score: inf
ROOT
ATOM      1  C   UNL     1     208.205 204.684 156.387  1.00  0.00     0.000 C 
ENDROOT
BRANCH   1   2
ATOM      2  C   UNL     1     208.387 206.015 157.129  1.00  0.00     0.000 C 
BRANCH   2   3
ATOM      3  C   UNL     1     207.850 207.188 156.294  1.00  0.00     0.006 C 
BRANCH   3   4
ATOM      4  C   UNL     1     207.069 208.199 157.144  1.00  0.00     0.053 C 
BRANCH   4   5
ATOM      5  C   UNL     1     205.754 207.644 157.599  1.00  0.00     0.041 C 
ATOM      6  O   UNL     1     204.853 207.381 156.760  1.00  0.00    -0.550 OA
ATOM      7  O   UNL     1     205.511 207.450 158.953  1.00  0.00    -0.550 OA
ENDBRANCH   4   5
ENDBRANCH   3   4
ENDBRANCH   2   3
ENDBRANCH   1   2
BRANCH   1   8
ATOM      8  C   UNL     1     206.800 204.529 155.785  1.00  0.00     0.000 C 
BRANCH   8   9
ATOM      9  C   UNL     1     205.960 203.460 156.508  1.00  0.00     0.006 C 
BRANCH   9  10
ATOM     10  C   UNL     1     205.300 204.005 157.780  1.00  0.00     0.053 C 
BRANCH  10  11
ATOM     11  C   UNL     1     205.966 203.483 159.017  1.00  0.00     0.041 C 
ATOM     12  O   UNL     1     205.966 202.249 159.265  1.00  0.00    -0.550 OA
ATOM     13  O   UNL     1     206.617 204.359 159.877  1.00  0.00    -0.550 OA
ENDBRANCH  10  11
ENDBRANCH   9  10
ENDBRANCH   8   9
ENDBRANCH   1   8
TORSDOF 8
ENDMDL
MODEL 7
REMARK VINA RESULT:    -4.043      2.742      3.572
REMARK INTER + INTRA:          -6.429
REMARK INTER:                  -5.577
REMARK INTRA:                  -0.852
REMARK UNBOUND:                -0.495
REMARK SMILES O=C([O-])CCCCCCCC(=O)[O-]
REMARK SMILES IDX 7 1 6 2 5 3 4 4 2 5 1 6 3 7 8 8 9 9 10 10 11 11 12 12 13 13
REMARK H PARENT
REMARK Flexibility Score: inf
ROOT
ATOM      1  C   UNL     1     206.724 205.216 159.748  1.00  0.00     0.000 C 
ENDROOT
BRANCH   1   2
ATOM      2  C   UNL     1     206.384 203.783 159.313  1.00  0.00     0.000 C 
BRANCH   2   3
ATOM      3  C   UNL     1     205.208 203.773 158.325  1.00  0.00     0.006 C 
BRANCH   3   4
ATOM      4  C   UNL     1     205.665 203.977 156.874  1.00  0.00     0.053 C 
BRANCH   4   5
ATOM      5  C   UNL     1     206.734 203.002 156.486  1.00  0.00     0.041 C 
ATOM      6  O   UNL     1     207.859 203.415 156.100  1.00  0.00    -0.550 OA
ATOM      7  O   UNL     1     206.477 201.637 156.520  1.00  0.00    -0.550 OA
ENDBRANCH   4   5
ENDBRANCH   3   4
ENDBRANCH   2   3
ENDBRANCH   1   2
BRANCH   1   8
ATOM      8  C   UNL     1     208.158 205.622 159.377  1.00  0.00     0.000 C 
BRANCH   8   9
ATOM      9  C   UNL     1     208.236 206.351 158.022  1.00  0.00     0.006 C 
BRANCH   9  10
ATOM     10  C   UNL     1     207.104 207.371 157.848  1.00  0.00     0.053 C 
BRANCH  10  11
ATOM     11  C   UNL     1     206.651 207.458 156.422  1.00  0.00     0.041 C 
ATOM     12  O   UNL     1     205.635 208.137 156.120  1.00  0.00    -0.550 OA
ATOM     13  O   UNL     1     207.373 206.817 155.424  1.00  0.00    -0.550 OA
ENDBRANCH  10  11
ENDBRANCH   9  10
ENDBRANCH   8   9
ENDBRANCH   1   8
TORSDOF 8
ENDMDL
MODEL 8
REMARK VINA RESULT:    -4.025      2.897      5.107
REMARK INTER + INTRA:          -6.403
REMARK INTER:                  -5.589
REMARK INTRA:                  -0.814
REMARK UNBOUND:                -0.495
REMARK SMILES O=C([O-])CCCCCCCC(=O)[O-]
REMARK SMILES IDX 7 1 6 2 5 3 4 4 2 5 1 6 3 7 8 8 9 9 10 10 11 11 12 12 13 13
REMARK H PARENT
REMARK Flexibility Score: inf
ROOT
ATOM      1  C   UNL     1     204.066 206.241 157.385  1.00  0.00     0.000 C 
ENDROOT
BRANCH   1   2
ATOM      2  C   UNL     1     204.441 206.740 155.982  1.00  0.00     0.000 C 
BRANCH   2   3
ATOM      3  C   UNL     1     205.763 207.523 156.012  1.00  0.00     0.006 C 
BRANCH   3   4
ATOM      4  C   UNL     1     206.274 207.747 157.441  1.00  0.00     0.053 C 
BRANCH   4   5
ATOM      5  C   UNL     1     207.366 208.772 157.486  1.00  0.00     0.041 C 
ATOM      6  O   UNL     1     208.536 208.438 157.810  1.00  0.00    -0.550 OA
ATOM      7  O   UNL     1     207.084 210.102 157.203  1.00  0.00    -0.550 OA
ENDBRANCH   4   5
ENDBRANCH   3   4
ENDBRANCH   2   3
ENDBRANCH   1   2
BRANCH   1   8
ATOM      8  C   UNL     1     204.045 204.708 157.481  1.00  0.00     0.000 C 
BRANCH   8   9
ATOM      9  C   UNL     1     205.228 204.149 158.293  1.00  0.00     0.006 C 
BRANCH   9  10
ATOM     10  C   UNL     1     206.137 203.249 157.447  1.00  0.00     0.053 C 
BRANCH  10  11
ATOM     11  C   UNL     1     207.018 204.050 156.537  1.00  0.00     0.041 C 
ATOM     12  O   UNL     1     208.023 204.653 156.996  1.00  0.00    -0.550 OA
ATOM     13  O   UNL     1     206.747 204.100 155.175  1.00  0.00    -0.550 OA
ENDBRANCH  10  11
ENDBRANCH   9  10
ENDBRANCH   8   9
ENDBRANCH   1   8
TORSDOF 8
ENDMDL
MODEL 9
REMARK VINA RESULT:    -3.995      2.678      5.695
REMARK INTER + INTRA:          -6.359
REMARK INTER:                  -5.678
REMARK INTRA:                  -0.680
REMARK UNBOUND:                -0.495
REMARK SMILES O=C([O-])CCCCCCCC(=O)[O-]
REMARK SMILES IDX 7 1 6 2 5 3 4 4 2 5 1 6 3 7 8 8 9 9 10 10 11 11 12 12 13 13
REMARK H PARENT
REMARK Flexibility Score: inf
ROOT
ATOM      1  C   UNL     1     206.535 206.255 155.229  1.00  0.00     0.000 C 
ENDROOT
BRANCH   1   2
ATOM      2  C   UNL     1     205.222 206.760 155.844  1.00  0.00     0.000 C 
BRANCH   2   3
ATOM      3  C   UNL     1     205.487 207.536 157.144  1.00  0.00     0.006 C 
BRANCH   3   4
ATOM      4  C   UNL     1     205.826 209.010 156.882  1.00  0.00     0.053 C 
BRANCH   4   5
ATOM      5  C   UNL     1     207.084 209.422 157.582  1.00  0.00     0.041 C 
ATOM      6  O   UNL     1     207.147 210.533 158.172  1.00  0.00    -0.550 OA
ATOM      7  O   UNL     1     208.200 208.594 157.556  1.00  0.00    -0.550 OA
ENDBRANCH   4   5
ENDBRANCH   3   4
ENDBRANCH   2   3
ENDBRANCH   1   2
BRANCH   1   8
ATOM      8  C   UNL     1     207.160 205.105 156.032  1.00  0.00     0.000 C 
BRANCH   8   9
ATOM      9  C   UNL     1     206.360 203.795 155.913  1.00  0.00     0.006 C 
BRANCH   9  10
ATOM     10  C   UNL     1     206.327 203.014 157.232  1.00  0.00     0.053 C 
BRANCH  10  11
ATOM     11  C   UNL     1     205.674 203.802 158.326  1.00  0.00     0.041 C 
ATOM     12  O   UNL     1     204.485 204.197 158.201  1.00  0.00    -0.550 OA
ATOM     13  O   UNL     1     206.368 204.070 159.499  1.00  0.00    -0.550 OA
ENDBRANCH  10  11
ENDBRANCH   9  10
ENDBRANCH   8   9
ENDBRANCH   1   8
TORSDOF 8
ENDMDL
