MODEL 1
REMARK VINA RESULT:    -5.424      0.000      0.000
REMARK INTER + INTRA:          -5.837
REMARK INTER:                  -5.741
REMARK INTRA:                  -0.096
REMARK UNBOUND:                -0.096
REMARK SMILES C=C(C)[C@@H]1CC=C(C)C(=O)C1
REMARK SMILES IDX 8 1 7 2 6 3 5 4 4 5 11 6 9 7 10 8 2 9 1 10 3 11
REMARK H PARENT
REMARK Flexibility Score: inf
ROOT
ATOM      1  C   UNL     1       3.893  16.715  -6.036  1.00  0.00     0.048 C 
ATOM      2  C   UNL     1       3.489  18.065  -6.561  1.00  0.00    -0.012 C 
ATOM      3  C   UNL     1       2.966  18.985  -5.731  1.00  0.00    -0.019 C 
ATOM      4  C   UNL     1       2.622  20.376  -6.194  1.00  0.00     0.036 C 
ATOM      5  C   UNL     1       2.213  20.383  -7.680  1.00  0.00     0.025 C 
ATOM      6  C   UNL     1       3.315  19.737  -8.541  1.00  0.00     0.089 C 
ATOM      7  C   UNL     1       3.692  18.387  -7.996  1.00  0.00     0.158 C 
ATOM      8  O   UNL     1       4.227  17.542  -8.763  1.00  0.00    -0.295 OA
ENDROOT
BRANCH   5   9
ATOM      9  C   UNL     1       1.874  21.787  -8.164  1.00  0.00    -0.077 C 
ATOM     10  C   UNL     1       2.595  22.389  -9.125  1.00  0.00     0.008 C 
ATOM     11  C   UNL     1       0.711  22.532  -7.563  1.00  0.00     0.039 C 
ENDBRANCH   5   9
TORSDOF 1
ENDMDL
MODEL 2
REMARK VINA RESULT:    -5.329      0.334      1.093
REMARK INTER + INTRA:          -5.736
REMARK INTER:                  -5.643
REMARK INTRA:                  -0.093
REMARK UNBOUND:                -0.096
REMARK SMILES C=C(C)[C@@H]1CC=C(C)C(=O)C1
REMARK SMILES IDX 8 1 7 2 6 3 5 4 4 5 11 6 9 7 10 8 2 9 1 10 3 11
REMARK H PARENT
REMARK Flexibility Score: inf
ROOT
ATOM      1  C   UNL     1       3.874  16.325  -6.181  1.00  0.00     0.048 C 
ATOM      2  C   UNL     1       3.479  17.707  -6.622  1.00  0.00    -0.012 C 
ATOM      3  C   UNL     1       2.957  18.576  -5.736  1.00  0.00    -0.019 C 
ATOM      4  C   UNL     1       2.622  19.995  -6.112  1.00  0.00     0.036 C 
ATOM      5  C   UNL     1       2.220  20.098  -7.596  1.00  0.00     0.025 C 
ATOM      6  C   UNL     1       3.321  19.503  -8.492  1.00  0.00     0.089 C 
ATOM      7  C   UNL     1       3.689  18.118  -8.032  1.00  0.00     0.158 C 
ATOM      8  O   UNL     1       4.222  17.321  -8.850  1.00  0.00    -0.295 OA
ENDROOT
BRANCH   5   9
ATOM      9  C   UNL     1       1.889  21.532  -7.991  1.00  0.00    -0.077 C 
ATOM     10  C   UNL     1       0.941  22.234  -7.348  1.00  0.00     0.008 C 
ATOM     11  C   UNL     1       2.629  22.192  -9.125  1.00  0.00     0.039 C 
ENDBRANCH   5   9
TORSDOF 1
ENDMDL
MODEL 3
REMARK VINA RESULT:    -5.252      1.544      1.964
REMARK INTER + INTRA:          -5.655
REMARK INTER:                  -5.567
REMARK INTRA:                  -0.088
REMARK UNBOUND:                -0.096
REMARK SMILES C=C(C)[C@@H]1CC=C(C)C(=O)C1
REMARK SMILES IDX 8 1 7 2 6 3 5 4 4 5 11 6 9 7 10 8 2 9 1 10 3 11
REMARK H PARENT
REMARK Flexibility Score: inf
ROOT
ATOM      1  C   UNL     1       2.606  15.930  -6.975  1.00  0.00     0.048 C 
ATOM      2  C   UNL     1       2.349  17.392  -7.211  1.00  0.00    -0.012 C 
ATOM      3  C   UNL     1       1.493  17.782  -8.173  1.00  0.00    -0.019 C 
ATOM      4  C   UNL     1       1.143  19.230  -8.393  1.00  0.00     0.036 C 
ATOM      5  C   UNL     1       2.319  20.151  -8.013  1.00  0.00     0.025 C 
ATOM      6  C   UNL     1       2.771  19.873  -6.567  1.00  0.00     0.089 C 
ATOM      7  C   UNL     1       3.027  18.404  -6.364  1.00  0.00     0.158 C 
ATOM      8  O   UNL     1       3.792  18.038  -5.432  1.00  0.00    -0.295 OA
ENDROOT
BRANCH   5   9
ATOM      9  C   UNL     1       1.973  21.620  -8.221  1.00  0.00    -0.077 C 
ATOM     10  C   UNL     1       2.624  22.371  -9.125  1.00  0.00     0.008 C 
ATOM     11  C   UNL     1       0.883  22.261  -7.402  1.00  0.00     0.039 C 
ENDBRANCH   5   9
TORSDOF 1
ENDMDL
MODEL 4
REMARK VINA RESULT:    -5.203      1.710      2.307
REMARK INTER + INTRA:          -5.603
REMARK INTER:                  -5.511
REMARK INTRA:                  -0.092
REMARK UNBOUND:                -0.096
REMARK SMILES C=C(C)[C@@H]1CC=C(C)C(=O)C1
REMARK SMILES IDX 8 1 7 2 6 3 5 4 4 5 11 6 9 7 10 8 2 9 1 10 3 11
REMARK H PARENT
REMARK Flexibility Score: inf
ROOT
ATOM      1  C   UNL     1       2.989  16.013  -8.091  1.00  0.00     0.048 C 
ATOM      2  C   UNL     1       2.704  17.484  -8.228  1.00  0.00    -0.012 C 
ATOM      3  C   UNL     1       3.682  18.383  -8.017  1.00  0.00    -0.019 C 
ATOM      4  C   UNL     1       3.466  19.860  -8.220  1.00  0.00     0.036 C 
ATOM      5  C   UNL     1       2.005  20.254  -7.933  1.00  0.00     0.025 C 
ATOM      6  C   UNL     1       1.044  19.402  -8.783  1.00  0.00     0.089 C 
ATOM      7  C   UNL     1       1.347  17.937  -8.619  1.00  0.00     0.158 C 
ATOM      8  O   UNL     1       0.444  17.093  -8.863  1.00  0.00    -0.295 OA
ENDROOT
BRANCH   5   9
ATOM      9  C   UNL     1       1.771  21.745  -8.147  1.00  0.00    -0.077 C 
ATOM     10  C   UNL     1       0.803  22.402  -7.486  1.00  0.00     0.008 C 
ATOM     11  C   UNL     1       2.632  22.512  -9.116  1.00  0.00     0.039 C 
ENDBRANCH   5   9
TORSDOF 1
ENDMDL
MODEL 5
REMARK VINA RESULT:    -5.094      1.885      3.137
REMARK INTER + INTRA:          -5.488
REMARK INTER:                  -5.391
REMARK INTRA:                  -0.097
REMARK UNBOUND:                -0.096
REMARK SMILES C=C(C)[C@@H]1CC=C(C)C(=O)C1
REMARK SMILES IDX 8 1 7 2 6 3 5 4 4 5 11 6 9 7 10 8 2 9 1 10 3 11
REMARK H PARENT
REMARK Flexibility Score: inf
ROOT
ATOM      1  C   UNL     1       5.155  14.604  -6.568  1.00  0.00     0.048 C 
ATOM      2  C   UNL     1       4.497  15.943  -6.758  1.00  0.00    -0.012 C 
ATOM      3  C   UNL     1       4.078  16.323  -7.978  1.00  0.00    -0.019 C 
ATOM      4  C   UNL     1       3.342  17.618  -8.203  1.00  0.00     0.036 C 
ATOM      5  C   UNL     1       3.782  18.692  -7.188  1.00  0.00     0.025 C 
ATOM      6  C   UNL     1       3.615  18.168  -5.750  1.00  0.00     0.089 C 
ATOM      7  C   UNL     1       4.290  16.833  -5.589  1.00  0.00     0.158 C 
ATOM      8  O   UNL     1       4.639  16.456  -4.438  1.00  0.00    -0.295 OA
ENDROOT
BRANCH   5   9
ATOM      9  C   UNL     1       3.035  20.003  -7.398  1.00  0.00    -0.077 C 
ATOM     10  C   UNL     1       2.330  20.573  -6.406  1.00  0.00     0.008 C 
ATOM     11  C   UNL     1       3.076  20.689  -8.739  1.00  0.00     0.039 C 
ENDBRANCH   5   9
TORSDOF 1
ENDMDL
MODEL 6
REMARK VINA RESULT:    -4.870      1.878      4.805
REMARK INTER + INTRA:          -5.251
REMARK INTER:                  -5.163
REMARK INTRA:                  -0.088
REMARK UNBOUND:                -0.096
REMARK SMILES C=C(C)[C@@H]1CC=C(C)C(=O)C1
REMARK SMILES IDX 8 1 7 2 6 3 5 4 4 5 11 6 9 7 10 8 2 9 1 10 3 11
REMARK H PARENT
REMARK Flexibility Score: inf
ROOT
ATOM      1  C   UNL     1       2.632  21.491  -9.125  1.00  0.00     0.048 C 
ATOM      2  C   UNL     1       2.876  20.316  -8.220  1.00  0.00    -0.012 C 
ATOM      3  C   UNL     1       3.519  19.228  -8.684  1.00  0.00    -0.019 C 
ATOM      4  C   UNL     1       3.857  18.061  -7.795  1.00  0.00     0.036 C 
ATOM      5  C   UNL     1       2.819  17.899  -6.668  1.00  0.00     0.025 C 
ATOM      6  C   UNL     1       2.678  19.213  -5.877  1.00  0.00     0.089 C 
ATOM      7  C   UNL     1       2.427  20.369  -6.807  1.00  0.00     0.158 C 
ATOM      8  O   UNL     1       1.868  21.406  -6.360  1.00  0.00    -0.295 OA
ENDROOT
BRANCH   5   9
ATOM      9  C   UNL     1       3.157  16.727  -5.754  1.00  0.00    -0.077 C 
ATOM     10  C   UNL     1       2.331  15.674  -5.633  1.00  0.00     0.008 C 
ATOM     11  C   UNL     1       4.438  16.734  -4.962  1.00  0.00     0.039 C 
ENDBRANCH   5   9
TORSDOF 1
ENDMDL
MODEL 7
REMARK VINA RESULT:    -4.690      2.539      4.209
REMARK INTER + INTRA:          -5.060
REMARK INTER:                  -4.964
REMARK INTRA:                  -0.097
REMARK UNBOUND:                -0.096
REMARK SMILES C=C(C)[C@@H]1CC=C(C)C(=O)C1
REMARK SMILES IDX 8 1 7 2 6 3 5 4 4 5 11 6 9 7 10 8 2 9 1 10 3 11
REMARK H PARENT
REMARK Flexibility Score: inf
ROOT
ATOM      1  C   UNL     1       3.047  12.907  -7.188  1.00  0.00     0.048 C 
ATOM      2  C   UNL     1       3.088  14.407  -7.091  1.00  0.00    -0.012 C 
ATOM      3  C   UNL     1       2.745  15.163  -8.150  1.00  0.00    -0.019 C 
ATOM      4  C   UNL     1       2.693  16.666  -8.076  1.00  0.00     0.036 C 
ATOM      5  C   UNL     1       3.720  17.210  -7.064  1.00  0.00     0.025 C 
ATOM      6  C   UNL     1       3.516  16.550  -5.687  1.00  0.00     0.089 C 
ATOM      7  C   UNL     1       3.487  15.051  -5.815  1.00  0.00     0.158 C 
ATOM      8  O   UNL     1       3.762  14.344  -4.809  1.00  0.00    -0.295 OA
ENDROOT
BRANCH   5   9
ATOM      9  C   UNL     1       3.670  18.730  -6.971  1.00  0.00    -0.077 C 
ATOM     10  C   UNL     1       3.588  19.356  -5.785  1.00  0.00     0.008 C 
ATOM     11  C   UNL     1       3.708  19.564  -8.225  1.00  0.00     0.039 C 
ENDBRANCH   5   9
TORSDOF 1
ENDMDL
MODEL 8
REMARK VINA RESULT:    -4.674      3.221      5.136
REMARK INTER + INTRA:          -5.043
REMARK INTER:                  -4.950
REMARK INTRA:                  -0.093
REMARK UNBOUND:                -0.096
REMARK SMILES C=C(C)[C@@H]1CC=C(C)C(=O)C1
REMARK SMILES IDX 8 1 7 2 6 3 5 4 4 5 11 6 9 7 10 8 2 9 1 10 3 11
REMARK H PARENT
REMARK Flexibility Score: inf
ROOT
ATOM      1  C   UNL     1       5.774  12.199  -8.228  1.00  0.00     0.048 C 
ATOM      2  C   UNL     1       5.070  13.513  -8.032  1.00  0.00    -0.012 C 
ATOM      3  C   UNL     1       4.339  14.045  -9.029  1.00  0.00    -0.019 C 
ATOM      4  C   UNL     1       3.553  15.317  -8.852  1.00  0.00     0.036 C 
ATOM      5  C   UNL     1       4.228  16.253  -7.831  1.00  0.00     0.025 C 
ATOM      6  C   UNL     1       4.453  15.516  -6.497  1.00  0.00     0.089 C 
ATOM      7  C   UNL     1       5.165  14.211  -6.725  1.00  0.00     0.158 C 
ATOM      8  O   UNL     1       5.809  13.689  -5.776  1.00  0.00    -0.295 OA
ENDROOT
BRANCH   5   9
ATOM      9  C   UNL     1       3.434  17.539  -7.635  1.00  0.00    -0.077 C 
ATOM     10  C   UNL     1       2.230  17.533  -7.038  1.00  0.00     0.008 C 
ATOM     11  C   UNL     1       3.994  18.852  -8.117  1.00  0.00     0.039 C 
ENDBRANCH   5   9
TORSDOF 1
ENDMDL
MODEL 9
REMARK VINA RESULT:    -4.669      1.906      5.291
REMARK INTER + INTRA:          -5.038
REMARK INTER:                  -4.946
REMARK INTRA:                  -0.092
REMARK UNBOUND:                -0.096
REMARK SMILES C=C(C)[C@@H]1CC=C(C)C(=O)C1
REMARK SMILES IDX 8 1 7 2 6 3 5 4 4 5 11 6 9 7 10 8 2 9 1 10 3 11
REMARK H PARENT
REMARK Flexibility Score: inf
ROOT
ATOM      1  C   UNL     1       3.043  20.717  -8.373  1.00  0.00     0.048 C 
ATOM      2  C   UNL     1       3.399  19.357  -7.839  1.00  0.00    -0.012 C 
ATOM      3  C   UNL     1       3.695  18.354  -8.686  1.00  0.00    -0.019 C 
ATOM      4  C   UNL     1       4.135  17.000  -8.197  1.00  0.00     0.036 C 
ATOM      5  C   UNL     1       3.509  16.670  -6.829  1.00  0.00     0.025 C 
ATOM      6  C   UNL     1       3.821  17.786  -5.814  1.00  0.00     0.089 C 
ATOM      7  C   UNL     1       3.447  19.132  -6.373  1.00  0.00     0.158 C 
ATOM      8  O   UNL     1       3.217  20.084  -5.579  1.00  0.00    -0.295 OA
ENDROOT
BRANCH   5   9
ATOM      9  C   UNL     1       3.956  15.306  -6.318  1.00  0.00    -0.077 C 
ATOM     10  C   UNL     1       3.155  14.550  -5.549  1.00  0.00     0.008 C 
ATOM     11  C   UNL     1       5.323  14.780  -6.671  1.00  0.00     0.039 C 
ENDBRANCH   5   9
TORSDOF 1
ENDMDL
