MODEL 1
REMARK VINA RESULT:    -4.500      0.000      0.000
REMARK INTER + INTRA:         -10.150
REMARK INTER:                  -8.184
REMARK INTRA:                  -1.967
REMARK UNBOUND:                -1.967
REMARK SMILES CCCCCCCCCCCCCCCC(=O)[O-]
REMARK SMILES IDX 9 1 10 2 11 3 12 4 13 5 14 6 15 7 16 8 17 9 18 10 8 11 7 12
REMARK SMILES IDX 6 13 5 14 4 15 3 16 2 17 1 18
REMARK H PARENT
REMARK Flexibility Score: inf
ROOT
ATOM      1  C   UNL     1     -31.560  67.849  86.944  1.00  0.00     0.000 C 
ENDROOT
BRANCH   1   2
ATOM      2  C   UNL     1     -32.138  66.712  86.086  1.00  0.00     0.000 C 
BRANCH   2   3
ATOM      3  C   UNL     1     -31.055  65.931  85.317  1.00  0.00     0.000 C 
BRANCH   3   4
ATOM      4  C   UNL     1     -30.334  64.837  86.127  1.00  0.00     0.000 C 
BRANCH   4   5
ATOM      5  C   UNL     1     -30.185  63.519  85.356  1.00  0.00     0.000 C 
BRANCH   5   6
ATOM      6  C   UNL     1     -28.732  63.297  84.920  1.00  0.00     0.006 C 
BRANCH   6   7
ATOM      7  C   UNL     1     -28.661  62.413  83.672  1.00  0.00     0.053 C 
BRANCH   7   8
ATOM      8  C   UNL     1     -27.665  61.313  83.866  1.00  0.00     0.041 C 
ATOM      9  O   UNL     1     -26.783  61.407  84.759  1.00  0.00    -0.550 OA
ATOM     10  O   UNL     1     -27.681  60.205  83.028  1.00  0.00    -0.550 OA
ENDBRANCH   7   8
ENDBRANCH   6   7
ENDBRANCH   5   6
ENDBRANCH   4   5
ENDBRANCH   3   4
ENDBRANCH   2   3
ENDBRANCH   1   2
BRANCH   1  11
ATOM     11  C   UNL     1     -30.727  68.854  86.126  1.00  0.00     0.000 C 
BRANCH  11  12
ATOM     12  C   UNL     1     -29.316  69.140  86.677  1.00  0.00    -0.000 C 
BRANCH  12  13
ATOM     13  C   UNL     1     -28.375  67.921  86.731  1.00  0.00    -0.000 C 
BRANCH  13  14
ATOM     14  C   UNL     1     -27.337  67.881  85.587  1.00  0.00    -0.000 C 
BRANCH  14  15
ATOM     15  C   UNL     1     -27.591  66.791  84.523  1.00  0.00    -0.000 C 
BRANCH  15  16
ATOM     16  C   UNL     1     -28.539  67.192  83.373  1.00  0.00    -0.000 C 
BRANCH  16  17
ATOM     17  C   UNL     1     -29.022  66.029  82.487  1.00  0.00    -0.003 C 
ATOM     18  C   UNL     1     -27.935  65.499  81.553  1.00  0.00     0.004 C 
ENDBRANCH  16  17
ENDBRANCH  15  16
ENDBRANCH  14  15
ENDBRANCH  13  14
ENDBRANCH  12  13
ENDBRANCH  11  12
ENDBRANCH   1  11
TORSDOF 14
ENDMDL
MODEL 2
REMARK VINA RESULT:    -4.416      2.983      5.764
REMARK INTER + INTRA:          -9.998
REMARK INTER:                  -8.248
REMARK INTRA:                  -1.750
REMARK UNBOUND:                -1.967
REMARK SMILES CCCCCCCCCCCCCCCC(=O)[O-]
REMARK SMILES IDX 9 1 10 2 11 3 12 4 13 5 14 6 15 7 16 8 17 9 18 10 8 11 7 12
REMARK SMILES IDX 6 13 5 14 4 15 3 16 2 17 1 18
REMARK H PARENT
REMARK Flexibility Score: inf
ROOT
ATOM      1  C   UNL     1     -29.436  63.352  83.126  1.00  0.00     0.000 C 
ENDROOT
BRANCH   1   2
ATOM      2  C   UNL     1     -29.640  64.658  82.341  1.00  0.00     0.000 C 
BRANCH   2   3
ATOM      3  C   UNL     1     -28.316  65.281  81.857  1.00  0.00     0.000 C 
BRANCH   3   4
ATOM      4  C   UNL     1     -28.160  66.787  82.135  1.00  0.00     0.000 C 
BRANCH   4   5
ATOM      5  C   UNL     1     -28.457  67.163  83.593  1.00  0.00     0.000 C 
BRANCH   5   6
ATOM      6  C   UNL     1     -27.326  66.705  84.521  1.00  0.00     0.006 C 
BRANCH   6   7
ATOM      7  C   UNL     1     -27.717  66.876  85.991  1.00  0.00     0.053 C 
BRANCH   7   8
ATOM      8  C   UNL     1     -27.337  68.238  86.479  1.00  0.00     0.041 C 
ATOM      9  O   UNL     1     -26.584  68.972  85.787  1.00  0.00    -0.550 OA
ATOM     10  O   UNL     1     -27.776  68.679  87.721  1.00  0.00    -0.550 OA
ENDBRANCH   7   8
ENDBRANCH   6   7
ENDBRANCH   5   6
ENDBRANCH   4   5
ENDBRANCH   3   4
ENDBRANCH   2   3
ENDBRANCH   1   2
BRANCH   1  11
ATOM     11  C   UNL     1     -29.011  63.592  84.588  1.00  0.00     0.000 C 
BRANCH  11  12
ATOM     12  C   UNL     1     -30.144  63.486  85.627  1.00  0.00    -0.000 C 
BRANCH  12  13
ATOM     13  C   UNL     1     -30.482  64.797  86.364  1.00  0.00    -0.000 C 
BRANCH  13  14
ATOM     14  C   UNL     1     -31.096  65.886  85.455  1.00  0.00    -0.000 C 
BRANCH  14  15
ATOM     15  C   UNL     1     -32.170  66.762  86.134  1.00  0.00    -0.000 C 
BRANCH  15  16
ATOM     16  C   UNL     1     -31.643  68.021  86.856  1.00  0.00    -0.000 C 
BRANCH  16  17
ATOM     17  C   UNL     1     -30.689  68.899  86.029  1.00  0.00    -0.003 C 
ATOM     18  C   UNL     1     -30.968  70.394  86.183  1.00  0.00     0.004 C 
ENDBRANCH  16  17
ENDBRANCH  15  16
ENDBRANCH  14  15
ENDBRANCH  13  14
ENDBRANCH  12  13
ENDBRANCH  11  12
ENDBRANCH   1  11
TORSDOF 14
ENDMDL
MODEL 3
REMARK VINA RESULT:    -4.409      1.889      4.687
REMARK INTER + INTRA:          -9.985
REMARK INTER:                  -8.231
REMARK INTRA:                  -1.754
REMARK UNBOUND:                -1.967
REMARK SMILES CCCCCCCCCCCCCCCC(=O)[O-]
REMARK SMILES IDX 9 1 10 2 11 3 12 4 13 5 14 6 15 7 16 8 17 9 18 10 8 11 7 12
REMARK SMILES IDX 6 13 5 14 4 15 3 16 2 17 1 18
REMARK H PARENT
REMARK Flexibility Score: inf
ROOT
ATOM      1  C   UNL     1     -26.526  67.405  85.289  1.00  0.00     0.000 C 
ENDROOT
BRANCH   1   2
ATOM      2  C   UNL     1     -27.293  68.628  85.815  1.00  0.00     0.000 C 
BRANCH   2   3
ATOM      3  C   UNL     1     -28.272  68.278  86.952  1.00  0.00     0.000 C 
BRANCH   3   4
ATOM      4  C   UNL     1     -29.631  69.001  86.895  1.00  0.00     0.000 C 
BRANCH   4   5
ATOM      5  C   UNL     1     -30.593  68.390  85.867  1.00  0.00     0.000 C 
BRANCH   5   6
ATOM      6  C   UNL     1     -31.250  67.119  86.417  1.00  0.00     0.006 C 
BRANCH   6   7
ATOM      7  C   UNL     1     -31.016  65.930  85.481  1.00  0.00     0.053 C 
BRANCH   7   8
ATOM      8  C   UNL     1     -30.308  64.828  86.203  1.00  0.00     0.041 C 
ATOM      9  O   UNL     1     -30.785  63.663  86.206  1.00  0.00    -0.550 OA
ATOM     10  O   UNL     1     -29.144  65.096  86.913  1.00  0.00    -0.550 OA
ENDBRANCH   7   8
ENDBRANCH   6   7
ENDBRANCH   5   6
ENDBRANCH   4   5
ENDBRANCH   3   4
ENDBRANCH   2   3
ENDBRANCH   1   2
BRANCH   1  11
ATOM     11  C   UNL     1     -27.410  66.452  84.461  1.00  0.00     0.000 C 
BRANCH  11  12
ATOM     12  C   UNL     1     -28.321  67.136  83.423  1.00  0.00    -0.000 C 
BRANCH  12  13
ATOM     13  C   UNL     1     -28.114  66.677  81.967  1.00  0.00    -0.000 C 
BRANCH  13  14
ATOM     14  C   UNL     1     -28.328  65.162  81.751  1.00  0.00    -0.000 C 
BRANCH  14  15
ATOM     15  C   UNL     1     -29.562  64.576  82.471  1.00  0.00    -0.000 C 
BRANCH  15  16
ATOM     16  C   UNL     1     -29.424  63.113  82.944  1.00  0.00    -0.000 C 
BRANCH  16  17
ATOM     17  C   UNL     1     -28.345  62.869  84.014  1.00  0.00    -0.003 C 
ATOM     18  C   UNL     1     -27.733  61.471  83.937  1.00  0.00     0.004 C 
ENDBRANCH  16  17
ENDBRANCH  15  16
ENDBRANCH  14  15
ENDBRANCH  13  14
ENDBRANCH  12  13
ENDBRANCH  11  12
ENDBRANCH   1  11
TORSDOF 14
ENDMDL
MODEL 4
REMARK VINA RESULT:    -4.364      1.010      2.399
REMARK INTER + INTRA:          -9.902
REMARK INTER:                  -7.655
REMARK INTRA:                  -2.247
REMARK UNBOUND:                -1.967
REMARK SMILES CCCCCCCCCCCCCCCC(=O)[O-]
REMARK SMILES IDX 9 1 10 2 11 3 12 4 13 5 14 6 15 7 16 8 17 9 18 10 8 11 7 12
REMARK SMILES IDX 6 13 5 14 4 15 3 16 2 17 1 18
REMARK H PARENT
REMARK Flexibility Score: inf
ROOT
ATOM      1  C   UNL     1     -27.625  68.558  86.002  1.00  0.00     0.000 C 
ENDROOT
BRANCH   1   2
ATOM      2  C   UNL     1     -27.170  67.146  85.602  1.00  0.00     0.000 C 
BRANCH   2   3
ATOM      3  C   UNL     1     -27.931  66.035  86.353  1.00  0.00     0.000 C 
BRANCH   3   4
ATOM      4  C   UNL     1     -27.990  64.677  85.631  1.00  0.00     0.000 C 
BRANCH   4   5
ATOM      5  C   UNL     1     -29.331  63.954  85.820  1.00  0.00     0.000 C 
BRANCH   5   6
ATOM      6  C   UNL     1     -29.469  62.786  84.836  1.00  0.00     0.006 C 
BRANCH   6   7
ATOM      7  C   UNL     1     -28.273  62.726  83.882  1.00  0.00     0.053 C 
BRANCH   7   8
ATOM      8  C   UNL     1     -27.646  61.369  83.913  1.00  0.00     0.041 C 
ATOM      9  O   UNL     1     -26.695  61.128  84.701  1.00  0.00    -0.550 OA
ATOM     10  O   UNL     1     -28.079  60.382  83.036  1.00  0.00    -0.550 OA
ENDBRANCH   7   8
ENDBRANCH   6   7
ENDBRANCH   5   6
ENDBRANCH   4   5
ENDBRANCH   3   4
ENDBRANCH   2   3
ENDBRANCH   1   2
BRANCH   1  11
ATOM     11  C   UNL     1     -28.794  68.551  87.006  1.00  0.00     0.000 C 
BRANCH  11  12
ATOM     12  C   UNL     1     -30.179  68.853  86.403  1.00  0.00    -0.000 C 
BRANCH  12  13
ATOM     13  C   UNL     1     -31.207  67.710  86.515  1.00  0.00    -0.000 C 
BRANCH  13  14
ATOM     14  C   UNL     1     -31.231  66.768  85.291  1.00  0.00    -0.000 C 
BRANCH  14  15
ATOM     15  C   UNL     1     -30.503  67.311  84.043  1.00  0.00    -0.000 C 
BRANCH  15  16
ATOM     16  C   UNL     1     -29.875  66.245  83.120  1.00  0.00    -0.000 C 
BRANCH  16  17
ATOM     17  C   UNL     1     -28.517  66.627  82.506  1.00  0.00    -0.003 C 
ATOM     18  C   UNL     1     -27.983  65.575  81.535  1.00  0.00     0.004 C 
ENDBRANCH  16  17
ENDBRANCH  15  16
ENDBRANCH  14  15
ENDBRANCH  13  14
ENDBRANCH  12  13
ENDBRANCH  11  12
ENDBRANCH   1  11
TORSDOF 14
ENDMDL
MODEL 5
REMARK VINA RESULT:    -4.323      1.709      3.362
REMARK INTER + INTRA:          -9.827
REMARK INTER:                  -8.392
REMARK INTRA:                  -1.435
REMARK UNBOUND:                -1.967
REMARK SMILES CCCCCCCCCCCCCCCC(=O)[O-]
REMARK SMILES IDX 9 1 10 2 11 3 12 4 13 5 14 6 15 7 16 8 17 9 18 10 8 11 7 12
REMARK SMILES IDX 6 13 5 14 4 15 3 16 2 17 1 18
REMARK H PARENT
REMARK Flexibility Score: inf
ROOT
ATOM      1  C   UNL     1     -28.158  68.153  86.911  1.00  0.00     0.000 C 
ENDROOT
BRANCH   1   2
ATOM      2  C   UNL     1     -29.377  69.089  86.947  1.00  0.00     0.000 C 
BRANCH   2   3
ATOM      3  C   UNL     1     -30.529  68.609  86.044  1.00  0.00     0.000 C 
BRANCH   3   4
ATOM      4  C   UNL     1     -31.661  67.857  86.769  1.00  0.00     0.000 C 
BRANCH   4   5
ATOM      5  C   UNL     1     -32.179  66.646  85.980  1.00  0.00     0.000 C 
BRANCH   5   6
ATOM      6  C   UNL     1     -31.029  65.920  85.271  1.00  0.00     0.006 C 
BRANCH   6   7
ATOM      7  C   UNL     1     -30.204  65.097  86.264  1.00  0.00     0.053 C 
BRANCH   7   8
ATOM      8  C   UNL     1     -29.954  63.724  85.726  1.00  0.00     0.041 C 
ATOM      9  O   UNL     1     -30.715  62.772  86.040  1.00  0.00    -0.550 OA
ATOM     10  O   UNL     1     -28.850  63.485  84.916  1.00  0.00    -0.550 OA
ENDBRANCH   7   8
ENDBRANCH   6   7
ENDBRANCH   5   6
ENDBRANCH   4   5
ENDBRANCH   3   4
ENDBRANCH   2   3
ENDBRANCH   1   2
BRANCH   1  11
ATOM     11  C   UNL     1     -27.064  68.630  85.936  1.00  0.00     0.000 C 
BRANCH  11  12
ATOM     12  C   UNL     1     -26.486  67.540  85.013  1.00  0.00    -0.000 C 
BRANCH  12  13
ATOM     13  C   UNL     1     -27.506  66.503  84.505  1.00  0.00    -0.000 C 
BRANCH  13  14
ATOM     14  C   UNL     1     -28.428  67.030  83.382  1.00  0.00    -0.000 C 
BRANCH  14  15
ATOM     15  C   UNL     1     -27.926  66.750  81.949  1.00  0.00    -0.000 C 
BRANCH  15  16
ATOM     16  C   UNL     1     -28.341  65.387  81.354  1.00  0.00    -0.000 C 
BRANCH  16  17
ATOM     17  C   UNL     1     -29.462  64.654  82.112  1.00  0.00    -0.003 C 
ATOM     18  C   UNL     1     -30.481  63.997  81.182  1.00  0.00     0.004 C 
ENDBRANCH  16  17
ENDBRANCH  15  16
ENDBRANCH  14  15
ENDBRANCH  13  14
ENDBRANCH  12  13
ENDBRANCH  11  12
ENDBRANCH   1  11
TORSDOF 14
ENDMDL
MODEL 6
REMARK VINA RESULT:    -4.288      0.950      3.930
REMARK INTER + INTRA:          -9.764
REMARK INTER:                  -8.010
REMARK INTRA:                  -1.755
REMARK UNBOUND:                -1.967
REMARK SMILES CCCCCCCCCCCCCCCC(=O)[O-]
REMARK SMILES IDX 9 1 10 2 11 3 12 4 13 5 14 6 15 7 16 8 17 9 18 10 8 11 7 12
REMARK SMILES IDX 6 13 5 14 4 15 3 16 2 17 1 18
REMARK H PARENT
REMARK Flexibility Score: inf
ROOT
ATOM      1  C   UNL     1     -27.418  67.335  84.480  1.00  0.00     0.000 C 
ENDROOT
BRANCH   1   2
ATOM      2  C   UNL     1     -28.620  67.247  83.526  1.00  0.00     0.000 C 
BRANCH   2   3
ATOM      3  C   UNL     1     -28.232  66.768  82.114  1.00  0.00     0.000 C 
BRANCH   3   4
ATOM      4  C   UNL     1     -28.333  65.249  81.884  1.00  0.00     0.000 C 
BRANCH   4   5
ATOM      5  C   UNL     1     -29.379  64.574  82.782  1.00  0.00     0.000 C 
BRANCH   5   6
ATOM      6  C   UNL     1     -29.192  63.053  82.797  1.00  0.00     0.006 C 
BRANCH   6   7
ATOM      7  C   UNL     1     -28.647  62.579  84.148  1.00  0.00     0.053 C 
BRANCH   7   8
ATOM      8  C   UNL     1     -27.696  61.440  83.959  1.00  0.00     0.041 C 
ATOM      9  O   UNL     1     -27.946  60.539  83.116  1.00  0.00    -0.550 OA
ATOM     10  O   UNL     1     -26.557  61.347  84.749  1.00  0.00    -0.550 OA
ENDBRANCH   7   8
ENDBRANCH   6   7
ENDBRANCH   5   6
ENDBRANCH   4   5
ENDBRANCH   3   4
ENDBRANCH   2   3
ENDBRANCH   1   2
BRANCH   1  11
ATOM     11  C   UNL     1     -27.771  66.944  85.928  1.00  0.00     0.000 C 
BRANCH  11  12
ATOM     12  C   UNL     1     -28.308  65.511  86.109  1.00  0.00    -0.000 C 
BRANCH  12  13
ATOM     13  C   UNL     1     -29.734  65.415  86.687  1.00  0.00    -0.000 C 
BRANCH  13  14
ATOM     14  C   UNL     1     -30.849  65.552  85.626  1.00  0.00    -0.000 C 
BRANCH  14  15
ATOM     15  C   UNL     1     -31.749  66.796  85.793  1.00  0.00    -0.000 C 
BRANCH  15  16
ATOM     16  C   UNL     1     -31.234  67.862  86.783  1.00  0.00    -0.000 C 
BRANCH  16  17
ATOM     17  C   UNL     1     -30.419  69.004  86.152  1.00  0.00    -0.003 C 
ATOM     18  C   UNL     1     -31.157  70.342  86.164  1.00  0.00     0.004 C 
ENDBRANCH  16  17
ENDBRANCH  15  16
ENDBRANCH  14  15
ENDBRANCH  13  14
ENDBRANCH  12  13
ENDBRANCH  11  12
ENDBRANCH   1  11
TORSDOF 14
ENDMDL
MODEL 7
REMARK VINA RESULT:    -4.260      1.759      4.114
REMARK INTER + INTRA:          -9.714
REMARK INTER:                  -7.909
REMARK INTRA:                  -1.806
REMARK UNBOUND:                -1.967
REMARK SMILES CCCCCCCCCCCCCCCC(=O)[O-]
REMARK SMILES IDX 9 1 10 2 11 3 12 4 13 5 14 6 15 7 16 8 17 9 18 10 8 11 7 12
REMARK SMILES IDX 6 13 5 14 4 15 3 16 2 17 1 18
REMARK H PARENT
REMARK Flexibility Score: inf
ROOT
ATOM      1  C   UNL     1     -30.547  68.742  86.146  1.00  0.00     0.000 C 
ENDROOT
BRANCH   1   2
ATOM      2  C   UNL     1     -29.370  69.093  87.070  1.00  0.00     0.000 C 
BRANCH   2   3
ATOM      3  C   UNL     1     -28.243  68.043  87.030  1.00  0.00     0.000 C 
BRANCH   3   4
ATOM      4  C   UNL     1     -27.382  68.052  85.754  1.00  0.00     0.000 C 
BRANCH   4   5
ATOM      5  C   UNL     1     -27.434  66.725  84.985  1.00  0.00     0.000 C 
BRANCH   5   6
ATOM      6  C   UNL     1     -27.517  66.968  83.473  1.00  0.00     0.006 C 
BRANCH   6   7
ATOM      7  C   UNL     1     -28.903  66.603  82.933  1.00  0.00     0.053 C 
BRANCH   7   8
ATOM      8  C   UNL     1     -28.820  65.404  82.044  1.00  0.00     0.041 C 
ATOM      9  O   UNL     1     -27.851  65.268  81.251  1.00  0.00    -0.550 OA
ATOM     10  O   UNL     1     -29.838  64.458  82.055  1.00  0.00    -0.550 OA
ENDBRANCH   7   8
ENDBRANCH   6   7
ENDBRANCH   5   6
ENDBRANCH   4   5
ENDBRANCH   3   4
ENDBRANCH   2   3
ENDBRANCH   1   2
BRANCH   1  11
ATOM     11  C   UNL     1     -31.666  67.966  86.867  1.00  0.00     0.000 C 
BRANCH  11  12
ATOM     12  C   UNL     1     -32.193  66.726  86.119  1.00  0.00    -0.000 C 
BRANCH  12  13
ATOM     13  C   UNL     1     -31.145  65.977  85.272  1.00  0.00    -0.000 C 
BRANCH  13  14
ATOM     14  C   UNL     1     -30.276  64.988  86.082  1.00  0.00    -0.000 C 
BRANCH  14  15
ATOM     15  C   UNL     1     -30.077  63.610  85.416  1.00  0.00    -0.000 C 
BRANCH  15  16
ATOM     16  C   UNL     1     -28.626  63.269  85.014  1.00  0.00    -0.000 C 
BRANCH  16  17
ATOM     17  C   UNL     1     -28.478  62.097  84.027  1.00  0.00    -0.003 C 
ATOM     18  C   UNL     1     -27.229  61.255  84.283  1.00  0.00     0.004 C 
ENDBRANCH  16  17
ENDBRANCH  15  16
ENDBRANCH  14  15
ENDBRANCH  13  14
ENDBRANCH  12  13
ENDBRANCH  11  12
ENDBRANCH   1  11
TORSDOF 14
ENDMDL
MODEL 8
REMARK VINA RESULT:    -4.223      3.242      5.740
REMARK INTER + INTRA:          -9.646
REMARK INTER:                  -7.813
REMARK INTRA:                  -1.834
REMARK UNBOUND:                -1.967
REMARK SMILES CCCCCCCCCCCCCCCC(=O)[O-]
REMARK SMILES IDX 9 1 10 2 11 3 12 4 13 5 14 6 15 7 16 8 17 9 18 10 8 11 7 12
REMARK SMILES IDX 6 13 5 14 4 15 3 16 2 17 1 18
REMARK H PARENT
REMARK Flexibility Score: inf
ROOT
ATOM      1  C   UNL     1     -27.552  67.189  84.553  1.00  0.00     0.000 C 
ENDROOT
BRANCH   1   2
ATOM      2  C   UNL     1     -27.504  65.919  85.419  1.00  0.00     0.000 C 
BRANCH   2   3
ATOM      3  C   UNL     1     -28.505  65.954  86.590  1.00  0.00     0.000 C 
BRANCH   3   4
ATOM      4  C   UNL     1     -29.751  65.065  86.416  1.00  0.00     0.000 C 
BRANCH   4   5
ATOM      5  C   UNL     1     -30.920  65.796  85.740  1.00  0.00     0.000 C 
BRANCH   5   6
ATOM      6  C   UNL     1     -31.241  67.108  86.465  1.00  0.00     0.006 C 
BRANCH   6   7
ATOM      7  C   UNL     1     -30.867  68.318  85.605  1.00  0.00     0.053 C 
BRANCH   7   8
ATOM      8  C   UNL     1     -30.166  69.350  86.429  1.00  0.00     0.041 C 
ATOM      9  O   UNL     1     -29.203  69.023  87.171  1.00  0.00    -0.550 OA
ATOM     10  O   UNL     1     -30.608  70.668  86.416  1.00  0.00    -0.550 OA
ENDBRANCH   7   8
ENDBRANCH   6   7
ENDBRANCH   5   6
ENDBRANCH   4   5
ENDBRANCH   3   4
ENDBRANCH   2   3
ENDBRANCH   1   2
BRANCH   1  11
ATOM     11  C   UNL     1     -28.516  67.063  83.358  1.00  0.00     0.000 C 
BRANCH  11  12
ATOM     12  C   UNL     1     -27.887  66.519  82.061  1.00  0.00    -0.000 C 
BRANCH  12  13
ATOM     13  C   UNL     1     -28.375  65.121  81.633  1.00  0.00    -0.000 C 
BRANCH  13  14
ATOM     14  C   UNL     1     -29.680  64.673  82.329  1.00  0.00    -0.000 C 
BRANCH  14  15
ATOM     15  C   UNL     1     -29.570  63.351  83.118  1.00  0.00    -0.000 C 
BRANCH  15  16
ATOM     16  C   UNL     1     -28.260  63.156  83.912  1.00  0.00    -0.000 C 
BRANCH  16  17
ATOM     17  C   UNL     1     -28.069  61.758  84.526  1.00  0.00    -0.003 C 
ATOM     18  C   UNL     1     -27.513  60.740  83.531  1.00  0.00     0.004 C 
ENDBRANCH  16  17
ENDBRANCH  15  16
ENDBRANCH  14  15
ENDBRANCH  13  14
ENDBRANCH  12  13
ENDBRANCH  11  12
ENDBRANCH   1  11
TORSDOF 14
ENDMDL
MODEL 9
REMARK VINA RESULT:    -4.203      3.405      6.255
REMARK INTER + INTRA:          -9.610
REMARK INTER:                  -7.809
REMARK INTRA:                  -1.801
REMARK UNBOUND:                -1.967
REMARK SMILES CCCCCCCCCCCCCCCC(=O)[O-]
REMARK SMILES IDX 9 1 10 2 11 3 12 4 13 5 14 6 15 7 16 8 17 9 18 10 8 11 7 12
REMARK SMILES IDX 6 13 5 14 4 15 3 16 2 17 1 18
REMARK H PARENT
REMARK Flexibility Score: inf
ROOT
ATOM      1  C   UNL     1     -28.307  65.259  81.690  1.00  0.00     0.000 C 
ENDROOT
BRANCH   1   2
ATOM      2  C   UNL     1     -28.004  66.721  82.054  1.00  0.00     0.000 C 
BRANCH   2   3
ATOM      3  C   UNL     1     -28.431  67.082  83.490  1.00  0.00     0.000 C 
BRANCH   3   4
ATOM      4  C   UNL     1     -27.496  66.569  84.601  1.00  0.00     0.000 C 
BRANCH   4   5
ATOM      5  C   UNL     1     -26.398  67.574  84.974  1.00  0.00     0.000 C 
BRANCH   5   6
ATOM      6  C   UNL     1     -26.890  68.555  86.044  1.00  0.00     0.006 C 
BRANCH   6   7
ATOM      7  C   UNL     1     -27.755  67.842  87.087  1.00  0.00     0.053 C 
BRANCH   7   8
ATOM      8  C   UNL     1     -28.258  68.817  88.105  1.00  0.00     0.041 C 
ATOM      9  O   UNL     1     -27.782  68.819  89.270  1.00  0.00    -0.550 OA
ATOM     10  O   UNL     1     -29.287  69.691  87.781  1.00  0.00    -0.550 OA
ENDBRANCH   7   8
ENDBRANCH   6   7
ENDBRANCH   5   6
ENDBRANCH   4   5
ENDBRANCH   3   4
ENDBRANCH   2   3
ENDBRANCH   1   2
BRANCH   1  11
ATOM     11  C   UNL     1     -29.558  64.710  82.402  1.00  0.00     0.000 C 
BRANCH  11  12
ATOM     12  C   UNL     1     -29.391  63.318  83.043  1.00  0.00    -0.000 C 
BRANCH  12  13
ATOM     13  C   UNL     1     -28.946  63.327  84.519  1.00  0.00    -0.000 C 
BRANCH  13  14
ATOM     14  C   UNL     1     -30.108  63.504  85.522  1.00  0.00    -0.000 C 
BRANCH  14  15
ATOM     15  C   UNL     1     -30.187  64.899  86.179  1.00  0.00    -0.000 C 
BRANCH  15  16
ATOM     16  C   UNL     1     -31.137  65.905  85.494  1.00  0.00    -0.000 C 
BRANCH  16  17
ATOM     17  C   UNL     1     -31.081  67.340  86.048  1.00  0.00    -0.003 C 
ATOM     18  C   UNL     1     -32.290  67.693  86.913  1.00  0.00     0.004 C 
ENDBRANCH  16  17
ENDBRANCH  15  16
ENDBRANCH  14  15
ENDBRANCH  13  14
ENDBRANCH  12  13
ENDBRANCH  11  12
ENDBRANCH   1  11
TORSDOF 14
ENDMDL
