MODEL 1
REMARK VINA RESULT:    -6.418      0.000      0.000
REMARK INTER + INTRA:          -7.017
REMARK INTER:                  -6.981
REMARK INTRA:                  -0.036
REMARK UNBOUND:                -0.036
REMARK SMILES O=C([O-])c1ccc(O)cc1
REMARK SMILES IDX 4 1 5 2 10 3 6 4 9 5 7 6 2 7 1 8 3 9 8 10
REMARK H PARENT 8 11
REMARK Flexibility Score: inf
ROOT
ATOM      1  C   UNL     1      33.861  25.973  18.356  1.00  0.00    -0.003 A 
ATOM      2  C   UNL     1      33.307  27.230  18.050  1.00  0.00     0.014 A 
ATOM      3  C   UNL     1      34.039  25.036  17.321  1.00  0.00     0.014 A 
ATOM      4  C   UNL     1      32.940  27.541  16.738  1.00  0.00     0.047 A 
ATOM      5  C   UNL     1      33.670  25.351  16.010  1.00  0.00     0.047 A 
ATOM      6  C   UNL     1      33.120  26.605  15.714  1.00  0.00     0.115 A 
ENDROOT
BRANCH   1   7
ATOM      7  C   UNL     1      34.250  25.646  19.745  1.00  0.00     0.071 C 
ATOM      8  O   UNL     1      34.819  24.554  20.012  1.00  0.00    -0.545 OA
ATOM      9  O   UNL     1      33.992  26.540  20.778  1.00  0.00    -0.545 OA
ENDBRANCH   1   7
BRANCH   6  10
ATOM     10  O   UNL     1      32.749  26.930  14.412  1.00  0.00    -0.508 OA
ATOM     11  H   UNL     1      32.613  27.893  14.125  1.00  0.00     0.293 HD
ENDBRANCH   6  10
TORSDOF 2
ENDMDL
MODEL 2
REMARK VINA RESULT:    -6.257      1.956      4.180
REMARK INTER + INTRA:          -6.842
REMARK INTER:                  -6.811
REMARK INTRA:                  -0.030
REMARK UNBOUND:                -0.036
REMARK SMILES O=C([O-])c1ccc(O)cc1
REMARK SMILES IDX 4 1 5 2 10 3 6 4 9 5 7 6 2 7 1 8 3 9 8 10
REMARK H PARENT 8 11
REMARK Flexibility Score: inf
ROOT
ATOM      1  C   UNL     1      33.868  25.430  18.723  1.00  0.00    -0.003 A 
ATOM      2  C   UNL     1      33.099  26.601  18.854  1.00  0.00     0.014 A 
ATOM      3  C   UNL     1      34.733  25.060  19.769  1.00  0.00     0.014 A 
ATOM      4  C   UNL     1      33.195  27.384  20.008  1.00  0.00     0.047 A 
ATOM      5  C   UNL     1      34.826  25.846  20.921  1.00  0.00     0.047 A 
ATOM      6  C   UNL     1      34.058  27.010  21.044  1.00  0.00     0.115 A 
ENDROOT
BRANCH   1   7
ATOM      7  C   UNL     1      33.764  24.602  17.501  1.00  0.00     0.071 C 
ATOM      8  O   UNL     1      33.588  23.357  17.583  1.00  0.00    -0.545 OA
ATOM      9  O   UNL     1      33.860  25.187  16.243  1.00  0.00    -0.545 OA
ENDBRANCH   1   7
BRANCH   6  10
ATOM     10  O   UNL     1      34.142  27.802  22.187  1.00  0.00    -0.508 OA
ATOM     11  H   UNL     1      33.628  27.571  23.030  1.00  0.00     0.293 HD
ENDBRANCH   6  10
TORSDOF 2
ENDMDL
MODEL 3
REMARK VINA RESULT:    -6.244      1.951      4.366
REMARK INTER + INTRA:          -6.827
REMARK INTER:                  -6.797
REMARK INTRA:                  -0.030
REMARK UNBOUND:                -0.036
REMARK SMILES O=C([O-])c1ccc(O)cc1
REMARK SMILES IDX 4 1 5 2 10 3 6 4 9 5 7 6 2 7 1 8 3 9 8 10
REMARK H PARENT 8 11
REMARK Flexibility Score: inf
ROOT
ATOM      1  C   UNL     1      33.888  25.441  18.712  1.00  0.00    -0.003 A 
ATOM      2  C   UNL     1      34.744  25.067  19.763  1.00  0.00     0.014 A 
ATOM      3  C   UNL     1      33.114  26.609  18.846  1.00  0.00     0.014 A 
ATOM      4  C   UNL     1      34.824  25.844  20.922  1.00  0.00     0.047 A 
ATOM      5  C   UNL     1      33.196  27.383  20.007  1.00  0.00     0.047 A 
ATOM      6  C   UNL     1      34.051  27.003  21.048  1.00  0.00     0.115 A 
ENDROOT
BRANCH   1   7
ATOM      7  C   UNL     1      33.806  24.618  17.486  1.00  0.00     0.071 C 
ATOM      8  O   UNL     1      33.616  23.374  17.560  1.00  0.00    -0.545 OA
ATOM      9  O   UNL     1      33.937  25.205  16.232  1.00  0.00    -0.545 OA
ENDBRANCH   1   7
BRANCH   6  10
ATOM     10  O   UNL     1      34.141  27.766  22.209  1.00  0.00    -0.508 OA
ATOM     11  H   UNL     1      34.974  28.302  22.428  1.00  0.00     0.293 HD
ENDBRANCH   6  10
TORSDOF 2
ENDMDL
MODEL 4
REMARK VINA RESULT:    -6.126      1.309      4.060
REMARK INTER + INTRA:          -6.699
REMARK INTER:                  -6.665
REMARK INTRA:                  -0.034
REMARK UNBOUND:                -0.036
REMARK SMILES O=C([O-])c1ccc(O)cc1
REMARK SMILES IDX 4 1 5 2 10 3 6 4 9 5 7 6 2 7 1 8 3 9 8 10
REMARK H PARENT 8 11
REMARK Flexibility Score: inf
ROOT
ATOM      1  C   UNL     1      33.375  26.476  17.151  1.00  0.00    -0.003 A 
ATOM      2  C   UNL     1      32.931  27.730  17.607  1.00  0.00     0.014 A 
ATOM      3  C   UNL     1      33.843  25.536  18.087  1.00  0.00     0.014 A 
ATOM      4  C   UNL     1      32.956  28.037  18.971  1.00  0.00     0.047 A 
ATOM      5  C   UNL     1      33.866  25.846  19.450  1.00  0.00     0.047 A 
ATOM      6  C   UNL     1      33.423  27.097  19.896  1.00  0.00     0.115 A 
ENDROOT
BRANCH   1   7
ATOM      7  C   UNL     1      33.347  26.154  15.707  1.00  0.00     0.071 C 
ATOM      8  O   UNL     1      34.148  25.310  15.223  1.00  0.00    -0.545 OA
ATOM      9  O   UNL     1      32.435  26.778  14.863  1.00  0.00    -0.545 OA
ENDBRANCH   1   7
BRANCH   6  10
ATOM     10  O   UNL     1      33.442  27.418  21.251  1.00  0.00    -0.508 OA
ATOM     11  H   UNL     1      32.585  27.508  21.786  1.00  0.00     0.293 HD
ENDBRANCH   6  10
TORSDOF 2
ENDMDL
MODEL 5
REMARK VINA RESULT:    -6.025      1.987      2.803
REMARK INTER + INTRA:          -6.590
REMARK INTER:                  -6.556
REMARK INTRA:                  -0.034
REMARK UNBOUND:                -0.036
REMARK SMILES O=C([O-])c1ccc(O)cc1
REMARK SMILES IDX 4 1 5 2 10 3 6 4 9 5 7 6 2 7 1 8 3 9 8 10
REMARK H PARENT 8 11
REMARK Flexibility Score: inf
ROOT
ATOM      1  C   UNL     1      33.778  26.995  19.875  1.00  0.00    -0.003 A 
ATOM      2  C   UNL     1      33.268  27.328  18.607  1.00  0.00     0.014 A 
ATOM      3  C   UNL     1      34.362  25.729  20.064  1.00  0.00     0.014 A 
ATOM      4  C   UNL     1      33.342  26.415  17.552  1.00  0.00     0.047 A 
ATOM      5  C   UNL     1      34.434  24.818  19.007  1.00  0.00     0.047 A 
ATOM      6  C   UNL     1      33.924  25.158  17.747  1.00  0.00     0.115 A 
ENDROOT
BRANCH   1   7
ATOM      7  C   UNL     1      33.699  27.964  20.990  1.00  0.00     0.071 C 
ATOM      8  O   UNL     1      33.677  29.204  20.763  1.00  0.00    -0.545 OA
ATOM      9  O   UNL     1      33.648  27.521  22.307  1.00  0.00    -0.545 OA
ENDBRANCH   1   7
BRANCH   6  10
ATOM     10  O   UNL     1      33.990  24.258  16.687  1.00  0.00    -0.508 OA
ATOM     11  H   UNL     1      33.958  23.256  16.839  1.00  0.00     0.293 HD
ENDBRANCH   6  10
TORSDOF 2
ENDMDL
MODEL 6
REMARK VINA RESULT:    -6.016      1.993      2.975
REMARK INTER + INTRA:          -6.579
REMARK INTER:                  -6.546
REMARK INTRA:                  -0.033
REMARK UNBOUND:                -0.036
REMARK SMILES O=C([O-])c1ccc(O)cc1
REMARK SMILES IDX 4 1 5 2 10 3 6 4 9 5 7 6 2 7 1 8 3 9 8 10
REMARK H PARENT 8 11
REMARK Flexibility Score: inf
ROOT
ATOM      1  C   UNL     1      33.818  26.972  19.927  1.00  0.00    -0.003 A 
ATOM      2  C   UNL     1      34.374  25.691  20.101  1.00  0.00     0.014 A 
ATOM      3  C   UNL     1      33.313  27.329  18.663  1.00  0.00     0.014 A 
ATOM      4  C   UNL     1      34.423  24.789  19.035  1.00  0.00     0.047 A 
ATOM      5  C   UNL     1      33.364  26.424  17.599  1.00  0.00     0.047 A 
ATOM      6  C   UNL     1      33.919  25.152  17.781  1.00  0.00     0.115 A 
ENDROOT
BRANCH   1   7
ATOM      7  C   UNL     1      33.767  27.924  21.057  1.00  0.00     0.071 C 
ATOM      8  O   UNL     1      33.655  27.509  22.242  1.00  0.00    -0.545 OA
ATOM      9  O   UNL     1      33.841  29.294  20.828  1.00  0.00    -0.545 OA
ENDBRANCH   1   7
BRANCH   6  10
ATOM     10  O   UNL     1      33.976  24.242  16.729  1.00  0.00    -0.508 OA
ATOM     11  H   UNL     1      34.721  23.558  16.659  1.00  0.00     0.293 HD
ENDBRANCH   6  10
TORSDOF 2
ENDMDL
MODEL 7
REMARK VINA RESULT:    -5.988      2.212      3.737
REMARK INTER + INTRA:          -6.549
REMARK INTER:                  -6.518
REMARK INTRA:                  -0.031
REMARK UNBOUND:                -0.036
REMARK SMILES O=C([O-])c1ccc(O)cc1
REMARK SMILES IDX 4 1 5 2 10 3 6 4 9 5 7 6 2 7 1 8 3 9 8 10
REMARK H PARENT 8 11
REMARK Flexibility Score: inf
ROOT
ATOM      1  C   UNL     1      32.933  27.767  16.883  1.00  0.00    -0.003 A 
ATOM      2  C   UNL     1      33.187  27.130  18.112  1.00  0.00     0.014 A 
ATOM      3  C   UNL     1      33.021  27.018  15.695  1.00  0.00     0.014 A 
ATOM      4  C   UNL     1      33.521  25.773  18.149  1.00  0.00     0.047 A 
ATOM      5  C   UNL     1      33.356  25.661  15.737  1.00  0.00     0.047 A 
ATOM      6  C   UNL     1      33.607  25.035  16.964  1.00  0.00     0.115 A 
ENDROOT
BRANCH   1   7
ATOM      7  C   UNL     1      32.580  29.203  16.846  1.00  0.00     0.071 C 
ATOM      8  O   UNL     1      33.127  29.977  16.015  1.00  0.00    -0.545 OA
ATOM      9  O   UNL     1      31.637  29.720  17.727  1.00  0.00    -0.545 OA
ENDBRANCH   1   7
BRANCH   6  10
ATOM     10  O   UNL     1      33.941  23.684  17.019  1.00  0.00    -0.508 OA
ATOM     11  H   UNL     1      33.686  23.045  16.274  1.00  0.00     0.293 HD
ENDBRANCH   6  10
TORSDOF 2
ENDMDL
MODEL 8
REMARK VINA RESULT:    -5.975      1.913      4.779
REMARK INTER + INTRA:          -6.535
REMARK INTER:                  -6.505
REMARK INTRA:                  -0.030
REMARK UNBOUND:                -0.036
REMARK SMILES O=C([O-])c1ccc(O)cc1
REMARK SMILES IDX 4 1 5 2 10 3 6 4 9 5 7 6 2 7 1 8 3 9 8 10
REMARK H PARENT 8 11
REMARK Flexibility Score: inf
ROOT
ATOM      1  C   UNL     1      33.715  25.993  18.829  1.00  0.00    -0.003 A 
ATOM      2  C   UNL     1      34.560  24.982  19.322  1.00  0.00     0.014 A 
ATOM      3  C   UNL     1      33.411  27.092  19.654  1.00  0.00     0.014 A 
ATOM      4  C   UNL     1      35.089  25.070  20.613  1.00  0.00     0.047 A 
ATOM      5  C   UNL     1      33.942  27.175  20.945  1.00  0.00     0.047 A 
ATOM      6  C   UNL     1      34.782  26.165  21.428  1.00  0.00     0.115 A 
ENDROOT
BRANCH   1   7
ATOM      7  C   UNL     1      33.156  25.899  17.462  1.00  0.00     0.071 C 
ATOM      8  O   UNL     1      33.281  26.856  16.651  1.00  0.00    -0.545 OA
ATOM      9  O   UNL     1      32.486  24.752  17.053  1.00  0.00    -0.545 OA
ENDBRANCH   1   7
BRANCH   6  10
ATOM     10  O   UNL     1      35.317  26.237  22.712  1.00  0.00    -0.508 OA
ATOM     11  H   UNL     1      36.227  26.648  22.884  1.00  0.00     0.293 HD
ENDBRANCH   6  10
TORSDOF 2
ENDMDL
MODEL 9
REMARK VINA RESULT:    -5.965      1.462      2.534
REMARK INTER + INTRA:          -6.524
REMARK INTER:                  -6.490
REMARK INTRA:                  -0.034
REMARK UNBOUND:                -0.036
REMARK SMILES O=C([O-])c1ccc(O)cc1
REMARK SMILES IDX 4 1 5 2 10 3 6 4 9 5 7 6 2 7 1 8 3 9 8 10
REMARK H PARENT 8 11
REMARK Flexibility Score: inf
ROOT
ATOM      1  C   UNL     1      33.964  26.477  19.938  1.00  0.00    -0.003 A 
ATOM      2  C   UNL     1      34.325  25.240  19.373  1.00  0.00     0.014 A 
ATOM      3  C   UNL     1      33.342  27.442  19.126  1.00  0.00     0.014 A 
ATOM      4  C   UNL     1      34.067  24.976  18.025  1.00  0.00     0.047 A 
ATOM      5  C   UNL     1      33.086  27.175  17.778  1.00  0.00     0.047 A 
ATOM      6  C   UNL     1      33.448  25.941  17.223  1.00  0.00     0.115 A 
ENDROOT
BRANCH   1   7
ATOM      7  C   UNL     1      34.237  26.754  21.365  1.00  0.00     0.071 C 
ATOM      8  O   UNL     1      33.558  27.609  21.994  1.00  0.00    -0.545 OA
ATOM      9  O   UNL     1      35.249  26.074  22.035  1.00  0.00    -0.545 OA
ENDBRANCH   1   7
BRANCH   6  10
ATOM     10  O   UNL     1      33.199  25.663  15.882  1.00  0.00    -0.508 OA
ATOM     11  H   UNL     1      32.302  25.868  15.456  1.00  0.00     0.293 HD
ENDBRANCH   6  10
TORSDOF 2
ENDMDL
