MODEL 1
REMARK VINA RESULT:    -3.757      0.000      0.000
REMARK INTER + INTRA:          -4.045
REMARK INTER:                  -3.977
REMARK INTRA:                  -0.068
REMARK UNBOUND:                -0.068
REMARK SMILES CC(=O)c1ccccc1
REMARK SMILES IDX 4 1 5 2 6 3 7 4 8 5 9 6 2 7 1 8 3 9
REMARK H PARENT
REMARK Flexibility Score: inf
ROOT
ATOM      1  C   UNL     1     163.130 170.222  17.456  1.00  0.00     0.017 A 
ATOM      2  C   UNL     1     164.470 169.947  17.114  1.00  0.00     0.012 A 
ATOM      3  C   UNL     1     164.949 170.232  15.833  1.00  0.00     0.001 A 
ATOM      4  C   UNL     1     164.101 170.793  14.875  1.00  0.00     0.000 A 
ATOM      5  C   UNL     1     162.772 171.070  15.198  1.00  0.00     0.001 A 
ATOM      6  C   UNL     1     162.287 170.788  16.479  1.00  0.00     0.012 A 
ENDROOT
BRANCH   1   7
ATOM      7  C   UNL     1     162.601 169.926  18.815  1.00  0.00     0.159 C 
ATOM      8  C   UNL     1     161.534 170.767  19.451  1.00  0.00     0.093 C 
ATOM      9  O   UNL     1     163.054 168.943  19.462  1.00  0.00    -0.295 OA
ENDBRANCH   1   7
TORSDOF 1
ENDMDL
MODEL 2
REMARK VINA RESULT:    -3.745      0.049      1.615
REMARK INTER + INTRA:          -4.032
REMARK INTER:                  -3.966
REMARK INTRA:                  -0.066
REMARK UNBOUND:                -0.068
REMARK SMILES CC(=O)c1ccccc1
REMARK SMILES IDX 4 1 5 2 6 3 7 4 8 5 9 6 2 7 1 8 3 9
REMARK H PARENT
REMARK Flexibility Score: inf
ROOT
ATOM      1  C   UNL     1     163.084 170.193  17.449  1.00  0.00     0.017 A 
ATOM      2  C   UNL     1     162.253 170.762  16.462  1.00  0.00     0.012 A 
ATOM      3  C   UNL     1     162.752 171.036  15.185  1.00  0.00     0.001 A 
ATOM      4  C   UNL     1     164.083 170.748  14.875  1.00  0.00     0.000 A 
ATOM      5  C   UNL     1     164.918 170.185  15.842  1.00  0.00     0.001 A 
ATOM      6  C   UNL     1     164.425 169.909  17.121  1.00  0.00     0.012 A 
ENDROOT
BRANCH   1   7
ATOM      7  C   UNL     1     162.572 169.894  18.814  1.00  0.00     0.159 C 
ATOM      8  C   UNL     1     161.529 170.746  19.474  1.00  0.00     0.093 C 
ATOM      9  O   UNL     1     163.020 168.899  19.446  1.00  0.00    -0.295 OA
ENDBRANCH   1   7
TORSDOF 1
ENDMDL
MODEL 3
REMARK VINA RESULT:    -3.566     21.273     22.426
REMARK INTER + INTRA:          -3.842
REMARK INTER:                  -3.783
REMARK INTRA:                  -0.059
REMARK UNBOUND:                -0.068
REMARK SMILES CC(=O)c1ccccc1
REMARK SMILES IDX 4 1 5 2 6 3 7 4 8 5 9 6 2 7 1 8 3 9
REMARK H PARENT
REMARK Flexibility Score: inf
ROOT
ATOM      1  C   UNL     1     169.155 186.259  31.158  1.00  0.00     0.017 A 
ATOM      2  C   UNL     1     170.243 185.386  30.951  1.00  0.00     0.012 A 
ATOM      3  C   UNL     1     171.368 185.446  31.778  1.00  0.00     0.001 A 
ATOM      4  C   UNL     1     171.426 186.375  32.819  1.00  0.00     0.000 A 
ATOM      5  C   UNL     1     170.357 187.246  33.036  1.00  0.00     0.001 A 
ATOM      6  C   UNL     1     169.228 187.191  32.213  1.00  0.00     0.012 A 
ENDROOT
BRANCH   1   7
ATOM      7  C   UNL     1     167.948 186.211  30.290  1.00  0.00     0.159 C 
ATOM      8  C   UNL     1     167.718 187.211  29.195  1.00  0.00     0.093 C 
ATOM      9  O   UNL     1     167.084 185.309  30.468  1.00  0.00    -0.295 OA
ENDBRANCH   1   7
TORSDOF 1
ENDMDL
MODEL 4
REMARK VINA RESULT:    -3.557     21.091     22.276
REMARK INTER + INTRA:          -3.832
REMARK INTER:                  -3.774
REMARK INTRA:                  -0.059
REMARK UNBOUND:                -0.068
REMARK SMILES CC(=O)c1ccccc1
REMARK SMILES IDX 4 1 5 2 6 3 7 4 8 5 9 6 2 7 1 8 3 9
REMARK H PARENT
REMARK Flexibility Score: inf
ROOT
ATOM      1  C   UNL     1     168.979 185.980  31.297  1.00  0.00     0.017 A 
ATOM      2  C   UNL     1     169.063 187.045  32.218  1.00  0.00     0.012 A 
ATOM      3  C   UNL     1     170.277 187.357  32.835  1.00  0.00     0.001 A 
ATOM      4  C   UNL     1     171.423 186.614  32.545  1.00  0.00     0.000 A 
ATOM      5  C   UNL     1     171.357 185.556  31.636  1.00  0.00     0.001 A 
ATOM      6  C   UNL     1     170.145 185.239  31.015  1.00  0.00     0.012 A 
ENDROOT
BRANCH   1   7
ATOM      7  C   UNL     1     167.696 185.632  30.630  1.00  0.00     0.159 C 
ATOM      8  C   UNL     1     166.631 184.837  31.324  1.00  0.00     0.093 C 
ATOM      9  O   UNL     1     167.485 186.010  29.445  1.00  0.00    -0.295 OA
ENDBRANCH   1   7
TORSDOF 1
ENDMDL
MODEL 5
REMARK VINA RESULT:    -3.556     21.950     23.037
REMARK INTER + INTRA:          -3.831
REMARK INTER:                  -3.770
REMARK INTRA:                  -0.061
REMARK UNBOUND:                -0.068
REMARK SMILES CC(=O)c1ccccc1
REMARK SMILES IDX 4 1 5 2 6 3 7 4 8 5 9 6 2 7 1 8 3 9
REMARK H PARENT
REMARK Flexibility Score: inf
ROOT
ATOM      1  C   UNL     1     171.774 184.710  32.809  1.00  0.00     0.017 A 
ATOM      2  C   UNL     1     170.893 184.265  31.801  1.00  0.00     0.012 A 
ATOM      3  C   UNL     1     169.943 185.132  31.255  1.00  0.00     0.001 A 
ATOM      4  C   UNL     1     169.855 186.451  31.705  1.00  0.00     0.000 A 
ATOM      5  C   UNL     1     170.719 186.906  32.703  1.00  0.00     0.001 A 
ATOM      6  C   UNL     1     171.673 186.044  33.253  1.00  0.00     0.012 A 
ENDROOT
BRANCH   1   7
ATOM      7  C   UNL     1     172.793 183.803  33.402  1.00  0.00     0.159 C 
ATOM      8  C   UNL     1     173.837 183.128  32.565  1.00  0.00     0.093 C 
ATOM      9  O   UNL     1     172.789 183.586  34.645  1.00  0.00    -0.295 OA
ENDBRANCH   1   7
TORSDOF 1
ENDMDL
MODEL 6
REMARK VINA RESULT:    -3.550     21.955     23.034
REMARK INTER + INTRA:          -3.825
REMARK INTER:                  -3.763
REMARK INTRA:                  -0.062
REMARK UNBOUND:                -0.068
REMARK SMILES CC(=O)c1ccccc1
REMARK SMILES IDX 4 1 5 2 6 3 7 4 8 5 9 6 2 7 1 8 3 9
REMARK H PARENT
REMARK Flexibility Score: inf
ROOT
ATOM      1  C   UNL     1     171.783 184.722  32.822  1.00  0.00     0.017 A 
ATOM      2  C   UNL     1     171.675 186.051  33.282  1.00  0.00     0.012 A 
ATOM      3  C   UNL     1     170.711 186.911  32.751  1.00  0.00     0.001 A 
ATOM      4  C   UNL     1     169.842 186.463  31.755  1.00  0.00     0.000 A 
ATOM      5  C   UNL     1     169.936 185.150  31.287  1.00  0.00     0.001 A 
ATOM      6  C   UNL     1     170.898 184.284  31.815  1.00  0.00     0.012 A 
ENDROOT
BRANCH   1   7
ATOM      7  C   UNL     1     172.802 183.790  33.374  1.00  0.00     0.159 C 
ATOM      8  C   UNL     1     173.810 183.108  32.498  1.00  0.00     0.093 C 
ATOM      9  O   UNL     1     172.831 183.558  34.614  1.00  0.00    -0.295 OA
ENDBRANCH   1   7
TORSDOF 1
ENDMDL
MODEL 7
REMARK VINA RESULT:    -3.369     21.265     22.023
REMARK INTER + INTRA:          -3.633
REMARK INTER:                  -3.575
REMARK INTRA:                  -0.058
REMARK UNBOUND:                -0.068
REMARK SMILES CC(=O)c1ccccc1
REMARK SMILES IDX 4 1 5 2 6 3 7 4 8 5 9 6 2 7 1 8 3 9
REMARK H PARENT
REMARK Flexibility Score: inf
ROOT
ATOM      1  C   UNL     1     170.127 185.000  31.978  1.00  0.00     0.017 A 
ATOM      2  C   UNL     1     169.969 185.494  30.667  1.00  0.00     0.012 A 
ATOM      3  C   UNL     1     168.694 185.711  30.138  1.00  0.00     0.001 A 
ATOM      4  C   UNL     1     167.560 185.437  30.906  1.00  0.00     0.000 A 
ATOM      5  C   UNL     1     167.700 184.947  32.205  1.00  0.00     0.001 A 
ATOM      6  C   UNL     1     168.973 184.728  32.740  1.00  0.00     0.012 A 
ENDROOT
BRANCH   1   7
ATOM      7  C   UNL     1     171.476 184.763  32.559  1.00  0.00     0.159 C 
ATOM      8  C   UNL     1     172.247 183.505  32.289  1.00  0.00     0.093 C 
ATOM      9  O   UNL     1     171.999 185.637  33.304  1.00  0.00    -0.295 OA
ENDBRANCH   1   7
TORSDOF 1
ENDMDL
MODEL 8
REMARK VINA RESULT:    -3.136     21.617     22.765
REMARK INTER + INTRA:          -3.387
REMARK INTER:                  -3.319
REMARK INTRA:                  -0.068
REMARK UNBOUND:                -0.068
REMARK SMILES CC(=O)c1ccccc1
REMARK SMILES IDX 4 1 5 2 6 3 7 4 8 5 9 6 2 7 1 8 3 9
REMARK H PARENT
REMARK Flexibility Score: inf
ROOT
ATOM      1  C   UNL     1     170.333 185.494  32.647  1.00  0.00     0.017 A 
ATOM      2  C   UNL     1     169.000 185.854  32.933  1.00  0.00     0.012 A 
ATOM      3  C   UNL     1     168.060 185.970  31.906  1.00  0.00     0.001 A 
ATOM      4  C   UNL     1     168.432 185.731  30.582  1.00  0.00     0.000 A 
ATOM      5  C   UNL     1     169.748 185.374  30.282  1.00  0.00     0.001 A 
ATOM      6  C   UNL     1     170.694 185.256  31.305  1.00  0.00     0.012 A 
ENDROOT
BRANCH   1   7
ATOM      7  C   UNL     1     171.350 185.364  33.725  1.00  0.00     0.159 C 
ATOM      8  C   UNL     1     171.177 186.025  35.061  1.00  0.00     0.093 C 
ATOM      9  O   UNL     1     172.392 184.682  33.524  1.00  0.00    -0.295 OA
ENDBRANCH   1   7
TORSDOF 1
ENDMDL
