MODEL 1
REMARK VINA RESULT:    -4.334      0.000      0.000
REMARK INTER + INTRA:          -5.137
REMARK INTER:                  -4.968
REMARK INTRA:                  -0.169
REMARK UNBOUND:                -0.169
REMARK SMILES CC=Cc1ccc(O)c(OC)c1
REMARK SMILES IDX 4 1 12 2 9 3 7 4 6 5 5 6 3 7 1 8 2 9 10 10 11 11 8 12
REMARK H PARENT 8 13
REMARK Flexibility Score: inf
ROOT
ATOM      1  C   UNL     1      79.813  15.585   3.663  1.00  0.00    -0.022 A 
ATOM      2  C   UNL     1      79.358  15.142   2.405  1.00  0.00     0.058 A 
ATOM      3  C   UNL     1      79.094  16.063   1.370  1.00  0.00     0.161 A 
ATOM      4  C   UNL     1      79.299  17.435   1.602  1.00  0.00     0.157 A 
ATOM      5  C   UNL     1      79.767  17.872   2.843  1.00  0.00     0.051 A 
ATOM      6  C   UNL     1      80.027  16.956   3.864  1.00  0.00     0.012 A 
ENDROOT
BRANCH   1   7
ATOM      7  C   UNL     1      80.112  14.651   4.778  1.00  0.00     0.003 C 
ATOM      8  C   UNL     1      80.104  13.884   7.118  1.00  0.00     0.035 C 
ATOM      9  C   UNL     1      79.751  14.866   6.048  1.00  0.00    -0.030 C 
ENDBRANCH   1   7
BRANCH   3  10
ATOM     10  O   UNL     1      78.634  15.653   0.108  1.00  0.00    -0.493 OA
ATOM     11  C   UNL     1      77.830  14.501  -0.125  1.00  0.00     0.278 C 
ENDBRANCH   3  10
BRANCH   4  12
ATOM     12  O   UNL     1      79.047  18.380   0.608  1.00  0.00    -0.504 OA
ATOM     13  H   UNL     1      79.786  18.925   0.180  1.00  0.00     0.293 HD
ENDBRANCH   4  12
TORSDOF 3
ENDMDL
MODEL 2
REMARK VINA RESULT:    -4.133      1.095      2.624
REMARK INTER + INTRA:          -4.906
REMARK INTER:                  -4.742
REMARK INTRA:                  -0.164
REMARK UNBOUND:                -0.169
REMARK SMILES CC=Cc1ccc(O)c(OC)c1
REMARK SMILES IDX 4 1 12 2 9 3 7 4 6 5 5 6 3 7 1 8 2 9 10 10 11 11 8 12
REMARK H PARENT 8 13
REMARK Flexibility Score: inf
ROOT
ATOM      1  C   UNL     1      79.324  15.143   4.194  1.00  0.00    -0.022 A 
ATOM      2  C   UNL     1      79.566  16.367   3.538  1.00  0.00     0.058 A 
ATOM      3  C   UNL     1      79.430  16.472   2.138  1.00  0.00     0.161 A 
ATOM      4  C   UNL     1      79.038  15.342   1.399  1.00  0.00     0.157 A 
ATOM      5  C   UNL     1      78.781  14.135   2.051  1.00  0.00     0.051 A 
ATOM      6  C   UNL     1      78.917  14.035   3.437  1.00  0.00     0.012 A 
ENDROOT
BRANCH   1   7
ATOM      7  C   UNL     1      79.446  14.988   5.665  1.00  0.00     0.003 C 
ATOM      8  C   UNL     1      80.230  13.931   7.748  1.00  0.00     0.035 C 
ATOM      9  C   UNL     1      80.170  14.031   6.257  1.00  0.00    -0.030 C 
ENDBRANCH   1   7
BRANCH   3  10
ATOM     10  O   UNL     1      79.671  17.676   1.456  1.00  0.00    -0.493 OA
ATOM     11  C   UNL     1      80.460  18.748   1.960  1.00  0.00     0.278 C 
ENDBRANCH   3  10
BRANCH   4  12
ATOM     12  O   UNL     1      78.895  15.402   0.013  1.00  0.00    -0.504 OA
ATOM     13  H   UNL     1      79.672  15.247  -0.618  1.00  0.00     0.293 HD
ENDBRANCH   4  12
TORSDOF 3
ENDMDL
MODEL 3
REMARK VINA RESULT:    -3.929      3.058      5.071
REMARK INTER + INTRA:          -4.672
REMARK INTER:                  -4.485
REMARK INTRA:                  -0.188
REMARK UNBOUND:                -0.169
REMARK SMILES CC=Cc1ccc(O)c(OC)c1
REMARK SMILES IDX 4 1 12 2 9 3 7 4 6 5 5 6 3 7 1 8 2 9 10 10 11 11 8 12
REMARK H PARENT 8 13
REMARK Flexibility Score: inf
ROOT
ATOM      1  C   UNL     1      79.752  14.967   3.566  1.00  0.00    -0.022 A 
ATOM      2  C   UNL     1      79.593  14.325   4.811  1.00  0.00     0.058 A 
ATOM      3  C   UNL     1      79.537  15.073   6.005  1.00  0.00     0.161 A 
ATOM      4  C   UNL     1      79.631  16.475   5.943  1.00  0.00     0.157 A 
ATOM      5  C   UNL     1      79.771  17.112   4.708  1.00  0.00     0.051 A 
ATOM      6  C   UNL     1      79.826  16.367   3.529  1.00  0.00     0.012 A 
ENDROOT
BRANCH   1   7
ATOM      7  C   UNL     1      79.808  14.221   2.284  1.00  0.00     0.003 C 
ATOM      8  C   UNL     1      79.423  13.879  -0.125  1.00  0.00     0.035 C 
ATOM      9  C   UNL     1      79.345  14.698   1.123  1.00  0.00    -0.030 C 
ENDBRANCH   1   7
BRANCH   3  10
ATOM     10  O   UNL     1      79.385  14.461   7.260  1.00  0.00    -0.493 OA
ATOM     11  C   UNL     1      80.457  13.944   8.043  1.00  0.00     0.278 C 
ENDBRANCH   3  10
BRANCH   4  12
ATOM     12  O   UNL     1      79.584  17.252   7.100  1.00  0.00    -0.504 OA
ATOM     13  H   UNL     1      78.986  18.066   7.180  1.00  0.00     0.293 HD
ENDBRANCH   4  12
TORSDOF 3
ENDMDL
MODEL 4
REMARK VINA RESULT:    -3.686      1.367      2.888
REMARK INTER + INTRA:          -4.394
REMARK INTER:                  -4.230
REMARK INTRA:                  -0.164
REMARK UNBOUND:                -0.169
REMARK SMILES CC=Cc1ccc(O)c(OC)c1
REMARK SMILES IDX 4 1 12 2 9 3 7 4 6 5 5 6 3 7 1 8 2 9 10 10 11 11 8 12
REMARK H PARENT 8 13
REMARK Flexibility Score: inf
ROOT
ATOM      1  C   UNL     1      79.589  15.088   5.057  1.00  0.00    -0.022 A 
ATOM      2  C   UNL     1      79.460  16.311   4.369  1.00  0.00     0.058 A 
ATOM      3  C   UNL     1      79.300  16.335   2.968  1.00  0.00     0.161 A 
ATOM      4  C   UNL     1      79.259  15.121   2.259  1.00  0.00     0.157 A 
ATOM      5  C   UNL     1      79.370  13.909   2.944  1.00  0.00     0.051 A 
ATOM      6  C   UNL     1      79.528  13.889   4.330  1.00  0.00     0.012 A 
ENDROOT
BRANCH   1   7
ATOM      7  C   UNL     1      79.750  15.014   6.531  1.00  0.00     0.003 C 
ATOM      8  C   UNL     1      80.096  15.924   8.794  1.00  0.00     0.035 C 
ATOM      9  C   UNL     1      79.925  16.082   7.317  1.00  0.00    -0.030 C 
ENDBRANCH   1   7
BRANCH   3  10
ATOM     10  O   UNL     1      79.174  17.538   2.254  1.00  0.00    -0.493 OA
ATOM     11  C   UNL     1      80.249  18.431   1.978  1.00  0.00     0.278 C 
ENDBRANCH   3  10
BRANCH   4  12
ATOM     12  O   UNL     1      79.107  15.100   0.873  1.00  0.00    -0.504 OA
ATOM     13  H   UNL     1      79.121  14.238   0.341  1.00  0.00     0.293 HD
ENDBRANCH   4  12
TORSDOF 3
ENDMDL
MODEL 5
REMARK VINA RESULT:    -3.176      2.554      4.372
REMARK INTER + INTRA:          -3.809
REMARK INTER:                  -3.624
REMARK INTRA:                  -0.185
REMARK UNBOUND:                -0.169
REMARK SMILES CC=Cc1ccc(O)c(OC)c1
REMARK SMILES IDX 4 1 12 2 9 3 7 4 6 5 5 6 3 7 1 8 2 9 10 10 11 11 8 12
REMARK H PARENT 8 13
REMARK Flexibility Score: inf
ROOT
ATOM      1  C   UNL     1      79.733  17.304   2.814  1.00  0.00    -0.022 A 
ATOM      2  C   UNL     1      79.094  16.105   2.441  1.00  0.00     0.058 A 
ATOM      3  C   UNL     1      78.653  15.190   3.418  1.00  0.00     0.161 A 
ATOM      4  C   UNL     1      78.848  15.489   4.778  1.00  0.00     0.157 A 
ATOM      5  C   UNL     1      79.466  16.686   5.148  1.00  0.00     0.051 A 
ATOM      6  C   UNL     1      79.901  17.589   4.177  1.00  0.00     0.012 A 
ENDROOT
BRANCH   1   7
ATOM      7  C   UNL     1      80.205  18.300   1.820  1.00  0.00     0.003 C 
ATOM      8  C   UNL     1      81.676  20.079   0.957  1.00  0.00     0.035 C 
ATOM      9  C   UNL     1      81.272  19.087   2.001  1.00  0.00    -0.030 C 
ENDBRANCH   1   7
BRANCH   3  10
ATOM     10  O   UNL     1      78.018  13.984   3.077  1.00  0.00    -0.493 OA
ATOM     11  C   UNL     1      76.806  13.890   2.335  1.00  0.00     0.278 C 
ENDBRANCH   3  10
BRANCH   4  12
ATOM     12  O   UNL     1      78.431  14.610   5.777  1.00  0.00    -0.504 OA
ATOM     13  H   UNL     1      77.467  14.560   6.085  1.00  0.00     0.293 HD
ENDBRANCH   4  12
TORSDOF 3
ENDMDL
MODEL 6
REMARK VINA RESULT:    -2.896      3.465      5.892
REMARK INTER + INTRA:          -3.488
REMARK INTER:                  -3.814
REMARK INTRA:                   0.326
REMARK UNBOUND:                -0.169
REMARK SMILES CC=Cc1ccc(O)c(OC)c1
REMARK SMILES IDX 4 1 12 2 9 3 7 4 6 5 5 6 3 7 1 8 2 9 10 10 11 11 8 12
REMARK H PARENT 8 13
REMARK Flexibility Score: inf
ROOT
ATOM      1  C   UNL     1      79.010  15.985   4.328  1.00  0.00    -0.022 A 
ATOM      2  C   UNL     1      79.353  16.696   5.495  1.00  0.00     0.058 A 
ATOM      3  C   UNL     1      79.803  16.017   6.646  1.00  0.00     0.161 A 
ATOM      4  C   UNL     1      79.917  14.615   6.617  1.00  0.00     0.157 A 
ATOM      5  C   UNL     1      79.594  13.912   5.454  1.00  0.00     0.051 A 
ATOM      6  C   UNL     1      79.149  14.589   4.318  1.00  0.00     0.012 A 
ENDROOT
BRANCH   1   7
ATOM      7  C   UNL     1      78.541  16.658   3.092  1.00  0.00     0.003 C 
ATOM      8  C   UNL     1      78.542  17.167   0.681  1.00  0.00     0.035 C 
ATOM      9  C   UNL     1      79.059  16.436   1.878  1.00  0.00    -0.030 C 
ENDBRANCH   1   7
BRANCH   3  10
ATOM     10  O   UNL     1      80.147  16.697   7.826  1.00  0.00    -0.493 OA
ATOM     11  C   UNL     1      79.749  16.300   9.134  1.00  0.00     0.278 C 
ENDBRANCH   3  10
BRANCH   4  12
ATOM     12  O   UNL     1      80.354  13.904   7.734  1.00  0.00    -0.504 OA
ATOM     13  H   UNL     1      80.122  14.185   8.679  1.00  0.00     0.293 HD
ENDBRANCH   4  12
TORSDOF 3
ENDMDL
MODEL 7
REMARK VINA RESULT:    -2.755      2.148      2.737
REMARK INTER + INTRA:          -3.326
REMARK INTER:                  -3.170
REMARK INTRA:                  -0.157
REMARK UNBOUND:                -0.169
REMARK SMILES CC=Cc1ccc(O)c(OC)c1
REMARK SMILES IDX 4 1 12 2 9 3 7 4 6 5 5 6 3 7 1 8 2 9 10 10 11 11 8 12
REMARK H PARENT 8 13
REMARK Flexibility Score: inf
ROOT
ATOM      1  C   UNL     1      79.539  14.442   5.047  1.00  0.00    -0.022 A 
ATOM      2  C   UNL     1      78.524  14.699   4.105  1.00  0.00     0.058 A 
ATOM      3  C   UNL     1      78.771  14.558   2.724  1.00  0.00     0.161 A 
ATOM      4  C   UNL     1      80.044  14.146   2.291  1.00  0.00     0.157 A 
ATOM      5  C   UNL     1      81.045  13.875   3.227  1.00  0.00     0.051 A 
ATOM      6  C   UNL     1      80.796  14.016   4.593  1.00  0.00     0.012 A 
ENDROOT
BRANCH   1   7
ATOM      7  C   UNL     1      79.322  14.569   6.510  1.00  0.00     0.003 C 
ATOM      8  C   UNL     1      79.935  15.161   8.821  1.00  0.00     0.035 C 
ATOM      9  C   UNL     1      80.222  15.082   7.356  1.00  0.00    -0.030 C 
ENDBRANCH   1   7
BRANCH   3  10
ATOM     10  O   UNL     1      77.781  14.813   1.760  1.00  0.00    -0.493 OA
ATOM     11  C   UNL     1      77.600  16.060   1.096  1.00  0.00     0.278 C 
ENDBRANCH   3  10
BRANCH   4  12
ATOM     12  O   UNL     1      80.332  13.998   0.935  1.00  0.00    -0.504 OA
ATOM     13  H   UNL     1      80.879  14.679   0.421  1.00  0.00     0.293 HD
ENDBRANCH   4  12
TORSDOF 3
ENDMDL
MODEL 8
REMARK VINA RESULT:    -2.544      2.128      2.926
REMARK INTER + INTRA:          -3.085
REMARK INTER:                  -3.103
REMARK INTRA:                   0.019
REMARK UNBOUND:                -0.169
REMARK SMILES CC=Cc1ccc(O)c(OC)c1
REMARK SMILES IDX 4 1 12 2 9 3 7 4 6 5 5 6 3 7 1 8 2 9 10 10 11 11 8 12
REMARK H PARENT 8 13
REMARK Flexibility Score: inf
ROOT
ATOM      1  C   UNL     1      79.750  14.658   6.414  1.00  0.00    -0.022 A 
ATOM      2  C   UNL     1      79.339  13.931   5.278  1.00  0.00     0.058 A 
ATOM      3  C   UNL     1      78.935  14.599   4.104  1.00  0.00     0.161 A 
ATOM      4  C   UNL     1      78.956  16.005   4.071  1.00  0.00     0.157 A 
ATOM      5  C   UNL     1      79.379  16.724   5.191  1.00  0.00     0.051 A 
ATOM      6  C   UNL     1      79.778  16.059   6.351  1.00  0.00     0.012 A 
ENDROOT
BRANCH   1   7
ATOM      7  C   UNL     1      80.191  13.997   7.668  1.00  0.00     0.003 C 
ATOM      8  C   UNL     1      81.306  13.875   9.861  1.00  0.00     0.035 C 
ATOM      9  C   UNL     1      80.883  14.614   8.632  1.00  0.00    -0.030 C 
ENDBRANCH   1   7
BRANCH   3  10
ATOM     10  O   UNL     1      78.515  13.903   2.959  1.00  0.00    -0.493 OA
ATOM     11  C   UNL     1      77.197  13.948   2.423  1.00  0.00     0.278 C 
ENDBRANCH   3  10
BRANCH   4  12
ATOM     12  O   UNL     1      78.561  16.705   2.931  1.00  0.00    -0.504 OA
ATOM     13  H   UNL     1      78.286  17.679   2.964  1.00  0.00     0.293 HD
ENDBRANCH   4  12
TORSDOF 3
ENDMDL
