MODEL 1
REMARK VINA RESULT:    -3.782      0.000      0.000
REMARK INTER + INTRA:          -5.035
REMARK INTER:                  -4.888
REMARK INTRA:                  -0.147
REMARK UNBOUND:                -0.147
REMARK SMILES CCCCCCC(=O)[O-]
REMARK SMILES IDX 5 1 6 2 7 3 8 4 9 5 4 6 3 7 2 8 1 9
REMARK H PARENT
REMARK Flexibility Score: inf
ROOT
ATOM      1  C   UNL     1      17.190 -10.159  13.210  1.00  0.00     0.006 C 
ENDROOT
BRANCH   1   2
ATOM      2  C   UNL     1      18.398 -10.045  14.147  1.00  0.00     0.053 C 
BRANCH   2   3
ATOM      3  C   UNL     1      18.588  -8.627  14.584  1.00  0.00     0.041 C 
ATOM      4  O   UNL     1      17.614  -7.827  14.584  1.00  0.00    -0.550 OA
ATOM      5  O   UNL     1      19.828  -8.200  15.039  1.00  0.00    -0.550 OA
ENDBRANCH   2   3
ENDBRANCH   1   2
BRANCH   1   6
ATOM      6  C   UNL     1      17.538 -10.811  11.861  1.00  0.00     0.000 C 
BRANCH   6   7
ATOM      7  C   UNL     1      18.600 -11.926  11.969  1.00  0.00    -0.000 C 
BRANCH   7   8
ATOM      8  C   UNL     1      18.188 -13.195  11.208  1.00  0.00    -0.003 C 
ATOM      9  C   UNL     1      19.087 -14.373  11.574  1.00  0.00     0.004 C 
ENDBRANCH   7   8
ENDBRANCH   6   7
ENDBRANCH   1   6
TORSDOF 5
ENDMDL
MODEL 2
REMARK VINA RESULT:    -3.760      8.779     11.314
REMARK INTER + INTRA:          -5.006
REMARK INTER:                  -4.795
REMARK INTRA:                  -0.210
REMARK UNBOUND:                -0.147
REMARK SMILES CCCCCCC(=O)[O-]
REMARK SMILES IDX 5 1 6 2 7 3 8 4 9 5 4 6 3 7 2 8 1 9
REMARK H PARENT
REMARK Flexibility Score: inf
ROOT
ATOM      1  C   UNL     1      21.620  -3.217  19.984  1.00  0.00     0.006 C 
ENDROOT
BRANCH   1   2
ATOM      2  C   UNL     1      21.377  -4.507  19.193  1.00  0.00     0.053 C 
BRANCH   2   3
ATOM      3  C   UNL     1      21.386  -4.229  17.723  1.00  0.00     0.041 C 
ATOM      4  O   UNL     1      20.549  -3.429  17.224  1.00  0.00    -0.550 OA
ATOM      5  O   UNL     1      22.349  -4.812  16.911  1.00  0.00    -0.550 OA
ENDBRANCH   2   3
ENDBRANCH   1   2
BRANCH   1   6
ATOM      6  C   UNL     1      20.345  -2.672  20.649  1.00  0.00     0.000 C 
BRANCH   6   7
ATOM      7  C   UNL     1      19.988  -3.378  21.974  1.00  0.00    -0.000 C 
BRANCH   7   8
ATOM      8  C   UNL     1      21.102  -3.241  23.023  1.00  0.00    -0.003 C 
ATOM      9  C   UNL     1      21.119  -1.838  23.626  1.00  0.00     0.004 C 
ENDBRANCH   7   8
ENDBRANCH   6   7
ENDBRANCH   1   6
TORSDOF 5
ENDMDL
MODEL 3
REMARK VINA RESULT:    -3.713      8.690     11.201
REMARK INTER + INTRA:          -4.946
REMARK INTER:                  -4.607
REMARK INTRA:                  -0.339
REMARK UNBOUND:                -0.147
REMARK SMILES CCCCCCC(=O)[O-]
REMARK SMILES IDX 5 1 6 2 7 3 8 4 9 5 4 6 3 7 2 8 1 9
REMARK H PARENT
REMARK Flexibility Score: inf
ROOT
ATOM      1  C   UNL     1      18.644  -4.318  21.135  1.00  0.00     0.006 C 
ENDROOT
BRANCH   1   2
ATOM      2  C   UNL     1      18.540  -5.095  19.819  1.00  0.00     0.053 C 
BRANCH   2   3
ATOM      3  C   UNL     1      19.604  -4.653  18.865  1.00  0.00     0.041 C 
ATOM      4  O   UNL     1      19.291  -4.203  17.730  1.00  0.00    -0.550 OA
ATOM      5  O   UNL     1      20.938  -4.688  19.247  1.00  0.00    -0.550 OA
ENDBRANCH   2   3
ENDBRANCH   1   2
BRANCH   1   6
ATOM      6  C   UNL     1      18.424  -2.806  20.958  1.00  0.00     0.000 C 
BRANCH   6   7
ATOM      7  C   UNL     1      19.541  -1.942  21.581  1.00  0.00    -0.000 C 
BRANCH   7   8
ATOM      8  C   UNL     1      20.537  -2.780  22.396  1.00  0.00    -0.003 C 
ATOM      9  C   UNL     1      21.109  -1.976  23.561  1.00  0.00     0.004 C 
ENDBRANCH   7   8
ENDBRANCH   6   7
ENDBRANCH   1   6
TORSDOF 5
ENDMDL
MODEL 4
REMARK VINA RESULT:    -3.694      7.299      8.239
REMARK INTER + INTRA:          -4.921
REMARK INTER:                  -4.680
REMARK INTRA:                  -0.242
REMARK UNBOUND:                -0.147
REMARK SMILES CCCCCCC(=O)[O-]
REMARK SMILES IDX 5 1 6 2 7 3 8 4 9 5 4 6 3 7 2 8 1 9
REMARK H PARENT
REMARK Flexibility Score: inf
ROOT
ATOM      1  C   UNL     1      10.677 -12.062  14.531  1.00  0.00     0.006 C 
ENDROOT
BRANCH   1   2
ATOM      2  C   UNL     1       9.681 -10.906  14.674  1.00  0.00     0.053 C 
BRANCH   2   3
ATOM      3  C   UNL     1       9.303 -10.717  16.109  1.00  0.00     0.041 C 
ATOM      4  O   UNL     1       8.768  -9.641  16.487  1.00  0.00    -0.550 OA
ATOM      5  O   UNL     1       9.495 -11.747  17.020  1.00  0.00    -0.550 OA
ENDBRANCH   2   3
ENDBRANCH   1   2
BRANCH   1   6
ATOM      6  C   UNL     1      12.110 -11.585  14.235  1.00  0.00     0.000 C 
BRANCH   6   7
ATOM      7  C   UNL     1      13.200 -12.464  14.885  1.00  0.00    -0.000 C 
BRANCH   7   8
ATOM      8  C   UNL     1      12.825 -12.895  16.310  1.00  0.00    -0.003 C 
ATOM      9  C   UNL     1      13.687 -14.064  16.777  1.00  0.00     0.004 C 
ENDBRANCH   7   8
ENDBRANCH   6   7
ENDBRANCH   1   6
TORSDOF 5
ENDMDL
MODEL 5
REMARK VINA RESULT:    -3.677      9.227     12.304
REMARK INTER + INTRA:          -4.899
REMARK INTER:                  -4.683
REMARK INTRA:                  -0.216
REMARK UNBOUND:                -0.147
REMARK SMILES CCCCCCC(=O)[O-]
REMARK SMILES IDX 5 1 6 2 7 3 8 4 9 5 4 6 3 7 2 8 1 9
REMARK H PARENT
REMARK Flexibility Score: inf
ROOT
ATOM      1  C   UNL     1      19.678  -3.056  21.446  1.00  0.00     0.006 C 
ENDROOT
BRANCH   1   2
ATOM      2  C   UNL     1      18.651  -4.176  21.243  1.00  0.00     0.053 C 
BRANCH   2   3
ATOM      3  C   UNL     1      18.685  -4.666  19.830  1.00  0.00     0.041 C 
ATOM      4  O   UNL     1      17.611  -4.895  19.212  1.00  0.00    -0.550 OA
ATOM      5  O   UNL     1      19.900  -4.823  19.178  1.00  0.00    -0.550 OA
ENDBRANCH   2   3
ENDBRANCH   1   2
BRANCH   1   6
ATOM      6  C   UNL     1      20.732  -3.396  22.513  1.00  0.00     0.000 C 
BRANCH   6   7
ATOM      7  C   UNL     1      21.070  -2.214  23.447  1.00  0.00    -0.000 C 
BRANCH   7   8
ATOM      8  C   UNL     1      20.099  -1.038  23.268  1.00  0.00    -0.003 C 
ATOM      9  C   UNL     1      20.842   0.231  22.861  1.00  0.00     0.004 C 
ENDBRANCH   7   8
ENDBRANCH   6   7
ENDBRANCH   1   6
TORSDOF 5
ENDMDL
MODEL 6
REMARK VINA RESULT:    -3.675     12.027     13.849
REMARK INTER + INTRA:          -4.897
REMARK INTER:                  -4.471
REMARK INTRA:                  -0.426
REMARK UNBOUND:                -0.147
REMARK SMILES CCCCCCC(=O)[O-]
REMARK SMILES IDX 5 1 6 2 7 3 8 4 9 5 4 6 3 7 2 8 1 9
REMARK H PARENT
REMARK Flexibility Score: inf
ROOT
ATOM      1  C   UNL     1      21.107  -1.834  23.635  1.00  0.00     0.006 C 
ENDROOT
BRANCH   1   2
ATOM      2  C   UNL     1      21.206  -3.237  23.026  1.00  0.00     0.053 C 
BRANCH   2   3
ATOM      3  C   UNL     1      22.021  -3.206  21.772  1.00  0.00     0.041 C 
ATOM      4  O   UNL     1      23.224  -2.833  21.807  1.00  0.00    -0.550 OA
ATOM      5  O   UNL     1      21.468  -3.637  20.574  1.00  0.00    -0.550 OA
ENDBRANCH   2   3
ENDBRANCH   1   2
BRANCH   1   6
ATOM      6  C   UNL     1      20.156  -0.908  22.858  1.00  0.00     0.000 C 
BRANCH   6   7
ATOM      7  C   UNL     1      20.669   0.542  22.733  1.00  0.00    -0.000 C 
BRANCH   7   8
ATOM      8  C   UNL     1      22.131   0.602  22.267  1.00  0.00    -0.003 C 
ATOM      9  C   UNL     1      22.231   0.477  20.749  1.00  0.00     0.004 C 
ENDBRANCH   7   8
ENDBRANCH   6   7
ENDBRANCH   1   6
TORSDOF 5
ENDMDL
MODEL 7
REMARK VINA RESULT:    -3.668      8.612     10.748
REMARK INTER + INTRA:          -4.887
REMARK INTER:                  -4.468
REMARK INTRA:                  -0.418
REMARK UNBOUND:                -0.147
REMARK SMILES CCCCCCC(=O)[O-]
REMARK SMILES IDX 5 1 6 2 7 3 8 4 9 5 4 6 3 7 2 8 1 9
REMARK H PARENT
REMARK Flexibility Score: inf
ROOT
ATOM      1  C   UNL     1      18.517  -2.537  16.922  1.00  0.00     0.006 C 
ENDROOT
BRANCH   1   2
ATOM      2  C   UNL     1      17.761  -3.402  17.936  1.00  0.00     0.053 C 
BRANCH   2   3
ATOM      3  C   UNL     1      16.385  -3.711  17.438  1.00  0.00     0.041 C 
ATOM      4  O   UNL     1      15.437  -2.911  17.655  1.00  0.00    -0.550 OA
ATOM      5  O   UNL     1      16.159  -4.859  16.689  1.00  0.00    -0.550 OA
ENDBRANCH   2   3
ENDBRANCH   1   2
BRANCH   1   6
ATOM      6  C   UNL     1      18.483  -1.039  17.269  1.00  0.00     0.000 C 
BRANCH   6   7
ATOM      7  C   UNL     1      18.312  -0.757  18.777  1.00  0.00    -0.000 C 
BRANCH   7   8
ATOM      8  C   UNL     1      17.055   0.075  19.072  1.00  0.00    -0.003 C 
ATOM      9  C   UNL     1      16.390   0.544  17.781  1.00  0.00     0.004 C 
ENDBRANCH   7   8
ENDBRANCH   6   7
ENDBRANCH   1   6
TORSDOF 5
ENDMDL
MODEL 8
REMARK VINA RESULT:    -3.668      8.679     11.150
REMARK INTER + INTRA:          -4.887
REMARK INTER:                  -4.683
REMARK INTRA:                  -0.204
REMARK UNBOUND:                -0.147
REMARK SMILES CCCCCCC(=O)[O-]
REMARK SMILES IDX 5 1 6 2 7 3 8 4 9 5 4 6 3 7 2 8 1 9
REMARK H PARENT
REMARK Flexibility Score: inf
ROOT
ATOM      1  C   UNL     1      18.544  -3.968  21.051  1.00  0.00     0.006 C 
ENDROOT
BRANCH   1   2
ATOM      2  C   UNL     1      18.568  -4.980  19.900  1.00  0.00     0.053 C 
BRANCH   2   3
ATOM      3  C   UNL     1      17.690  -4.520  18.780  1.00  0.00     0.041 C 
ATOM      4  O   UNL     1      16.441  -4.668  18.851  1.00  0.00    -0.550 OA
ATOM      5  O   UNL     1      18.245  -3.880  17.680  1.00  0.00    -0.550 OA
ENDBRANCH   2   3
ENDBRANCH   1   2
BRANCH   1   6
ATOM      6  C   UNL     1      19.630  -2.886  20.919  1.00  0.00     0.000 C 
BRANCH   6   7
ATOM      7  C   UNL     1      21.008  -3.324  21.458  1.00  0.00    -0.000 C 
BRANCH   7   8
ATOM      8  C   UNL     1      21.052  -3.340  22.993  1.00  0.00    -0.003 C 
ATOM      9  C   UNL     1      21.003  -1.923  23.559  1.00  0.00     0.004 C 
ENDBRANCH   7   8
ENDBRANCH   6   7
ENDBRANCH   1   6
TORSDOF 5
ENDMDL
MODEL 9
REMARK VINA RESULT:    -3.615      7.507      8.686
REMARK INTER + INTRA:          -4.819
REMARK INTER:                  -4.616
REMARK INTRA:                  -0.203
REMARK UNBOUND:                -0.147
REMARK SMILES CCCCCCC(=O)[O-]
REMARK SMILES IDX 5 1 6 2 7 3 8 4 9 5 4 6 3 7 2 8 1 9
REMARK H PARENT
REMARK Flexibility Score: inf
ROOT
ATOM      1  C   UNL     1      11.784 -12.765  16.399  1.00  0.00     0.006 C 
ENDROOT
BRANCH   1   2
ATOM      2  C   UNL     1      13.133 -13.119  17.034  1.00  0.00     0.053 C 
BRANCH   2   3
ATOM      3  C   UNL     1      13.439 -14.570  16.836  1.00  0.00     0.041 C 
ATOM      4  O   UNL     1      13.903 -14.976  15.738  1.00  0.00    -0.550 OA
ATOM      5  O   UNL     1      13.259 -15.467  17.881  1.00  0.00    -0.550 OA
ENDBRANCH   2   3
ENDBRANCH   1   2
BRANCH   1   6
ATOM      6  C   UNL     1      11.927 -12.087  15.026  1.00  0.00     0.000 C 
BRANCH   6   7
ATOM      7  C   UNL     1      10.679 -11.286  14.598  1.00  0.00    -0.000 C 
BRANCH   7   8
ATOM      8  C   UNL     1       9.548 -11.378  15.633  1.00  0.00    -0.003 C 
ATOM      9  C   UNL     1       9.077  -9.990  16.059  1.00  0.00     0.004 C 
ENDBRANCH   7   8
ENDBRANCH   6   7
ENDBRANCH   1   6
TORSDOF 5
ENDMDL
