MODEL 1
REMARK VINA RESULT:     0.220      0.000      0.000
REMARK INTER + INTRA:          -0.102
REMARK INTER:                   0.265
REMARK INTRA:                  -0.367
REMARK UNBOUND:                -0.367
REMARK SMILES Oc1cc(O)c2c(c1)O[C@@H](c1ccc(O)c(O)c1)[C@H](O)C2
REMARK SMILES IDX 21 1 19 2 10 3 9 4 7 5 8 6 2 7 3 8 4 9 6 10 20 11 11 13
REMARK SMILES IDX 18 14 12 15 16 16 13 17 14 18 17 19 15 21 5 23 1 25
REMARK H PARENT 20 12 17 20 15 22 5 24 1 26
REMARK Flexibility Score: inf
ROOT
ATOM      1  C   UNL     1     -16.617  19.813  -8.676  1.00  0.00     0.079 C 
ATOM      2  C   UNL     1     -18.151  19.844  -8.556  1.00  0.00     0.164 C 
ATOM      3  C   UNL     1     -18.773  18.719  -9.412  1.00  0.00     0.232 C 
ATOM      4  O   UNL     1     -18.226  17.456  -9.030  1.00  0.00    -0.482 OA
ATOM      5  C   UNL     1     -16.888  17.300  -8.648  1.00  0.00     0.131 A 
ATOM      6  C   UNL     1     -16.379  16.013  -8.451  1.00  0.00     0.093 A 
ATOM      7  C   UNL     1     -15.045  15.833  -8.070  1.00  0.00     0.122 A 
ATOM      8  C   UNL     1     -14.217  16.945  -7.886  1.00  0.00     0.092 A 
ATOM      9  C   UNL     1     -14.718  18.241  -8.075  1.00  0.00     0.126 A 
ATOM     10  C   UNL     1     -16.066  18.426  -8.439  1.00  0.00     0.039 A 
ENDROOT
BRANCH   2  11
ATOM     11  O   UNL     1     -18.650  21.107  -8.926  1.00  0.00    -0.389 OA
ATOM     12  H   UNL     1     -17.915  21.601  -9.376  1.00  0.00     0.211 HD
ENDBRANCH   2  11
BRANCH   3  13
ATOM     13  C   UNL     1     -20.275  18.690  -9.264  1.00  0.00    -0.001 A 
ATOM     14  C   UNL     1     -21.100  19.036 -10.347  1.00  0.00     0.057 A 
ATOM     15  C   UNL     1     -20.864  18.367  -8.030  1.00  0.00     0.012 A 
ATOM     16  C   UNL     1     -22.496  19.039 -10.208  1.00  0.00     0.157 A 
ATOM     17  C   UNL     1     -22.254  18.368  -7.889  1.00  0.00     0.050 A 
ATOM     18  C   UNL     1     -23.075  18.701  -8.971  1.00  0.00     0.157 A 
BRANCH  16  19
ATOM     19  O   UNL     1     -23.308  19.378 -11.288  1.00  0.00    -0.504 OA
ATOM     20  H   UNL     1     -24.300  19.169 -11.293  1.00  0.00     0.293 HD
ENDBRANCH  16  19
BRANCH  18  21
ATOM     21  O   UNL     1     -24.458  18.693  -8.801  1.00  0.00    -0.504 OA
ATOM     22  H   UNL     1     -25.080  19.191  -9.427  1.00  0.00     0.293 HD
ENDBRANCH  18  21
ENDBRANCH   3  13
BRANCH   9  23
ATOM     23  O   UNL     1     -13.881  19.343  -7.903  1.00  0.00    -0.507 OA
ATOM     24  H   UNL     1     -12.881  19.236  -7.776  1.00  0.00     0.293 HD
ENDBRANCH   9  23
BRANCH   7  25
ATOM     25  O   UNL     1     -14.529  14.553  -7.875  1.00  0.00    -0.508 OA
ATOM     26  H   UNL     1     -14.294  14.212  -6.950  1.00  0.00     0.293 HD
ENDBRANCH   7  25
TORSDOF 6
ENDMDL
MODEL 2
REMARK VINA RESULT:     0.512     15.359     16.290
REMARK INTER + INTRA:           0.250
REMARK INTER:                  -0.144
REMARK INTRA:                   0.394
REMARK UNBOUND:                -0.367
REMARK SMILES Oc1cc(O)c2c(c1)O[C@@H](c1ccc(O)c(O)c1)[C@H](O)C2
REMARK SMILES IDX 21 1 19 2 10 3 9 4 7 5 8 6 2 7 3 8 4 9 6 10 20 11 11 13
REMARK SMILES IDX 18 14 12 15 16 16 13 17 14 18 17 19 15 21 5 23 1 25
REMARK H PARENT 20 12 17 20 15 22 5 24 1 26
REMARK Flexibility Score: inf
ROOT
ATOM      1  C   UNL     1     -14.473  18.281 -25.280  1.00  0.00     0.079 C 
ATOM      2  C   UNL     1     -14.196  18.083 -23.779  1.00  0.00     0.164 C 
ATOM      3  C   UNL     1     -15.092  16.957 -23.218  1.00  0.00     0.232 C 
ATOM      4  O   UNL     1     -14.894  15.757 -23.967  1.00  0.00    -0.482 OA
ATOM      5  C   UNL     1     -14.668  15.761 -25.349  1.00  0.00     0.131 A 
ATOM      6  C   UNL     1     -14.652  14.548 -26.043  1.00  0.00     0.093 A 
ATOM      7  C   UNL     1     -14.428  14.529 -27.425  1.00  0.00     0.122 A 
ATOM      8  C   UNL     1     -14.220  15.728 -28.113  1.00  0.00     0.092 A 
ATOM      9  C   UNL     1     -14.227  16.951 -27.426  1.00  0.00     0.126 A 
ATOM     10  C   UNL     1     -14.432  16.972 -26.033  1.00  0.00     0.039 A 
ENDROOT
BRANCH   2  11
ATOM     11  O   UNL     1     -14.386  19.288 -23.078  1.00  0.00    -0.389 OA
ATOM     12  H   UNL     1     -13.546  19.485 -22.586  1.00  0.00     0.211 HD
ENDBRANCH   2  11
BRANCH   3  13
ATOM     13  C   UNL     1     -14.795  16.701 -21.759  1.00  0.00    -0.001 A 
ATOM     14  C   UNL     1     -14.483  17.770 -20.903  1.00  0.00     0.057 A 
ATOM     15  C   UNL     1     -14.777  15.391 -21.254  1.00  0.00     0.012 A 
ATOM     16  C   UNL     1     -14.178  17.536 -19.554  1.00  0.00     0.157 A 
ATOM     17  C   UNL     1     -14.474  15.155 -19.911  1.00  0.00     0.050 A 
ATOM     18  C   UNL     1     -14.176  16.221 -19.056  1.00  0.00     0.157 A 
BRANCH  16  19
ATOM     19  O   UNL     1     -13.875  18.603 -18.709  1.00  0.00    -0.504 OA
ATOM     20  H   UNL     1     -13.310  18.476 -17.877  1.00  0.00     0.293 HD
ENDBRANCH  16  19
BRANCH  18  21
ATOM     21  O   UNL     1     -13.878  15.956 -17.720  1.00  0.00    -0.504 OA
ATOM     22  H   UNL     1     -13.910  16.677 -17.009  1.00  0.00     0.293 HD
ENDBRANCH  18  21
ENDBRANCH   3  13
BRANCH   9  23
ATOM     23  O   UNL     1     -14.033  18.142 -28.124  1.00  0.00    -0.507 OA
ATOM     24  H   UNL     1     -13.290  18.787 -27.877  1.00  0.00     0.293 HD
ENDBRANCH   9  23
BRANCH   7  25
ATOM     25  O   UNL     1     -14.415  13.323 -28.124  1.00  0.00    -0.508 OA
ATOM     26  H   UNL     1     -15.205  12.690 -28.102  1.00  0.00     0.293 HD
ENDBRANCH   7  25
TORSDOF 6
ENDMDL
MODEL 3
REMARK VINA RESULT:     1.695      5.732      7.694
REMARK INTER + INTRA:           1.674
REMARK INTER:                   1.803
REMARK INTRA:                  -0.129
REMARK UNBOUND:                -0.367
REMARK SMILES Oc1cc(O)c2c(c1)O[C@@H](c1ccc(O)c(O)c1)[C@H](O)C2
REMARK SMILES IDX 21 1 19 2 10 3 9 4 7 5 8 6 2 7 3 8 4 9 6 10 20 11 11 13
REMARK SMILES IDX 18 14 12 15 16 16 13 17 14 18 17 19 15 21 5 23 1 25
REMARK H PARENT 20 12 17 20 15 22 5 24 1 26
REMARK Flexibility Score: inf
ROOT
ATOM      1  C   UNL     1     -13.902  16.004 -13.723  1.00  0.00     0.079 C 
ATOM      2  C   UNL     1     -14.456  14.866 -12.849  1.00  0.00     0.164 C 
ATOM      3  C   UNL     1     -13.876  14.962 -11.421  1.00  0.00     0.232 C 
ATOM      4  O   UNL     1     -14.149  16.251 -10.869  1.00  0.00    -0.482 OA
ATOM      5  C   UNL     1     -14.137  17.418 -11.641  1.00  0.00     0.131 A 
ATOM      6  C   UNL     1     -14.245  18.659 -11.007  1.00  0.00     0.093 A 
ATOM      7  C   UNL     1     -14.234  19.840 -11.759  1.00  0.00     0.122 A 
ATOM      8  C   UNL     1     -14.114  19.777 -13.150  1.00  0.00     0.092 A 
ATOM      9  C   UNL     1     -14.010  18.538 -13.799  1.00  0.00     0.126 A 
ATOM     10  C   UNL     1     -14.041  17.348 -13.047  1.00  0.00     0.039 A 
ENDROOT
BRANCH   2  11
ATOM     11  O   UNL     1     -14.181  13.615 -13.432  1.00  0.00    -0.389 OA
ATOM     12  H   UNL     1     -13.382  13.241 -12.978  1.00  0.00     0.211 HD
ENDBRANCH   2  11
BRANCH   3  13
ATOM     13  C   UNL     1     -14.452  13.891 -10.525  1.00  0.00    -0.001 A 
ATOM     14  C   UNL     1     -15.486  14.202  -9.627  1.00  0.00     0.057 A 
ATOM     15  C   UNL     1     -13.929  12.588 -10.543  1.00  0.00     0.012 A 
ATOM     16  C   UNL     1     -16.006  13.220  -8.771  1.00  0.00     0.157 A 
ATOM     17  C   UNL     1     -14.445  11.608  -9.692  1.00  0.00     0.050 A 
ATOM     18  C   UNL     1     -15.483  11.916  -8.807  1.00  0.00     0.157 A 
BRANCH  16  19
ATOM     19  O   UNL     1     -17.036  13.535  -7.886  1.00  0.00    -0.504 OA
ATOM     20  H   UNL     1     -16.872  14.100  -7.060  1.00  0.00     0.293 HD
ENDBRANCH  16  19
BRANCH  18  21
ATOM     21  O   UNL     1     -15.979  10.917  -7.970  1.00  0.00    -0.504 OA
ATOM     22  H   UNL     1     -15.746  10.875  -6.985  1.00  0.00     0.293 HD
ENDBRANCH  18  21
ENDBRANCH   3  13
BRANCH   9  23
ATOM     23  O   UNL     1     -13.877  18.486 -15.186  1.00  0.00    -0.507 OA
ATOM     24  H   UNL     1     -12.970  18.558 -15.635  1.00  0.00     0.293 HD
ENDBRANCH   9  23
BRANCH   7  25
ATOM     25  O   UNL     1     -14.338  21.081 -11.133  1.00  0.00    -0.508 OA
ATOM     26  H   UNL     1     -13.709  21.842 -11.360  1.00  0.00     0.293 HD
ENDBRANCH   7  25
TORSDOF 6
ENDMDL
