MODEL 1
REMARK VINA RESULT:    -5.544      0.000      0.000
REMARK INTER + INTRA:          -6.031
REMARK INTER:                  -6.031
REMARK INTRA:                   0.000
REMARK UNBOUND:                 0.000
REMARK SMILES Cc1cc(O)c2c(c1)C(=O)c1cc(O)cc(O)c1C2=O
REMARK SMILES IDX 1 1 2 2 8 3 7 4 6 5 4 6 3 7 19 8 20 9 18 10 11 11 9 12 10 13
REMARK SMILES IDX 12 14 13 15 15 16 16 17 5 18 17 20 14 22
REMARK H PARENT 5 19 17 21 14 23
REMARK Flexibility Score: inf
ROOT
ATOM      1  C   UNL     1      38.566  15.755 210.403  1.00  0.00     0.044 C 
ATOM      2  C   UNL     1      39.767  16.032 211.260  1.00  0.00    -0.047 A 
ATOM      3  C   UNL     1      40.948  16.510 210.684  1.00  0.00     0.016 A 
ATOM      4  C   UNL     1      42.090  16.739 211.471  1.00  0.00     0.038 A 
ATOM      5  C   UNL     1      42.054  16.472 212.857  1.00  0.00     0.076 A 
ATOM      6  C   UNL     1      40.863  15.966 213.430  1.00  0.00     0.127 A 
ATOM      7  C   UNL     1      39.735  15.747 212.629  1.00  0.00     0.050 A 
ATOM      8  C   UNL     1      43.272  16.720 213.680  1.00  0.00     0.201 C 
ATOM      9  O   UNL     1      43.245  16.492 214.920  1.00  0.00    -0.288 OA
ATOM     10  C   UNL     1      44.519  17.241 213.052  1.00  0.00     0.076 A 
ATOM     11  C   UNL     1      44.538  17.500 211.664  1.00  0.00     0.041 A 
ATOM     12  C   UNL     1      43.329  17.257 210.844  1.00  0.00     0.194 C 
ATOM     13  O   UNL     1      43.353  17.493 209.605  1.00  0.00    -0.289 OA
ATOM     14  C   UNL     1      45.710  17.991 211.060  1.00  0.00     0.059 A 
ATOM     15  C   UNL     1      46.856  18.224 211.818  1.00  0.00     0.120 A 
ATOM     16  C   UNL     1      46.844  17.970 213.190  1.00  0.00     0.093 A 
ATOM     17  C   UNL     1      45.689  17.481 213.814  1.00  0.00     0.131 A 
ENDROOT
BRANCH   6  18
ATOM     18  O   UNL     1      40.790  15.680 214.794  1.00  0.00    -0.507 OA
ATOM     19  H   UNL     1      39.909  15.470 215.250  1.00  0.00     0.293 HD
ENDBRANCH   6  18
BRANCH  17  20
ATOM     20  O   UNL     1      45.711  17.237 215.188  1.00  0.00    -0.507 OA
ATOM     21  H   UNL     1      46.366  17.706 215.803  1.00  0.00     0.293 HD
ENDBRANCH  17  20
BRANCH  15  22
ATOM     22  O   UNL     1      48.004  18.711 211.196  1.00  0.00    -0.508 OA
ATOM     23  H   UNL     1      48.017  19.618 210.743  1.00  0.00     0.293 HD
ENDBRANCH  15  22
TORSDOF 3
ENDMDL
MODEL 2
REMARK VINA RESULT:    -5.320      1.690      6.791
REMARK INTER + INTRA:          -5.786
REMARK INTER:                  -5.786
REMARK INTRA:                   0.000
REMARK UNBOUND:                 0.000
REMARK SMILES Cc1cc(O)c2c(c1)C(=O)c1cc(O)cc(O)c1C2=O
REMARK SMILES IDX 1 1 2 2 8 3 7 4 6 5 4 6 3 7 19 8 20 9 18 10 11 11 9 12 10 13
REMARK SMILES IDX 12 14 13 15 15 16 16 17 5 18 17 20 14 22
REMARK H PARENT 5 19 17 21 14 23
REMARK Flexibility Score: inf
ROOT
ATOM      1  C   UNL     1      49.957  19.392 215.457  1.00  0.00     0.044 C 
ATOM      2  C   UNL     1      48.801  18.961 214.602  1.00  0.00    -0.047 A 
ATOM      3  C   UNL     1      47.634  18.467 215.192  1.00  0.00     0.016 A 
ATOM      4  C   UNL     1      46.558  18.027 214.400  1.00  0.00     0.038 A 
ATOM      5  C   UNL     1      46.659  18.069 212.992  1.00  0.00     0.076 A 
ATOM      6  C   UNL     1      47.851  18.549 212.401  1.00  0.00     0.127 A 
ATOM      7  C   UNL     1      48.911  18.985 213.208  1.00  0.00     0.050 A 
ATOM      8  C   UNL     1      45.511  17.602 212.164  1.00  0.00     0.201 C 
ATOM      9  O   UNL     1      45.590  17.643 210.907  1.00  0.00    -0.288 OA
ATOM     10  C   UNL     1      44.269  17.088 212.810  1.00  0.00     0.076 A 
ATOM     11  C   UNL     1      44.188  17.050 214.219  1.00  0.00     0.041 A 
ATOM     12  C   UNL     1      45.325  17.518 215.044  1.00  0.00     0.194 C 
ATOM     13  O   UNL     1      45.243  17.483 216.303  1.00  0.00    -0.289 OA
ATOM     14  C   UNL     1      43.021  16.568 214.840  1.00  0.00     0.059 A 
ATOM     15  C   UNL     1      41.941  16.124 214.077  1.00  0.00     0.120 A 
ATOM     16  C   UNL     1      42.016  16.158 212.683  1.00  0.00     0.093 A 
ATOM     17  C   UNL     1      43.168  16.635 212.044  1.00  0.00     0.131 A 
ENDROOT
BRANCH   6  18
ATOM     18  O   UNL     1      47.994  18.597 211.013  1.00  0.00    -0.507 OA
ATOM     19  H   UNL     1      47.234  18.354 210.389  1.00  0.00     0.293 HD
ENDBRANCH   6  18
BRANCH  17  20
ATOM     20  O   UNL     1      43.209  16.655 210.648  1.00  0.00    -0.507 OA
ATOM     21  H   UNL     1      43.519  15.853 210.112  1.00  0.00     0.293 HD
ENDBRANCH  17  20
BRANCH  15  22
ATOM     22  O   UNL     1      40.798  15.651 214.716  1.00  0.00    -0.508 OA
ATOM     23  H   UNL     1      40.200  16.266 215.257  1.00  0.00     0.293 HD
ENDBRANCH  15  22
TORSDOF 3
ENDMDL
MODEL 3
REMARK VINA RESULT:    -5.208      1.747      6.497
REMARK INTER + INTRA:          -5.665
REMARK INTER:                  -5.665
REMARK INTRA:                   0.000
REMARK UNBOUND:                 0.000
REMARK SMILES Cc1cc(O)c2c(c1)C(=O)c1cc(O)cc(O)c1C2=O
REMARK SMILES IDX 1 1 2 2 8 3 7 4 6 5 4 6 3 7 19 8 20 9 18 10 11 11 9 12 10 13
REMARK SMILES IDX 12 14 13 15 15 16 16 17 5 18 17 20 14 22
REMARK H PARENT 5 19 17 21 14 23
REMARK Flexibility Score: inf
ROOT
ATOM      1  C   UNL     1      46.680  18.094 214.909  1.00  0.00     0.044 C 
ATOM      2  C   UNL     1      45.480  17.735 214.082  1.00  0.00    -0.047 A 
ATOM      3  C   UNL     1      44.259  17.447 214.699  1.00  0.00     0.016 A 
ATOM      4  C   UNL     1      43.137  17.075 213.937  1.00  0.00     0.038 A 
ATOM      5  C   UNL     1      43.244  16.974 212.532  1.00  0.00     0.076 A 
ATOM      6  C   UNL     1      44.489  17.244 211.915  1.00  0.00     0.127 A 
ATOM      7  C   UNL     1      45.594  17.616 212.693  1.00  0.00     0.050 A 
ATOM      8  C   UNL     1      42.048  16.580 211.735  1.00  0.00     0.201 C 
ATOM      9  O   UNL     1      42.133  16.496 210.481  1.00  0.00    -0.288 OA
ATOM     10  C   UNL     1      40.750  16.288 212.409  1.00  0.00     0.076 A 
ATOM     11  C   UNL     1      40.663  16.390 213.815  1.00  0.00     0.041 A 
ATOM     12  C   UNL     1      41.849  16.786 214.609  1.00  0.00     0.194 C 
ATOM     13  O   UNL     1      41.762  16.878 215.864  1.00  0.00    -0.289 OA
ATOM     14  C   UNL     1      39.444  16.117 214.461  1.00  0.00     0.059 A 
ATOM     15  C   UNL     1      38.318  15.744 213.728  1.00  0.00     0.120 A 
ATOM     16  C   UNL     1      38.399  15.640 212.338  1.00  0.00     0.093 A 
ATOM     17  C   UNL     1      39.602  15.908 211.673  1.00  0.00     0.131 A 
ENDROOT
BRANCH   6  18
ATOM     18  O   UNL     1      44.639  17.146 210.531  1.00  0.00    -0.507 OA
ATOM     19  H   UNL     1      45.240  16.449 210.106  1.00  0.00     0.293 HD
ENDBRANCH   6  18
BRANCH  17  20
ATOM     20  O   UNL     1      39.647  15.794 210.282  1.00  0.00    -0.507 OA
ATOM     21  H   UNL     1      38.886  16.113 209.695  1.00  0.00     0.293 HD
ENDBRANCH  17  20
BRANCH  15  22
ATOM     22  O   UNL     1      37.123  15.479 214.392  1.00  0.00    -0.508 OA
ATOM     23  H   UNL     1      36.968  14.602 214.877  1.00  0.00     0.293 HD
ENDBRANCH  15  22
TORSDOF 3
ENDMDL
MODEL 4
REMARK VINA RESULT:    -5.186      1.400      5.522
REMARK INTER + INTRA:          -5.641
REMARK INTER:                  -5.641
REMARK INTRA:                   0.000
REMARK UNBOUND:                 0.000
REMARK SMILES Cc1cc(O)c2c(c1)C(=O)c1cc(O)cc(O)c1C2=O
REMARK SMILES IDX 1 1 2 2 8 3 7 4 6 5 4 6 3 7 19 8 20 9 18 10 11 11 9 12 10 13
REMARK SMILES IDX 12 14 13 15 15 16 16 17 5 18 17 20 14 22
REMARK H PARENT 5 19 17 21 14 23
REMARK Flexibility Score: inf
ROOT
ATOM      1  C   UNL     1      47.663  18.380 211.937  1.00  0.00     0.044 C 
ATOM      2  C   UNL     1      46.342  17.896 212.460  1.00  0.00    -0.047 A 
ATOM      3  C   UNL     1      45.282  17.654 211.580  1.00  0.00     0.016 A 
ATOM      4  C   UNL     1      44.029  17.234 212.061  1.00  0.00     0.038 A 
ATOM      5  C   UNL     1      43.829  17.069 213.449  1.00  0.00     0.076 A 
ATOM      6  C   UNL     1      44.899  17.338 214.336  1.00  0.00     0.127 A 
ATOM      7  C   UNL     1      46.140  17.753 213.836  1.00  0.00     0.050 A 
ATOM      8  C   UNL     1      42.497  16.622 213.946  1.00  0.00     0.201 C 
ATOM      9  O   UNL     1      42.313  16.465 215.183  1.00  0.00    -0.288 OA
ATOM     10  C   UNL     1      41.381  16.357 212.994  1.00  0.00     0.076 A 
ATOM     11  C   UNL     1      41.599  16.532 211.609  1.00  0.00     0.041 A 
ATOM     12  C   UNL     1      42.923  16.971 211.112  1.00  0.00     0.194 C 
ATOM     13  O   UNL     1      43.110  17.122 209.873  1.00  0.00    -0.289 OA
ATOM     14  C   UNL     1      40.554  16.284 210.700  1.00  0.00     0.059 A 
ATOM     15  C   UNL     1      39.301  15.870 211.152  1.00  0.00     0.120 A 
ATOM     16  C   UNL     1      39.080  15.697 212.520  1.00  0.00     0.093 A 
ATOM     17  C   UNL     1      40.106  15.937 213.443  1.00  0.00     0.131 A 
ENDROOT
BRANCH   6  18
ATOM     18  O   UNL     1      44.738  17.196 215.715  1.00  0.00    -0.507 OA
ATOM     19  H   UNL     1      44.267  17.898 216.274  1.00  0.00     0.293 HD
ENDBRANCH   6  18
BRANCH  17  20
ATOM     20  O   UNL     1      39.850  15.754 214.804  1.00  0.00    -0.507 OA
ATOM     21  H   UNL     1      40.489  16.087 215.516  1.00  0.00     0.293 HD
ENDBRANCH  17  20
BRANCH  15  22
ATOM     22  O   UNL     1      38.283  15.632 210.232  1.00  0.00    -0.508 OA
ATOM     23  H   UNL     1      38.345  15.964 209.276  1.00  0.00     0.293 HD
ENDBRANCH  15  22
TORSDOF 3
ENDMDL
MODEL 5
REMARK VINA RESULT:    -5.171      1.645      2.211
REMARK INTER + INTRA:          -5.624
REMARK INTER:                  -5.624
REMARK INTRA:                   0.000
REMARK UNBOUND:                 0.000
REMARK SMILES Cc1cc(O)c2c(c1)C(=O)c1cc(O)cc(O)c1C2=O
REMARK SMILES IDX 1 1 2 2 8 3 7 4 6 5 4 6 3 7 19 8 20 9 18 10 11 11 9 12 10 13
REMARK SMILES IDX 12 14 13 15 15 16 16 17 5 18 17 20 14 22
REMARK H PARENT 5 19 17 21 14 23
REMARK Flexibility Score: inf
ROOT
ATOM      1  C   UNL     1      40.721  15.781 209.835  1.00  0.00     0.044 C 
ATOM      2  C   UNL     1      41.357  16.047 211.169  1.00  0.00    -0.047 A 
ATOM      3  C   UNL     1      42.658  16.556 211.240  1.00  0.00     0.016 A 
ATOM      4  C   UNL     1      43.277  16.775 212.484  1.00  0.00     0.038 A 
ATOM      5  C   UNL     1      42.587  16.467 213.677  1.00  0.00     0.076 A 
ATOM      6  C   UNL     1      41.279  15.931 213.597  1.00  0.00     0.127 A 
ATOM      7  C   UNL     1      40.679  15.722 212.348  1.00  0.00     0.050 A 
ATOM      8  C   UNL     1      43.253  16.706 214.988  1.00  0.00     0.201 C 
ATOM      9  O   UNL     1      42.641  16.440 216.057  1.00  0.00    -0.288 OA
ATOM     10  C   UNL     1      44.636  17.259 215.047  1.00  0.00     0.076 A 
ATOM     11  C   UNL     1      45.312  17.558 213.843  1.00  0.00     0.041 A 
ATOM     12  C   UNL     1      44.651  17.326 212.539  1.00  0.00     0.194 C 
ATOM     13  O   UNL     1      45.261  17.599 211.469  1.00  0.00    -0.289 OA
ATOM     14  C   UNL     1      46.618  18.081 213.886  1.00  0.00     0.059 A 
ATOM     15  C   UNL     1      47.254  18.305 215.106  1.00  0.00     0.120 A 
ATOM     16  C   UNL     1      46.591  18.011 216.299  1.00  0.00     0.093 A 
ATOM     17  C   UNL     1      45.291  17.490 216.281  1.00  0.00     0.131 A 
ENDROOT
BRANCH   6  18
ATOM     18  O   UNL     1      40.567  15.604 214.752  1.00  0.00    -0.507 OA
ATOM     19  H   UNL     1      39.765  16.143 215.057  1.00  0.00     0.293 HD
ENDBRANCH   6  18
BRANCH  17  20
ATOM     20  O   UNL     1      44.657  17.206 217.492  1.00  0.00    -0.507 OA
ATOM     21  H   UNL     1      44.108  16.365 217.623  1.00  0.00     0.293 HD
ENDBRANCH  17  20
BRANCH  15  22
ATOM     22  O   UNL     1      48.547  18.824 215.121  1.00  0.00    -0.508 OA
ATOM     23  H   UNL     1      49.342  18.257 215.393  1.00  0.00     0.293 HD
ENDBRANCH  15  22
TORSDOF 3
ENDMDL
MODEL 6
REMARK VINA RESULT:    -5.049      1.731      5.618
REMARK INTER + INTRA:          -5.491
REMARK INTER:                  -5.491
REMARK INTRA:                   0.000
REMARK UNBOUND:                 0.000
REMARK SMILES Cc1cc(O)c2c(c1)C(=O)c1cc(O)cc(O)c1C2=O
REMARK SMILES IDX 1 1 2 2 8 3 7 4 6 5 4 6 3 7 19 8 20 9 18 10 11 11 9 12 10 13
REMARK SMILES IDX 12 14 13 15 15 16 16 17 5 18 17 20 14 22
REMARK H PARENT 5 19 17 21 14 23
REMARK Flexibility Score: inf
ROOT
ATOM      1  C   UNL     1      48.635  18.968 215.115  1.00  0.00     0.044 C 
ATOM      2  C   UNL     1      47.266  18.352 215.092  1.00  0.00    -0.047 A 
ATOM      3  C   UNL     1      46.619  18.119 213.874  1.00  0.00     0.016 A 
ATOM      4  C   UNL     1      45.323  17.575 213.840  1.00  0.00     0.038 A 
ATOM      5  C   UNL     1      44.657  17.272 215.048  1.00  0.00     0.076 A 
ATOM      6  C   UNL     1      45.308  17.530 216.278  1.00  0.00     0.127 A 
ATOM      7  C   UNL     1      46.601  18.071 216.289  1.00  0.00     0.050 A 
ATOM      8  C   UNL     1      43.284  16.694 214.999  1.00  0.00     0.201 C 
ATOM      9  O   UNL     1      42.686  16.413 216.072  1.00  0.00    -0.288 OA
ATOM     10  C   UNL     1      42.613  16.442 213.692  1.00  0.00     0.076 A 
ATOM     11  C   UNL     1      43.293  16.755 212.494  1.00  0.00     0.041 A 
ATOM     12  C   UNL     1      44.659  17.325 212.540  1.00  0.00     0.194 C 
ATOM     13  O   UNL     1      45.261  17.600 211.465  1.00  0.00    -0.289 OA
ATOM     14  C   UNL     1      42.670  16.522 211.255  1.00  0.00     0.059 A 
ATOM     15  C   UNL     1      41.384  15.986 211.195  1.00  0.00     0.120 A 
ATOM     16  C   UNL     1      40.707  15.675 212.375  1.00  0.00     0.093 A 
ATOM     17  C   UNL     1      41.307  15.898 213.621  1.00  0.00     0.131 A 
ENDROOT
BRANCH   6  18
ATOM     18  O   UNL     1      44.680  17.254 217.493  1.00  0.00    -0.507 OA
ATOM     19  H   UNL     1      43.876  16.640 217.552  1.00  0.00     0.293 HD
ENDBRANCH   6  18
BRANCH  17  20
ATOM     20  O   UNL     1      40.601  15.577 214.782  1.00  0.00    -0.507 OA
ATOM     21  H   UNL     1      40.640  16.160 215.609  1.00  0.00     0.293 HD
ENDBRANCH  17  20
BRANCH  15  22
ATOM     22  O   UNL     1      40.789  15.764 209.955  1.00  0.00    -0.508 OA
ATOM     23  H   UNL     1      40.685  14.829 209.576  1.00  0.00     0.293 HD
ENDBRANCH  15  22
TORSDOF 3
ENDMDL
MODEL 7
REMARK VINA RESULT:    -5.039      2.578      4.702
REMARK INTER + INTRA:          -5.480
REMARK INTER:                  -5.480
REMARK INTRA:                   0.000
REMARK UNBOUND:                 0.000
REMARK SMILES Cc1cc(O)c2c(c1)C(=O)c1cc(O)cc(O)c1C2=O
REMARK SMILES IDX 1 1 2 2 8 3 7 4 6 5 4 6 3 7 19 8 20 9 18 10 11 11 9 12 10 13
REMARK SMILES IDX 12 14 13 15 15 16 16 17 5 18 17 20 14 22
REMARK H PARENT 5 19 17 21 14 23
REMARK Flexibility Score: inf
ROOT
ATOM      1  C   UNL     1      45.085  16.607 218.701  1.00  0.00     0.044 C 
ATOM      2  C   UNL     1      44.799  16.687 217.230  1.00  0.00    -0.047 A 
ATOM      3  C   UNL     1      45.697  17.330 216.372  1.00  0.00     0.016 A 
ATOM      4  C   UNL     1      45.424  17.443 214.997  1.00  0.00     0.038 A 
ATOM      5  C   UNL     1      44.222  16.916 214.474  1.00  0.00     0.076 A 
ATOM      6  C   UNL     1      43.307  16.287 215.351  1.00  0.00     0.127 A 
ATOM      7  C   UNL     1      43.600  16.183 216.717  1.00  0.00     0.050 A 
ATOM      8  C   UNL     1      43.944  17.041 213.015  1.00  0.00     0.201 C 
ATOM      9  O   UNL     1      42.878  16.566 212.539  1.00  0.00    -0.288 OA
ATOM     10  C   UNL     1      44.918  17.719 212.113  1.00  0.00     0.076 A 
ATOM     11  C   UNL     1      46.113  18.243 212.654  1.00  0.00     0.041 A 
ATOM     12  C   UNL     1      46.393  18.117 214.102  1.00  0.00     0.194 C 
ATOM     13  O   UNL     1      47.464  18.585 214.578  1.00  0.00    -0.289 OA
ATOM     14  C   UNL     1      47.039  18.885 211.812  1.00  0.00     0.059 A 
ATOM     15  C   UNL     1      46.790  19.012 210.446  1.00  0.00     0.120 A 
ATOM     16  C   UNL     1      45.610  18.497 209.906  1.00  0.00     0.093 A 
ATOM     17  C   UNL     1      44.674  17.853 210.724  1.00  0.00     0.131 A 
ENDROOT
BRANCH   6  18
ATOM     18  O   UNL     1      42.104  15.762 214.876  1.00  0.00    -0.507 OA
ATOM     19  H   UNL     1      41.387  16.352 214.470  1.00  0.00     0.293 HD
ENDBRANCH   6  18
BRANCH  17  20
ATOM     20  O   UNL     1      43.504  17.350 210.151  1.00  0.00    -0.507 OA
ATOM     21  H   UNL     1      42.629  17.860 210.188  1.00  0.00     0.293 HD
ENDBRANCH  17  20
BRANCH  15  22
ATOM     22  O   UNL     1      47.723  19.652 209.634  1.00  0.00    -0.508 OA
ATOM     23  H   UNL     1      48.531  20.125 210.025  1.00  0.00     0.293 HD
ENDBRANCH  15  22
TORSDOF 3
ENDMDL
MODEL 8
REMARK VINA RESULT:    -4.943      1.841      3.982
REMARK INTER + INTRA:          -5.376
REMARK INTER:                  -5.376
REMARK INTRA:                   0.000
REMARK UNBOUND:                 0.000
REMARK SMILES Cc1cc(O)c2c(c1)C(=O)c1cc(O)cc(O)c1C2=O
REMARK SMILES IDX 1 1 2 2 8 3 7 4 6 5 4 6 3 7 19 8 20 9 18 10 11 11 9 12 10 13
REMARK SMILES IDX 12 14 13 15 15 16 16 17 5 18 17 20 14 22
REMARK H PARENT 5 19 17 21 14 23
REMARK Flexibility Score: inf
ROOT
ATOM      1  C   UNL     1      40.378  16.132 214.043  1.00  0.00     0.044 C 
ATOM      2  C   UNL     1      41.752  16.475 213.547  1.00  0.00    -0.047 A 
ATOM      3  C   UNL     1      42.744  16.882 214.444  1.00  0.00     0.016 A 
ATOM      4  C   UNL     1      44.025  17.240 213.987  1.00  0.00     0.038 A 
ATOM      5  C   UNL     1      44.313  17.204 212.605  1.00  0.00     0.076 A 
ATOM      6  C   UNL     1      43.298  16.813 211.699  1.00  0.00     0.127 A 
ATOM      7  C   UNL     1      42.029  16.459 212.176  1.00  0.00     0.050 A 
ATOM      8  C   UNL     1      45.675  17.584 212.133  1.00  0.00     0.201 C 
ATOM      9  O   UNL     1      45.942  17.547 210.902  1.00  0.00    -0.288 OA
ATOM     10  C   UNL     1      46.725  18.005 213.105  1.00  0.00     0.076 A 
ATOM     11  C   UNL     1      46.417  18.038 214.483  1.00  0.00     0.041 A 
ATOM     12  C   UNL     1      45.067  17.656 214.955  1.00  0.00     0.194 C 
ATOM     13  O   UNL     1      44.801  17.686 216.188  1.00  0.00    -0.289 OA
ATOM     14  C   UNL     1      47.400  18.433 215.409  1.00  0.00     0.059 A 
ATOM     15  C   UNL     1      48.676  18.795 214.981  1.00  0.00     0.120 A 
ATOM     16  C   UNL     1      48.986  18.765 213.620  1.00  0.00     0.093 A 
ATOM     17  C   UNL     1      48.024  18.374 212.679  1.00  0.00     0.131 A 
ENDROOT
BRANCH   6  18
ATOM     18  O   UNL     1      43.540  16.775 210.326  1.00  0.00    -0.507 OA
ATOM     19  H   UNL     1      43.036  17.368 209.677  1.00  0.00     0.293 HD
ENDBRANCH   6  18
BRANCH  17  20
ATOM     20  O   UNL     1      48.367  18.356 211.326  1.00  0.00    -0.507 OA
ATOM     21  H   UNL     1      48.137  19.125 210.707  1.00  0.00     0.293 HD
ENDBRANCH  17  20
BRANCH  15  22
ATOM     22  O   UNL     1      49.631  19.182 215.918  1.00  0.00    -0.508 OA
ATOM     23  H   UNL     1      50.586  18.845 215.872  1.00  0.00     0.293 HD
ENDBRANCH  15  22
TORSDOF 3
ENDMDL
MODEL 9
REMARK VINA RESULT:    -4.918      1.455      3.358
REMARK INTER + INTRA:          -5.349
REMARK INTER:                  -5.349
REMARK INTRA:                   0.000
REMARK UNBOUND:                 0.000
REMARK SMILES Cc1cc(O)c2c(c1)C(=O)c1cc(O)cc(O)c1C2=O
REMARK SMILES IDX 1 1 2 2 8 3 7 4 6 5 4 6 3 7 19 8 20 9 18 10 11 11 9 12 10 13
REMARK SMILES IDX 12 14 13 15 15 16 16 17 5 18 17 20 14 22
REMARK H PARENT 5 19 17 21 14 23
REMARK Flexibility Score: inf
ROOT
ATOM      1  C   UNL     1      37.130  15.488 213.271  1.00  0.00     0.044 C 
ATOM      2  C   UNL     1      38.531  15.761 212.806  1.00  0.00    -0.047 A 
ATOM      3  C   UNL     1      39.518  16.133 213.724  1.00  0.00     0.016 A 
ATOM      4  C   UNL     1      40.825  16.427 213.296  1.00  0.00     0.038 A 
ATOM      5  C   UNL     1      41.146  16.360 211.922  1.00  0.00     0.076 A 
ATOM      6  C   UNL     1      40.137  16.005 210.995  1.00  0.00     0.127 A 
ATOM      7  C   UNL     1      38.841  15.715 211.443  1.00  0.00     0.050 A 
ATOM      8  C   UNL     1      42.535  16.672 211.481  1.00  0.00     0.201 C 
ATOM      9  O   UNL     1      42.831  16.607 210.258  1.00  0.00    -0.288 OA
ATOM     10  C   UNL     1      43.578  17.056 212.474  1.00  0.00     0.076 A 
ATOM     11  C   UNL     1      43.238  17.121 213.844  1.00  0.00     0.041 A 
ATOM     12  C   UNL     1      41.860  16.808 214.285  1.00  0.00     0.194 C 
ATOM     13  O   UNL     1      41.565  16.865 215.511  1.00  0.00    -0.289 OA
ATOM     14  C   UNL     1      44.214  17.482 214.791  1.00  0.00     0.059 A 
ATOM     15  C   UNL     1      45.516  17.780 214.391  1.00  0.00     0.120 A 
ATOM     16  C   UNL     1      45.858  17.719 213.039  1.00  0.00     0.093 A 
ATOM     17  C   UNL     1      44.903  17.361 212.078  1.00  0.00     0.131 A 
ENDROOT
BRANCH   6  18
ATOM     18  O   UNL     1      40.411  15.938 209.629  1.00  0.00    -0.507 OA
ATOM     19  H   UNL     1      41.314  15.640 209.278  1.00  0.00     0.293 HD
ENDBRANCH   6  18
BRANCH  17  20
ATOM     20  O   UNL     1      45.279  17.310 210.735  1.00  0.00    -0.507 OA
ATOM     21  H   UNL     1      44.883  16.631 210.095  1.00  0.00     0.293 HD
ENDBRANCH  17  20
BRANCH  15  22
ATOM     22  O   UNL     1      46.464  18.135 215.348  1.00  0.00    -0.508 OA
ATOM     23  H   UNL     1      47.456  18.002 215.187  1.00  0.00     0.293 HD
ENDBRANCH  15  22
TORSDOF 3
ENDMDL
