MODEL 1
REMARK VINA RESULT:    -5.033      0.000      0.000
REMARK INTER + INTRA:          -5.474
REMARK INTER:                  -5.328
REMARK INTRA:                  -0.146
REMARK UNBOUND:                -0.146
REMARK SMILES CC(C)[C@H]1CC[C@@H](C)CC1=O
REMARK SMILES IDX 8 1 7 2 6 3 5 4 4 5 10 6 11 7 9 8 2 9 1 10 3 11
REMARK H PARENT
REMARK Flexibility Score: inf
ROOT
ATOM      1  C   UNL     1      81.224   4.972   7.973  1.00  0.00     0.008 C 
ATOM      2  C   UNL     1      82.275   4.778   9.078  1.00  0.00    -0.007 C 
ATOM      3  C   UNL     1      83.707   5.065   8.578  1.00  0.00     0.004 C 
ATOM      4  C   UNL     1      84.207   4.003   7.584  1.00  0.00     0.012 C 
ATOM      5  C   UNL     1      84.149   2.580   8.189  1.00  0.00     0.058 C 
ATOM      6  C   UNL     1      82.776   2.331   8.790  1.00  0.00     0.136 C 
ATOM      7  O   UNL     1      82.198   1.266   8.637  1.00  0.00    -0.299 OA
ATOM      8  C   UNL     1      82.181   3.371   9.701  1.00  0.00     0.079 C 
ENDROOT
BRANCH   5   9
ATOM      9  C   UNL     1      84.593   1.465   7.189  1.00  0.00    -0.007 C 
ATOM     10  C   UNL     1      85.251   2.009   5.908  1.00  0.00     0.008 C 
ATOM     11  C   UNL     1      85.515   0.434   7.858  1.00  0.00     0.008 C 
ENDBRANCH   5   9
TORSDOF 1
ENDMDL
MODEL 2
REMARK VINA RESULT:    -4.814     14.976     16.391
REMARK INTER + INTRA:          -5.241
REMARK INTER:                  -5.184
REMARK INTRA:                  -0.057
REMARK UNBOUND:                -0.146
REMARK SMILES CC(C)[C@H]1CC[C@@H](C)CC1=O
REMARK SMILES IDX 8 1 7 2 6 3 5 4 4 5 10 6 11 7 9 8 2 9 1 10 3 11
REMARK H PARENT
REMARK Flexibility Score: inf
ROOT
ATOM      1  C   UNL     1      73.638   1.680  -0.332  1.00  0.00     0.008 C 
ATOM      2  C   UNL     1      72.148   1.744   0.043  1.00  0.00    -0.007 C 
ATOM      3  C   UNL     1      71.464   0.362  -0.045  1.00  0.00     0.004 C 
ATOM      4  C   UNL     1      71.324  -0.134  -1.493  1.00  0.00     0.012 C 
ATOM      5  C   UNL     1      70.554   0.877  -2.374  1.00  0.00     0.058 C 
ATOM      6  C   UNL     1      71.146   2.266  -2.204  1.00  0.00     0.136 C 
ATOM      7  O   UNL     1      71.321   3.006  -3.160  1.00  0.00    -0.299 OA
ATOM      8  C   UNL     1      71.398   2.784  -0.813  1.00  0.00     0.079 C 
ENDROOT
BRANCH   5   9
ATOM      9  C   UNL     1      70.442   0.437  -3.869  1.00  0.00    -0.007 C 
ATOM     10  C   UNL     1      70.584  -1.081  -4.078  1.00  0.00     0.008 C 
ATOM     11  C   UNL     1      69.141   0.938  -4.515  1.00  0.00     0.008 C 
ENDBRANCH   5   9
TORSDOF 1
ENDMDL
MODEL 3
REMARK VINA RESULT:    -4.612     13.398     14.942
REMARK INTER + INTRA:          -5.028
REMARK INTER:                  -4.895
REMARK INTRA:                  -0.133
REMARK UNBOUND:                -0.146
REMARK SMILES CC(C)[C@H]1CC[C@@H](C)CC1=O
REMARK SMILES IDX 8 1 7 2 6 3 5 4 4 5 10 6 11 7 9 8 2 9 1 10 3 11
REMARK H PARENT
REMARK Flexibility Score: inf
ROOT
ATOM      1  C   UNL     1      71.005   3.522  -2.334  1.00  0.00     0.008 C 
ATOM      2  C   UNL     1      71.287   2.037  -2.614  1.00  0.00    -0.007 C 
ATOM      3  C   UNL     1      70.270   1.109  -1.916  1.00  0.00     0.004 C 
ATOM      4  C   UNL     1      70.434   1.098  -0.388  1.00  0.00     0.012 C 
ATOM      5  C   UNL     1      71.869   0.697   0.031  1.00  0.00     0.058 C 
ATOM      6  C   UNL     1      72.883   1.526  -0.739  1.00  0.00     0.136 C 
ATOM      7  O   UNL     1      73.869   1.995  -0.193  1.00  0.00    -0.299 OA
ATOM      8  C   UNL     1      72.731   1.658  -2.231  1.00  0.00     0.079 C 
ENDROOT
BRANCH   5   9
ATOM      9  C   UNL     1      72.095   0.732   1.577  1.00  0.00    -0.007 C 
ATOM     10  C   UNL     1      71.554   2.006   2.251  1.00  0.00     0.008 C 
ATOM     11  C   UNL     1      71.519  -0.514   2.266  1.00  0.00     0.008 C 
ENDBRANCH   5   9
TORSDOF 1
ENDMDL
MODEL 4
REMARK VINA RESULT:    -4.561     14.771     16.899
REMARK INTER + INTRA:          -4.973
REMARK INTER:                  -4.908
REMARK INTRA:                  -0.066
REMARK UNBOUND:                -0.146
REMARK SMILES CC(C)[C@H]1CC[C@@H](C)CC1=O
REMARK SMILES IDX 8 1 7 2 6 3 5 4 4 5 10 6 11 7 9 8 2 9 1 10 3 11
REMARK H PARENT
REMARK Flexibility Score: inf
ROOT
ATOM      1  C   UNL     1      81.125  -1.661  -7.907  1.00  0.00     0.008 C 
ATOM      2  C   UNL     1      82.328  -1.758  -8.860  1.00  0.00    -0.007 C 
ATOM      3  C   UNL     1      83.647  -2.034  -8.107  1.00  0.00     0.004 C 
ATOM      4  C   UNL     1      84.107  -0.831  -7.265  1.00  0.00     0.012 C 
ATOM      5  C   UNL     1      84.262   0.445  -8.127  1.00  0.00     0.058 C 
ATOM      6  C   UNL     1      83.012   0.659  -8.962  1.00  0.00     0.136 C 
ATOM      7  O   UNL     1      82.519   1.769  -9.098  1.00  0.00    -0.299 OA
ATOM      8  C   UNL     1      82.450  -0.500  -9.741  1.00  0.00     0.079 C 
ENDROOT
BRANCH   5   9
ATOM      9  C   UNL     1      84.671   1.704  -7.298  1.00  0.00    -0.007 C 
ATOM     10  C   UNL     1      85.354   1.369  -5.960  1.00  0.00     0.008 C 
ATOM     11  C   UNL     1      85.551   2.663  -8.114  1.00  0.00     0.008 C 
ENDBRANCH   5   9
TORSDOF 1
ENDMDL
MODEL 5
REMARK VINA RESULT:    -4.521      1.109      3.956
REMARK INTER + INTRA:          -4.931
REMARK INTER:                  -4.787
REMARK INTRA:                  -0.144
REMARK UNBOUND:                -0.146
REMARK SMILES CC(C)[C@H]1CC[C@@H](C)CC1=O
REMARK SMILES IDX 8 1 7 2 6 3 5 4 4 5 10 6 11 7 9 8 2 9 1 10 3 11
REMARK H PARENT
REMARK Flexibility Score: inf
ROOT
ATOM      1  C   UNL     1      85.934   1.622   8.894  1.00  0.00     0.008 C 
ATOM      2  C   UNL     1      84.961   1.487   7.711  1.00  0.00    -0.007 C 
ATOM      3  C   UNL     1      84.927   2.760   6.837  1.00  0.00     0.004 C 
ATOM      4  C   UNL     1      84.265   3.948   7.554  1.00  0.00     0.012 C 
ATOM      5  C   UNL     1      82.831   3.607   8.024  1.00  0.00     0.058 C 
ATOM      6  C   UNL     1      82.836   2.293   8.786  1.00  0.00     0.136 C 
ATOM      7  O   UNL     1      82.192   2.150   9.814  1.00  0.00    -0.299 OA
ATOM      8  C   UNL     1      83.546   1.108   8.187  1.00  0.00     0.079 C 
ENDROOT
BRANCH   5   9
ATOM      9  C   UNL     1      82.146   4.770   8.811  1.00  0.00    -0.007 C 
ATOM     10  C   UNL     1      82.901   6.108   8.719  1.00  0.00     0.008 C 
ATOM     11  C   UNL     1      80.682   4.961   8.385  1.00  0.00     0.008 C 
ENDBRANCH   5   9
TORSDOF 1
ENDMDL
MODEL 6
REMARK VINA RESULT:    -4.432     13.855     15.262
REMARK INTER + INTRA:          -4.837
REMARK INTER:                  -4.981
REMARK INTRA:                   0.144
REMARK UNBOUND:                -0.146
REMARK SMILES CC(C)[C@H]1CC[C@@H](C)CC1=O
REMARK SMILES IDX 8 1 7 2 6 3 5 4 4 5 10 6 11 7 9 8 2 9 1 10 3 11
REMARK H PARENT
REMARK Flexibility Score: inf
ROOT
ATOM      1  C   UNL     1      70.118   1.171  -3.695  1.00  0.00     0.008 C 
ATOM      2  C   UNL     1      70.111   2.396  -2.766  1.00  0.00    -0.007 C 
ATOM      3  C   UNL     1      71.491   3.086  -2.700  1.00  0.00     0.004 C 
ATOM      4  C   UNL     1      72.539   2.235  -1.963  1.00  0.00     0.012 C 
ATOM      5  C   UNL     1      72.077   1.869  -0.533  1.00  0.00     0.058 C 
ATOM      6  C   UNL     1      70.670   1.298  -0.575  1.00  0.00     0.136 C 
ATOM      7  O   UNL     1      70.357   0.324   0.093  1.00  0.00    -0.299 OA
ATOM      8  C   UNL     1      69.611   2.029  -1.356  1.00  0.00     0.079 C 
ENDROOT
BRANCH   5   9
ATOM      9  C   UNL     1      73.088   0.955   0.229  1.00  0.00    -0.007 C 
ATOM     10  C   UNL     1      74.563   1.288  -0.061  1.00  0.00     0.008 C 
ATOM     11  C   UNL     1      72.835   0.962   1.744  1.00  0.00     0.008 C 
ENDBRANCH   5   9
TORSDOF 1
ENDMDL
MODEL 7
REMARK VINA RESULT:    -4.282     14.553     16.680
REMARK INTER + INTRA:          -4.679
REMARK INTER:                  -4.676
REMARK INTRA:                  -0.003
REMARK UNBOUND:                -0.146
REMARK SMILES CC(C)[C@H]1CC[C@@H](C)CC1=O
REMARK SMILES IDX 8 1 7 2 6 3 5 4 4 5 10 6 11 7 9 8 2 9 1 10 3 11
REMARK H PARENT
REMARK Flexibility Score: inf
ROOT
ATOM      1  C   UNL     1      83.364  -1.743 -10.125  1.00  0.00     0.008 C 
ATOM      2  C   UNL     1      82.572  -1.296  -8.885  1.00  0.00    -0.007 C 
ATOM      3  C   UNL     1      82.163   0.191  -8.960  1.00  0.00     0.004 C 
ATOM      4  C   UNL     1      83.366   1.139  -8.829  1.00  0.00     0.012 C 
ATOM      5  C   UNL     1      84.155   0.888  -7.522  1.00  0.00     0.058 C 
ATOM      6  C   UNL     1      84.460  -0.594  -7.380  1.00  0.00     0.136 C 
ATOM      7  O   UNL     1      85.553  -0.985  -7.001  1.00  0.00    -0.299 OA
ATOM      8  C   UNL     1      83.349  -1.588  -7.587  1.00  0.00     0.079 C 
ENDROOT
BRANCH   5   9
ATOM      9  C   UNL     1      85.421   1.792  -7.379  1.00  0.00    -0.007 C 
ATOM     10  C   UNL     1      85.306   3.137  -8.118  1.00  0.00     0.008 C 
ATOM     11  C   UNL     1      85.789   2.029  -5.907  1.00  0.00     0.008 C 
ENDBRANCH   5   9
TORSDOF 1
ENDMDL
MODEL 8
REMARK VINA RESULT:    -4.276      1.747      2.660
REMARK INTER + INTRA:          -4.672
REMARK INTER:                  -4.570
REMARK INTRA:                  -0.102
REMARK UNBOUND:                -0.146
REMARK SMILES CC(C)[C@H]1CC[C@@H](C)CC1=O
REMARK SMILES IDX 8 1 7 2 6 3 5 4 4 5 10 6 11 7 9 8 2 9 1 10 3 11
REMARK H PARENT
REMARK Flexibility Score: inf
ROOT
ATOM      1  C   UNL     1      83.358   4.504  10.125  1.00  0.00     0.008 C 
ATOM      2  C   UNL     1      82.647   4.177   8.801  1.00  0.00    -0.007 C 
ATOM      3  C   UNL     1      82.256   2.687   8.703  1.00  0.00     0.004 C 
ATOM      4  C   UNL     1      83.478   1.766   8.550  1.00  0.00     0.012 C 
ATOM      5  C   UNL     1      84.338   2.155   7.324  1.00  0.00     0.058 C 
ATOM      6  C   UNL     1      84.630   3.645   7.350  1.00  0.00     0.136 C 
ATOM      7  O   UNL     1      85.738   4.082   7.078  1.00  0.00    -0.299 OA
ATOM      8  C   UNL     1      83.495   4.605   7.588  1.00  0.00     0.079 C 
ENDROOT
BRANCH   5   9
ATOM      9  C   UNL     1      85.623   1.280   7.168  1.00  0.00    -0.007 C 
ATOM     10  C   UNL     1      85.568  -0.045   7.949  1.00  0.00     0.008 C 
ATOM     11  C   UNL     1      85.952   1.008   5.693  1.00  0.00     0.008 C 
ENDBRANCH   5   9
TORSDOF 1
ENDMDL
