MODEL 1
REMARK VINA RESULT:    -4.295      0.000      0.000
REMARK INTER + INTRA:          -5.294
REMARK INTER:                  -5.174
REMARK INTRA:                  -0.120
REMARK UNBOUND:                -0.120
REMARK SMILES CC[C@@H](C)[C@H]([NH3+])C(=O)[O-]
REMARK SMILES IDX 3 1 4 2 5 3 6 4 7 8 8 9 9 10 2 11 1 12
REMARK H PARENT 6 5 6 6 6 7
REMARK Flexibility Score: inf
ROOT
ATOM      1  C   UNL     1     172.382 171.380 207.833  1.00  0.00     0.050 C 
ATOM      2  C   UNL     1     173.486 170.692 208.655  1.00  0.00     0.014 C 
ENDROOT
BRANCH   1   3
ATOM      3  C   UNL     1     172.006 172.789 208.393  1.00  0.00     0.230 C 
BRANCH   3   4
ATOM      4  N   UNL     1     173.128 173.404 209.119  1.00  0.00    -0.350 N 
ATOM      5  H   UNL     1     173.918 172.730 209.237  1.00  0.00     0.345 HD
ATOM      6  H   UNL     1     172.807 173.713 210.066  1.00  0.00     0.345 HD
ATOM      7  H   UNL     1     173.470 174.247 208.602  1.00  0.00     0.345 HD
ENDBRANCH   3   4
BRANCH   3   8
ATOM      8  C   UNL     1     170.737 172.813 209.219  1.00  0.00     0.099 C 
ATOM      9  O   UNL     1     170.747 172.496 210.437  1.00  0.00    -0.544 OA
ATOM     10  O   UNL     1     169.545 173.231 208.639  1.00  0.00    -0.544 OA
ENDBRANCH   3   8
ENDBRANCH   1   3
BRANCH   1  11
ATOM     11  C   UNL     1     172.659 171.296 206.307  1.00  0.00     0.006 C 
ATOM     12  C   UNL     1     172.123 172.458 205.472  1.00  0.00     0.004 C 
ENDBRANCH   1  11
TORSDOF 4
ENDMDL
MODEL 2
REMARK VINA RESULT:    -4.186      2.150      2.994
REMARK INTER + INTRA:          -5.163
REMARK INTER:                  -5.102
REMARK INTRA:                  -0.061
REMARK UNBOUND:                -0.120
REMARK SMILES CC[C@@H](C)[C@H]([NH3+])C(=O)[O-]
REMARK SMILES IDX 3 1 4 2 5 3 6 4 7 8 8 9 9 10 2 11 1 12
REMARK H PARENT 6 5 6 6 6 7
REMARK Flexibility Score: inf
ROOT
ATOM      1  C   UNL     1     172.176 171.638 205.726  1.00  0.00     0.050 C 
ATOM      2  C   UNL     1     172.649 172.774 204.802  1.00  0.00     0.014 C 
ENDROOT
BRANCH   1   3
ATOM      3  C   UNL     1     172.092 172.078 207.223  1.00  0.00     0.230 C 
BRANCH   3   4
ATOM      4  N   UNL     1     172.980 173.216 207.507  1.00  0.00    -0.350 N 
ATOM      5  H   UNL     1     173.778 173.253 206.832  1.00  0.00     0.345 HD
ATOM      6  H   UNL     1     173.366 173.128 208.476  1.00  0.00     0.345 HD
ATOM      7  H   UNL     1     172.443 174.112 207.453  1.00  0.00     0.345 HD
ENDBRANCH   3   4
BRANCH   3   8
ATOM      8  C   UNL     1     172.303 170.954 208.215  1.00  0.00     0.099 C 
ATOM      9  O   UNL     1     171.326 170.348 208.730  1.00  0.00    -0.544 OA
ATOM     10  O   UNL     1     173.593 170.550 208.536  1.00  0.00    -0.544 OA
ENDBRANCH   3   8
ENDBRANCH   1   3
BRANCH   1  11
ATOM     11  C   UNL     1     170.934 170.904 205.152  1.00  0.00     0.006 C 
ATOM     12  C   UNL     1     171.152 170.169 203.829  1.00  0.00     0.004 C 
ENDBRANCH   1  11
TORSDOF 4
ENDMDL
MODEL 3
REMARK VINA RESULT:    -4.138      2.366      3.148
REMARK INTER + INTRA:          -5.105
REMARK INTER:                  -4.990
REMARK INTRA:                  -0.115
REMARK UNBOUND:                -0.120
REMARK SMILES CC[C@@H](C)[C@H]([NH3+])C(=O)[O-]
REMARK SMILES IDX 3 1 4 2 5 3 6 4 7 8 8 9 9 10 2 11 1 12
REMARK H PARENT 6 5 6 6 6 7
REMARK Flexibility Score: inf
ROOT
ATOM      1  C   UNL     1     171.157 172.237 207.751  1.00  0.00     0.050 C 
ATOM      2  C   UNL     1     170.032 172.882 208.580  1.00  0.00     0.014 C 
ENDROOT
BRANCH   1   3
ATOM      3  C   UNL     1     171.567 170.828 208.287  1.00  0.00     0.230 C 
BRANCH   3   4
ATOM      4  N   UNL     1     170.432 170.131 208.911  1.00  0.00    -0.350 N 
ATOM      5  H   UNL     1     169.520 170.508 208.567  1.00  0.00     0.345 HD
ATOM      6  H   UNL     1     170.474 170.253 209.950  1.00  0.00     0.345 HD
ATOM      7  H   UNL     1     170.482 169.107 208.703  1.00  0.00     0.345 HD
ENDBRANCH   3   4
BRANCH   3   8
ATOM      8  C   UNL     1     172.778 170.836 209.197  1.00  0.00     0.099 C 
ATOM      9  O   UNL     1     172.680 171.174 210.406  1.00  0.00    -0.544 OA
ATOM     10  O   UNL     1     174.010 170.425 208.707  1.00  0.00    -0.544 OA
ENDBRANCH   3   8
ENDBRANCH   1   3
BRANCH   1  11
ATOM     11  C   UNL     1     170.884 172.342 206.226  1.00  0.00     0.006 C 
ATOM     12  C   UNL     1     171.285 171.123 205.396  1.00  0.00     0.004 C 
ENDBRANCH   1  11
TORSDOF 4
ENDMDL
MODEL 4
REMARK VINA RESULT:    -4.134      1.985      2.751
REMARK INTER + INTRA:          -5.100
REMARK INTER:                  -5.036
REMARK INTRA:                  -0.064
REMARK UNBOUND:                -0.120
REMARK SMILES CC[C@@H](C)[C@H]([NH3+])C(=O)[O-]
REMARK SMILES IDX 3 1 4 2 5 3 6 4 7 8 8 9 9 10 2 11 1 12
REMARK H PARENT 6 5 6 6 6 7
REMARK Flexibility Score: inf
ROOT
ATOM      1  C   UNL     1     171.408 172.010 205.788  1.00  0.00     0.050 C 
ATOM      2  C   UNL     1     170.891 170.880 204.880  1.00  0.00     0.014 C 
ENDROOT
BRANCH   1   3
ATOM      3  C   UNL     1     171.532 171.570 207.282  1.00  0.00     0.230 C 
BRANCH   3   4
ATOM      4  N   UNL     1     170.580 170.499 207.616  1.00  0.00    -0.350 N 
ATOM      5  H   UNL     1     169.808 170.446 206.914  1.00  0.00     0.345 HD
ATOM      6  H   UNL     1     170.164 170.680 208.559  1.00  0.00     0.345 HD
ATOM      7  H   UNL     1     171.075 169.578 207.651  1.00  0.00     0.345 HD
ENDBRANCH   3   4
BRANCH   3   8
ATOM      8  C   UNL     1     171.450 172.710 208.276  1.00  0.00     0.099 C 
ATOM      9  O   UNL     1     170.341 173.119 208.707  1.00  0.00    -0.544 OA
ATOM     10  O   UNL     1     172.618 173.289 208.757  1.00  0.00    -0.544 OA
ENDBRANCH   3   8
ENDBRANCH   1   3
BRANCH   1  11
ATOM     11  C   UNL     1     172.641 172.726 205.175  1.00  0.00     0.006 C 
ATOM     12  C   UNL     1     172.390 173.472 203.864  1.00  0.00     0.004 C 
ENDBRANCH   1  11
TORSDOF 4
ENDMDL
MODEL 5
REMARK VINA RESULT:    -4.061      2.414      3.177
REMARK INTER + INTRA:          -5.012
REMARK INTER:                  -4.898
REMARK INTRA:                  -0.113
REMARK UNBOUND:                -0.120
REMARK SMILES CC[C@@H](C)[C@H]([NH3+])C(=O)[O-]
REMARK SMILES IDX 3 1 4 2 5 3 6 4 7 8 8 9 9 10 2 11 1 12
REMARK H PARENT 6 5 6 6 6 7
REMARK Flexibility Score: inf
ROOT
ATOM      1  C   UNL     1     171.347 172.032 205.264  1.00  0.00     0.050 C 
ATOM      2  C   UNL     1     171.273 170.672 204.547  1.00  0.00     0.014 C 
ENDROOT
BRANCH   1   3
ATOM      3  C   UNL     1     171.105 171.914 206.803  1.00  0.00     0.230 C 
BRANCH   3   4
ATOM      4  N   UNL     1     170.105 172.884 207.273  1.00  0.00    -0.350 N 
ATOM      5  H   UNL     1     169.138 172.593 207.003  1.00  0.00     0.345 HD
ATOM      6  H   UNL     1     170.302 173.822 206.854  1.00  0.00     0.345 HD
ATOM      7  H   UNL     1     170.158 172.977 208.314  1.00  0.00     0.345 HD
ENDBRANCH   3   4
BRANCH   3   8
ATOM      8  C   UNL     1     172.367 171.973 207.638  1.00  0.00     0.099 C 
ATOM      9  O   UNL     1     172.658 173.001 208.304  1.00  0.00    -0.544 OA
ATOM     10  O   UNL     1     173.199 170.864 207.709  1.00  0.00    -0.544 OA
ENDBRANCH   3   8
ENDBRANCH   1   3
BRANCH   1  11
ATOM     11  C   UNL     1     172.589 172.853 204.821  1.00  0.00     0.006 C 
ATOM     12  C   UNL     1     172.418 173.676 203.544  1.00  0.00     0.004 C 
ENDBRANCH   1  11
TORSDOF 4
ENDMDL
MODEL 6
REMARK VINA RESULT:    -4.015      2.476      3.666
REMARK INTER + INTRA:          -4.956
REMARK INTER:                  -4.834
REMARK INTRA:                  -0.123
REMARK UNBOUND:                -0.120
REMARK SMILES CC[C@@H](C)[C@H]([NH3+])C(=O)[O-]
REMARK SMILES IDX 3 1 4 2 5 3 6 4 7 8 8 9 9 10 2 11 1 12
REMARK H PARENT 6 5 6 6 6 7
REMARK Flexibility Score: inf
ROOT
ATOM      1  C   UNL     1     171.744 172.724 208.079  1.00  0.00     0.050 C 
ATOM      2  C   UNL     1     173.075 173.212 208.677  1.00  0.00     0.014 C 
ENDROOT
BRANCH   1   3
ATOM      3  C   UNL     1     171.909 171.421 207.232  1.00  0.00     0.230 C 
BRANCH   3   4
ATOM      4  N   UNL     1     173.269 170.870 207.340  1.00  0.00    -0.350 N 
ATOM      5  H   UNL     1     173.940 171.584 207.703  1.00  0.00     0.345 HD
ATOM      6  H   UNL     1     173.595 170.553 206.397  1.00  0.00     0.345 HD
ATOM      7  H   UNL     1     173.270 170.041 207.978  1.00  0.00     0.345 HD
ENDBRANCH   3   4
BRANCH   3   8
ATOM      8  C   UNL     1     171.483 171.559 205.786  1.00  0.00     0.099 C 
ATOM      9  O   UNL     1     170.603 172.392 205.444  1.00  0.00    -0.544 OA
ATOM     10  O   UNL     1     172.100 170.788 204.809  1.00  0.00    -0.544 OA
ENDBRANCH   3   8
ENDBRANCH   1   3
BRANCH   1  11
ATOM     11  C   UNL     1     170.602 172.723 209.130  1.00  0.00     0.006 C 
ATOM     12  C   UNL     1     169.276 173.329 208.668  1.00  0.00     0.004 C 
ENDBRANCH   1  11
TORSDOF 4
ENDMDL
MODEL 7
REMARK VINA RESULT:    -3.947      1.970      2.539
REMARK INTER + INTRA:          -4.874
REMARK INTER:                  -4.810
REMARK INTRA:                  -0.064
REMARK UNBOUND:                -0.120
REMARK SMILES CC[C@@H](C)[C@H]([NH3+])C(=O)[O-]
REMARK SMILES IDX 3 1 4 2 5 3 6 4 7 8 8 9 9 10 2 11 1 12
REMARK H PARENT 6 5 6 6 6 7
REMARK Flexibility Score: inf
ROOT
ATOM      1  C   UNL     1     172.328 171.470 206.123  1.00  0.00     0.050 C 
ATOM      2  C   UNL     1     172.691 172.811 205.462  1.00  0.00     0.014 C 
ENDROOT
BRANCH   1   3
ATOM      3  C   UNL     1     172.552 171.482 207.670  1.00  0.00     0.230 C 
BRANCH   3   4
ATOM      4  N   UNL     1     171.844 170.374 208.331  1.00  0.00    -0.350 N 
ATOM      5  H   UNL     1     171.095 169.983 207.717  1.00  0.00     0.345 HD
ATOM      6  H   UNL     1     171.406 170.717 209.218  1.00  0.00     0.345 HD
ATOM      7  H   UNL     1     172.520 169.614 208.577  1.00  0.00     0.345 HD
ENDBRANCH   3   4
BRANCH   3   8
ATOM      8  C   UNL     1     172.243 172.808 208.333  1.00  0.00     0.099 C 
ATOM      9  O   UNL     1     173.164 173.597 208.669  1.00  0.00    -0.544 OA
ATOM     10  O   UNL     1     170.922 173.184 208.538  1.00  0.00    -0.544 OA
ENDBRANCH   3   8
ENDBRANCH   1   3
BRANCH   1  11
ATOM     11  C   UNL     1     170.957 170.933 205.629  1.00  0.00     0.006 C 
ATOM     12  C   UNL     1     170.919 170.451 204.178  1.00  0.00     0.004 C 
ENDBRANCH   1  11
TORSDOF 4
ENDMDL
MODEL 8
REMARK VINA RESULT:    -3.928      1.585      1.767
REMARK INTER + INTRA:          -4.852
REMARK INTER:                  -4.764
REMARK INTRA:                  -0.089
REMARK UNBOUND:                -0.120
REMARK SMILES CC[C@@H](C)[C@H]([NH3+])C(=O)[O-]
REMARK SMILES IDX 3 1 4 2 5 3 6 4 7 8 8 9 9 10 2 11 1 12
REMARK H PARENT 6 5 6 6 6 7
REMARK Flexibility Score: inf
ROOT
ATOM      1  C   UNL     1     172.573 171.542 207.964  1.00  0.00     0.050 C 
ATOM      2  C   UNL     1     173.070 172.953 208.326  1.00  0.00     0.014 C 
ENDROOT
BRANCH   1   3
ATOM      3  C   UNL     1     171.282 171.141 208.748  1.00  0.00     0.230 C 
BRANCH   3   4
ATOM      4  N   UNL     1     170.442 170.213 207.976  1.00  0.00    -0.350 N 
ATOM      5  H   UNL     1     169.568 169.971 208.495  1.00  0.00     0.345 HD
ATOM      6  H   UNL     1     170.974 169.332 207.787  1.00  0.00     0.345 HD
ATOM      7  H   UNL     1     170.188 170.641 207.055  1.00  0.00     0.345 HD
ENDBRANCH   3   4
BRANCH   3   8
ATOM      8  C   UNL     1     170.477 172.314 209.265  1.00  0.00     0.099 C 
ATOM      9  O   UNL     1     170.540 172.666 210.472  1.00  0.00    -0.544 OA
ATOM     10  O   UNL     1     169.686 173.046 208.387  1.00  0.00    -0.544 OA
ENDBRANCH   3   8
ENDBRANCH   1   3
BRANCH   1  11
ATOM     11  C   UNL     1     172.546 171.315 206.428  1.00  0.00     0.006 C 
ATOM     12  C   UNL     1     172.029 172.487 205.594  1.00  0.00     0.004 C 
ENDBRANCH   1  11
TORSDOF 4
ENDMDL
MODEL 9
REMARK VINA RESULT:    -3.855      1.859      2.639
REMARK INTER + INTRA:          -4.764
REMARK INTER:                  -4.707
REMARK INTRA:                  -0.057
REMARK UNBOUND:                -0.120
REMARK SMILES CC[C@@H](C)[C@H]([NH3+])C(=O)[O-]
REMARK SMILES IDX 3 1 4 2 5 3 6 4 7 8 8 9 9 10 2 11 1 12
REMARK H PARENT 6 5 6 6 6 7
REMARK Flexibility Score: inf
ROOT
ATOM      1  C   UNL     1     171.007 172.739 208.004  1.00  0.00     0.050 C 
ATOM      2  C   UNL     1     169.693 173.092 208.723  1.00  0.00     0.014 C 
ENDROOT
BRANCH   1   3
ATOM      3  C   UNL     1     172.255 172.868 208.936  1.00  0.00     0.230 C 
BRANCH   3   4
ATOM      4  N   UNL     1     173.372 173.546 208.259  1.00  0.00    -0.350 N 
ATOM      5  H   UNL     1     173.027 174.202 207.522  1.00  0.00     0.345 HD
ATOM      6  H   UNL     1     173.994 172.834 207.810  1.00  0.00     0.345 HD
ATOM      7  H   UNL     1     173.941 174.081 208.956  1.00  0.00     0.345 HD
ENDBRANCH   3   4
BRANCH   3   8
ATOM      8  C   UNL     1     172.701 171.565 209.565  1.00  0.00     0.099 C 
ATOM      9  O   UNL     1     172.286 171.215 210.701  1.00  0.00    -0.544 OA
ATOM     10  O   UNL     1     173.548 170.716 208.864  1.00  0.00    -0.544 OA
ENDBRANCH   3   8
ENDBRANCH   1   3
BRANCH   1  11
ATOM     11  C   UNL     1     170.886 171.421 207.193  1.00  0.00     0.006 C 
ATOM     12  C   UNL     1     171.328 171.500 205.731  1.00  0.00     0.004 C 
ENDBRANCH   1  11
TORSDOF 4
ENDMDL
