MODEL 1
REMARK VINA RESULT:    -5.414      0.000      0.000
REMARK INTER + INTRA:          -6.312
REMARK INTER:                  -6.047
REMARK INTRA:                  -0.265
REMARK UNBOUND:                -0.265
REMARK SMILES O=C([O-])C=Cc1ccccc1
REMARK SMILES IDX 4 1 5 2 2 3 1 4 3 5 6 6 7 7 11 8 8 9 10 10 9 11
REMARK H PARENT
REMARK Flexibility Score: inf
ROOT
ATOM      1  C   UNL     1      13.688 -15.234  30.185  1.00  0.00     0.025 C 
ATOM      2  C   UNL     1      13.398 -15.681  31.416  1.00  0.00     0.010 C 
ENDROOT
BRANCH   1   3
ATOM      3  C   UNL     1      12.766 -15.238  29.033  1.00  0.00     0.064 C 
ATOM      4  O   UNL     1      13.001 -16.000  28.059  1.00  0.00    -0.545 OA
ATOM      5  O   UNL     1      11.684 -14.369  28.966  1.00  0.00    -0.545 OA
ENDBRANCH   1   3
BRANCH   2   6
ATOM      6  C   UNL     1      12.179 -16.428  31.789  1.00  0.00    -0.026 A 
ATOM      7  C   UNL     1      12.125 -17.830  31.693  1.00  0.00     0.008 A 
ATOM      8  C   UNL     1      11.092 -15.735  32.347  1.00  0.00     0.008 A 
ATOM      9  C   UNL     1      10.979 -18.520  32.101  1.00  0.00     0.001 A 
ATOM     10  C   UNL     1       9.948 -16.429  32.753  1.00  0.00     0.001 A 
ATOM     11  C   UNL     1       9.889 -17.820  32.626  1.00  0.00     0.000 A 
ENDBRANCH   2   6
TORSDOF 2
ENDMDL
MODEL 2
REMARK VINA RESULT:    -5.242     10.656     11.759
REMARK INTER + INTRA:          -6.120
REMARK INTER:                  -5.848
REMARK INTRA:                  -0.272
REMARK UNBOUND:                -0.265
REMARK SMILES O=C([O-])C=Cc1ccccc1
REMARK SMILES IDX 4 1 5 2 2 3 1 4 3 5 6 6 7 7 11 8 8 9 10 10 9 11
REMARK H PARENT
REMARK Flexibility Score: inf
ROOT
ATOM      1  C   UNL     1       6.306 -18.622  21.334  1.00  0.00     0.025 C 
ATOM      2  C   UNL     1       6.879 -19.411  20.413  1.00  0.00     0.010 C 
ENDROOT
BRANCH   1   3
ATOM      3  C   UNL     1       6.511 -18.719  22.792  1.00  0.00     0.064 C 
ATOM      4  O   UNL     1       5.656 -19.317  23.494  1.00  0.00    -0.545 OA
ATOM      5  O   UNL     1       7.590 -18.104  23.415  1.00  0.00    -0.545 OA
ENDBRANCH   1   3
BRANCH   2   6
ATOM      6  C   UNL     1       7.661 -20.632  20.700  1.00  0.00    -0.026 A 
ATOM      7  C   UNL     1       7.044 -21.894  20.767  1.00  0.00     0.008 A 
ATOM      8  C   UNL     1       9.058 -20.544  20.804  1.00  0.00     0.008 A 
ATOM      9  C   UNL     1       7.812 -23.041  20.988  1.00  0.00     0.001 A 
ATOM     10  C   UNL     1       9.822 -21.694  21.025  1.00  0.00     0.001 A 
ATOM     11  C   UNL     1       9.199 -22.942  21.122  1.00  0.00     0.000 A 
ENDBRANCH   2   6
TORSDOF 2
ENDMDL
MODEL 3
REMARK VINA RESULT:    -5.072      3.192      4.921
REMARK INTER + INTRA:          -5.930
REMARK INTER:                  -5.661
REMARK INTRA:                  -0.270
REMARK UNBOUND:                -0.265
REMARK SMILES O=C([O-])C=Cc1ccccc1
REMARK SMILES IDX 4 1 5 2 2 3 1 4 3 5 6 6 7 7 11 8 8 9 10 10 9 11
REMARK H PARENT
REMARK Flexibility Score: inf
ROOT
ATOM      1  C   UNL     1       9.474 -20.240  32.750  1.00  0.00     0.025 C 
ATOM      2  C   UNL     1      10.296 -19.279  33.199  1.00  0.00     0.010 C 
ENDROOT
BRANCH   1   3
ATOM      3  C   UNL     1       8.829 -20.262  31.423  1.00  0.00     0.064 C 
ATOM      4  O   UNL     1       7.600 -20.011  31.332  1.00  0.00    -0.545 OA
ATOM      5  O   UNL     1       9.532 -20.625  30.281  1.00  0.00    -0.545 OA
ENDBRANCH   1   3
BRANCH   2   6
ATOM      6  C   UNL     1      10.549 -17.987  32.529  1.00  0.00    -0.026 A 
ATOM      7  C   UNL     1       9.773 -16.851  32.819  1.00  0.00     0.008 A 
ATOM      8  C   UNL     1      11.649 -17.866  31.665  1.00  0.00     0.008 A 
ATOM      9  C   UNL     1      10.064 -15.626  32.211  1.00  0.00     0.001 A 
ATOM     10  C   UNL     1      11.936 -16.639  31.058  1.00  0.00     0.001 A 
ATOM     11  C   UNL     1      11.141 -15.520  31.327  1.00  0.00     0.000 A 
ENDBRANCH   2   6
TORSDOF 2
ENDMDL
MODEL 4
REMARK VINA RESULT:    -4.953      2.640      4.424
REMARK INTER + INTRA:          -5.797
REMARK INTER:                  -5.792
REMARK INTRA:                  -0.006
REMARK UNBOUND:                -0.265
REMARK SMILES O=C([O-])C=Cc1ccccc1
REMARK SMILES IDX 4 1 5 2 2 3 1 4 3 5 6 6 7 7 11 8 8 9 10 10 9 11
REMARK H PARENT
REMARK Flexibility Score: inf
ROOT
ATOM      1  C   UNL     1       9.797 -17.074  32.756  1.00  0.00     0.025 C 
ATOM      2  C   UNL     1      10.354 -15.899  32.425  1.00  0.00     0.010 C 
ENDROOT
BRANCH   1   3
ATOM      3  C   UNL     1      10.362 -18.404  32.456  1.00  0.00     0.064 C 
ATOM      4  O   UNL     1      10.554 -18.734  31.257  1.00  0.00    -0.545 OA
ATOM      5  O   UNL     1      10.618 -19.327  33.462  1.00  0.00    -0.545 OA
ENDBRANCH   1   3
BRANCH   2   6
ATOM      6  C   UNL     1      11.524 -15.727  31.540  1.00  0.00    -0.026 A 
ATOM      7  C   UNL     1      11.384 -15.221  30.235  1.00  0.00     0.008 A 
ATOM      8  C   UNL     1      12.810 -15.975  32.046  1.00  0.00     0.008 A 
ATOM      9  C   UNL     1      12.512 -15.018  29.434  1.00  0.00     0.001 A 
ATOM     10  C   UNL     1      13.936 -15.771  31.241  1.00  0.00     0.001 A 
ATOM     11  C   UNL     1      13.786 -15.297  29.934  1.00  0.00     0.000 A 
ENDBRANCH   2   6
TORSDOF 2
ENDMDL
MODEL 5
REMARK VINA RESULT:    -4.917      2.075      3.488
REMARK INTER + INTRA:          -5.757
REMARK INTER:                  -5.488
REMARK INTRA:                  -0.270
REMARK UNBOUND:                -0.265
REMARK SMILES O=C([O-])C=Cc1ccccc1
REMARK SMILES IDX 4 1 5 2 2 3 1 4 3 5 6 6 7 7 11 8 8 9 10 10 9 11
REMARK H PARENT
REMARK Flexibility Score: inf
ROOT
ATOM      1  C   UNL     1      12.146 -13.167  27.172  1.00  0.00     0.025 C 
ATOM      2  C   UNL     1      12.194 -13.113  28.512  1.00  0.00     0.010 C 
ENDROOT
BRANCH   1   3
ATOM      3  C   UNL     1      12.159 -14.402  26.365  1.00  0.00     0.064 C 
ATOM      4  O   UNL     1      11.071 -14.873  25.944  1.00  0.00    -0.545 OA
ATOM      5  O   UNL     1      13.338 -15.095  26.118  1.00  0.00    -0.545 OA
ENDBRANCH   1   3
BRANCH   2   6
ATOM      6  C   UNL     1      12.462 -14.259  29.405  1.00  0.00    -0.026 A 
ATOM      7  C   UNL     1      13.776 -14.624  29.750  1.00  0.00     0.008 A 
ATOM      8  C   UNL     1      11.384 -14.932  30.002  1.00  0.00     0.008 A 
ATOM      9  C   UNL     1      14.003 -15.679  30.638  1.00  0.00     0.001 A 
ATOM     10  C   UNL     1      11.615 -15.988  30.889  1.00  0.00     0.001 A 
ATOM     11  C   UNL     1      12.924 -16.364  31.204  1.00  0.00     0.000 A 
ENDBRANCH   2   6
TORSDOF 2
ENDMDL
MODEL 6
REMARK VINA RESULT:    -4.855      2.149      3.662
REMARK INTER + INTRA:          -5.687
REMARK INTER:                  -5.416
REMARK INTRA:                  -0.272
REMARK UNBOUND:                -0.265
REMARK SMILES O=C([O-])C=Cc1ccccc1
REMARK SMILES IDX 4 1 5 2 2 3 1 4 3 5 6 6 7 7 11 8 8 9 10 10 9 11
REMARK H PARENT
REMARK Flexibility Score: inf
ROOT
ATOM      1  C   UNL     1      12.209 -13.104  27.130  1.00  0.00     0.025 C 
ATOM      2  C   UNL     1      12.225 -13.033  28.469  1.00  0.00     0.010 C 
ENDROOT
BRANCH   1   3
ATOM      3  C   UNL     1      12.250 -14.349  26.338  1.00  0.00     0.064 C 
ATOM      4  O   UNL     1      11.171 -14.924  26.040  1.00  0.00    -0.545 OA
ATOM      5  O   UNL     1      13.454 -14.940  25.977  1.00  0.00    -0.545 OA
ENDBRANCH   1   3
BRANCH   2   6
ATOM      6  C   UNL     1      12.480 -14.166  29.383  1.00  0.00    -0.026 A 
ATOM      7  C   UNL     1      11.422 -14.911  29.934  1.00  0.00     0.008 A 
ATOM      8  C   UNL     1      13.803 -14.570  29.622  1.00  0.00     0.008 A 
ATOM      9  C   UNL     1      11.689 -16.011  30.755  1.00  0.00     0.001 A 
ATOM     10  C   UNL     1      14.066 -15.671  30.444  1.00  0.00     0.001 A 
ATOM     11  C   UNL     1      13.010 -16.388  31.014  1.00  0.00     0.000 A 
ENDBRANCH   2   6
TORSDOF 2
ENDMDL
MODEL 7
REMARK VINA RESULT:    -4.771      2.173      4.744
REMARK INTER + INTRA:          -5.594
REMARK INTER:                  -5.348
REMARK INTRA:                  -0.247
REMARK UNBOUND:                -0.265
REMARK SMILES O=C([O-])C=Cc1ccccc1
REMARK SMILES IDX 4 1 5 2 2 3 1 4 3 5 6 6 7 7 11 8 8 9 10 10 9 11
REMARK H PARENT
REMARK Flexibility Score: inf
ROOT
ATOM      1  C   UNL     1      12.932 -15.647  31.264  1.00  0.00     0.025 C 
ATOM      2  C   UNL     1      13.530 -15.077  30.206  1.00  0.00     0.010 C 
ENDROOT
BRANCH   1   3
ATOM      3  C   UNL     1      11.551 -16.165  31.289  1.00  0.00     0.064 C 
ATOM      4  O   UNL     1      11.359 -17.406  31.218  1.00  0.00    -0.545 OA
ATOM      5  O   UNL     1      10.456 -15.311  31.317  1.00  0.00    -0.545 OA
ENDBRANCH   1   3
BRANCH   2   6
ATOM      6  C   UNL     1      12.857 -14.692  28.948  1.00  0.00    -0.026 A 
ATOM      7  C   UNL     1      12.300 -13.412  28.780  1.00  0.00     0.008 A 
ATOM      8  C   UNL     1      12.867 -15.585  27.864  1.00  0.00     0.008 A 
ATOM      9  C   UNL     1      11.714 -13.053  27.562  1.00  0.00     0.001 A 
ATOM     10  C   UNL     1      12.279 -15.222  26.647  1.00  0.00     0.001 A 
ATOM     11  C   UNL     1      11.700 -13.959  26.498  1.00  0.00     0.000 A 
ENDBRANCH   2   6
TORSDOF 2
ENDMDL
MODEL 8
REMARK VINA RESULT:    -4.564      2.310      3.698
REMARK INTER + INTRA:          -5.363
REMARK INTER:                  -5.325
REMARK INTRA:                  -0.038
REMARK UNBOUND:                -0.265
REMARK SMILES O=C([O-])C=Cc1ccccc1
REMARK SMILES IDX 4 1 5 2 2 3 1 4 3 5 6 6 7 7 11 8 8 9 10 10 9 11
REMARK H PARENT
REMARK Flexibility Score: inf
ROOT
ATOM      1  C   UNL     1      10.785 -16.506  32.300  1.00  0.00     0.025 C 
ATOM      2  C   UNL     1       9.889 -17.391  32.763  1.00  0.00     0.010 C 
ENDROOT
BRANCH   1   3
ATOM      3  C   UNL     1      11.866 -16.805  31.342  1.00  0.00     0.064 C 
ATOM      4  O   UNL     1      11.856 -16.254  30.211  1.00  0.00    -0.545 OA
ATOM      5  O   UNL     1      12.856 -17.735  31.632  1.00  0.00    -0.545 OA
ENDBRANCH   1   3
BRANCH   2   6
ATOM      6  C   UNL     1       9.942 -18.852  32.550  1.00  0.00    -0.026 A 
ATOM      7  C   UNL     1      10.202 -19.735  33.613  1.00  0.00     0.008 A 
ATOM      8  C   UNL     1       9.623 -19.374  31.286  1.00  0.00     0.008 A 
ATOM      9  C   UNL     1      10.195 -21.117  33.398  1.00  0.00     0.001 A 
ATOM     10  C   UNL     1       9.619 -20.757  31.075  1.00  0.00     0.001 A 
ATOM     11  C   UNL     1       9.909 -21.628  32.130  1.00  0.00     0.000 A 
ENDBRANCH   2   6
TORSDOF 2
ENDMDL
MODEL 9
REMARK VINA RESULT:    -4.521     10.666     11.930
REMARK INTER + INTRA:          -5.315
REMARK INTER:                  -5.038
REMARK INTRA:                  -0.277
REMARK UNBOUND:                -0.265
REMARK SMILES O=C([O-])C=Cc1ccccc1
REMARK SMILES IDX 4 1 5 2 2 3 1 4 3 5 6 6 7 7 11 8 8 9 10 10 9 11
REMARK H PARENT
REMARK Flexibility Score: inf
ROOT
ATOM      1  C   UNL     1       4.832 -15.211  21.379  1.00  0.00     0.025 C 
ATOM      2  C   UNL     1       6.058 -15.647  21.050  1.00  0.00     0.010 C 
ENDROOT
BRANCH   1   3
ATOM      3  C   UNL     1       3.786 -16.016  22.039  1.00  0.00     0.064 C 
ATOM      4  O   UNL     1       3.756 -16.074  23.296  1.00  0.00    -0.545 OA
ATOM      5  O   UNL     1       2.879 -16.770  21.305  1.00  0.00    -0.545 OA
ENDBRANCH   1   3
BRANCH   2   6
ATOM      6  C   UNL     1       6.511 -17.052  21.112  1.00  0.00    -0.026 A 
ATOM      7  C   UNL     1       7.132 -17.568  22.263  1.00  0.00     0.008 A 
ATOM      8  C   UNL     1       6.222 -17.914  20.042  1.00  0.00     0.008 A 
ATOM      9  C   UNL     1       7.505 -18.915  22.318  1.00  0.00     0.001 A 
ATOM     10  C   UNL     1       6.598 -19.261  20.101  1.00  0.00     0.001 A 
ATOM     11  C   UNL     1       7.243 -19.759  21.236  1.00  0.00     0.000 A 
ENDBRANCH   2   6
TORSDOF 2
ENDMDL
