MODEL 1
REMARK VINA RESULT:    -5.767      0.000      0.000
REMARK INTER + INTRA:          -6.442
REMARK INTER:                  -6.442
REMARK INTRA:                   0.000
REMARK UNBOUND:                 0.000
REMARK SMILES Oc1cc(O)c2c(c1)CCc1cc(O)c(O)cc1-2
REMARK SMILES IDX 10 1 9 2 7 3 6 4 18 5 17 6 15 7 13 8 12 9 11 10 4 11 3 12
REMARK SMILES IDX 2 13 8 14 14 15 5 17 1 19 16 21
REMARK H PARENT 14 16 5 18 1 20 16 22
REMARK Flexibility Score: inf
ROOT
ATOM      1  C   UNL     1     127.496 122.233 141.174  1.00  0.00     0.041 C 
ATOM      2  C   UNL     1     128.917 122.473 141.705  1.00  0.00     0.041 C 
ATOM      3  C   UNL     1     129.942 122.172 140.638  1.00  0.00    -0.032 A 
ATOM      4  C   UNL     1     129.701 121.150 139.688  1.00  0.00     0.027 A 
ATOM      5  C   UNL     1     128.475 120.313 139.865  1.00  0.00    -0.007 A 
ATOM      6  C   UNL     1     128.425 118.963 139.471  1.00  0.00     0.059 A 
ATOM      7  C   UNL     1     127.264 118.202 139.669  1.00  0.00     0.158 A 
ATOM      8  C   UNL     1     126.152 118.776 140.303  1.00  0.00     0.157 A 
ATOM      9  C   UNL     1     126.221 120.092 140.769  1.00  0.00     0.054 A 
ATOM     10  C   UNL     1     127.387 120.849 140.589  1.00  0.00    -0.036 A 
ATOM     11  C   UNL     1     130.614 120.991 138.614  1.00  0.00     0.127 A 
ATOM     12  C   UNL     1     131.826 121.691 138.623  1.00  0.00     0.093 A 
ATOM     13  C   UNL     1     132.101 122.626 139.626  1.00  0.00     0.119 A 
ATOM     14  C   UNL     1     131.154 122.878 140.619  1.00  0.00     0.050 A 
ENDROOT
BRANCH   8  15
ATOM     15  O   UNL     1     124.978 118.049 140.498  1.00  0.00    -0.504 OA
ATOM     16  H   UNL     1     124.981 117.043 140.614  1.00  0.00     0.293 HD
ENDBRANCH   8  15
BRANCH  11  17
ATOM     17  O   UNL     1     130.331 120.205 137.496  1.00  0.00    -0.507 OA
ATOM     18  H   UNL     1     130.755 119.300 137.341  1.00  0.00     0.293 HD
ENDBRANCH  11  17
BRANCH  13  19
ATOM     19  O   UNL     1     133.305 123.326 139.633  1.00  0.00    -0.508 OA
ATOM     20  H   UNL     1     134.076 123.048 140.229  1.00  0.00     0.293 HD
ENDBRANCH  13  19
BRANCH   7  21
ATOM     21  O   UNL     1     127.216 116.875 139.244  1.00  0.00    -0.504 OA
ATOM     22  H   UNL     1     127.067 116.113 139.896  1.00  0.00     0.293 HD
ENDBRANCH   7  21
TORSDOF 4
ENDMDL
MODEL 2
REMARK VINA RESULT:    -5.512      3.417      4.247
REMARK INTER + INTRA:          -6.156
REMARK INTER:                  -6.156
REMARK INTRA:                   0.000
REMARK UNBOUND:                 0.000
REMARK SMILES Oc1cc(O)c2c(c1)CCc1cc(O)c(O)cc1-2
REMARK SMILES IDX 10 1 9 2 7 3 6 4 18 5 17 6 15 7 13 8 12 9 11 10 4 11 3 12
REMARK SMILES IDX 2 13 8 14 14 15 5 17 1 19 16 21
REMARK H PARENT 14 16 5 18 1 20 16 22
REMARK Flexibility Score: inf
ROOT
ATOM      1  C   UNL     1     127.367 118.379 138.291  1.00  0.00     0.041 C 
ATOM      2  C   UNL     1     128.842 118.708 138.559  1.00  0.00     0.041 C 
ATOM      3  C   UNL     1     128.980 120.078 139.178  1.00  0.00    -0.032 A 
ATOM      4  C   UNL     1     128.072 121.109 138.831  1.00  0.00     0.027 A 
ATOM      5  C   UNL     1     127.079 120.826 137.751  1.00  0.00    -0.007 A 
ATOM      6  C   UNL     1     126.602 121.829 136.888  1.00  0.00     0.059 A 
ATOM      7  C   UNL     1     125.684 121.524 135.873  1.00  0.00     0.158 A 
ATOM      8  C   UNL     1     125.264 120.198 135.686  1.00  0.00     0.157 A 
ATOM      9  C   UNL     1     125.794 119.183 136.488  1.00  0.00     0.054 A 
ATOM     10  C   UNL     1     126.726 119.483 137.491  1.00  0.00    -0.036 A 
ATOM     11  C   UNL     1     128.137 122.338 139.538  1.00  0.00     0.127 A 
ATOM     12  C   UNL     1     129.209 122.586 140.403  1.00  0.00     0.093 A 
ATOM     13  C   UNL     1     130.161 121.594 140.660  1.00  0.00     0.119 A 
ATOM     14  C   UNL     1     130.035 120.339 140.064  1.00  0.00     0.050 A 
ENDROOT
BRANCH   8  15
ATOM     15  O   UNL     1     124.339 119.867 134.696  1.00  0.00    -0.504 OA
ATOM     16  H   UNL     1     123.477 119.379 134.907  1.00  0.00     0.293 HD
ENDBRANCH   8  15
BRANCH  11  17
ATOM     17  O   UNL     1     127.133 123.305 139.460  1.00  0.00    -0.507 OA
ATOM     18  H   UNL     1     126.777 123.791 140.272  1.00  0.00     0.293 HD
ENDBRANCH  11  17
BRANCH  13  19
ATOM     19  O   UNL     1     131.225 121.839 141.525  1.00  0.00    -0.508 OA
ATOM     20  H   UNL     1     131.076 122.209 142.457  1.00  0.00     0.293 HD
ENDBRANCH  13  19
BRANCH   7  21
ATOM     21  O   UNL     1     125.194 122.533 135.045  1.00  0.00    -0.504 OA
ATOM     22  H   UNL     1     125.463 123.502 135.172  1.00  0.00     0.293 HD
ENDBRANCH   7  21
TORSDOF 4
ENDMDL
MODEL 3
REMARK VINA RESULT:    -5.508      1.781      5.506
REMARK INTER + INTRA:          -6.153
REMARK INTER:                  -6.153
REMARK INTRA:                   0.000
REMARK UNBOUND:                 0.000
REMARK SMILES Oc1cc(O)c2c(c1)CCc1cc(O)c(O)cc1-2
REMARK SMILES IDX 10 1 9 2 7 3 6 4 18 5 17 6 15 7 13 8 12 9 11 10 4 11 3 12
REMARK SMILES IDX 2 13 8 14 14 15 5 17 1 19 16 21
REMARK H PARENT 14 16 5 18 1 20 16 22
REMARK Flexibility Score: inf
ROOT
ATOM      1  C   UNL     1     128.212 122.373 141.394  1.00  0.00     0.041 C 
ATOM      2  C   UNL     1     126.888 122.705 140.691  1.00  0.00     0.041 C 
ATOM      3  C   UNL     1     126.564 121.665 139.645  1.00  0.00    -0.032 A 
ATOM      4  C   UNL     1     127.607 121.025 138.933  1.00  0.00     0.027 A 
ATOM      5  C   UNL     1     129.003 121.507 139.161  1.00  0.00    -0.007 A 
ATOM      6  C   UNL     1     129.985 121.468 138.154  1.00  0.00     0.059 A 
ATOM      7  C   UNL     1     131.280 121.947 138.398  1.00  0.00     0.158 A 
ATOM      8  C   UNL     1     131.594 122.509 139.645  1.00  0.00     0.157 A 
ATOM      9  C   UNL     1     130.603 122.624 140.624  1.00  0.00     0.054 A 
ATOM     10  C   UNL     1     129.303 122.164 140.375  1.00  0.00    -0.036 A 
ATOM     11  C   UNL     1     127.278 119.951 138.065  1.00  0.00     0.127 A 
ATOM     12  C   UNL     1     125.936 119.684 137.770  1.00  0.00     0.093 A 
ATOM     13  C   UNL     1     124.911 120.394 138.402  1.00  0.00     0.119 A 
ATOM     14  C   UNL     1     125.226 121.368 139.351  1.00  0.00     0.050 A 
ENDROOT
BRANCH   8  15
ATOM     15  O   UNL     1     132.878 122.978 139.922  1.00  0.00    -0.504 OA
ATOM     16  H   UNL     1     133.680 122.710 139.364  1.00  0.00     0.293 HD
ENDBRANCH   8  15
BRANCH  11  17
ATOM     17  O   UNL     1     128.240 119.093 137.531  1.00  0.00    -0.507 OA
ATOM     18  H   UNL     1     129.120 119.421 137.157  1.00  0.00     0.293 HD
ENDBRANCH  11  17
BRANCH  13  19
ATOM     19  O   UNL     1     123.576 120.125 138.112  1.00  0.00    -0.508 OA
ATOM     20  H   UNL     1     122.835 120.758 138.391  1.00  0.00     0.293 HD
ENDBRANCH  13  19
BRANCH   7  21
ATOM     21  O   UNL     1     132.253 121.873 137.402  1.00  0.00    -0.504 OA
ATOM     22  H   UNL     1     133.192 122.223 137.549  1.00  0.00     0.293 HD
ENDBRANCH   7  21
TORSDOF 4
ENDMDL
MODEL 4
REMARK VINA RESULT:    -5.465     13.675     15.373
REMARK INTER + INTRA:          -6.104
REMARK INTER:                  -6.104
REMARK INTRA:                   0.000
REMARK UNBOUND:                 0.000
REMARK SMILES Oc1cc(O)c2c(c1)CCc1cc(O)c(O)cc1-2
REMARK SMILES IDX 10 1 9 2 7 3 6 4 18 5 17 6 15 7 13 8 12 9 11 10 4 11 3 12
REMARK SMILES IDX 2 13 8 14 14 15 5 17 1 19 16 21
REMARK H PARENT 14 16 5 18 1 20 16 22
REMARK Flexibility Score: inf
ROOT
ATOM      1  C   UNL     1     124.369 135.353 133.471  1.00  0.00     0.041 C 
ATOM      2  C   UNL     1     124.510 134.545 132.173  1.00  0.00     0.041 C 
ATOM      3  C   UNL     1     124.811 133.097 132.475  1.00  0.00    -0.032 A 
ATOM      4  C   UNL     1     125.582 132.755 133.613  1.00  0.00     0.027 A 
ATOM      5  C   UNL     1     126.181 133.869 134.408  1.00  0.00    -0.007 A 
ATOM      6  C   UNL     1     127.403 133.731 135.092  1.00  0.00     0.059 A 
ATOM      7  C   UNL     1     127.945 134.805 135.813  1.00  0.00     0.158 A 
ATOM      8  C   UNL     1     127.287 136.044 135.822  1.00  0.00     0.157 A 
ATOM      9  C   UNL     1     126.114 136.212 135.081  1.00  0.00     0.054 A 
ATOM     10  C   UNL     1     125.580 135.146 134.344  1.00  0.00    -0.036 A 
ATOM     11  C   UNL     1     125.723 131.383 133.951  1.00  0.00     0.127 A 
ATOM     12  C   UNL     1     125.287 130.400 133.056  1.00  0.00     0.093 A 
ATOM     13  C   UNL     1     124.617 130.752 131.880  1.00  0.00     0.119 A 
ATOM     14  C   UNL     1     124.364 132.096 131.602  1.00  0.00     0.050 A 
ENDROOT
BRANCH   8  15
ATOM     15  O   UNL     1     127.793 137.124 136.545  1.00  0.00    -0.504 OA
ATOM     16  H   UNL     1     127.422 137.388 137.449  1.00  0.00     0.293 HD
ENDBRANCH   8  15
BRANCH  11  17
ATOM     17  O   UNL     1     126.228 130.959 135.181  1.00  0.00    -0.507 OA
ATOM     18  H   UNL     1     125.811 131.221 136.064  1.00  0.00     0.293 HD
ENDBRANCH  11  17
BRANCH  13  19
ATOM     19  O   UNL     1     124.178 129.773 130.992  1.00  0.00    -0.508 OA
ATOM     20  H   UNL     1     124.810 129.074 130.619  1.00  0.00     0.293 HD
ENDBRANCH  13  19
BRANCH   7  21
ATOM     21  O   UNL     1     129.141 134.645 136.512  1.00  0.00    -0.504 OA
ATOM     22  H   UNL     1     129.419 135.290 137.244  1.00  0.00     0.293 HD
ENDBRANCH   7  21
TORSDOF 4
ENDMDL
MODEL 5
REMARK VINA RESULT:    -5.424      1.248      5.525
REMARK INTER + INTRA:          -6.058
REMARK INTER:                  -6.058
REMARK INTRA:                   0.000
REMARK UNBOUND:                 0.000
REMARK SMILES Oc1cc(O)c2c(c1)CCc1cc(O)c(O)cc1-2
REMARK SMILES IDX 10 1 9 2 7 3 6 4 18 5 17 6 15 7 13 8 12 9 11 10 4 11 3 12
REMARK SMILES IDX 2 13 8 14 14 15 5 17 1 19 16 21
REMARK H PARENT 14 16 5 18 1 20 16 22
REMARK Flexibility Score: inf
ROOT
ATOM      1  C   UNL     1     128.159 121.965 140.892  1.00  0.00     0.041 C 
ATOM      2  C   UNL     1     126.968 121.473 140.057  1.00  0.00     0.041 C 
ATOM      3  C   UNL     1     127.109 120.004 139.739  1.00  0.00    -0.032 A 
ATOM      4  C   UNL     1     128.393 119.439 139.548  1.00  0.00     0.027 A 
ATOM      5  C   UNL     1     129.566 120.364 139.543  1.00  0.00    -0.007 A 
ATOM      6  C   UNL     1     130.717 120.114 138.773  1.00  0.00     0.059 A 
ATOM      7  C   UNL     1     131.792 121.014 138.778  1.00  0.00     0.158 A 
ATOM      8  C   UNL     1     131.708 122.199 139.525  1.00  0.00     0.157 A 
ATOM      9  C   UNL     1     130.537 122.493 140.230  1.00  0.00     0.054 A 
ATOM     10  C   UNL     1     129.454 121.604 140.211  1.00  0.00    -0.036 A 
ATOM     11  C   UNL     1     128.501 118.032 139.397  1.00  0.00     0.127 A 
ATOM     12  C   UNL     1     127.344 117.261 139.230  1.00  0.00     0.093 A 
ATOM     13  C   UNL     1     126.078 117.847 139.317  1.00  0.00     0.119 A 
ATOM     14  C   UNL     1     125.962 119.211 139.589  1.00  0.00     0.050 A 
ENDROOT
BRANCH   8  15
ATOM     15  O   UNL     1     132.768 123.105 139.563  1.00  0.00    -0.504 OA
ATOM     16  H   UNL     1     132.647 124.084 139.338  1.00  0.00     0.293 HD
ENDBRANCH   8  15
BRANCH  11  17
ATOM     17  O   UNL     1     129.721 117.358 139.470  1.00  0.00    -0.507 OA
ATOM     18  H   UNL     1     129.795 116.351 139.417  1.00  0.00     0.293 HD
ENDBRANCH  11  17
BRANCH  13  19
ATOM     19  O   UNL     1     124.927 117.080 139.156  1.00  0.00    -0.508 OA
ATOM     20  H   UNL     1     124.132 117.181 139.777  1.00  0.00     0.293 HD
ENDBRANCH  13  19
BRANCH   7  21
ATOM     21  O   UNL     1     132.940 120.738 138.036  1.00  0.00    -0.504 OA
ATOM     22  H   UNL     1     133.854 121.058 138.332  1.00  0.00     0.293 HD
ENDBRANCH   7  21
TORSDOF 4
ENDMDL
MODEL 6
REMARK VINA RESULT:    -5.410      2.571      2.744
REMARK INTER + INTRA:          -6.042
REMARK INTER:                  -6.042
REMARK INTRA:                   0.000
REMARK UNBOUND:                 0.000
REMARK SMILES Oc1cc(O)c2c(c1)CCc1cc(O)c(O)cc1-2
REMARK SMILES IDX 10 1 9 2 7 3 6 4 18 5 17 6 15 7 13 8 12 9 11 10 4 11 3 12
REMARK SMILES IDX 2 13 8 14 14 15 5 17 1 19 16 21
REMARK H PARENT 14 16 5 18 1 20 16 22
REMARK Flexibility Score: inf
ROOT
ATOM      1  C   UNL     1     126.132 122.828 138.756  1.00  0.00     0.041 C 
ATOM      2  C   UNL     1     126.832 122.679 140.115  1.00  0.00     0.041 C 
ATOM      3  C   UNL     1     128.191 122.044 139.949  1.00  0.00    -0.032 A 
ATOM      4  C   UNL     1     128.407 121.085 138.929  1.00  0.00     0.027 A 
ATOM      5  C   UNL     1     127.225 120.643 138.129  1.00  0.00    -0.007 A 
ATOM      6  C   UNL     1     127.123 119.345 137.595  1.00  0.00     0.059 A 
ATOM      7  C   UNL     1     125.990 118.958 136.865  1.00  0.00     0.158 A 
ATOM      8  C   UNL     1     124.925 119.858 136.697  1.00  0.00     0.157 A 
ATOM      9  C   UNL     1     124.985 121.122 137.291  1.00  0.00     0.054 A 
ATOM     10  C   UNL     1     126.109 121.503 138.037  1.00  0.00    -0.036 A 
ATOM     11  C   UNL     1     129.728 120.617 138.704  1.00  0.00     0.127 A 
ATOM     12  C   UNL     1     130.743 120.941 139.612  1.00  0.00     0.093 A 
ATOM     13  C   UNL     1     130.494 121.809 140.680  1.00  0.00     0.119 A 
ATOM     14  C   UNL     1     129.226 122.372 140.835  1.00  0.00     0.050 A 
ENDROOT
BRANCH   8  15
ATOM     15  O   UNL     1     123.794 119.507 135.961  1.00  0.00    -0.504 OA
ATOM     16  H   UNL     1     123.684 119.764 134.988  1.00  0.00     0.293 HD
ENDBRANCH   8  15
BRANCH  11  17
ATOM     17  O   UNL     1     130.086 119.888 137.570  1.00  0.00    -0.507 OA
ATOM     18  H   UNL     1     129.672 120.050 136.661  1.00  0.00     0.293 HD
ENDBRANCH  11  17
BRANCH  13  19
ATOM     19  O   UNL     1     131.505 122.136 141.581  1.00  0.00    -0.508 OA
ATOM     20  H   UNL     1     131.545 121.722 142.505  1.00  0.00     0.293 HD
ENDBRANCH  13  19
BRANCH   7  21
ATOM     21  O   UNL     1     125.915 117.680 136.313  1.00  0.00    -0.504 OA
ATOM     22  H   UNL     1     126.600 117.349 135.643  1.00  0.00     0.293 HD
ENDBRANCH   7  21
TORSDOF 4
ENDMDL
MODEL 7
REMARK VINA RESULT:    -5.314     15.010     16.973
REMARK INTER + INTRA:          -5.935
REMARK INTER:                  -5.935
REMARK INTRA:                   0.000
REMARK UNBOUND:                 0.000
REMARK SMILES Oc1cc(O)c2c(c1)CCc1cc(O)c(O)cc1-2
REMARK SMILES IDX 10 1 9 2 7 3 6 4 18 5 17 6 15 7 13 8 12 9 11 10 4 11 3 12
REMARK SMILES IDX 2 13 8 14 14 15 5 17 1 19 16 21
REMARK H PARENT 14 16 5 18 1 20 16 22
REMARK Flexibility Score: inf
ROOT
ATOM      1  C   UNL     1     125.683 135.352 131.650  1.00  0.00     0.041 C 
ATOM      2  C   UNL     1     125.487 134.104 132.523  1.00  0.00     0.041 C 
ATOM      3  C   UNL     1     126.182 134.269 133.853  1.00  0.00    -0.032 A 
ATOM      4  C   UNL     1     127.382 135.017 133.940  1.00  0.00     0.027 A 
ATOM      5  C   UNL     1     127.986 135.512 132.666  1.00  0.00    -0.007 A 
ATOM      6  C   UNL     1     129.375 135.665 132.503  1.00  0.00     0.059 A 
ATOM      7  C   UNL     1     129.909 136.115 131.287  1.00  0.00     0.158 A 
ATOM      8  C   UNL     1     129.056 136.377 130.204  1.00  0.00     0.157 A 
ATOM      9  C   UNL     1     127.682 136.152 130.332  1.00  0.00     0.054 A 
ATOM     10  C   UNL     1     127.149 135.685 131.541  1.00  0.00    -0.036 A 
ATOM     11  C   UNL     1     127.930 135.277 135.223  1.00  0.00     0.127 A 
ATOM     12  C   UNL     1     127.406 134.626 136.346  1.00  0.00     0.093 A 
ATOM     13  C   UNL     1     126.281 133.803 136.233  1.00  0.00     0.119 A 
ATOM     14  C   UNL     1     125.661 133.642 134.994  1.00  0.00     0.050 A 
ENDROOT
BRANCH   8  15
ATOM     15  O   UNL     1     129.556 136.842 128.988  1.00  0.00    -0.504 OA
ATOM     16  H   UNL     1     129.192 137.673 128.539  1.00  0.00     0.293 HD
ENDBRANCH   8  15
BRANCH  11  17
ATOM     17  O   UNL     1     128.943 136.214 135.434  1.00  0.00    -0.507 OA
ATOM     18  H   UNL     1     128.852 137.187 135.173  1.00  0.00     0.293 HD
ENDBRANCH  11  17
BRANCH  13  19
ATOM     19  O   UNL     1     125.756 133.160 137.352  1.00  0.00    -0.508 OA
ATOM     20  H   UNL     1     126.051 132.226 137.612  1.00  0.00     0.293 HD
ENDBRANCH  13  19
BRANCH   7  21
ATOM     21  O   UNL     1     131.285 136.293 131.150  1.00  0.00    -0.504 OA
ATOM     22  H   UNL     1     131.763 136.091 130.279  1.00  0.00     0.293 HD
ENDBRANCH   7  21
TORSDOF 4
ENDMDL
MODEL 8
REMARK VINA RESULT:    -5.291      2.687      6.040
REMARK INTER + INTRA:          -5.910
REMARK INTER:                  -5.910
REMARK INTRA:                   0.000
REMARK UNBOUND:                 0.000
REMARK SMILES Oc1cc(O)c2c(c1)CCc1cc(O)c(O)cc1-2
REMARK SMILES IDX 10 1 9 2 7 3 6 4 18 5 17 6 15 7 13 8 12 9 11 10 4 11 3 12
REMARK SMILES IDX 2 13 8 14 14 15 5 17 1 19 16 21
REMARK H PARENT 14 16 5 18 1 20 16 22
REMARK Flexibility Score: inf
ROOT
ATOM      1  C   UNL     1     127.724 121.549 137.608  1.00  0.00     0.041 C 
ATOM      2  C   UNL     1     126.514 120.797 138.181  1.00  0.00     0.041 C 
ATOM      3  C   UNL     1     125.960 121.518 139.386  1.00  0.00    -0.032 A 
ATOM      4  C   UNL     1     126.827 122.231 140.248  1.00  0.00     0.027 A 
ATOM      5  C   UNL     1     128.297 122.131 139.995  1.00  0.00    -0.007 A 
ATOM      6  C   UNL     1     129.244 122.199 141.033  1.00  0.00     0.059 A 
ATOM      7  C   UNL     1     130.615 122.082 140.760  1.00  0.00     0.158 A 
ATOM      8  C   UNL     1     131.049 121.854 139.445  1.00  0.00     0.157 A 
ATOM      9  C   UNL     1     130.110 121.705 138.420  1.00  0.00     0.054 A 
ATOM     10  C   UNL     1     128.738 121.803 138.694  1.00  0.00    -0.036 A 
ATOM     11  C   UNL     1     126.260 123.017 141.285  1.00  0.00     0.127 A 
ATOM     12  C   UNL     1     124.893 122.912 141.567  1.00  0.00     0.093 A 
ATOM     13  C   UNL     1     124.060 122.120 140.771  1.00  0.00     0.119 A 
ATOM     14  C   UNL     1     124.589 121.442 139.673  1.00  0.00     0.050 A 
ENDROOT
BRANCH   8  15
ATOM     15  O   UNL     1     132.406 121.751 139.141  1.00  0.00    -0.504 OA
ATOM     16  H   UNL     1     132.849 120.860 138.952  1.00  0.00     0.293 HD
ENDBRANCH   8  15
BRANCH  11  17
ATOM     17  O   UNL     1     126.999 123.954 142.010  1.00  0.00    -0.507 OA
ATOM     18  H   UNL     1     126.930 124.048 143.014  1.00  0.00     0.293 HD
ENDBRANCH  11  17
BRANCH  13  19
ATOM     19  O   UNL     1     122.698 122.020 141.049  1.00  0.00    -0.508 OA
ATOM     20  H   UNL     1     122.224 122.702 141.629  1.00  0.00     0.293 HD
ENDBRANCH  13  19
BRANCH   7  21
ATOM     21  O   UNL     1     131.545 122.185 141.793  1.00  0.00    -0.504 OA
ATOM     22  H   UNL     1     131.799 121.385 142.361  1.00  0.00     0.293 HD
ENDBRANCH   7  21
TORSDOF 4
ENDMDL
MODEL 9
REMARK VINA RESULT:    -5.212      2.590      5.562
REMARK INTER + INTRA:          -5.822
REMARK INTER:                  -5.822
REMARK INTRA:                   0.000
REMARK UNBOUND:                 0.000
REMARK SMILES Oc1cc(O)c2c(c1)CCc1cc(O)c(O)cc1-2
REMARK SMILES IDX 10 1 9 2 7 3 6 4 18 5 17 6 15 7 13 8 12 9 11 10 4 11 3 12
REMARK SMILES IDX 2 13 8 14 14 15 5 17 1 19 16 21
REMARK H PARENT 14 16 5 18 1 20 16 22
REMARK Flexibility Score: inf
ROOT
ATOM      1  C   UNL     1     127.093 122.630 140.446  1.00  0.00     0.041 C 
ATOM      2  C   UNL     1     126.102 122.959 139.321  1.00  0.00     0.041 C 
ATOM      3  C   UNL     1     125.960 121.791 138.375  1.00  0.00    -0.032 A 
ATOM      4  C   UNL     1     127.066 120.943 138.123  1.00  0.00     0.027 A 
ATOM      5  C   UNL     1     128.384 121.324 138.717  1.00  0.00    -0.007 A 
ATOM      6  C   UNL     1     129.606 121.022 138.088  1.00  0.00     0.059 A 
ATOM      7  C   UNL     1     130.824 121.412 138.665  1.00  0.00     0.158 A 
ATOM      8  C   UNL     1     130.827 122.147 139.860  1.00  0.00     0.157 A 
ATOM      9  C   UNL     1     129.615 122.520 140.449  1.00  0.00     0.054 A 
ATOM     10  C   UNL     1     128.397 122.148 139.864  1.00  0.00    -0.036 A 
ATOM     11  C   UNL     1     126.863 119.772 137.348  1.00  0.00     0.127 A 
ATOM     12  C   UNL     1     125.647 119.585 136.680  1.00  0.00     0.093 A 
ATOM     13  C   UNL     1     124.592 120.486 136.853  1.00  0.00     0.119 A 
ATOM     14  C   UNL     1     124.744 121.574 137.713  1.00  0.00     0.050 A 
ENDROOT
BRANCH   8  15
ATOM     15  O   UNL     1     132.023 122.534 140.465  1.00  0.00    -0.504 OA
ATOM     16  H   UNL     1     132.907 122.507 139.974  1.00  0.00     0.293 HD
ENDBRANCH   8  15
BRANCH  11  17
ATOM     17  O   UNL     1     127.808 118.749 137.266  1.00  0.00    -0.507 OA
ATOM     18  H   UNL     1     127.559 117.785 137.091  1.00  0.00     0.293 HD
ENDBRANCH  11  17
BRANCH  13  19
ATOM     19  O   UNL     1     123.380 120.297 136.192  1.00  0.00    -0.508 OA
ATOM     20  H   UNL     1     123.293 120.445 135.194  1.00  0.00     0.293 HD
ENDBRANCH  13  19
BRANCH   7  21
ATOM     21  O   UNL     1     132.029 121.077 138.049  1.00  0.00    -0.504 OA
ATOM     22  H   UNL     1     132.728 120.514 138.519  1.00  0.00     0.293 HD
ENDBRANCH   7  21
TORSDOF 4
ENDMDL
