MODEL 1
REMARK VINA RESULT:    -5.885      0.000      0.000
REMARK INTER + INTRA:          -6.428
REMARK INTER:                  -6.401
REMARK INTRA:                  -0.027
REMARK UNBOUND:                -0.027
REMARK SMILES O=C([O-])c1ccc(O)cc1
REMARK SMILES IDX 4 1 5 2 10 3 6 4 9 5 7 6 2 7 1 8 3 9 8 10
REMARK H PARENT 8 11
REMARK Flexibility Score: inf
ROOT
ATOM      1  C   UNL     1      12.142 -13.193  28.593  1.00  0.00    -0.003 A 
ATOM      2  C   UNL     1      10.955 -12.971  27.872  1.00  0.00     0.014 A 
ATOM      3  C   UNL     1      12.247 -12.692  29.904  1.00  0.00     0.014 A 
ATOM      4  C   UNL     1       9.896 -12.263  28.450  1.00  0.00     0.047 A 
ATOM      5  C   UNL     1      11.186 -11.983  30.478  1.00  0.00     0.047 A 
ATOM      6  C   UNL     1      10.008 -11.768  29.753  1.00  0.00     0.115 A 
ENDROOT
BRANCH   1   7
ATOM      7  C   UNL     1      13.260 -13.942  27.980  1.00  0.00     0.071 C 
ATOM      8  O   UNL     1      14.015 -13.390  27.134  1.00  0.00    -0.545 OA
ATOM      9  O   UNL     1      13.495 -15.267  28.329  1.00  0.00    -0.545 OA
ENDBRANCH   1   7
BRANCH   6  10
ATOM     10  O   UNL     1       8.945 -11.065  30.315  1.00  0.00    -0.508 OA
ATOM     11  H   UNL     1       9.020 -10.637  31.231  1.00  0.00     0.293 HD
ENDBRANCH   6  10
TORSDOF 2
ENDMDL
MODEL 2
REMARK VINA RESULT:    -5.846     12.494     13.287
REMARK INTER + INTRA:          -6.386
REMARK INTER:                  -6.358
REMARK INTRA:                  -0.028
REMARK UNBOUND:                -0.027
REMARK SMILES O=C([O-])c1ccc(O)cc1
REMARK SMILES IDX 4 1 5 2 10 3 6 4 9 5 7 6 2 7 1 8 3 9 8 10
REMARK H PARENT 8 11
REMARK Flexibility Score: inf
ROOT
ATOM      1  C   UNL     1      15.785  -0.894  26.366  1.00  0.00    -0.003 A 
ATOM      2  C   UNL     1      17.067  -0.810  25.795  1.00  0.00     0.014 A 
ATOM      3  C   UNL     1      15.508  -1.937  27.270  1.00  0.00     0.014 A 
ATOM      4  C   UNL     1      18.051  -1.750  26.120  1.00  0.00     0.047 A 
ATOM      5  C   UNL     1      16.495  -2.875  27.592  1.00  0.00     0.047 A 
ATOM      6  C   UNL     1      17.768  -2.783  27.018  1.00  0.00     0.115 A 
ENDROOT
BRANCH   1   7
ATOM      7  C   UNL     1      14.747   0.101  26.021  1.00  0.00     0.071 C 
ATOM      8  O   UNL     1      13.741  -0.232  25.338  1.00  0.00    -0.545 OA
ATOM      9  O   UNL     1      14.865   1.420  26.448  1.00  0.00    -0.545 OA
ENDBRANCH   1   7
BRANCH   6  10
ATOM     10  O   UNL     1      18.758  -3.711  27.333  1.00  0.00    -0.508 OA
ATOM     11  H   UNL     1      19.440  -3.530  28.060  1.00  0.00     0.293 HD
ENDBRANCH   6  10
TORSDOF 2
ENDMDL
MODEL 3
REMARK VINA RESULT:    -5.836      0.677      1.959
REMARK INTER + INTRA:          -6.375
REMARK INTER:                  -6.348
REMARK INTRA:                  -0.027
REMARK UNBOUND:                -0.027
REMARK SMILES O=C([O-])c1ccc(O)cc1
REMARK SMILES IDX 4 1 5 2 10 3 6 4 9 5 7 6 2 7 1 8 3 9 8 10
REMARK H PARENT 8 11
REMARK Flexibility Score: inf
ROOT
ATOM      1  C   UNL     1      12.160 -13.429  28.221  1.00  0.00    -0.003 A 
ATOM      2  C   UNL     1      12.076 -12.703  29.422  1.00  0.00     0.014 A 
ATOM      3  C   UNL     1      11.081 -13.379  27.318  1.00  0.00     0.014 A 
ATOM      4  C   UNL     1      10.938 -11.944  29.715  1.00  0.00     0.047 A 
ATOM      5  C   UNL     1       9.944 -12.620  27.614  1.00  0.00     0.047 A 
ATOM      6  C   UNL     1       9.870 -11.901  28.813  1.00  0.00     0.115 A 
ENDROOT
BRANCH   1   7
ATOM      7  C   UNL     1      13.364 -14.229  27.913  1.00  0.00     0.071 C 
ATOM      8  O   UNL     1      13.538 -15.358  28.447  1.00  0.00    -0.545 OA
ATOM      9  O   UNL     1      14.323 -13.748  27.027  1.00  0.00    -0.545 OA
ENDBRANCH   1   7
BRANCH   6  10
ATOM     10  O   UNL     1       8.743 -11.141  29.119  1.00  0.00    -0.508 OA
ATOM     11  H   UNL     1       8.782 -10.128  29.153  1.00  0.00     0.293 HD
ENDBRANCH   6  10
TORSDOF 2
ENDMDL
MODEL 4
REMARK VINA RESULT:    -5.828     12.454     13.265
REMARK INTER + INTRA:          -6.367
REMARK INTER:                  -6.339
REMARK INTRA:                  -0.027
REMARK UNBOUND:                -0.027
REMARK SMILES O=C([O-])c1ccc(O)cc1
REMARK SMILES IDX 4 1 5 2 10 3 6 4 9 5 7 6 2 7 1 8 3 9 8 10
REMARK H PARENT 8 11
REMARK Flexibility Score: inf
ROOT
ATOM      1  C   UNL     1      15.791  -0.945  26.389  1.00  0.00    -0.003 A 
ATOM      2  C   UNL     1      15.554  -1.995  27.293  1.00  0.00     0.014 A 
ATOM      3  C   UNL     1      17.061  -0.832  25.792  1.00  0.00     0.014 A 
ATOM      4  C   UNL     1      16.566  -2.912  27.596  1.00  0.00     0.047 A 
ATOM      5  C   UNL     1      18.070  -1.752  26.098  1.00  0.00     0.047 A 
ATOM      6  C   UNL     1      17.825  -2.794  27.000  1.00  0.00     0.115 A 
ENDROOT
BRANCH   1   7
ATOM      7  C   UNL     1      14.720   0.024  26.071  1.00  0.00     0.071 C 
ATOM      8  O   UNL     1      13.768  -0.298  25.310  1.00  0.00    -0.545 OA
ATOM      9  O   UNL     1      14.748   1.307  26.608  1.00  0.00    -0.545 OA
ENDBRANCH   1   7
BRANCH   6  10
ATOM     10  O   UNL     1      18.822  -3.715  27.311  1.00  0.00    -0.508 OA
ATOM     11  H   UNL     1      18.624  -4.708  27.371  1.00  0.00     0.293 HD
ENDBRANCH   6  10
TORSDOF 2
ENDMDL
MODEL 5
REMARK VINA RESULT:    -5.825      2.008      2.323
REMARK INTER + INTRA:          -6.364
REMARK INTER:                  -6.328
REMARK INTRA:                  -0.036
REMARK UNBOUND:                -0.027
REMARK SMILES O=C([O-])c1ccc(O)cc1
REMARK SMILES IDX 4 1 5 2 10 3 6 4 9 5 7 6 2 7 1 8 3 9 8 10
REMARK H PARENT 8 11
REMARK Flexibility Score: inf
ROOT
ATOM      1  C   UNL     1      11.552 -12.166  28.791  1.00  0.00    -0.003 A 
ATOM      2  C   UNL     1      10.518 -11.220  28.682  1.00  0.00     0.014 A 
ATOM      3  C   UNL     1      12.548 -11.978  29.768  1.00  0.00     0.014 A 
ATOM      4  C   UNL     1      10.481 -10.108  29.530  1.00  0.00     0.047 A 
ATOM      5  C   UNL     1      12.508 -10.864  30.614  1.00  0.00     0.047 A 
ATOM      6  C   UNL     1      11.475  -9.927  30.497  1.00  0.00     0.115 A 
ENDROOT
BRANCH   1   7
ATOM      7  C   UNL     1      11.589 -13.341  27.894  1.00  0.00     0.071 C 
ATOM      8  O   UNL     1      12.469 -14.232  28.039  1.00  0.00    -0.545 OA
ATOM      9  O   UNL     1      10.651 -13.480  26.876  1.00  0.00    -0.545 OA
ENDBRANCH   1   7
BRANCH   6  10
ATOM     10  O   UNL     1      11.424  -8.815  31.334  1.00  0.00    -0.508 OA
ATOM     11  H   UNL     1      12.064  -8.711  32.114  1.00  0.00     0.293 HD
ENDBRANCH   6  10
TORSDOF 2
ENDMDL
MODEL 6
REMARK VINA RESULT:    -5.582      1.271      4.464
REMARK INTER + INTRA:          -6.099
REMARK INTER:                  -6.063
REMARK INTRA:                  -0.036
REMARK UNBOUND:                -0.027
REMARK SMILES O=C([O-])c1ccc(O)cc1
REMARK SMILES IDX 4 1 5 2 10 3 6 4 9 5 7 6 2 7 1 8 3 9 8 10
REMARK H PARENT 8 11
REMARK Flexibility Score: inf
ROOT
ATOM      1  C   UNL     1      11.376 -11.878  28.975  1.00  0.00    -0.003 A 
ATOM      2  C   UNL     1      12.605 -11.764  29.650  1.00  0.00     0.014 A 
ATOM      3  C   UNL     1      11.203 -12.921  28.046  1.00  0.00     0.014 A 
ATOM      4  C   UNL     1      13.638 -12.674  29.401  1.00  0.00     0.047 A 
ATOM      5  C   UNL     1      12.239 -13.829  27.799  1.00  0.00     0.047 A 
ATOM      6  C   UNL     1      13.458 -13.707  28.476  1.00  0.00     0.115 A 
ENDROOT
BRANCH   1   7
ATOM      7  C   UNL     1      10.285 -10.915  29.240  1.00  0.00     0.071 C 
ATOM      8  O   UNL     1       9.128 -11.115  28.783  1.00  0.00    -0.545 OA
ATOM      9  O   UNL     1      10.522  -9.774  30.000  1.00  0.00    -0.545 OA
ENDBRANCH   1   7
BRANCH   6  10
ATOM     10  O   UNL     1      14.496 -14.605  28.239  1.00  0.00    -0.508 OA
ATOM     11  H   UNL     1      14.680 -14.967  27.311  1.00  0.00     0.293 HD
ENDBRANCH   6  10
TORSDOF 2
ENDMDL
MODEL 7
REMARK VINA RESULT:    -5.566     12.049     12.398
REMARK INTER + INTRA:          -6.082
REMARK INTER:                  -6.047
REMARK INTRA:                  -0.035
REMARK UNBOUND:                -0.027
REMARK SMILES O=C([O-])c1ccc(O)cc1
REMARK SMILES IDX 4 1 5 2 10 3 6 4 9 5 7 6 2 7 1 8 3 9 8 10
REMARK H PARENT 8 11
REMARK Flexibility Score: inf
ROOT
ATOM      1  C   UNL     1      16.263  -2.059  27.055  1.00  0.00    -0.003 A 
ATOM      2  C   UNL     1      14.874  -2.167  27.243  1.00  0.00     0.014 A 
ATOM      3  C   UNL     1      16.759  -1.060  26.196  1.00  0.00     0.014 A 
ATOM      4  C   UNL     1      13.999  -1.296  26.586  1.00  0.00     0.047 A 
ATOM      5  C   UNL     1      15.881  -0.191  25.539  1.00  0.00     0.047 A 
ATOM      6  C   UNL     1      14.499  -0.307  25.733  1.00  0.00     0.115 A 
ENDROOT
BRANCH   1   7
ATOM      7  C   UNL     1      17.186  -2.981  27.751  1.00  0.00     0.071 C 
ATOM      8  O   UNL     1      16.827  -3.575  28.803  1.00  0.00    -0.545 OA
ATOM      9  O   UNL     1      18.465  -3.207  27.253  1.00  0.00    -0.545 OA
ENDBRANCH   1   7
BRANCH   6  10
ATOM     10  O   UNL     1      13.615   0.553  25.085  1.00  0.00    -0.508 OA
ATOM     11  H   UNL     1      13.279   0.359  24.149  1.00  0.00     0.293 HD
ENDBRANCH   6  10
TORSDOF 2
ENDMDL
MODEL 8
REMARK VINA RESULT:    -5.523     12.021     12.380
REMARK INTER + INTRA:          -6.035
REMARK INTER:                  -6.001
REMARK INTRA:                  -0.034
REMARK UNBOUND:                -0.027
REMARK SMILES O=C([O-])c1ccc(O)cc1
REMARK SMILES IDX 4 1 5 2 10 3 6 4 9 5 7 6 2 7 1 8 3 9 8 10
REMARK H PARENT 8 11
REMARK Flexibility Score: inf
ROOT
ATOM      1  C   UNL     1      16.255  -2.084  27.072  1.00  0.00    -0.003 A 
ATOM      2  C   UNL     1      16.746  -1.080  26.219  1.00  0.00     0.014 A 
ATOM      3  C   UNL     1      14.864  -2.213  27.244  1.00  0.00     0.014 A 
ATOM      4  C   UNL     1      15.865  -0.222  25.553  1.00  0.00     0.047 A 
ATOM      5  C   UNL     1      13.986  -1.352  26.576  1.00  0.00     0.047 A 
ATOM      6  C   UNL     1      14.484  -0.355  25.729  1.00  0.00     0.115 A 
ENDROOT
BRANCH   1   7
ATOM      7  C   UNL     1      17.188  -2.990  27.775  1.00  0.00     0.071 C 
ATOM      8  O   UNL     1      16.851  -3.548  28.853  1.00  0.00    -0.545 OA
ATOM      9  O   UNL     1      18.454  -3.241  27.254  1.00  0.00    -0.545 OA
ENDBRANCH   1   7
BRANCH   6  10
ATOM     10  O   UNL     1      13.619   0.507  25.058  1.00  0.00    -0.508 OA
ATOM     11  H   UNL     1      13.822   0.835  24.121  1.00  0.00     0.293 HD
ENDBRANCH   6  10
TORSDOF 2
ENDMDL
MODEL 9
REMARK VINA RESULT:    -5.444      2.250      3.955
REMARK INTER + INTRA:          -5.948
REMARK INTER:                  -5.915
REMARK INTRA:                  -0.033
REMARK UNBOUND:                -0.027
REMARK SMILES O=C([O-])c1ccc(O)cc1
REMARK SMILES IDX 4 1 5 2 10 3 6 4 9 5 7 6 2 7 1 8 3 9 8 10
REMARK H PARENT 8 11
REMARK Flexibility Score: inf
ROOT
ATOM      1  C   UNL     1      11.724 -11.180  29.956  1.00  0.00    -0.003 A 
ATOM      2  C   UNL     1      12.567 -12.227  29.543  1.00  0.00     0.014 A 
ATOM      3  C   UNL     1      10.489 -11.002  29.304  1.00  0.00     0.014 A 
ATOM      4  C   UNL     1      12.183 -13.077  28.501  1.00  0.00     0.047 A 
ATOM      5  C   UNL     1      10.109 -11.854  28.262  1.00  0.00     0.047 A 
ATOM      6  C   UNL     1      10.955 -12.893  27.858  1.00  0.00     0.115 A 
ENDROOT
BRANCH   1   7
ATOM      7  C   UNL     1      12.131 -10.283  31.058  1.00  0.00     0.071 C 
ATOM      8  O   UNL     1      11.752  -9.081  31.081  1.00  0.00    -0.545 OA
ATOM      9  O   UNL     1      12.939 -10.754  32.088  1.00  0.00    -0.545 OA
ENDBRANCH   1   7
BRANCH   6  10
ATOM     10  O   UNL     1      10.587 -13.748  26.821  1.00  0.00    -0.508 OA
ATOM     11  H   UNL     1       9.826 -14.409  26.927  1.00  0.00     0.293 HD
ENDBRANCH   6  10
TORSDOF 2
ENDMDL
