MODEL 1
REMARK VINA RESULT:    -3.811      0.000      0.000
REMARK INTER + INTRA:          -9.265
REMARK INTER:                  -7.152
REMARK INTRA:                  -2.113
REMARK UNBOUND:                -2.113
REMARK SMILES O=C([O-])CCCCCCCCCCCCCCC(=O)[O-]
REMARK SMILES IDX 10 1 9 2 8 3 7 4 6 5 5 6 4 7 2 8 1 9 3 10 11 11 12 12 13 13
REMARK SMILES IDX 14 14 15 15 16 16 17 17 18 18 19 19 20 20
REMARK H PARENT
REMARK Flexibility Score: inf
ROOT
ATOM      1  C   UNL     1     132.649 130.177 115.420  1.00  0.00     0.000 C 
ENDROOT
BRANCH   1   2
ATOM      2  C   UNL     1     131.960 131.519 115.115  1.00  0.00     0.000 C 
BRANCH   2   3
ATOM      3  C   UNL     1     131.623 131.760 113.631  1.00  0.00     0.000 C 
BRANCH   3   4
ATOM      4  C   UNL     1     130.269 132.455 113.429  1.00  0.00     0.000 C 
BRANCH   4   5
ATOM      5  C   UNL     1     129.159 131.732 114.206  1.00  0.00     0.000 C 
BRANCH   5   6
ATOM      6  C   UNL     1     128.001 132.667 114.591  1.00  0.00     0.006 C 
BRANCH   6   7
ATOM      7  C   UNL     1     128.141 133.225 116.013  1.00  0.00     0.053 C 
BRANCH   7   8
ATOM      8  C   UNL     1     128.277 132.111 117.001  1.00  0.00     0.041 C 
ATOM      9  O   UNL     1     127.304 131.348 117.236  1.00  0.00    -0.550 OA
ATOM     10  O   UNL     1     129.495 131.887 117.633  1.00  0.00    -0.550 OA
ENDBRANCH   7   8
ENDBRANCH   6   7
ENDBRANCH   5   6
ENDBRANCH   4   5
ENDBRANCH   3   4
ENDBRANCH   2   3
ENDBRANCH   1   2
BRANCH   1  11
ATOM     11  C   UNL     1     132.311 129.084 114.391  1.00  0.00     0.000 C 
BRANCH  11  12
ATOM     12  C   UNL     1     131.611 127.871 115.024  1.00  0.00     0.000 C 
BRANCH  12  13
ATOM     13  C   UNL     1     130.076 127.987 114.987  1.00  0.00     0.000 C 
BRANCH  13  14
ATOM     14  C   UNL     1     129.501 128.629 116.259  1.00  0.00     0.000 C 
BRANCH  14  15
ATOM     15  C   UNL     1     130.226 128.172 117.535  1.00  0.00     0.000 C 
BRANCH  15  16
ATOM     16  C   UNL     1     129.247 128.045 118.708  1.00  0.00     0.006 C 
BRANCH  16  17
ATOM     17  C   UNL     1     129.535 129.100 119.780  1.00  0.00     0.053 C 
BRANCH  17  18
ATOM     18  C   UNL     1     128.269 129.763 120.219  1.00  0.00     0.041 C 
ATOM     19  O   UNL     1     127.168 129.160 120.113  1.00  0.00    -0.550 OA
ATOM     20  O   UNL     1     128.295 131.067 120.698  1.00  0.00    -0.550 OA
ENDBRANCH  17  18
ENDBRANCH  16  17
ENDBRANCH  15  16
ENDBRANCH  14  15
ENDBRANCH  13  14
ENDBRANCH  12  13
ENDBRANCH  11  12
ENDBRANCH   1  11
TORSDOF 15
ENDMDL
MODEL 2
REMARK VINA RESULT:    -3.793     10.639     13.034
REMARK INTER + INTRA:          -9.232
REMARK INTER:                  -7.066
REMARK INTRA:                  -2.166
REMARK UNBOUND:                -2.113
REMARK SMILES O=C([O-])CCCCCCCCCCCCCCC(=O)[O-]
REMARK SMILES IDX 10 1 9 2 8 3 7 4 6 5 5 6 4 7 2 8 1 9 3 10 11 11 12 12 13 13
REMARK SMILES IDX 14 14 15 15 16 16 17 17 18 18 19 19 20 20
REMARK H PARENT
REMARK Flexibility Score: inf
ROOT
ATOM      1  C   UNL     1     141.805 129.123 116.022  1.00  0.00     0.000 C 
ENDROOT
BRANCH   1   2
ATOM      2  C   UNL     1     142.447 128.172 114.995  1.00  0.00     0.000 C 
BRANCH   2   3
ATOM      3  C   UNL     1     143.644 127.356 115.517  1.00  0.00     0.000 C 
BRANCH   3   4
ATOM      4  C   UNL     1     144.915 127.553 114.678  1.00  0.00     0.000 C 
BRANCH   4   5
ATOM      5  C   UNL     1     145.156 129.042 114.388  1.00  0.00     0.000 C 
BRANCH   5   6
ATOM      6  C   UNL     1     146.028 129.720 115.456  1.00  0.00     0.006 C 
BRANCH   6   7
ATOM      7  C   UNL     1     145.215 130.611 116.404  1.00  0.00     0.053 C 
BRANCH   7   8
ATOM      8  C   UNL     1     145.160 130.006 117.771  1.00  0.00     0.041 C 
ATOM      9  O   UNL     1     144.416 130.505 118.656  1.00  0.00    -0.550 OA
ATOM     10  O   UNL     1     145.899 128.864 118.056  1.00  0.00    -0.550 OA
ENDBRANCH   7   8
ENDBRANCH   6   7
ENDBRANCH   5   6
ENDBRANCH   4   5
ENDBRANCH   3   4
ENDBRANCH   2   3
ENDBRANCH   1   2
BRANCH   1  11
ATOM     11  C   UNL     1     141.094 130.319 115.365  1.00  0.00     0.000 C 
BRANCH  11  12
ATOM     12  C   UNL     1     140.611 130.010 113.939  1.00  0.00     0.000 C 
BRANCH  12  13
ATOM     13  C   UNL     1     139.110 129.676 113.881  1.00  0.00     0.000 C 
BRANCH  13  14
ATOM     14  C   UNL     1     138.828 128.337 113.182  1.00  0.00     0.000 C 
BRANCH  14  15
ATOM     15  C   UNL     1     138.795 127.152 114.160  1.00  0.00     0.000 C 
BRANCH  15  16
ATOM     16  C   UNL     1     138.330 127.601 115.551  1.00  0.00     0.006 C 
BRANCH  16  17
ATOM     17  C   UNL     1     139.146 126.915 116.650  1.00  0.00     0.053 C 
BRANCH  17  18
ATOM     18  C   UNL     1     138.874 127.547 117.978  1.00  0.00     0.041 C 
ATOM     19  O   UNL     1     137.859 128.276 118.137  1.00  0.00    -0.550 OA
ATOM     20  O   UNL     1     139.768 127.374 119.027  1.00  0.00    -0.550 OA
ENDBRANCH  17  18
ENDBRANCH  16  17
ENDBRANCH  15  16
ENDBRANCH  14  15
ENDBRANCH  13  14
ENDBRANCH  12  13
ENDBRANCH  11  12
ENDBRANCH   1  11
TORSDOF 15
ENDMDL
MODEL 3
REMARK VINA RESULT:    -3.776     10.064     12.451
REMARK INTER + INTRA:          -9.201
REMARK INTER:                  -7.739
REMARK INTRA:                  -1.462
REMARK UNBOUND:                -2.113
REMARK SMILES O=C([O-])CCCCCCCCCCCCCCC(=O)[O-]
REMARK SMILES IDX 10 1 9 2 8 3 7 4 6 5 5 6 4 7 2 8 1 9 3 10 11 11 12 12 13 13
REMARK SMILES IDX 14 14 15 15 16 16 17 17 18 18 19 19 20 20
REMARK H PARENT
REMARK Flexibility Score: inf
ROOT
ATOM      1  C   UNL     1     142.008 130.008 114.471  1.00  0.00     0.000 C 
ENDROOT
BRANCH   1   2
ATOM      2  C   UNL     1     141.766 128.919 115.532  1.00  0.00     0.000 C 
BRANCH   2   3
ATOM      3  C   UNL     1     142.445 127.566 115.249  1.00  0.00     0.000 C 
BRANCH   3   4
ATOM      4  C   UNL     1     143.917 127.532 115.685  1.00  0.00     0.000 C 
BRANCH   4   5
ATOM      5  C   UNL     1     144.853 127.646 114.471  1.00  0.00     0.000 C 
BRANCH   5   6
ATOM      6  C   UNL     1     145.610 128.982 114.430  1.00  0.00     0.006 C 
BRANCH   6   7
ATOM      7  C   UNL     1     145.964 129.503 115.829  1.00  0.00     0.053 C 
BRANCH   7   8
ATOM      8  C   UNL     1     146.014 130.998 115.833  1.00  0.00     0.041 C 
ATOM      9  O   UNL     1     147.122 131.596 115.795  1.00  0.00    -0.550 OA
ATOM     10  O   UNL     1     144.835 131.734 115.834  1.00  0.00    -0.550 OA
ENDBRANCH   7   8
ENDBRANCH   6   7
ENDBRANCH   5   6
ENDBRANCH   4   5
ENDBRANCH   3   4
ENDBRANCH   2   3
ENDBRANCH   1   2
BRANCH   1  11
ATOM     11  C   UNL     1     140.761 130.300 113.619  1.00  0.00     0.000 C 
BRANCH  11  12
ATOM     12  C   UNL     1     139.500 129.607 114.160  1.00  0.00     0.000 C 
BRANCH  12  13
ATOM     13  C   UNL     1     138.813 128.719 113.107  1.00  0.00     0.000 C 
BRANCH  13  14
ATOM     14  C   UNL     1     138.493 127.313 113.637  1.00  0.00     0.000 C 
BRANCH  14  15
ATOM     15  C   UNL     1     138.267 127.288 115.156  1.00  0.00     0.000 C 
BRANCH  15  16
ATOM     16  C   UNL     1     136.773 127.199 115.488  1.00  0.00     0.006 C 
BRANCH  16  17
ATOM     17  C   UNL     1     136.396 128.186 116.597  1.00  0.00     0.053 C 
BRANCH  17  18
ATOM     18  C   UNL     1     134.950 128.051 116.951  1.00  0.00     0.041 C 
ATOM     19  O   UNL     1     134.610 127.485 118.024  1.00  0.00    -0.550 OA
ATOM     20  O   UNL     1     133.973 128.503 116.073  1.00  0.00    -0.550 OA
ENDBRANCH  17  18
ENDBRANCH  16  17
ENDBRANCH  15  16
ENDBRANCH  14  15
ENDBRANCH  13  14
ENDBRANCH  12  13
ENDBRANCH  11  12
ENDBRANCH   1  11
TORSDOF 15
ENDMDL
MODEL 4
REMARK VINA RESULT:    -3.758     14.507     16.659
REMARK INTER + INTRA:          -9.166
REMARK INTER:                  -7.923
REMARK INTRA:                  -1.243
REMARK UNBOUND:                -2.113
REMARK SMILES O=C([O-])CCCCCCCCCCCCCCC(=O)[O-]
REMARK SMILES IDX 10 1 9 2 8 3 7 4 6 5 5 6 4 7 2 8 1 9 3 10 11 11 12 12 13 13
REMARK SMILES IDX 14 14 15 15 16 16 17 17 18 18 19 19 20 20
REMARK H PARENT
REMARK Flexibility Score: inf
ROOT
ATOM      1  C   UNL     1     146.184 130.013 115.833  1.00  0.00     0.000 C 
ENDROOT
BRANCH   1   2
ATOM      2  C   UNL     1     145.315 129.525 114.659  1.00  0.00     0.000 C 
BRANCH   2   3
ATOM      3  C   UNL     1     145.535 128.057 114.249  1.00  0.00     0.000 C 
BRANCH   3   4
ATOM      4  C   UNL     1     145.091 127.060 115.329  1.00  0.00     0.000 C 
BRANCH   4   5
ATOM      5  C   UNL     1     143.692 127.410 115.859  1.00  0.00     0.000 C 
BRANCH   5   6
ATOM      6  C   UNL     1     143.666 127.599 117.384  1.00  0.00     0.006 C 
BRANCH   6   7
ATOM      7  C   UNL     1     144.871 126.952 118.079  1.00  0.00     0.053 C 
BRANCH   7   8
ATOM      8  C   UNL     1     145.464 127.891 119.080  1.00  0.00     0.041 C 
ATOM      9  O   UNL     1     146.347 127.489 119.882  1.00  0.00    -0.550 OA
ATOM     10  O   UNL     1     145.073 129.225 119.099  1.00  0.00    -0.550 OA
ENDBRANCH   7   8
ENDBRANCH   6   7
ENDBRANCH   5   6
ENDBRANCH   4   5
ENDBRANCH   3   4
ENDBRANCH   2   3
ENDBRANCH   1   2
BRANCH   1  11
ATOM     11  C   UNL     1     146.224 131.547 115.949  1.00  0.00     0.000 C 
BRANCH  11  12
ATOM     12  C   UNL     1     144.820 132.172 116.003  1.00  0.00     0.000 C 
BRANCH  12  13
ATOM     13  C   UNL     1     144.859 133.710 116.068  1.00  0.00     0.000 C 
BRANCH  13  14
ATOM     14  C   UNL     1     146.265 134.276 115.815  1.00  0.00     0.000 C 
BRANCH  14  15
ATOM     15  C   UNL     1     146.423 134.867 114.406  1.00  0.00     0.000 C 
BRANCH  15  16
ATOM     16  C   UNL     1     145.760 136.246 114.310  1.00  0.00     0.006 C 
BRANCH  16  17
ATOM     17  C   UNL     1     144.833 136.328 113.094  1.00  0.00     0.053 C 
BRANCH  17  18
ATOM     18  C   UNL     1     143.445 136.694 113.515  1.00  0.00     0.041 C 
ATOM     19  O   UNL     1     142.996 137.848 113.284  1.00  0.00    -0.550 OA
ATOM     20  O   UNL     1     142.664 135.778 114.209  1.00  0.00    -0.550 OA
ENDBRANCH  17  18
ENDBRANCH  16  17
ENDBRANCH  15  16
ENDBRANCH  14  15
ENDBRANCH  13  14
ENDBRANCH  12  13
ENDBRANCH  11  12
ENDBRANCH   1  11
TORSDOF 15
ENDMDL
MODEL 5
REMARK VINA RESULT:    -3.732     10.696     13.339
REMARK INTER + INTRA:          -9.118
REMARK INTER:                  -7.402
REMARK INTRA:                  -1.717
REMARK UNBOUND:                -2.113
REMARK SMILES O=C([O-])CCCCCCCCCCCCCCC(=O)[O-]
REMARK SMILES IDX 10 1 9 2 8 3 7 4 6 5 5 6 4 7 2 8 1 9 3 10 11 11 12 12 13 13
REMARK SMILES IDX 14 14 15 15 16 16 17 17 18 18 19 19 20 20
REMARK H PARENT
REMARK Flexibility Score: inf
ROOT
ATOM      1  C   UNL     1     140.418 128.277 117.163  1.00  0.00     0.000 C 
ENDROOT
BRANCH   1   2
ATOM      2  C   UNL     1     139.606 127.124 116.543  1.00  0.00     0.000 C 
BRANCH   2   3
ATOM      3  C   UNL     1     138.081 127.334 116.524  1.00  0.00     0.000 C 
BRANCH   3   4
ATOM      4  C   UNL     1     137.545 127.709 115.135  1.00  0.00     0.000 C 
BRANCH   4   5
ATOM      5  C   UNL     1     138.618 127.495 114.056  1.00  0.00     0.000 C 
BRANCH   5   6
ATOM      6  C   UNL     1     138.827 128.736 113.175  1.00  0.00     0.006 C 
BRANCH   6   7
ATOM      7  C   UNL     1     139.879 129.695 113.745  1.00  0.00     0.053 C 
BRANCH   7   8
ATOM      8  C   UNL     1     139.244 130.987 114.153  1.00  0.00     0.041 C 
ATOM      9  O   UNL     1     139.223 131.963 113.358  1.00  0.00    -0.550 OA
ATOM     10  O   UNL     1     138.634 131.099 115.397  1.00  0.00    -0.550 OA
ENDBRANCH   7   8
ENDBRANCH   6   7
ENDBRANCH   5   6
ENDBRANCH   4   5
ENDBRANCH   3   4
ENDBRANCH   2   3
ENDBRANCH   1   2
BRANCH   1  11
ATOM     11  C   UNL     1     141.907 128.231 116.780  1.00  0.00     0.000 C 
BRANCH  11  12
ATOM     12  C   UNL     1     142.177 127.336 115.560  1.00  0.00     0.000 C 
BRANCH  12  13
ATOM     13  C   UNL     1     143.606 127.497 115.012  1.00  0.00     0.000 C 
BRANCH  13  14
ATOM     14  C   UNL     1     143.936 128.951 114.639  1.00  0.00     0.000 C 
BRANCH  14  15
ATOM     15  C   UNL     1     145.445 129.236 114.634  1.00  0.00     0.000 C 
BRANCH  15  16
ATOM     16  C   UNL     1     145.899 129.818 115.978  1.00  0.00     0.006 C 
BRANCH  16  17
ATOM     17  C   UNL     1     146.776 131.057 115.773  1.00  0.00     0.053 C 
BRANCH  17  18
ATOM     18  C   UNL     1     146.043 132.293 116.186  1.00  0.00     0.041 C 
ATOM     19  O   UNL     1     146.673 133.272 116.667  1.00  0.00    -0.550 OA
ATOM     20  O   UNL     1     144.659 132.347 116.088  1.00  0.00    -0.550 OA
ENDBRANCH  17  18
ENDBRANCH  16  17
ENDBRANCH  15  16
ENDBRANCH  14  15
ENDBRANCH  13  14
ENDBRANCH  12  13
ENDBRANCH  11  12
ENDBRANCH   1  11
TORSDOF 15
ENDMDL
MODEL 6
REMARK VINA RESULT:    -3.704     10.073     12.838
REMARK INTER + INTRA:          -9.065
REMARK INTER:                  -7.105
REMARK INTRA:                  -1.961
REMARK UNBOUND:                -2.113
REMARK SMILES O=C([O-])CCCCCCCCCCCCCCC(=O)[O-]
REMARK SMILES IDX 10 1 9 2 8 3 7 4 6 5 5 6 4 7 2 8 1 9 3 10 11 11 12 12 13 13
REMARK SMILES IDX 14 14 15 15 16 16 17 17 18 18 19 19 20 20
REMARK H PARENT
REMARK Flexibility Score: inf
ROOT
ATOM      1  C   UNL     1     139.940 128.596 117.701  1.00  0.00     0.000 C 
ENDROOT
BRANCH   1   2
ATOM      2  C   UNL     1     141.199 128.886 116.863  1.00  0.00     0.000 C 
BRANCH   2   3
ATOM      3  C   UNL     1     142.074 127.658 116.551  1.00  0.00     0.000 C 
BRANCH   3   4
ATOM      4  C   UNL     1     142.462 127.560 115.069  1.00  0.00     0.000 C 
BRANCH   4   5
ATOM      5  C   UNL     1     143.985 127.658 114.891  1.00  0.00     0.000 C 
BRANCH   5   6
ATOM      6  C   UNL     1     144.462 129.101 114.661  1.00  0.00     0.006 C 
BRANCH   6   7
ATOM      7  C   UNL     1     145.794 129.401 115.361  1.00  0.00     0.053 C 
BRANCH   7   8
ATOM      8  C   UNL     1     145.581 129.597 116.828  1.00  0.00     0.041 C 
ATOM      9  O   UNL     1     144.989 130.624 117.252  1.00  0.00    -0.550 OA
ATOM     10  O   UNL     1     145.999 128.624 117.727  1.00  0.00    -0.550 OA
ENDBRANCH   7   8
ENDBRANCH   6   7
ENDBRANCH   5   6
ENDBRANCH   4   5
ENDBRANCH   3   4
ENDBRANCH   2   3
ENDBRANCH   1   2
BRANCH   1  11
ATOM     11  C   UNL     1     139.360 127.195 117.441  1.00  0.00     0.000 C 
BRANCH  11  12
ATOM     12  C   UNL     1     137.871 127.233 117.060  1.00  0.00     0.000 C 
BRANCH  12  13
ATOM     13  C   UNL     1     137.609 128.027 115.768  1.00  0.00     0.000 C 
BRANCH  13  14
ATOM     14  C   UNL     1     137.827 127.185 114.502  1.00  0.00     0.000 C 
BRANCH  14  15
ATOM     15  C   UNL     1     139.073 127.612 113.710  1.00  0.00     0.000 C 
BRANCH  15  16
ATOM     16  C   UNL     1     138.855 128.971 113.034  1.00  0.00     0.006 C 
BRANCH  16  17
ATOM     17  C   UNL     1     139.805 130.027 113.606  1.00  0.00     0.053 C 
BRANCH  17  18
ATOM     18  C   UNL     1     139.039 131.220 114.083  1.00  0.00     0.041 C 
ATOM     19  O   UNL     1     137.779 131.214 114.061  1.00  0.00    -0.550 OA
ATOM     20  O   UNL     1     139.714 132.359 114.502  1.00  0.00    -0.550 OA
ENDBRANCH  17  18
ENDBRANCH  16  17
ENDBRANCH  15  16
ENDBRANCH  14  15
ENDBRANCH  13  14
ENDBRANCH  12  13
ENDBRANCH  11  12
ENDBRANCH   1  11
TORSDOF 15
ENDMDL
MODEL 7
REMARK VINA RESULT:    -3.697      1.709      2.893
REMARK INTER + INTRA:          -9.052
REMARK INTER:                  -6.520
REMARK INTRA:                  -2.532
REMARK UNBOUND:                -2.113
REMARK SMILES O=C([O-])CCCCCCCCCCCCCCC(=O)[O-]
REMARK SMILES IDX 10 1 9 2 8 3 7 4 6 5 5 6 4 7 2 8 1 9 3 10 11 11 12 12 13 13
REMARK SMILES IDX 14 14 15 15 16 16 17 17 18 18 19 19 20 20
REMARK H PARENT
REMARK Flexibility Score: inf
ROOT
ATOM      1  C   UNL     1     127.871 130.231 114.207  1.00  0.00     0.000 C 
ENDROOT
BRANCH   1   2
ATOM      2  C   UNL     1     128.056 131.645 113.625  1.00  0.00     0.000 C 
BRANCH   2   3
ATOM      3  C   UNL     1     129.486 132.210 113.723  1.00  0.00     0.000 C 
BRANCH   3   4
ATOM      4  C   UNL     1     129.607 133.360 114.734  1.00  0.00     0.000 C 
BRANCH   4   5
ATOM      5  C   UNL     1     130.765 133.111 115.712  1.00  0.00     0.000 C 
BRANCH   5   6
ATOM      6  C   UNL     1     130.286 132.592 117.077  1.00  0.00     0.006 C 
BRANCH   6   7
ATOM      7  C   UNL     1     128.824 132.953 117.366  1.00  0.00     0.053 C 
BRANCH   7   8
ATOM      8  C   UNL     1     128.149 131.847 118.114  1.00  0.00     0.041 C 
ATOM      9  O   UNL     1     128.611 131.453 119.216  1.00  0.00    -0.550 OA
ATOM     10  O   UNL     1     126.983 131.280 117.614  1.00  0.00    -0.550 OA
ENDBRANCH   7   8
ENDBRANCH   6   7
ENDBRANCH   5   6
ENDBRANCH   4   5
ENDBRANCH   3   4
ENDBRANCH   2   3
ENDBRANCH   1   2
BRANCH   1  11
ATOM     11  C   UNL     1     129.006 129.824 115.161  1.00  0.00     0.000 C 
BRANCH  11  12
ATOM     12  C   UNL     1     129.462 128.371 114.953  1.00  0.00     0.000 C 
BRANCH  12  13
ATOM     13  C   UNL     1     130.986 128.247 114.782  1.00  0.00     0.000 C 
BRANCH  13  14
ATOM     14  C   UNL     1     131.733 129.528 115.187  1.00  0.00     0.000 C 
BRANCH  14  15
ATOM     15  C   UNL     1     132.783 129.283 116.282  1.00  0.00     0.000 C 
BRANCH  15  16
ATOM     16  C   UNL     1     132.216 128.400 117.400  1.00  0.00     0.006 C 
BRANCH  16  17
ATOM     17  C   UNL     1     131.220 129.179 118.264  1.00  0.00     0.053 C 
BRANCH  17  18
ATOM     18  C   UNL     1     130.194 128.259 118.843  1.00  0.00     0.041 C 
ATOM     19  O   UNL     1     129.018 128.257 118.394  1.00  0.00    -0.550 OA
ATOM     20  O   UNL     1     130.522 127.438 119.915  1.00  0.00    -0.550 OA
ENDBRANCH  17  18
ENDBRANCH  16  17
ENDBRANCH  15  16
ENDBRANCH  14  15
ENDBRANCH  13  14
ENDBRANCH  12  13
ENDBRANCH  11  12
ENDBRANCH   1  11
TORSDOF 15
ENDMDL
MODEL 8
REMARK VINA RESULT:    -3.652     11.213     13.509
REMARK INTER + INTRA:          -8.968
REMARK INTER:                  -7.373
REMARK INTRA:                  -1.595
REMARK UNBOUND:                -2.113
REMARK SMILES O=C([O-])CCCCCCCCCCCCCCC(=O)[O-]
REMARK SMILES IDX 10 1 9 2 8 3 7 4 6 5 5 6 4 7 2 8 1 9 3 10 11 11 12 12 13 13
REMARK SMILES IDX 14 14 15 15 16 16 17 17 18 18 19 19 20 20
REMARK H PARENT
REMARK Flexibility Score: inf
ROOT
ATOM      1  C   UNL     1     143.141 127.341 115.093  1.00  0.00     0.000 C 
ENDROOT
BRANCH   1   2
ATOM      2  C   UNL     1     142.246 127.716 116.289  1.00  0.00     0.000 C 
BRANCH   2   3
ATOM      3  C   UNL     1     140.737 127.764 115.987  1.00  0.00     0.000 C 
BRANCH   3   4
ATOM      4  C   UNL     1     140.354 126.981 114.723  1.00  0.00     0.000 C 
BRANCH   4   5
ATOM      5  C   UNL     1     138.911 127.294 114.298  1.00  0.00     0.000 C 
BRANCH   5   6
ATOM      6  C   UNL     1     138.831 128.428 113.263  1.00  0.00     0.006 C 
BRANCH   6   7
ATOM      7  C   UNL     1     138.422 129.768 113.886  1.00  0.00     0.053 C 
BRANCH   7   8
ATOM      8  C   UNL     1     139.477 130.801 113.646  1.00  0.00     0.041 C 
ATOM      9  O   UNL     1     139.178 132.023 113.633  1.00  0.00    -0.550 OA
ATOM     10  O   UNL     1     140.802 130.415 113.479  1.00  0.00    -0.550 OA
ENDBRANCH   7   8
ENDBRANCH   6   7
ENDBRANCH   5   6
ENDBRANCH   4   5
ENDBRANCH   3   4
ENDBRANCH   2   3
ENDBRANCH   1   2
BRANCH   1  11
ATOM     11  C   UNL     1     144.634 127.284 115.459  1.00  0.00     0.000 C 
BRANCH  11  12
ATOM     12  C   UNL     1     145.535 127.880 114.365  1.00  0.00     0.000 C 
BRANCH  12  13
ATOM     13  C   UNL     1     145.447 129.415 114.297  1.00  0.00     0.000 C 
BRANCH  13  14
ATOM     14  C   UNL     1     145.965 130.094 115.575  1.00  0.00     0.000 C 
BRANCH  14  15
ATOM     15  C   UNL     1     144.868 130.866 116.324  1.00  0.00     0.000 C 
BRANCH  15  16
ATOM     16  C   UNL     1     145.166 130.927 117.826  1.00  0.00     0.006 C 
BRANCH  16  17
ATOM     17  C   UNL     1     145.214 129.522 118.434  1.00  0.00     0.053 C 
BRANCH  17  18
ATOM     18  C   UNL     1     144.136 129.355 119.456  1.00  0.00     0.041 C 
ATOM     19  O   UNL     1     143.873 128.213 119.920  1.00  0.00    -0.550 OA
ATOM     20  O   UNL     1     143.384 130.451 119.860  1.00  0.00    -0.550 OA
ENDBRANCH  17  18
ENDBRANCH  16  17
ENDBRANCH  15  16
ENDBRANCH  14  15
ENDBRANCH  13  14
ENDBRANCH  12  13
ENDBRANCH  11  12
ENDBRANCH   1  11
TORSDOF 15
ENDMDL
MODEL 9
REMARK VINA RESULT:    -3.648     10.688     13.120
REMARK INTER + INTRA:          -8.961
REMARK INTER:                  -6.880
REMARK INTRA:                  -2.081
REMARK UNBOUND:                -2.113
REMARK SMILES O=C([O-])CCCCCCCCCCCCCCC(=O)[O-]
REMARK SMILES IDX 10 1 9 2 8 3 7 4 6 5 5 6 4 7 2 8 1 9 3 10 11 11 12 12 13 13
REMARK SMILES IDX 14 14 15 15 16 16 17 17 18 18 19 19 20 20
REMARK H PARENT
REMARK Flexibility Score: inf
ROOT
ATOM      1  C   UNL     1     141.760 130.354 115.387  1.00  0.00     0.000 C 
ENDROOT
BRANCH   1   2
ATOM      2  C   UNL     1     141.152 130.024 114.011  1.00  0.00     0.000 C 
BRANCH   2   3
ATOM      3  C   UNL     1     139.646 130.313 113.875  1.00  0.00     0.000 C 
BRANCH   3   4
ATOM      4  C   UNL     1     138.924 129.314 112.958  1.00  0.00     0.000 C 
BRANCH   4   5
ATOM      5  C   UNL     1     138.542 128.040 113.726  1.00  0.00     0.000 C 
BRANCH   5   6
ATOM      6  C   UNL     1     137.975 128.338 115.123  1.00  0.00     0.006 C 
BRANCH   6   7
ATOM      7  C   UNL     1     138.295 127.233 116.138  1.00  0.00     0.053 C 
BRANCH   7   8
ATOM      8  C   UNL     1     138.854 127.823 117.394  1.00  0.00     0.041 C 
ATOM      9  O   UNL     1     138.695 129.046 117.647  1.00  0.00    -0.550 OA
ATOM     10  O   UNL     1     139.515 127.012 118.309  1.00  0.00    -0.550 OA
ENDBRANCH   7   8
ENDBRANCH   6   7
ENDBRANCH   5   6
ENDBRANCH   4   5
ENDBRANCH   3   4
ENDBRANCH   2   3
ENDBRANCH   1   2
BRANCH   1  11
ATOM     11  C   UNL     1     142.073 129.099 116.219  1.00  0.00     0.000 C 
BRANCH  11  12
ATOM     12  C   UNL     1     141.963 127.803 115.398  1.00  0.00     0.000 C 
BRANCH  12  13
ATOM     13  C   UNL     1     143.316 127.353 114.817  1.00  0.00     0.000 C 
BRANCH  13  14
ATOM     14  C   UNL     1     144.440 127.357 115.865  1.00  0.00     0.000 C 
BRANCH  14  15
ATOM     15  C   UNL     1     145.744 127.973 115.335  1.00  0.00     0.000 C 
BRANCH  15  16
ATOM     16  C   UNL     1     145.541 129.443 114.950  1.00  0.00     0.006 C 
BRANCH  16  17
ATOM     17  C   UNL     1     146.277 130.372 115.920  1.00  0.00     0.053 C 
BRANCH  17  18
ATOM     18  C   UNL     1     145.516 130.504 117.200  1.00  0.00     0.041 C 
ATOM     19  O   UNL     1     144.616 131.378 117.314  1.00  0.00    -0.550 OA
ATOM     20  O   UNL     1     145.834 129.698 118.285  1.00  0.00    -0.550 OA
ENDBRANCH  17  18
ENDBRANCH  16  17
ENDBRANCH  15  16
ENDBRANCH  14  15
ENDBRANCH  13  14
ENDBRANCH  12  13
ENDBRANCH  11  12
ENDBRANCH   1  11
TORSDOF 15
ENDMDL
