MODEL 1
REMARK VINA RESULT:    -3.494      0.000      0.000
REMARK INTER + INTRA:          -4.206
REMARK INTER:                  -4.107
REMARK INTRA:                  -0.099
REMARK UNBOUND:                -0.099
REMARK SMILES O=C([O-])CCC(=O)[O-]
REMARK SMILES IDX 4 1 2 2 1 3 3 4 5 5 6 6 7 7 8 8
REMARK H PARENT
REMARK Flexibility Score: inf
ROOT
ATOM      1  C   UNL     1      24.929   6.370  14.152  1.00  0.00     0.059 C 
ENDROOT
BRANCH   1   2
ATOM      2  C   UNL     1      26.192   6.745  14.868  1.00  0.00     0.042 C 
ATOM      3  O   UNL     1      26.615   7.929  14.822  1.00  0.00    -0.550 OA
ATOM      4  O   UNL     1      26.875   5.796  15.617  1.00  0.00    -0.550 OA
ENDBRANCH   1   2
BRANCH   1   5
ATOM      5  C   UNL     1      23.708   7.077  14.751  1.00  0.00     0.059 C 
BRANCH   5   6
ATOM      6  C   UNL     1      22.861   6.134  15.550  1.00  0.00     0.042 C 
ATOM      7  O   UNL     1      21.668   6.429  15.825  1.00  0.00    -0.550 OA
ATOM      8  O   UNL     1      23.403   4.946  16.027  1.00  0.00    -0.550 OA
ENDBRANCH   5   6
ENDBRANCH   1   5
TORSDOF 3
ENDMDL
MODEL 2
REMARK VINA RESULT:    -3.479      0.052      3.701
REMARK INTER + INTRA:          -4.188
REMARK INTER:                  -4.091
REMARK INTRA:                  -0.097
REMARK UNBOUND:                -0.099
REMARK SMILES O=C([O-])CCC(=O)[O-]
REMARK SMILES IDX 4 1 2 2 1 3 3 4 5 5 6 6 7 7 8 8
REMARK H PARENT
REMARK Flexibility Score: inf
ROOT
ATOM      1  C   UNL     1      23.664   7.051  14.750  1.00  0.00     0.059 C 
ENDROOT
BRANCH   1   2
ATOM      2  C   UNL     1      22.859   6.113  15.599  1.00  0.00     0.042 C 
ATOM      3  O   UNL     1      21.677   6.406  15.917  1.00  0.00    -0.550 OA
ATOM      4  O   UNL     1      23.402   4.901  16.002  1.00  0.00    -0.550 OA
ENDBRANCH   1   2
BRANCH   1   5
ATOM      5  C   UNL     1      24.897   6.360  14.158  1.00  0.00     0.059 C 
BRANCH   5   6
ATOM      6  C   UNL     1      26.149   6.749  14.883  1.00  0.00     0.042 C 
ATOM      7  O   UNL     1      26.591   7.925  14.802  1.00  0.00    -0.550 OA
ATOM      8  O   UNL     1      26.851   5.800  15.617  1.00  0.00    -0.550 OA
ENDBRANCH   5   6
ENDBRANCH   1   5
TORSDOF 3
ENDMDL
MODEL 3
REMARK VINA RESULT:    -3.459      0.106      1.149
REMARK INTER + INTRA:          -4.165
REMARK INTER:                  -4.075
REMARK INTRA:                  -0.090
REMARK UNBOUND:                -0.099
REMARK SMILES O=C([O-])CCC(=O)[O-]
REMARK SMILES IDX 4 1 2 2 1 3 3 4 5 5 6 6 7 7 8 8
REMARK H PARENT
REMARK Flexibility Score: inf
ROOT
ATOM      1  C   UNL     1      24.946   6.313  14.251  1.00  0.00     0.059 C 
ENDROOT
BRANCH   1   2
ATOM      2  C   UNL     1      26.216   6.736  14.924  1.00  0.00     0.042 C 
ATOM      3  O   UNL     1      26.930   5.887  15.518  1.00  0.00    -0.550 OA
ATOM      4  O   UNL     1      26.630   8.060  14.858  1.00  0.00    -0.550 OA
ENDBRANCH   1   2
BRANCH   1   5
ATOM      5  C   UNL     1      23.732   7.063  14.812  1.00  0.00     0.059 C 
BRANCH   5   6
ATOM      6  C   UNL     1      22.831   6.152  15.589  1.00  0.00     0.042 C 
ATOM      7  O   UNL     1      21.624   6.459  15.773  1.00  0.00    -0.550 OA
ATOM      8  O   UNL     1      23.337   4.983  16.146  1.00  0.00    -0.550 OA
ENDBRANCH   5   6
ENDBRANCH   1   5
TORSDOF 3
ENDMDL
MODEL 4
REMARK VINA RESULT:    -3.454      0.094      3.821
REMARK INTER + INTRA:          -4.158
REMARK INTER:                  -4.058
REMARK INTRA:                  -0.100
REMARK UNBOUND:                -0.099
REMARK SMILES O=C([O-])CCC(=O)[O-]
REMARK SMILES IDX 4 1 2 2 1 3 3 4 5 5 6 6 7 7 8 8
REMARK H PARENT
REMARK Flexibility Score: inf
ROOT
ATOM      1  C   UNL     1      23.671   7.030  14.777  1.00  0.00     0.059 C 
ENDROOT
BRANCH   1   2
ATOM      2  C   UNL     1      22.880   6.086  15.631  1.00  0.00     0.042 C 
ATOM      3  O   UNL     1      21.698   6.370  15.959  1.00  0.00    -0.550 OA
ATOM      4  O   UNL     1      23.434   4.877  16.029  1.00  0.00    -0.550 OA
ENDBRANCH   1   2
BRANCH   1   5
ATOM      5  C   UNL     1      24.893   6.342  14.157  1.00  0.00     0.059 C 
BRANCH   5   6
ATOM      6  C   UNL     1      26.155   6.707  14.877  1.00  0.00     0.042 C 
ATOM      7  O   UNL     1      26.769   5.844  15.559  1.00  0.00    -0.550 OA
ATOM      8  O   UNL     1      26.633   8.011  14.827  1.00  0.00    -0.550 OA
ENDBRANCH   5   6
ENDBRANCH   1   5
TORSDOF 3
ENDMDL
MODEL 5
REMARK VINA RESULT:    -3.434      0.088      1.148
REMARK INTER + INTRA:          -4.135
REMARK INTER:                  -4.041
REMARK INTRA:                  -0.094
REMARK UNBOUND:                -0.099
REMARK SMILES O=C([O-])CCC(=O)[O-]
REMARK SMILES IDX 4 1 2 2 1 3 3 4 5 5 6 6 7 7 8 8
REMARK H PARENT
REMARK Flexibility Score: inf
ROOT
ATOM      1  C   UNL     1      24.933   6.423  14.153  1.00  0.00     0.059 C 
ENDROOT
BRANCH   1   2
ATOM      2  C   UNL     1      26.200   6.791  14.865  1.00  0.00     0.042 C 
ATOM      3  O   UNL     1      26.628   7.975  14.821  1.00  0.00    -0.550 OA
ATOM      4  O   UNL     1      26.882   5.838  15.609  1.00  0.00    -0.550 OA
ENDBRANCH   1   2
BRANCH   1   5
ATOM      5  C   UNL     1      23.716   7.126  14.765  1.00  0.00     0.059 C 
BRANCH   5   6
ATOM      6  C   UNL     1      22.869   6.175  15.555  1.00  0.00     0.042 C 
ATOM      7  O   UNL     1      23.354   5.093  15.976  1.00  0.00    -0.550 OA
ATOM      8  O   UNL     1      21.530   6.467  15.790  1.00  0.00    -0.550 OA
ENDBRANCH   5   6
ENDBRANCH   1   5
TORSDOF 3
ENDMDL
MODEL 6
REMARK VINA RESULT:    -3.430      0.934      4.080
REMARK INTER + INTRA:          -4.130
REMARK INTER:                  -4.081
REMARK INTRA:                  -0.049
REMARK UNBOUND:                -0.099
REMARK SMILES O=C([O-])CCC(=O)[O-]
REMARK SMILES IDX 4 1 2 2 1 3 3 4 5 5 6 6 7 7 8 8
REMARK H PARENT
REMARK Flexibility Score: inf
ROOT
ATOM      1  C   UNL     1      24.430   5.103  15.424  1.00  0.00     0.059 C 
ENDROOT
BRANCH   1   2
ATOM      2  C   UNL     1      23.141   5.360  16.144  1.00  0.00     0.042 C 
ATOM      3  O   UNL     1      22.918   4.813  17.256  1.00  0.00    -0.550 OA
ATOM      4  O   UNL     1      22.207   6.236  15.607  1.00  0.00    -0.550 OA
ENDBRANCH   1   2
BRANCH   1   5
ATOM      5  C   UNL     1      24.886   6.330  14.626  1.00  0.00     0.059 C 
BRANCH   5   6
ATOM      6  C   UNL     1      26.268   6.758  15.016  1.00  0.00     0.042 C 
ATOM      7  O   UNL     1      27.068   5.932  15.529  1.00  0.00    -0.550 OA
ATOM      8  O   UNL     1      26.659   8.082  14.849  1.00  0.00    -0.550 OA
ENDBRANCH   5   6
ENDBRANCH   1   5
TORSDOF 3
ENDMDL
MODEL 7
REMARK VINA RESULT:    -3.210      5.470      6.177
REMARK INTER + INTRA:          -3.871
REMARK INTER:                  -3.769
REMARK INTRA:                  -0.102
REMARK UNBOUND:                -0.099
REMARK SMILES O=C([O-])CCC(=O)[O-]
REMARK SMILES IDX 4 1 2 2 1 3 3 4 5 5 6 6 7 7 8 8
REMARK H PARENT
REMARK Flexibility Score: inf
ROOT
ATOM      1  C   UNL     1      26.019   5.596   8.869  1.00  0.00     0.059 C 
ENDROOT
BRANCH   1   2
ATOM      2  C   UNL     1      26.943   6.452   8.056  1.00  0.00     0.042 C 
ATOM      3  O   UNL     1      27.510   7.446   8.582  1.00  0.00    -0.550 OA
ATOM      4  O   UNL     1      27.207   6.128   6.732  1.00  0.00    -0.550 OA
ENDBRANCH   1   2
BRANCH   1   5
ATOM      5  C   UNL     1      26.346   5.675  10.364  1.00  0.00     0.059 C 
BRANCH   5   6
ATOM      6  C   UNL     1      25.316   6.466  11.113  1.00  0.00     0.042 C 
ATOM      7  O   UNL     1      24.453   7.136  10.487  1.00  0.00    -0.550 OA
ATOM      8  O   UNL     1      25.337   6.496  12.502  1.00  0.00    -0.550 OA
ENDBRANCH   5   6
ENDBRANCH   1   5
TORSDOF 3
ENDMDL
MODEL 8
REMARK VINA RESULT:    -3.117      1.917      3.164
REMARK INTER + INTRA:          -3.763
REMARK INTER:                  -3.697
REMARK INTRA:                  -0.066
REMARK UNBOUND:                -0.099
REMARK SMILES O=C([O-])CCC(=O)[O-]
REMARK SMILES IDX 4 1 2 2 1 3 3 4 5 5 6 6 7 7 8 8
REMARK H PARENT
REMARK Flexibility Score: inf
ROOT
ATOM      1  C   UNL     1      25.026   5.289  15.598  1.00  0.00     0.059 C 
ENDROOT
BRANCH   1   2
ATOM      2  C   UNL     1      24.072   4.249  16.102  1.00  0.00     0.042 C 
ATOM      3  O   UNL     1      23.299   4.511  17.061  1.00  0.00    -0.550 OA
ATOM      4  O   UNL     1      24.008   3.006  15.485  1.00  0.00    -0.550 OA
ENDBRANCH   1   2
BRANCH   1   5
ATOM      5  C   UNL     1      24.410   6.121  14.467  1.00  0.00     0.059 C 
BRANCH   5   6
ATOM      6  C   UNL     1      23.640   7.291  14.999  1.00  0.00     0.042 C 
ATOM      7  O   UNL     1      24.192   8.418  15.106  1.00  0.00    -0.550 OA
ATOM      8  O   UNL     1      22.324   7.127  15.414  1.00  0.00    -0.550 OA
ENDBRANCH   5   6
ENDBRANCH   1   5
TORSDOF 3
ENDMDL
MODEL 9
REMARK VINA RESULT:    -3.087      4.334      5.530
REMARK INTER + INTRA:          -3.728
REMARK INTER:                  -3.621
REMARK INTRA:                  -0.106
REMARK UNBOUND:                -0.099
REMARK SMILES O=C([O-])CCC(=O)[O-]
REMARK SMILES IDX 4 1 2 2 1 3 3 4 5 5 6 6 7 7 8 8
REMARK H PARENT
REMARK Flexibility Score: inf
ROOT
ATOM      1  C   UNL     1      24.799   6.793  11.170  1.00  0.00     0.059 C 
ENDROOT
BRANCH   1   2
ATOM      2  C   UNL     1      25.082   6.721  12.640  1.00  0.00     0.042 C 
ATOM      3  O   UNL     1      26.271   6.667  13.052  1.00  0.00    -0.550 OA
ATOM      4  O   UNL     1      24.037   6.754  13.553  1.00  0.00    -0.550 OA
ENDBRANCH   1   2
BRANCH   1   5
ATOM      5  C   UNL     1      26.071   7.072  10.362  1.00  0.00     0.059 C 
BRANCH   5   6
ATOM      6  C   UNL     1      26.375   5.957   9.408  1.00  0.00     0.042 C 
ATOM      7  O   UNL     1      26.279   4.758   9.782  1.00  0.00    -0.550 OA
ATOM      8  O   UNL     1      26.803   6.243   8.117  1.00  0.00    -0.550 OA
ENDBRANCH   5   6
ENDBRANCH   1   5
TORSDOF 3
ENDMDL
