MODEL 1
REMARK VINA RESULT:    -5.404      0.000      0.000
REMARK INTER + INTRA:          -6.774
REMARK INTER:                  -6.509
REMARK INTRA:                  -0.265
REMARK UNBOUND:                -0.265
REMARK SMILES O=c1c(O)c(-c2ccc(O)c(O)c2)oc2cc(O)cc(O)c12
REMARK SMILES IDX 5 1 3 2 2 3 1 4 22 5 20 6 19 7 17 8 16 9 15 10 14 11 6 12
REMARK SMILES IDX 7 13 8 14 9 15 13 16 11 17 10 18 12 20 4 22 21 24 18 26
REMARK H PARENT 10 19 12 21 4 23 21 25 18 27
REMARK Flexibility Score: inf
ROOT
ATOM      1  C   UNL     1      13.734  55.773  20.048  1.00  0.00     0.180 A 
ATOM      2  C   UNL     1      13.367  55.420  21.358  1.00  0.00     0.208 A 
ATOM      3  C   UNL     1      14.263  54.670  22.136  1.00  0.00     0.238 A 
ATOM      4  O   UNL     1      13.907  54.311  23.290  1.00  0.00    -0.285 OA
ATOM      5  C   UNL     1      15.520  54.296  21.602  1.00  0.00     0.111 A 
ATOM      6  C   UNL     1      16.521  53.571  22.316  1.00  0.00     0.134 A 
ATOM      7  C   UNL     1      17.673  53.142  21.645  1.00  0.00     0.093 A 
ATOM      8  C   UNL     1      17.890  53.470  20.304  1.00  0.00     0.123 A 
ATOM      9  C   UNL     1      16.946  54.228  19.616  1.00  0.00     0.094 A 
ATOM     10  C   UNL     1      15.771  54.639  20.248  1.00  0.00     0.146 A 
ATOM     11  O   UNL     1      14.892  55.351  19.552  1.00  0.00    -0.452 OA
ENDROOT
BRANCH   1  12
ATOM     12  C   UNL     1      12.855  56.583  19.174  1.00  0.00     0.025 A 
ATOM     13  C   UNL     1      13.132  57.936  18.909  1.00  0.00     0.016 A 
ATOM     14  C   UNL     1      12.301  58.674  18.062  1.00  0.00     0.051 A 
ATOM     15  C   UNL     1      11.190  58.070  17.458  1.00  0.00     0.157 A 
ATOM     16  C   UNL     1      11.753  55.977  18.550  1.00  0.00     0.062 A 
ATOM     17  C   UNL     1      10.917  56.714  17.701  1.00  0.00     0.158 A 
BRANCH  15  18
ATOM     18  O   UNL     1      10.362  58.811  16.615  1.00  0.00    -0.504 OA
ATOM     19  H   UNL     1      10.485  58.803  15.610  1.00  0.00     0.293 HD
ENDBRANCH  15  18
BRANCH  17  20
ATOM     20  O   UNL     1       9.825  56.081  17.109  1.00  0.00    -0.504 OA
ATOM     21  H   UNL     1       8.893  56.133  17.505  1.00  0.00     0.293 HD
ENDBRANCH  17  20
ENDBRANCH   1  12
BRANCH   2  22
ATOM     22  O   UNL     1      12.114  55.781  21.858  1.00  0.00    -0.502 OA
ATOM     23  H   UNL     1      11.733  56.712  21.752  1.00  0.00     0.293 HD
ENDBRANCH   2  22
BRANCH   6  24
ATOM     24  O   UNL     1      16.445  53.272  23.680  1.00  0.00    -0.507 OA
ATOM     25  H   UNL     1      15.640  52.871  24.136  1.00  0.00     0.293 HD
ENDBRANCH   6  24
BRANCH   8  26
ATOM     26  O   UNL     1      19.046  53.052  19.650  1.00  0.00    -0.508 OA
ATOM     27  H   UNL     1      19.022  52.332  18.937  1.00  0.00     0.293 HD
ENDBRANCH   8  26
TORSDOF 6
ENDMDL
MODEL 2
REMARK VINA RESULT:    -5.153      1.921      6.986
REMARK INTER + INTRA:          -6.472
REMARK INTER:                  -6.202
REMARK INTRA:                  -0.271
REMARK UNBOUND:                -0.265
REMARK SMILES O=c1c(O)c(-c2ccc(O)c(O)c2)oc2cc(O)cc(O)c12
REMARK SMILES IDX 5 1 3 2 2 3 1 4 22 5 20 6 19 7 17 8 16 9 15 10 14 11 6 12
REMARK SMILES IDX 7 13 8 14 9 15 13 16 11 17 10 18 12 20 4 22 21 24 18 26
REMARK H PARENT 10 19 12 21 4 23 21 25 18 27
REMARK Flexibility Score: inf
ROOT
ATOM      1  C   UNL     1      14.397  55.860  20.314  1.00  0.00     0.180 A 
ATOM      2  C   UNL     1      15.207  56.778  19.623  1.00  0.00     0.208 A 
ATOM      3  C   UNL     1      14.672  57.461  18.519  1.00  0.00     0.238 A 
ATOM      4  O   UNL     1      15.418  58.241  17.871  1.00  0.00    -0.285 OA
ATOM      5  C   UNL     1      13.330  57.231  18.130  1.00  0.00     0.111 A 
ATOM      6  C   UNL     1      12.672  57.898  17.053  1.00  0.00     0.134 A 
ATOM      7  C   UNL     1      11.385  57.496  16.675  1.00  0.00     0.093 A 
ATOM      8  C   UNL     1      10.707  56.496  17.378  1.00  0.00     0.123 A 
ATOM      9  C   UNL     1      11.318  55.882  18.469  1.00  0.00     0.094 A 
ATOM     10  C   UNL     1      12.615  56.236  18.846  1.00  0.00     0.146 A 
ATOM     11  O   UNL     1      13.164  55.617  19.884  1.00  0.00    -0.452 OA
ENDROOT
BRANCH   1  12
ATOM     12  C   UNL     1      14.882  55.120  21.501  1.00  0.00     0.025 A 
ATOM     13  C   UNL     1      15.047  55.757  22.744  1.00  0.00     0.016 A 
ATOM     14  C   UNL     1      15.482  55.034  23.857  1.00  0.00     0.051 A 
ATOM     15  C   UNL     1      15.747  53.662  23.749  1.00  0.00     0.157 A 
ATOM     16  C   UNL     1      15.129  53.741  21.404  1.00  0.00     0.062 A 
ATOM     17  C   UNL     1      15.566  53.012  22.516  1.00  0.00     0.158 A 
BRANCH  15  18
ATOM     18  O   UNL     1      16.184  52.943  24.861  1.00  0.00    -0.504 OA
ATOM     19  H   UNL     1      16.628  53.401  25.648  1.00  0.00     0.293 HD
ENDBRANCH  15  18
BRANCH  17  20
ATOM     20  O   UNL     1      15.813  51.647  22.377  1.00  0.00    -0.504 OA
ATOM     21  H   UNL     1      15.267  50.949  22.868  1.00  0.00     0.293 HD
ENDBRANCH  17  20
ENDBRANCH   1  12
BRANCH   2  22
ATOM     22  O   UNL     1      16.535  56.974  20.010  1.00  0.00    -0.502 OA
ATOM     23  H   UNL     1      16.797  57.205  20.960  1.00  0.00     0.293 HD
ENDBRANCH   2  22
BRANCH   6  24
ATOM     24  O   UNL     1      13.225  58.969  16.345  1.00  0.00    -0.507 OA
ATOM     25  H   UNL     1      13.593  58.910  15.408  1.00  0.00     0.293 HD
ENDBRANCH   6  24
BRANCH   8  26
ATOM     26  O   UNL     1       9.421  56.115  17.005  1.00  0.00    -0.508 OA
ATOM     27  H   UNL     1       8.939  56.557  16.231  1.00  0.00     0.293 HD
ENDBRANCH   8  26
TORSDOF 6
ENDMDL
MODEL 3
REMARK VINA RESULT:    -5.074      3.548      4.985
REMARK INTER + INTRA:          -6.377
REMARK INTER:                  -6.045
REMARK INTRA:                  -0.332
REMARK UNBOUND:                -0.265
REMARK SMILES O=c1c(O)c(-c2ccc(O)c(O)c2)oc2cc(O)cc(O)c12
REMARK SMILES IDX 5 1 3 2 2 3 1 4 22 5 20 6 19 7 17 8 16 9 15 10 14 11 6 12
REMARK SMILES IDX 7 13 8 14 9 15 13 16 11 17 10 18 12 20 4 22 21 24 18 26
REMARK H PARENT 10 19 12 21 4 23 21 25 18 27
REMARK Flexibility Score: inf
ROOT
ATOM      1  C   UNL     1      13.956  57.965  16.599  1.00  0.00     0.180 A 
ATOM      2  C   UNL     1      12.644  57.661  17.003  1.00  0.00     0.208 A 
ATOM      3  C   UNL     1      12.447  56.948  18.196  1.00  0.00     0.238 A 
ATOM      4  O   UNL     1      11.273  56.633  18.525  1.00  0.00    -0.285 OA
ATOM      5  C   UNL     1      13.562  56.562  18.978  1.00  0.00     0.111 A 
ATOM      6  C   UNL     1      13.477  55.872  20.226  1.00  0.00     0.134 A 
ATOM      7  C   UNL     1      14.649  55.425  20.848  1.00  0.00     0.093 A 
ATOM      8  C   UNL     1      15.906  55.701  20.302  1.00  0.00     0.123 A 
ATOM      9  C   UNL     1      16.000  56.425  19.117  1.00  0.00     0.094 A 
ATOM     10  C   UNL     1      14.848  56.853  18.454  1.00  0.00     0.146 A 
ATOM     11  O   UNL     1      14.983  57.531  17.320  1.00  0.00    -0.452 OA
ENDROOT
BRANCH   1  12
ATOM     12  C   UNL     1      14.243  58.734  15.367  1.00  0.00     0.025 A 
ATOM     13  C   UNL     1      14.265  60.140  15.370  1.00  0.00     0.016 A 
ATOM     14  C   UNL     1      14.563  60.845  14.201  1.00  0.00     0.051 A 
ATOM     15  C   UNL     1      14.854  60.157  13.015  1.00  0.00     0.157 A 
ATOM     16  C   UNL     1      14.556  58.049  14.181  1.00  0.00     0.062 A 
ATOM     17  C   UNL     1      14.854  58.752  13.007  1.00  0.00     0.158 A 
BRANCH  15  18
ATOM     18  O   UNL     1      15.148  60.863  11.850  1.00  0.00    -0.504 OA
ATOM     19  H   UNL     1      14.521  61.571  11.485  1.00  0.00     0.293 HD
ENDBRANCH  15  18
BRANCH  17  20
ATOM     20  O   UNL     1      15.147  58.037  11.846  1.00  0.00    -0.504 OA
ATOM     21  H   UNL     1      15.546  57.106  11.874  1.00  0.00     0.293 HD
ENDBRANCH  17  20
ENDBRANCH   1  12
BRANCH   2  22
ATOM     22  O   UNL     1      11.559  58.033  16.205  1.00  0.00    -0.502 OA
ATOM     23  H   UNL     1      11.443  57.701  15.256  1.00  0.00     0.293 HD
ENDBRANCH   2  22
BRANCH   6  24
ATOM     24  O   UNL     1      12.278  55.627  20.902  1.00  0.00    -0.507 OA
ATOM     25  H   UNL     1      12.110  55.846  21.871  1.00  0.00     0.293 HD
ENDBRANCH   6  24
BRANCH   8  26
ATOM     26  O   UNL     1      17.066  55.266  20.937  1.00  0.00    -0.508 OA
ATOM     27  H   UNL     1      17.061  54.472  21.568  1.00  0.00     0.293 HD
ENDBRANCH   8  26
TORSDOF 6
ENDMDL
MODEL 4
REMARK VINA RESULT:    -4.967      3.900      7.345
REMARK INTER + INTRA:          -6.248
REMARK INTER:                  -5.933
REMARK INTRA:                  -0.315
REMARK UNBOUND:                -0.265
REMARK SMILES O=c1c(O)c(-c2ccc(O)c(O)c2)oc2cc(O)cc(O)c12
REMARK SMILES IDX 5 1 3 2 2 3 1 4 22 5 20 6 19 7 17 8 16 9 15 10 14 11 6 12
REMARK SMILES IDX 7 13 8 14 9 15 13 16 11 17 10 18 12 20 4 22 21 24 18 26
REMARK H PARENT 10 19 12 21 4 23 21 25 18 27
REMARK Flexibility Score: inf
ROOT
ATOM      1  C   UNL     1      14.523  58.091  17.451  1.00  0.00     0.180 A 
ATOM      2  C   UNL     1      14.584  59.467  17.733  1.00  0.00     0.208 A 
ATOM      3  C   UNL     1      14.691  60.375  16.667  1.00  0.00     0.238 A 
ATOM      4  O   UNL     1      14.800  61.602  16.928  1.00  0.00    -0.285 OA
ATOM      5  C   UNL     1      14.719  59.899  15.334  1.00  0.00     0.111 A 
ATOM      6  C   UNL     1      14.784  60.731  14.176  1.00  0.00     0.134 A 
ATOM      7  C   UNL     1      14.939  60.147  12.913  1.00  0.00     0.093 A 
ATOM      8  C   UNL     1      14.964  58.758  12.760  1.00  0.00     0.123 A 
ATOM      9  C   UNL     1      14.841  57.937  13.878  1.00  0.00     0.094 A 
ATOM     10  C   UNL     1      14.722  58.491  15.155  1.00  0.00     0.146 A 
ATOM     11  O   UNL     1      14.618  57.672  16.195  1.00  0.00    -0.452 OA
ENDROOT
BRANCH   1  12
ATOM     12  C   UNL     1      14.385  57.074  18.518  1.00  0.00     0.025 A 
ATOM     13  C   UNL     1      15.510  56.442  19.077  1.00  0.00     0.016 A 
ATOM     14  C   UNL     1      15.358  55.504  20.100  1.00  0.00     0.051 A 
ATOM     15  C   UNL     1      14.082  55.191  20.589  1.00  0.00     0.157 A 
ATOM     16  C   UNL     1      13.111  56.773  19.026  1.00  0.00     0.062 A 
ATOM     17  C   UNL     1      12.954  55.832  20.051  1.00  0.00     0.158 A 
BRANCH  15  18
ATOM     18  O   UNL     1      13.933  54.252  21.609  1.00  0.00    -0.504 OA
ATOM     19  H   UNL     1      14.486  54.297  22.457  1.00  0.00     0.293 HD
ENDBRANCH  15  18
BRANCH  17  20
ATOM     20  O   UNL     1      11.672  55.549  20.521  1.00  0.00    -0.504 OA
ATOM     21  H   UNL     1      11.473  55.436  21.508  1.00  0.00     0.293 HD
ENDBRANCH  17  20
ENDBRANCH   1  12
BRANCH   2  22
ATOM     22  O   UNL     1      14.577  59.915  19.056  1.00  0.00    -0.502 OA
ATOM     23  H   UNL     1      14.699  60.890  19.301  1.00  0.00     0.293 HD
ENDBRANCH   2  22
BRANCH   6  24
ATOM     24  O   UNL     1      14.676  62.125  14.211  1.00  0.00    -0.507 OA
ATOM     25  H   UNL     1      15.347  62.743  14.641  1.00  0.00     0.293 HD
ENDBRANCH   6  24
BRANCH   8  26
ATOM     26  O   UNL     1      15.102  58.185  11.498  1.00  0.00    -0.508 OA
ATOM     27  H   UNL     1      14.579  57.360  11.229  1.00  0.00     0.293 HD
ENDBRANCH   8  26
TORSDOF 6
ENDMDL
MODEL 5
REMARK VINA RESULT:    -4.962      4.274      5.886
REMARK INTER + INTRA:          -6.242
REMARK INTER:                  -5.923
REMARK INTRA:                  -0.319
REMARK UNBOUND:                -0.265
REMARK SMILES O=c1c(O)c(-c2ccc(O)c(O)c2)oc2cc(O)cc(O)c12
REMARK SMILES IDX 5 1 3 2 2 3 1 4 22 5 20 6 19 7 17 8 16 9 15 10 14 11 6 12
REMARK SMILES IDX 7 13 8 14 9 15 13 16 11 17 10 18 12 20 4 22 21 24 18 26
REMARK H PARENT 10 19 12 21 4 23 21 25 18 27
REMARK Flexibility Score: inf
ROOT
ATOM      1  C   UNL     1      15.420  58.362  16.207  1.00  0.00     0.180 A 
ATOM      2  C   UNL     1      16.698  58.075  16.718  1.00  0.00     0.208 A 
ATOM      3  C   UNL     1      16.805  57.335  17.906  1.00  0.00     0.238 A 
ATOM      4  O   UNL     1      17.950  57.127  18.388  1.00  0.00    -0.285 OA
ATOM      5  C   UNL     1      15.636  56.877  18.559  1.00  0.00     0.111 A 
ATOM      6  C   UNL     1      15.628  56.083  19.747  1.00  0.00     0.134 A 
ATOM      7  C   UNL     1      14.411  55.798  20.378  1.00  0.00     0.093 A 
ATOM      8  C   UNL     1      13.198  56.220  19.829  1.00  0.00     0.123 A 
ATOM      9  C   UNL     1      13.192  56.943  18.639  1.00  0.00     0.094 A 
ATOM     10  C   UNL     1      14.391  57.275  18.005  1.00  0.00     0.146 A 
ATOM     11  O   UNL     1      14.341  57.975  16.878  1.00  0.00    -0.452 OA
ENDROOT
BRANCH   1  12
ATOM     12  C   UNL     1      15.226  59.116  14.948  1.00  0.00     0.025 A 
ATOM     13  C   UNL     1      15.196  60.522  14.933  1.00  0.00     0.016 A 
ATOM     14  C   UNL     1      15.036  61.212  13.730  1.00  0.00     0.051 A 
ATOM     15  C   UNL     1      14.916  60.511  12.522  1.00  0.00     0.157 A 
ATOM     16  C   UNL     1      15.127  58.419  13.733  1.00  0.00     0.062 A 
ATOM     17  C   UNL     1      14.965  59.107  12.524  1.00  0.00     0.158 A 
BRANCH  15  18
ATOM     18  O   UNL     1      14.755  61.204  11.323  1.00  0.00    -0.504 OA
ATOM     19  H   UNL     1      15.435  61.885  11.008  1.00  0.00     0.293 HD
ENDBRANCH  15  18
BRANCH  17  20
ATOM     20  O   UNL     1      14.857  58.380  11.339  1.00  0.00    -0.504 OA
ATOM     21  H   UNL     1      14.018  58.400  10.771  1.00  0.00     0.293 HD
ENDBRANCH  17  20
ENDBRANCH   1  12
BRANCH   2  22
ATOM     22  O   UNL     1      17.838  58.556  16.070  1.00  0.00    -0.502 OA
ATOM     23  H   UNL     1      17.892  58.651  15.063  1.00  0.00     0.293 HD
ENDBRANCH   2  22
BRANCH   6  24
ATOM     24  O   UNL     1      16.776  55.535  20.326  1.00  0.00    -0.507 OA
ATOM     25  H   UNL     1      17.007  54.553  20.325  1.00  0.00     0.293 HD
ENDBRANCH   6  24
BRANCH   8  26
ATOM     26  O   UNL     1      11.991  55.918  20.456  1.00  0.00    -0.508 OA
ATOM     27  H   UNL     1      11.157  55.699  19.924  1.00  0.00     0.293 HD
ENDBRANCH   8  26
TORSDOF 6
ENDMDL
MODEL 6
REMARK VINA RESULT:    -4.945      3.433      4.973
REMARK INTER + INTRA:          -6.221
REMARK INTER:                  -5.899
REMARK INTRA:                  -0.322
REMARK UNBOUND:                -0.265
REMARK SMILES O=c1c(O)c(-c2ccc(O)c(O)c2)oc2cc(O)cc(O)c12
REMARK SMILES IDX 5 1 3 2 2 3 1 4 22 5 20 6 19 7 17 8 16 9 15 10 14 11 6 12
REMARK SMILES IDX 7 13 8 14 9 15 13 16 11 17 10 18 12 20 4 22 21 24 18 26
REMARK H PARENT 10 19 12 21 4 23 21 25 18 27
REMARK Flexibility Score: inf
ROOT
ATOM      1  C   UNL     1      14.020  57.722  16.752  1.00  0.00     0.180 A 
ATOM      2  C   UNL     1      12.699  57.452  17.149  1.00  0.00     0.208 A 
ATOM      3  C   UNL     1      12.473  56.856  18.400  1.00  0.00     0.238 A 
ATOM      4  O   UNL     1      11.292  56.567  18.728  1.00  0.00    -0.285 OA
ATOM      5  C   UNL     1      13.569  56.552  19.244  1.00  0.00     0.111 A 
ATOM      6  C   UNL     1      13.454  55.985  20.549  1.00  0.00     0.134 A 
ATOM      7  C   UNL     1      14.611  55.605  21.241  1.00  0.00     0.093 A 
ATOM      8  C   UNL     1      15.880  55.834  20.703  1.00  0.00     0.123 A 
ATOM      9  C   UNL     1      16.003  56.442  19.456  1.00  0.00     0.094 A 
ATOM     10  C   UNL     1      14.867  56.798  18.726  1.00  0.00     0.146 A 
ATOM     11  O   UNL     1      15.029  57.365  17.537  1.00  0.00    -0.452 OA
ENDROOT
BRANCH   1  12
ATOM     12  C   UNL     1      14.336  58.371  15.459  1.00  0.00     0.025 A 
ATOM     13  C   UNL     1      14.580  57.613  14.300  1.00  0.00     0.016 A 
ATOM     14  C   UNL     1      14.853  58.247  13.085  1.00  0.00     0.051 A 
ATOM     15  C   UNL     1      14.873  59.646  13.007  1.00  0.00     0.157 A 
ATOM     16  C   UNL     1      14.337  59.772  15.370  1.00  0.00     0.062 A 
ATOM     17  C   UNL     1      14.611  60.412  14.155  1.00  0.00     0.158 A 
BRANCH  15  18
ATOM     18  O   UNL     1      15.148  60.276  11.793  1.00  0.00    -0.504 OA
ATOM     19  H   UNL     1      14.440  60.804  11.297  1.00  0.00     0.293 HD
ENDBRANCH  15  18
BRANCH  17  20
ATOM     20  O   UNL     1      14.616  61.805  14.109  1.00  0.00    -0.504 OA
ATOM     21  H   UNL     1      13.958  62.327  13.541  1.00  0.00     0.293 HD
ENDBRANCH  17  20
ENDBRANCH   1  12
BRANCH   2  22
ATOM     22  O   UNL     1      11.633  57.739  16.292  1.00  0.00    -0.502 OA
ATOM     23  H   UNL     1      11.736  57.759  15.285  1.00  0.00     0.293 HD
ENDBRANCH   2  22
BRANCH   6  24
ATOM     24  O   UNL     1      12.239  55.799  21.215  1.00  0.00    -0.507 OA
ATOM     25  H   UNL     1      12.141  55.373  22.123  1.00  0.00     0.293 HD
ENDBRANCH   6  24
BRANCH   8  26
ATOM     26  O   UNL     1      17.025  55.468  21.406  1.00  0.00    -0.508 OA
ATOM     27  H   UNL     1      17.944  55.795  21.131  1.00  0.00     0.293 HD
ENDBRANCH   8  26
TORSDOF 6
ENDMDL
MODEL 7
REMARK VINA RESULT:    -4.802      2.218      6.432
REMARK INTER + INTRA:          -6.050
REMARK INTER:                  -5.731
REMARK INTRA:                  -0.318
REMARK UNBOUND:                -0.265
REMARK SMILES O=c1c(O)c(-c2ccc(O)c(O)c2)oc2cc(O)cc(O)c12
REMARK SMILES IDX 5 1 3 2 2 3 1 4 22 5 20 6 19 7 17 8 16 9 15 10 14 11 6 12
REMARK SMILES IDX 7 13 8 14 9 15 13 16 11 17 10 18 12 20 4 22 21 24 18 26
REMARK H PARENT 10 19 12 21 4 23 21 25 18 27
REMARK Flexibility Score: inf
ROOT
ATOM      1  C   UNL     1      14.380  55.969  20.102  1.00  0.00     0.180 A 
ATOM      2  C   UNL     1      13.012  56.138  19.826  1.00  0.00     0.208 A 
ATOM      3  C   UNL     1      12.633  56.856  18.681  1.00  0.00     0.238 A 
ATOM      4  O   UNL     1      11.407  57.050  18.467  1.00  0.00    -0.285 OA
ATOM      5  C   UNL     1      13.624  57.383  17.819  1.00  0.00     0.111 A 
ATOM      6  C   UNL     1      13.354  58.092  16.609  1.00  0.00     0.134 A 
ATOM      7  C   UNL     1      14.410  58.681  15.903  1.00  0.00     0.093 A 
ATOM      8  C   UNL     1      15.733  58.530  16.327  1.00  0.00     0.123 A 
ATOM      9  C   UNL     1      16.012  57.789  17.473  1.00  0.00     0.094 A 
ATOM     10  C   UNL     1      14.976  57.221  18.218  1.00  0.00     0.146 A 
ATOM     11  O   UNL     1      15.285  56.532  19.310  1.00  0.00    -0.452 OA
ENDROOT
BRANCH   1  12
ATOM     12  C   UNL     1      14.858  55.204  21.276  1.00  0.00     0.025 A 
ATOM     13  C   UNL     1      15.145  55.840  22.497  1.00  0.00     0.016 A 
ATOM     14  C   UNL     1      15.572  55.094  23.599  1.00  0.00     0.051 A 
ATOM     15  C   UNL     1      15.705  53.703  23.502  1.00  0.00     0.157 A 
ATOM     16  C   UNL     1      14.973  53.807  21.191  1.00  0.00     0.062 A 
ATOM     17  C   UNL     1      15.401  53.056  22.293  1.00  0.00     0.158 A 
BRANCH  15  18
ATOM     18  O   UNL     1      16.133  52.962  24.603  1.00  0.00    -0.504 OA
ATOM     19  H   UNL     1      15.644  52.997  25.490  1.00  0.00     0.293 HD
ENDBRANCH  15  18
BRANCH  17  20
ATOM     20  O   UNL     1      15.516  51.672  22.166  1.00  0.00    -0.504 OA
ATOM     21  H   UNL     1      16.369  51.179  22.403  1.00  0.00     0.293 HD
ENDBRANCH  17  20
ENDBRANCH   1  12
BRANCH   2  22
ATOM     22  O   UNL     1      12.049  55.628  20.702  1.00  0.00    -0.502 OA
ATOM     23  H   UNL     1      11.892  54.636  20.819  1.00  0.00     0.293 HD
ENDBRANCH   2  22
BRANCH   6  24
ATOM     24  O   UNL     1      12.079  58.222  16.050  1.00  0.00    -0.507 OA
ATOM     25  H   UNL     1      11.341  58.794  16.430  1.00  0.00     0.293 HD
ENDBRANCH   6  24
BRANCH   8  26
ATOM     26  O   UNL     1      16.778  59.106  15.610  1.00  0.00    -0.508 OA
ATOM     27  H   UNL     1      17.327  59.869  15.991  1.00  0.00     0.293 HD
ENDBRANCH   8  26
TORSDOF 6
ENDMDL
MODEL 8
REMARK VINA RESULT:    -4.653      1.672      3.213
REMARK INTER + INTRA:          -5.870
REMARK INTER:                  -5.557
REMARK INTRA:                  -0.313
REMARK UNBOUND:                -0.265
REMARK SMILES O=c1c(O)c(-c2ccc(O)c(O)c2)oc2cc(O)cc(O)c12
REMARK SMILES IDX 5 1 3 2 2 3 1 4 22 5 20 6 19 7 17 8 16 9 15 10 14 11 6 12
REMARK SMILES IDX 7 13 8 14 9 15 13 16 11 17 10 18 12 20 4 22 21 24 18 26
REMARK H PARENT 10 19 12 21 4 23 21 25 18 27
REMARK Flexibility Score: inf
ROOT
ATOM      1  C   UNL     1      14.998  56.544  19.211  1.00  0.00     0.180 A 
ATOM      2  C   UNL     1      16.265  56.652  18.612  1.00  0.00     0.208 A 
ATOM      3  C   UNL     1      17.223  55.656  18.862  1.00  0.00     0.238 A 
ATOM      4  O   UNL     1      18.373  55.785  18.366  1.00  0.00    -0.285 OA
ATOM      5  C   UNL     1      16.897  54.558  19.695  1.00  0.00     0.111 A 
ATOM      6  C   UNL     1      17.776  53.471  19.984  1.00  0.00     0.134 A 
ATOM      7  C   UNL     1      17.395  52.506  20.924  1.00  0.00     0.093 A 
ATOM      8  C   UNL     1      16.140  52.553  21.536  1.00  0.00     0.123 A 
ATOM      9  C   UNL     1      15.252  53.577  21.216  1.00  0.00     0.094 A 
ATOM     10  C   UNL     1      15.618  54.574  20.309  1.00  0.00     0.146 A 
ATOM     11  O   UNL     1      14.746  55.538  20.040  1.00  0.00    -0.452 OA
ENDROOT
BRANCH   1  12
ATOM     12  C   UNL     1      13.929  57.541  18.976  1.00  0.00     0.025 A 
ATOM     13  C   UNL     1      13.863  58.734  19.719  1.00  0.00     0.016 A 
ATOM     14  C   UNL     1      12.859  59.671  19.463  1.00  0.00     0.051 A 
ATOM     15  C   UNL     1      11.914  59.437  18.455  1.00  0.00     0.157 A 
ATOM     16  C   UNL     1      12.992  57.322  17.953  1.00  0.00     0.062 A 
ATOM     17  C   UNL     1      11.984  58.258  17.694  1.00  0.00     0.158 A 
BRANCH  15  18
ATOM     18  O   UNL     1      10.912  60.374  18.204  1.00  0.00    -0.504 OA
ATOM     19  H   UNL     1      10.874  60.890  17.333  1.00  0.00     0.293 HD
ENDBRANCH  15  18
BRANCH  17  20
ATOM     20  O   UNL     1      11.063  58.000  16.679  1.00  0.00    -0.504 OA
ATOM     21  H   UNL     1      11.012  58.569  15.842  1.00  0.00     0.293 HD
ENDBRANCH  17  20
ENDBRANCH   1  12
BRANCH   2  22
ATOM     22  O   UNL     1      16.573  57.755  17.811  1.00  0.00    -0.502 OA
ATOM     23  H   UNL     1      16.992  57.662  16.895  1.00  0.00     0.293 HD
ENDBRANCH   2  22
BRANCH   6  24
ATOM     24  O   UNL     1      19.013  53.281  19.360  1.00  0.00    -0.507 OA
ATOM     25  H   UNL     1      19.783  52.765  19.757  1.00  0.00     0.293 HD
ENDBRANCH   6  24
BRANCH   8  26
ATOM     26  O   UNL     1      15.763  51.580  22.459  1.00  0.00    -0.508 OA
ATOM     27  H   UNL     1      16.450  51.008  22.937  1.00  0.00     0.293 HD
ENDBRANCH   8  26
TORSDOF 6
ENDMDL
MODEL 9
REMARK VINA RESULT:    -4.527      2.806      3.399
REMARK INTER + INTRA:          -5.719
REMARK INTER:                  -5.429
REMARK INTRA:                  -0.289
REMARK UNBOUND:                -0.265
REMARK SMILES O=c1c(O)c(-c2ccc(O)c(O)c2)oc2cc(O)cc(O)c12
REMARK SMILES IDX 5 1 3 2 2 3 1 4 22 5 20 6 19 7 17 8 16 9 15 10 14 11 6 12
REMARK SMILES IDX 7 13 8 14 9 15 13 16 11 17 10 18 12 20 4 22 21 24 18 26
REMARK H PARENT 10 19 12 21 4 23 21 25 18 27
REMARK Flexibility Score: inf
ROOT
ATOM      1  C   UNL     1      14.951  56.878  18.887  1.00  0.00     0.180 A 
ATOM      2  C   UNL     1      13.803  57.053  19.679  1.00  0.00     0.208 A 
ATOM      3  C   UNL     1      13.574  56.171  20.747  1.00  0.00     0.238 A 
ATOM      4  O   UNL     1      12.517  56.298  21.420  1.00  0.00    -0.285 OA
ATOM      5  C   UNL     1      14.502  55.136  21.019  1.00  0.00     0.111 A 
ATOM      6  C   UNL     1      14.391  54.211  22.101  1.00  0.00     0.134 A 
ATOM      7  C   UNL     1      15.297  53.148  22.196  1.00  0.00     0.093 A 
ATOM      8  C   UNL     1      16.351  53.016  21.288  1.00  0.00     0.123 A 
ATOM      9  C   UNL     1      16.503  53.949  20.265  1.00  0.00     0.094 A 
ATOM     10  C   UNL     1      15.593  54.998  20.122  1.00  0.00     0.146 A 
ATOM     11  O   UNL     1      15.768  55.859  19.126  1.00  0.00    -0.452 OA
ENDROOT
BRANCH   1  12
ATOM     12  C   UNL     1      15.274  57.782  17.759  1.00  0.00     0.025 A 
ATOM     13  C   UNL     1      16.248  58.789  17.884  1.00  0.00     0.016 A 
ATOM     14  C   UNL     1      16.554  59.614  16.799  1.00  0.00     0.051 A 
ATOM     15  C   UNL     1      15.902  59.438  15.571  1.00  0.00     0.157 A 
ATOM     16  C   UNL     1      14.640  57.596  16.520  1.00  0.00     0.062 A 
ATOM     17  C   UNL     1      14.943  58.421  15.431  1.00  0.00     0.158 A 
BRANCH  15  18
ATOM     18  O   UNL     1      16.208  60.265  14.490  1.00  0.00    -0.504 OA
ATOM     19  H   UNL     1      16.762  59.934  13.709  1.00  0.00     0.293 HD
ENDBRANCH  15  18
BRANCH  17  20
ATOM     20  O   UNL     1      14.282  58.215  14.220  1.00  0.00    -0.504 OA
ATOM     21  H   UNL     1      14.761  57.861  13.400  1.00  0.00     0.293 HD
ENDBRANCH  17  20
ENDBRANCH   1  12
BRANCH   2  22
ATOM     22  O   UNL     1      12.889  58.066  19.380  1.00  0.00    -0.502 OA
ATOM     23  H   UNL     1      13.142  58.884  18.840  1.00  0.00     0.293 HD
ENDBRANCH   2  22
BRANCH   6  24
ATOM     24  O   UNL     1      13.431  54.306  23.114  1.00  0.00    -0.507 OA
ATOM     25  H   UNL     1      13.346  53.665  23.887  1.00  0.00     0.293 HD
ENDBRANCH   6  24
BRANCH   8  26
ATOM     26  O   UNL     1      17.257  51.964  21.400  1.00  0.00    -0.508 OA
ATOM     27  H   UNL     1      17.712  51.747  22.279  1.00  0.00     0.293 HD
ENDBRANCH   8  26
TORSDOF 6
ENDMDL
