MODEL 1
REMARK VINA RESULT:    -4.704      0.000      0.000
REMARK INTER + INTRA:          -5.668
REMARK INTER:                  -5.392
REMARK INTRA:                  -0.276
REMARK UNBOUND:                -0.276
REMARK SMILES O=C([O-])C=Cc1ccc(O)cc1
REMARK SMILES IDX 6 1 7 2 12 3 8 4 11 5 9 6 5 7 4 8 2 9 1 10 3 11 10 12
REMARK H PARENT 10 13
REMARK Flexibility Score: inf
ROOT
ATOM      1  C   UNL     1       8.213  -7.439  -9.054  1.00  0.00    -0.025 A 
ATOM      2  C   UNL     1       7.612  -6.258  -8.583  1.00  0.00     0.012 A 
ATOM      3  C   UNL     1       9.512  -7.762  -8.635  1.00  0.00     0.012 A 
ATOM      4  C   UNL     1       8.283  -5.443  -7.666  1.00  0.00     0.047 A 
ATOM      5  C   UNL     1      10.181  -6.946  -7.718  1.00  0.00     0.047 A 
ATOM      6  C   UNL     1       9.569  -5.788  -7.227  1.00  0.00     0.115 A 
ENDROOT
BRANCH   1   7
ATOM      7  C   UNL     1       7.546  -8.286 -10.064  1.00  0.00     0.010 C 
ATOM      8  C   UNL     1       7.725  -8.199 -11.391  1.00  0.00     0.025 C 
BRANCH   8   9
ATOM      9  C   UNL     1       8.464  -7.129 -12.087  1.00  0.00     0.064 C 
ATOM     10  O   UNL     1       9.699  -7.263 -12.287  1.00  0.00    -0.545 OA
ATOM     11  O   UNL     1       7.814  -6.007 -12.590  1.00  0.00    -0.545 OA
ENDBRANCH   8   9
ENDBRANCH   1   7
BRANCH   6  12
ATOM     12  O   UNL     1      10.247  -4.985  -6.313  1.00  0.00    -0.508 OA
ATOM     13  H   UNL     1      10.951  -5.367  -5.693  1.00  0.00     0.293 HD
ENDBRANCH   6  12
TORSDOF 3
ENDMDL
MODEL 2
REMARK VINA RESULT:    -4.501      1.983      2.472
REMARK INTER + INTRA:          -5.435
REMARK INTER:                  -5.145
REMARK INTRA:                  -0.291
REMARK UNBOUND:                -0.276
REMARK SMILES O=C([O-])C=Cc1ccc(O)cc1
REMARK SMILES IDX 6 1 7 2 12 3 8 4 11 5 9 6 5 7 4 8 2 9 1 10 3 11 10 12
REMARK H PARENT 10 13
REMARK Flexibility Score: inf
ROOT
ATOM      1  C   UNL     1       9.301  -7.546  -7.509  1.00  0.00    -0.025 A 
ATOM      2  C   UNL     1       8.222  -7.988  -6.723  1.00  0.00     0.012 A 
ATOM      3  C   UNL     1       9.740  -6.219  -7.389  1.00  0.00     0.012 A 
ATOM      4  C   UNL     1       7.629  -7.127  -5.794  1.00  0.00     0.047 A 
ATOM      5  C   UNL     1       9.146  -5.361  -6.459  1.00  0.00     0.047 A 
ATOM      6  C   UNL     1       8.093  -5.811  -5.656  1.00  0.00     0.115 A 
ENDROOT
BRANCH   1   7
ATOM      7  C   UNL     1       9.907  -8.420  -8.535  1.00  0.00     0.010 C 
ATOM      8  C   UNL     1       9.509  -8.508  -9.813  1.00  0.00     0.025 C 
BRANCH   8   9
ATOM      9  C   UNL     1       8.287  -7.901 -10.374  1.00  0.00     0.064 C 
ATOM     10  O   UNL     1       7.218  -8.564 -10.380  1.00  0.00    -0.545 OA
ATOM     11  O   UNL     1       8.273  -6.588 -10.830  1.00  0.00    -0.545 OA
ENDBRANCH   8   9
ENDBRANCH   1   7
BRANCH   6  12
ATOM     12  O   UNL     1       7.510  -4.946  -4.733  1.00  0.00    -0.508 OA
ATOM     13  H   UNL     1       7.617  -3.941  -4.810  1.00  0.00     0.293 HD
ENDBRANCH   6  12
TORSDOF 3
ENDMDL
MODEL 3
REMARK VINA RESULT:    -4.478     21.729     22.871
REMARK INTER + INTRA:          -5.408
REMARK INTER:                  -5.111
REMARK INTRA:                  -0.298
REMARK UNBOUND:                -0.276
REMARK SMILES O=C([O-])C=Cc1ccc(O)cc1
REMARK SMILES IDX 6 1 7 2 12 3 8 4 11 5 9 6 5 7 4 8 2 9 1 10 3 11 10 12
REMARK H PARENT 10 13
REMARK Flexibility Score: inf
ROOT
ATOM      1  C   UNL     1      24.125   7.667 -18.792  1.00  0.00    -0.025 A 
ATOM      2  C   UNL     1      24.846   6.490 -19.059  1.00  0.00     0.012 A 
ATOM      3  C   UNL     1      22.770   7.738 -19.150  1.00  0.00     0.012 A 
ATOM      4  C   UNL     1      24.205   5.384 -19.625  1.00  0.00     0.047 A 
ATOM      5  C   UNL     1      22.131   6.630 -19.715  1.00  0.00     0.047 A 
ATOM      6  C   UNL     1      22.843   5.450 -19.951  1.00  0.00     0.115 A 
ENDROOT
BRANCH   1   7
ATOM      7  C   UNL     1      24.793   8.866 -18.246  1.00  0.00     0.010 C 
ATOM      8  C   UNL     1      24.992   9.118 -16.943  1.00  0.00     0.025 C 
BRANCH   8   9
ATOM      9  C   UNL     1      24.417   8.347 -15.824  1.00  0.00     0.064 C 
ATOM     10  O   UNL     1      23.236   8.581 -15.458  1.00  0.00    -0.545 OA
ATOM     11  O   UNL     1      25.125   7.320 -15.212  1.00  0.00    -0.545 OA
ENDBRANCH   8   9
ENDBRANCH   1   7
BRANCH   6  12
ATOM     12  O   UNL     1      22.194   4.354 -20.515  1.00  0.00    -0.508 OA
ATOM     13  H   UNL     1      22.515   3.407 -20.351  1.00  0.00     0.293 HD
ENDBRANCH   6  12
TORSDOF 3
ENDMDL
MODEL 4
REMARK VINA RESULT:    -4.448     12.077     13.793
REMARK INTER + INTRA:          -5.374
REMARK INTER:                  -5.077
REMARK INTRA:                  -0.297
REMARK UNBOUND:                -0.276
REMARK SMILES O=C([O-])C=Cc1ccc(O)cc1
REMARK SMILES IDX 6 1 7 2 12 3 8 4 11 5 9 6 5 7 4 8 2 9 1 10 3 11 10 12
REMARK H PARENT 10 13
REMARK Flexibility Score: inf
ROOT
ATOM      1  C   UNL     1      21.618  -2.292  -7.472  1.00  0.00    -0.025 A 
ATOM      2  C   UNL     1      20.604  -2.162  -8.438  1.00  0.00     0.012 A 
ATOM      3  C   UNL     1      21.267  -2.585  -6.145  1.00  0.00     0.012 A 
ATOM      4  C   UNL     1      19.267  -2.375  -8.090  1.00  0.00     0.047 A 
ATOM      5  C   UNL     1      19.929  -2.799  -5.799  1.00  0.00     0.047 A 
ATOM      6  C   UNL     1      18.926  -2.698  -6.768  1.00  0.00     0.115 A 
ENDROOT
BRANCH   1   7
ATOM      7  C   UNL     1      23.031  -2.019  -7.804  1.00  0.00     0.010 C 
ATOM      8  C   UNL     1      23.913  -2.926  -8.250  1.00  0.00     0.025 C 
BRANCH   8   9
ATOM      9  C   UNL     1      23.689  -4.383  -8.307  1.00  0.00     0.064 C 
ATOM     10  O   UNL     1      23.982  -5.090  -7.309  1.00  0.00    -0.545 OA
ATOM     11  O   UNL     1      23.095  -4.983  -9.411  1.00  0.00    -0.545 OA
ENDBRANCH   8   9
ENDBRANCH   1   7
BRANCH   6  12
ATOM     12  O   UNL     1      17.597  -2.913  -6.410  1.00  0.00    -0.508 OA
ATOM     13  H   UNL     1      17.104  -2.275  -5.797  1.00  0.00     0.293 HD
ENDBRANCH   6  12
TORSDOF 3
ENDMDL
MODEL 5
REMARK VINA RESULT:    -4.332      2.706      3.601
REMARK INTER + INTRA:          -5.241
REMARK INTER:                  -4.959
REMARK INTRA:                  -0.283
REMARK UNBOUND:                -0.276
REMARK SMILES O=C([O-])C=Cc1ccc(O)cc1
REMARK SMILES IDX 6 1 7 2 12 3 8 4 11 5 9 6 5 7 4 8 2 9 1 10 3 11 10 12
REMARK H PARENT 10 13
REMARK Flexibility Score: inf
ROOT
ATOM      1  C   UNL     1       7.966  -6.634  -7.201  1.00  0.00    -0.025 A 
ATOM      2  C   UNL     1       7.615  -7.804  -6.504  1.00  0.00     0.012 A 
ATOM      3  C   UNL     1       8.169  -5.444  -6.485  1.00  0.00     0.012 A 
ATOM      4  C   UNL     1       7.522  -7.793  -5.109  1.00  0.00     0.047 A 
ATOM      5  C   UNL     1       8.077  -5.436  -5.090  1.00  0.00     0.047 A 
ATOM      6  C   UNL     1       7.757  -6.608  -4.397  1.00  0.00     0.115 A 
ENDROOT
BRANCH   1   7
ATOM      7  C   UNL     1       8.016  -6.608  -8.677  1.00  0.00     0.010 C 
ATOM      8  C   UNL     1       9.106  -6.847  -9.421  1.00  0.00     0.025 C 
BRANCH   8   9
ATOM      9  C   UNL     1      10.481  -6.989  -8.904  1.00  0.00     0.064 C 
ATOM     10  O   UNL     1      11.255  -5.998  -8.936  1.00  0.00    -0.545 OA
ATOM     11  O   UNL     1      10.919  -8.171  -8.319  1.00  0.00    -0.545 OA
ENDBRANCH   8   9
ENDBRANCH   1   7
BRANCH   6  12
ATOM     12  O   UNL     1       7.669  -6.585  -3.007  1.00  0.00    -0.508 OA
ATOM     13  H   UNL     1       6.878  -6.989  -2.520  1.00  0.00     0.293 HD
ENDBRANCH   6  12
TORSDOF 3
ENDMDL
MODEL 6
REMARK VINA RESULT:    -4.320      2.395      2.949
REMARK INTER + INTRA:          -5.228
REMARK INTER:                  -4.928
REMARK INTRA:                  -0.299
REMARK UNBOUND:                -0.276
REMARK SMILES O=C([O-])C=Cc1ccc(O)cc1
REMARK SMILES IDX 6 1 7 2 12 3 8 4 11 5 9 6 5 7 4 8 2 9 1 10 3 11 10 12
REMARK H PARENT 10 13
REMARK Flexibility Score: inf
ROOT
ATOM      1  C   UNL     1      10.338  -6.847  -8.173  1.00  0.00    -0.025 A 
ATOM      2  C   UNL     1       9.605  -5.937  -7.390  1.00  0.00     0.012 A 
ATOM      3  C   UNL     1       9.939  -8.192  -8.216  1.00  0.00     0.012 A 
ATOM      4  C   UNL     1       8.461  -6.359  -6.704  1.00  0.00     0.047 A 
ATOM      5  C   UNL     1       8.794  -8.610  -7.531  1.00  0.00     0.047 A 
ATOM      6  C   UNL     1       8.050  -7.697  -6.777  1.00  0.00     0.115 A 
ENDROOT
BRANCH   1   7
ATOM      7  C   UNL     1      11.579  -6.437  -8.861  1.00  0.00     0.010 C 
ATOM      8  C   UNL     1      11.646  -5.903 -10.090  1.00  0.00     0.025 C 
BRANCH   8   9
ATOM      9  C   UNL     1      10.524  -5.805 -11.043  1.00  0.00     0.064 C 
ATOM     10  O   UNL     1      10.255  -6.789 -11.779  1.00  0.00    -0.545 OA
ATOM     11  O   UNL     1       9.713  -4.678 -11.096  1.00  0.00    -0.545 OA
ENDBRANCH   8   9
ENDBRANCH   1   7
BRANCH   6  12
ATOM     12  O   UNL     1       6.912  -8.128  -6.100  1.00  0.00    -0.508 OA
ATOM     13  H   UNL     1       6.068  -7.569  -6.074  1.00  0.00     0.293 HD
ENDBRANCH   6  12
TORSDOF 3
ENDMDL
MODEL 7
REMARK VINA RESULT:    -4.304     13.338     15.209
REMARK INTER + INTRA:          -5.209
REMARK INTER:                  -4.936
REMARK INTRA:                  -0.273
REMARK UNBOUND:                -0.276
REMARK SMILES O=C([O-])C=Cc1ccc(O)cc1
REMARK SMILES IDX 6 1 7 2 12 3 8 4 11 5 9 6 5 7 4 8 2 9 1 10 3 11 10 12
REMARK H PARENT 10 13
REMARK Flexibility Score: inf
ROOT
ATOM      1  C   UNL     1      23.663  -3.688  -7.777  1.00  0.00    -0.025 A 
ATOM      2  C   UNL     1      24.151  -4.128  -6.534  1.00  0.00     0.012 A 
ATOM      3  C   UNL     1      23.603  -4.591  -8.849  1.00  0.00     0.012 A 
ATOM      4  C   UNL     1      24.521  -5.464  -6.355  1.00  0.00     0.047 A 
ATOM      5  C   UNL     1      23.974  -5.927  -8.668  1.00  0.00     0.047 A 
ATOM      6  C   UNL     1      24.430  -6.369  -7.422  1.00  0.00     0.115 A 
ENDROOT
BRANCH   1   7
ATOM      7  C   UNL     1      23.318  -2.270  -8.005  1.00  0.00     0.010 C 
ATOM      8  C   UNL     1      22.166  -1.684  -7.646  1.00  0.00     0.025 C 
BRANCH   8   9
ATOM      9  C   UNL     1      20.972  -2.384  -7.136  1.00  0.00     0.064 C 
ATOM     10  O   UNL     1      20.036  -2.662  -7.930  1.00  0.00    -0.545 OA
ATOM     11  O   UNL     1      20.887  -2.806  -5.815  1.00  0.00    -0.545 OA
ENDBRANCH   8   9
ENDBRANCH   1   7
BRANCH   6  12
ATOM     12  O   UNL     1      24.795  -7.703  -7.255  1.00  0.00    -0.508 OA
ATOM     13  H   UNL     1      25.697  -7.961  -6.873  1.00  0.00     0.293 HD
ENDBRANCH   6  12
TORSDOF 3
ENDMDL
MODEL 8
REMARK VINA RESULT:    -4.203      2.175      4.648
REMARK INTER + INTRA:          -5.094
REMARK INTER:                  -4.803
REMARK INTRA:                  -0.291
REMARK UNBOUND:                -0.276
REMARK SMILES O=C([O-])C=Cc1ccc(O)cc1
REMARK SMILES IDX 6 1 7 2 12 3 8 4 11 5 9 6 5 7 4 8 2 9 1 10 3 11 10 12
REMARK H PARENT 10 13
REMARK Flexibility Score: inf
ROOT
ATOM      1  C   UNL     1       9.518  -5.985  -9.760  1.00  0.00    -0.025 A 
ATOM      2  C   UNL     1       8.538  -5.018 -10.043  1.00  0.00     0.012 A 
ATOM      3  C   UNL     1       9.793  -6.981 -10.710  1.00  0.00     0.012 A 
ATOM      4  C   UNL     1       7.883  -5.018 -11.278  1.00  0.00     0.047 A 
ATOM      5  C   UNL     1       9.138  -6.979 -11.945  1.00  0.00     0.047 A 
ATOM      6  C   UNL     1       8.185  -5.997 -12.235  1.00  0.00     0.115 A 
ENDROOT
BRANCH   1   7
ATOM      7  C   UNL     1      10.183  -6.038  -8.442  1.00  0.00     0.010 C 
ATOM      8  C   UNL     1       9.757  -6.745  -7.385  1.00  0.00     0.025 C 
BRANCH   8   9
ATOM      9  C   UNL     1       8.458  -7.438  -7.285  1.00  0.00     0.064 C 
ATOM     10  O   UNL     1       7.442  -6.791  -6.922  1.00  0.00    -0.545 OA
ATOM     11  O   UNL     1       8.317  -8.771  -7.652  1.00  0.00    -0.545 OA
ENDBRANCH   8   9
ENDBRANCH   1   7
BRANCH   6  12
ATOM     12  O   UNL     1       7.540  -6.007 -13.470  1.00  0.00    -0.508 OA
ATOM     13  H   UNL     1       7.253  -6.873 -13.910  1.00  0.00     0.293 HD
ENDBRANCH   6  12
TORSDOF 3
ENDMDL
MODEL 9
REMARK VINA RESULT:    -4.185     11.666     12.396
REMARK INTER + INTRA:          -5.073
REMARK INTER:                  -4.798
REMARK INTRA:                  -0.275
REMARK UNBOUND:                -0.276
REMARK SMILES O=C([O-])C=Cc1ccc(O)cc1
REMARK SMILES IDX 6 1 7 2 12 3 8 4 11 5 9 6 5 7 4 8 2 9 1 10 3 11 10 12
REMARK H PARENT 10 13
REMARK Flexibility Score: inf
ROOT
ATOM      1  C   UNL     1      13.663   4.055  -4.592  1.00  0.00    -0.025 A 
ATOM      2  C   UNL     1      12.360   4.520  -4.845  1.00  0.00     0.012 A 
ATOM      3  C   UNL     1      13.846   2.966  -3.726  1.00  0.00     0.012 A 
ATOM      4  C   UNL     1      11.257   3.871  -4.281  1.00  0.00     0.047 A 
ATOM      5  C   UNL     1      12.742   2.318  -3.164  1.00  0.00     0.047 A 
ATOM      6  C   UNL     1      11.446   2.764  -3.441  1.00  0.00     0.115 A 
ENDROOT
BRANCH   1   7
ATOM      7  C   UNL     1      14.844   4.758  -5.132  1.00  0.00     0.010 C 
ATOM      8  C   UNL     1      15.333   4.614  -6.373  1.00  0.00     0.025 C 
BRANCH   8   9
ATOM      9  C   UNL     1      14.901   3.597  -7.351  1.00  0.00     0.064 C 
ATOM     10  O   UNL     1      15.573   2.542  -7.478  1.00  0.00    -0.545 OA
ATOM     11  O   UNL     1      13.730   3.748  -8.085  1.00  0.00    -0.545 OA
ENDBRANCH   8   9
ENDBRANCH   1   7
BRANCH   6  12
ATOM     12  O   UNL     1      10.356   2.108  -2.875  1.00  0.00    -0.508 OA
ATOM     13  H   UNL     1      10.170   2.152  -1.880  1.00  0.00     0.293 HD
ENDBRANCH   6  12
TORSDOF 3
ENDMDL
