MODEL 1
REMARK VINA RESULT:    -7.971      0.000      0.000
REMARK INTER + INTRA:         -10.320
REMARK INTER:                 -10.767
REMARK INTRA:                   0.447
REMARK UNBOUND:                 0.447
REMARK SMILES O=c1c(-c2ccc(O)cc2)coc2c([C@H]3O[C@H](CO)[C@H](O)[C@H](O)[C@H]3O)c(O)ccc12
REMARK SMILES IDX 3 1 11 2 12 3 13 4 30 5 2 6 1 7 29 8 28 9 26 10 14 11 4 12
REMARK SMILES IDX 5 13 6 14 7 15 10 16 9 17 8 18 15 20 24 21 16 22 22 23 17 24
REMARK SMILES IDX 20 25 25 26 23 28 18 30 19 31 21 33 27 35
REMARK H PARENT 8 19 25 27 23 29 19 32 21 34 27 36
REMARK Flexibility Score: inf
ROOT
ATOM      1  C   UNL     1       4.476   0.493 -23.606  1.00  0.00     0.065 A 
ATOM      2  C   UNL     1       3.524   1.047 -24.471  1.00  0.00     0.208 A 
ATOM      3  O   UNL     1       3.192   2.329 -24.388  1.00  0.00    -0.463 OA
ATOM      4  C   UNL     1       3.723   3.167 -23.501  1.00  0.00     0.147 A 
ATOM      5  C   UNL     1       4.675   2.683 -22.572  1.00  0.00     0.066 A 
ATOM      6  C   UNL     1       5.052   1.329 -22.633  1.00  0.00     0.200 A 
ATOM      7  O   UNL     1       5.882   0.861 -21.805  1.00  0.00    -0.288 OA
ATOM      8  C   UNL     1       5.202   3.549 -21.607  1.00  0.00     0.020 A 
ATOM      9  C   UNL     1       4.766   4.868 -21.539  1.00  0.00     0.047 A 
ATOM     10  C   UNL     1       3.817   5.359 -22.445  1.00  0.00     0.125 A 
ATOM     11  C   UNL     1       3.325   4.530 -23.488  1.00  0.00     0.069 A 
ENDROOT
BRANCH   1  12
ATOM     12  C   UNL     1       4.841  -0.941 -23.726  1.00  0.00    -0.011 A 
ATOM     13  C   UNL     1       4.993  -1.532 -24.993  1.00  0.00     0.013 A 
ATOM     14  C   UNL     1       5.345  -2.880 -25.110  1.00  0.00     0.047 A 
ATOM     15  C   UNL     1       5.556  -3.652 -23.963  1.00  0.00     0.115 A 
ATOM     16  C   UNL     1       5.062  -1.724 -22.578  1.00  0.00     0.013 A 
ATOM     17  C   UNL     1       5.415  -3.071 -22.698  1.00  0.00     0.047 A 
BRANCH  15  18
ATOM     18  O   UNL     1       5.907  -4.994 -24.095  1.00  0.00    -0.508 OA
ATOM     19  H   UNL     1       6.757  -5.275 -24.572  1.00  0.00     0.293 HD
ENDBRANCH  15  18
ENDBRANCH   1  12
BRANCH  11  20
ATOM     20  C   UNL     1       2.313   5.021 -24.540  1.00  0.00     0.188 C 
ATOM     21  C   UNL     1       2.709   4.697 -26.025  1.00  0.00     0.179 C 
ATOM     22  O   UNL     1       1.882   6.370 -24.352  1.00  0.00    -0.362 OA
ATOM     23  C   UNL     1       2.118   5.731 -26.993  1.00  0.00     0.177 C 
ATOM     24  C   UNL     1       2.687   7.308 -25.051  1.00  0.00     0.176 C 
ATOM     25  C   UNL     1       2.534   7.163 -26.598  1.00  0.00     0.177 C 
BRANCH  21  26
ATOM     26  O   UNL     1       4.100   4.563 -26.213  1.00  0.00    -0.387 OA
ATOM     27  H   UNL     1       4.556   4.751 -25.355  1.00  0.00     0.211 HD
ENDBRANCH  21  26
BRANCH  23  28
ATOM     28  O   UNL     1       0.716   5.605 -26.981  1.00  0.00    -0.387 OA
ATOM     29  H   UNL     1       0.339   6.523 -26.961  1.00  0.00     0.211 HD
ENDBRANCH  23  28
BRANCH  24  30
ATOM     30  C   UNL     1       2.369   8.729 -24.544  1.00  0.00     0.191 C 
BRANCH  30  31
ATOM     31  O   UNL     1       1.023   8.847 -24.165  1.00  0.00    -0.394 OA
ATOM     32  H   UNL     1       0.510   9.054 -24.988  1.00  0.00     0.210 HD
ENDBRANCH  30  31
ENDBRANCH  24  30
BRANCH  25  33
ATOM     33  O   UNL     1       1.601   8.078 -27.125  1.00  0.00    -0.388 OA
ATOM     34  H   UNL     1       2.007   8.481 -27.936  1.00  0.00     0.211 HD
ENDBRANCH  25  33
ENDBRANCH  11  20
BRANCH  10  35
ATOM     35  O   UNL     1       3.359   6.664 -22.278  1.00  0.00    -0.507 OA
ATOM     36  H   UNL     1       3.992   7.439 -22.118  1.00  0.00     0.293 HD
ENDBRANCH  10  35
TORSDOF 9
ENDMDL
MODEL 2
REMARK VINA RESULT:    -7.882      1.866      8.680
REMARK INTER + INTRA:         -10.200
REMARK INTER:                  -9.880
REMARK INTRA:                  -0.321
REMARK UNBOUND:                 0.447
REMARK SMILES O=c1c(-c2ccc(O)cc2)coc2c([C@H]3O[C@H](CO)[C@H](O)[C@H](O)[C@H]3O)c(O)ccc12
REMARK SMILES IDX 3 1 11 2 12 3 13 4 30 5 2 6 1 7 29 8 28 9 26 10 14 11 4 12
REMARK SMILES IDX 5 13 6 14 7 15 10 16 9 17 8 18 15 20 24 21 16 22 22 23 17 24
REMARK SMILES IDX 20 25 25 26 23 28 18 30 19 31 21 33 27 35
REMARK H PARENT 8 19 25 27 23 29 19 32 21 34 27 36
REMARK Flexibility Score: inf
ROOT
ATOM      1  C   UNL     1       3.376   3.395 -24.718  1.00  0.00     0.065 A 
ATOM      2  C   UNL     1       2.779   2.170 -25.042  1.00  0.00     0.208 A 
ATOM      3  O   UNL     1       3.186   1.042 -24.474  1.00  0.00    -0.463 OA
ATOM      4  C   UNL     1       4.169   0.986 -23.577  1.00  0.00     0.147 A 
ATOM      5  C   UNL     1       4.843   2.176 -23.212  1.00  0.00     0.066 A 
ATOM      6  C   UNL     1       4.435   3.391 -23.793  1.00  0.00     0.200 A 
ATOM      7  O   UNL     1       5.030   4.467 -23.504  1.00  0.00    -0.288 OA
ATOM      8  C   UNL     1       5.907   2.117 -22.304  1.00  0.00     0.020 A 
ATOM      9  C   UNL     1       6.321   0.893 -21.792  1.00  0.00     0.047 A 
ATOM     10  C   UNL     1       5.670  -0.294 -22.151  1.00  0.00     0.125 A 
ATOM     11  C   UNL     1       4.535  -0.260 -23.004  1.00  0.00     0.069 A 
ENDROOT
BRANCH   1  12
ATOM     12  C   UNL     1       2.894   4.646 -25.356  1.00  0.00    -0.011 A 
ATOM     13  C   UNL     1       1.832   5.370 -24.786  1.00  0.00     0.013 A 
ATOM     14  C   UNL     1       1.381   6.553 -25.379  1.00  0.00     0.047 A 
ATOM     15  C   UNL     1       1.988   7.030 -26.545  1.00  0.00     0.115 A 
ATOM     16  C   UNL     1       3.504   5.136 -26.525  1.00  0.00     0.013 A 
ATOM     17  C   UNL     1       3.051   6.320 -27.116  1.00  0.00     0.047 A 
BRANCH  15  18
ATOM     18  O   UNL     1       1.529   8.210 -27.125  1.00  0.00    -0.508 OA
ATOM     19  H   UNL     1       1.649   9.107 -26.667  1.00  0.00     0.293 HD
ENDBRANCH  15  18
ENDBRANCH   1  12
BRANCH  11  20
ATOM     20  C   UNL     1       3.750  -1.523 -23.404  1.00  0.00     0.188 C 
ATOM     21  C   UNL     1       2.808  -2.086 -22.281  1.00  0.00     0.179 C 
ATOM     22  O   UNL     1       4.545  -2.530 -24.032  1.00  0.00    -0.362 OA
ATOM     23  C   UNL     1       2.616  -3.602 -22.429  1.00  0.00     0.177 C 
ATOM     24  C   UNL     1       5.087  -3.462 -23.107  1.00  0.00     0.176 C 
ATOM     25  C   UNL     1       3.974  -4.334 -22.446  1.00  0.00     0.177 C 
BRANCH  21  26
ATOM     26  O   UNL     1       3.233  -1.753 -20.979  1.00  0.00    -0.387 OA
ATOM     27  H   UNL     1       3.422  -2.588 -20.484  1.00  0.00     0.211 HD
ENDBRANCH  21  26
BRANCH  23  28
ATOM     28  O   UNL     1       1.909  -3.850 -23.621  1.00  0.00    -0.387 OA
ATOM     29  H   UNL     1       0.975  -4.070 -23.369  1.00  0.00     0.211 HD
ENDBRANCH  23  28
BRANCH  24  30
ATOM     30  C   UNL     1       6.175  -4.300 -23.806  1.00  0.00     0.191 C 
BRANCH  30  31
ATOM     31  O   UNL     1       7.458  -3.944 -23.364  1.00  0.00    -0.394 OA
ATOM     32  H   UNL     1       7.409  -3.862 -22.376  1.00  0.00     0.210 HD
ENDBRANCH  30  31
ENDBRANCH  24  30
BRANCH  25  33
ATOM     33  O   UNL     1       3.822  -5.577 -23.093  1.00  0.00    -0.388 OA
ATOM     34  H   UNL     1       3.087  -5.479 -23.753  1.00  0.00     0.211 HD
ENDBRANCH  25  33
ENDBRANCH  11  20
BRANCH  10  35
ATOM     35  O   UNL     1       6.180  -1.498 -21.670  1.00  0.00    -0.507 OA
ATOM     36  H   UNL     1       5.640  -2.106 -21.065  1.00  0.00     0.293 HD
ENDBRANCH  10  35
TORSDOF 9
ENDMDL
MODEL 3
REMARK VINA RESULT:    -7.843      1.904      3.809
REMARK INTER + INTRA:         -10.148
REMARK INTER:                 -10.167
REMARK INTRA:                   0.020
REMARK UNBOUND:                 0.447
REMARK SMILES O=c1c(-c2ccc(O)cc2)coc2c([C@H]3O[C@H](CO)[C@H](O)[C@H](O)[C@H]3O)c(O)ccc12
REMARK SMILES IDX 3 1 11 2 12 3 13 4 30 5 2 6 1 7 29 8 28 9 26 10 14 11 4 12
REMARK SMILES IDX 5 13 6 14 7 15 10 16 9 17 8 18 15 20 24 21 16 22 22 23 17 24
REMARK SMILES IDX 20 25 25 26 23 28 18 30 19 31 21 33 27 35
REMARK H PARENT 8 19 25 27 23 29 19 32 21 34 27 36
REMARK Flexibility Score: inf
ROOT
ATOM      1  C   UNL     1       3.634  -0.746 -23.738  1.00  0.00     0.065 A 
ATOM      2  C   UNL     1       4.377   0.246 -23.085  1.00  0.00     0.208 A 
ATOM      3  O   UNL     1       4.367   1.500 -23.517  1.00  0.00    -0.463 OA
ATOM      4  C   UNL     1       3.671   1.905 -24.577  1.00  0.00     0.147 A 
ATOM      5  C   UNL     1       2.912   0.961 -25.310  1.00  0.00     0.066 A 
ATOM      6  C   UNL     1       2.897  -0.378 -24.878  1.00  0.00     0.200 A 
ATOM      7  O   UNL     1       2.248  -1.248 -25.522  1.00  0.00    -0.288 OA
ATOM      8  C   UNL     1       2.214   1.371 -26.452  1.00  0.00     0.020 A 
ATOM      9  C   UNL     1       2.295   2.691 -26.883  1.00  0.00     0.047 A 
ATOM     10  C   UNL     1       3.049   3.634 -26.174  1.00  0.00     0.125 A 
ATOM     11  C   UNL     1       3.701   3.270 -24.966  1.00  0.00     0.069 A 
ENDROOT
BRANCH   1  12
ATOM     12  C   UNL     1       3.650  -2.140 -23.228  1.00  0.00    -0.011 A 
ATOM     13  C   UNL     1       2.535  -2.659 -22.545  1.00  0.00     0.013 A 
ATOM     14  C   UNL     1       2.544  -3.974 -22.070  1.00  0.00     0.047 A 
ATOM     15  C   UNL     1       3.661  -4.789 -22.277  1.00  0.00     0.115 A 
ATOM     16  C   UNL     1       4.768  -2.968 -23.438  1.00  0.00     0.013 A 
ATOM     17  C   UNL     1       4.772  -4.283 -22.963  1.00  0.00     0.047 A 
BRANCH  15  18
ATOM     18  O   UNL     1       3.655  -6.097 -21.799  1.00  0.00    -0.508 OA
ATOM     19  H   UNL     1       4.424  -6.463 -21.250  1.00  0.00     0.293 HD
ENDBRANCH  15  18
ENDBRANCH   1  12
BRANCH  11  20
ATOM     20  C   UNL     1       4.511   4.268 -24.118  1.00  0.00     0.188 C 
ATOM     21  C   UNL     1       4.350   4.085 -22.567  1.00  0.00     0.179 C 
ATOM     22  O   UNL     1       4.391   5.627 -24.542  1.00  0.00    -0.362 OA
ATOM     23  C   UNL     1       4.562   5.414 -21.828  1.00  0.00     0.177 C 
ATOM     24  C   UNL     1       3.333   6.316 -23.892  1.00  0.00     0.176 C 
ATOM     25  C   UNL     1       3.616   6.507 -22.369  1.00  0.00     0.177 C 
BRANCH  21  26
ATOM     26  O   UNL     1       3.125   3.491 -22.201  1.00  0.00    -0.387 OA
ATOM     27  H   UNL     1       2.415   4.178 -22.240  1.00  0.00     0.211 HD
ENDBRANCH  21  26
BRANCH  23  28
ATOM     28  O   UNL     1       5.905   5.805 -21.987  1.00  0.00    -0.387 OA
ATOM     29  H   UNL     1       5.902   6.702 -22.412  1.00  0.00     0.211 HD
ENDBRANCH  23  28
BRANCH  24  30
ATOM     30  C   UNL     1       3.063   7.644 -24.626  1.00  0.00     0.191 C 
BRANCH  30  31
ATOM     31  O   UNL     1       2.040   8.375 -24.001  1.00  0.00    -0.394 OA
ATOM     32  H   UNL     1       2.320   9.327 -24.010  1.00  0.00     0.210 HD
ENDBRANCH  30  31
ENDBRANCH  24  30
BRANCH  25  33
ATOM     33  O   UNL     1       4.164   7.774 -22.087  1.00  0.00    -0.388 OA
ATOM     34  H   UNL     1       3.408   8.386 -21.889  1.00  0.00     0.211 HD
ENDBRANCH  25  33
ENDBRANCH  11  20
BRANCH  10  35
ATOM     35  O   UNL     1       3.159   4.920 -26.698  1.00  0.00    -0.507 OA
ATOM     36  H   UNL     1       3.883   5.562 -26.398  1.00  0.00     0.293 HD
ENDBRANCH  10  35
TORSDOF 9
ENDMDL
MODEL 4
REMARK VINA RESULT:    -7.803      2.348      8.681
REMARK INTER + INTRA:         -10.094
REMARK INTER:                 -10.253
REMARK INTRA:                   0.159
REMARK UNBOUND:                 0.447
REMARK SMILES O=c1c(-c2ccc(O)cc2)coc2c([C@H]3O[C@H](CO)[C@H](O)[C@H](O)[C@H]3O)c(O)ccc12
REMARK SMILES IDX 3 1 11 2 12 3 13 4 30 5 2 6 1 7 29 8 28 9 26 10 14 11 4 12
REMARK SMILES IDX 5 13 6 14 7 15 10 16 9 17 8 18 15 20 24 21 16 22 22 23 17 24
REMARK SMILES IDX 20 25 25 26 23 28 18 30 19 31 21 33 27 35
REMARK H PARENT 8 19 25 27 23 29 19 32 21 34 27 36
REMARK Flexibility Score: inf
ROOT
ATOM      1  C   UNL     1       4.011   4.017 -23.585  1.00  0.00     0.065 A 
ATOM      2  C   UNL     1       4.662   2.969 -22.922  1.00  0.00     0.208 A 
ATOM      3  O   UNL     1       4.437   1.706 -23.259  1.00  0.00    -0.463 OA
ATOM      4  C   UNL     1       3.598   1.344 -24.227  1.00  0.00     0.147 A 
ATOM      5  C   UNL     1       2.880   2.340 -24.931  1.00  0.00     0.066 A 
ATOM      6  C   UNL     1       3.096   3.691 -24.602  1.00  0.00     0.200 A 
ATOM      7  O   UNL     1       2.456   4.602 -25.196  1.00  0.00    -0.288 OA
ATOM      8  C   UNL     1       1.962   1.963 -25.919  1.00  0.00     0.020 A 
ATOM      9  C   UNL     1       1.732   0.617 -26.181  1.00  0.00     0.047 A 
ATOM     10  C   UNL     1       2.427  -0.381 -25.486  1.00  0.00     0.125 A 
ATOM     11  C   UNL     1       3.425  -0.031 -24.537  1.00  0.00     0.069 A 
ENDROOT
BRANCH   1  12
ATOM     12  C   UNL     1       4.289   5.424 -23.200  1.00  0.00    -0.011 A 
ATOM     13  C   UNL     1       4.377   6.426 -24.183  1.00  0.00     0.013 A 
ATOM     14  C   UNL     1       4.630   7.753 -23.823  1.00  0.00     0.047 A 
ATOM     15  C   UNL     1       4.793   8.097 -22.477  1.00  0.00     0.115 A 
ATOM     16  C   UNL     1       4.448   5.779 -21.848  1.00  0.00     0.013 A 
ATOM     17  C   UNL     1       4.700   7.107 -21.491  1.00  0.00     0.047 A 
BRANCH  15  18
ATOM     18  O   UNL     1       5.045   9.423 -22.133  1.00  0.00    -0.508 OA
ATOM     19  H   UNL     1       5.638  10.014 -22.705  1.00  0.00     0.293 HD
ENDBRANCH  15  18
ENDBRANCH   1  12
BRANCH  11  20
ATOM     20  C   UNL     1       4.254  -1.078 -23.769  1.00  0.00     0.188 C 
ATOM     21  C   UNL     1       5.207  -1.941 -24.670  1.00  0.00     0.179 C 
ATOM     22  O   UNL     1       3.496  -1.856 -22.841  1.00  0.00    -0.362 OA
ATOM     23  C   UNL     1       5.449  -3.325 -24.051  1.00  0.00     0.177 C 
ATOM     24  C   UNL     1       2.979  -3.048 -23.412  1.00  0.00     0.176 C 
ATOM     25  C   UNL     1       4.116  -4.053 -23.780  1.00  0.00     0.177 C 
BRANCH  21  26
ATOM     26  O   UNL     1       4.763  -2.052 -26.003  1.00  0.00    -0.387 OA
ATOM     27  H   UNL     1       3.790  -1.875 -26.029  1.00  0.00     0.211 HD
ENDBRANCH  21  26
BRANCH  23  28
ATOM     28  O   UNL     1       6.171  -3.159 -22.853  1.00  0.00    -0.387 OA
ATOM     29  H   UNL     1       7.052  -2.772 -23.093  1.00  0.00     0.211 HD
ENDBRANCH  23  28
BRANCH  24  30
ATOM     30  C   UNL     1       1.924  -3.652 -22.466  1.00  0.00     0.191 C 
BRANCH  30  31
ATOM     31  O   UNL     1       2.414  -3.757 -21.154  1.00  0.00    -0.394 OA
ATOM     32  H   UNL     1       3.199  -4.362 -21.189  1.00  0.00     0.210 HD
ENDBRANCH  30  31
ENDBRANCH  24  30
BRANCH  25  33
ATOM     33  O   UNL     1       4.313  -5.020 -22.775  1.00  0.00    -0.388 OA
ATOM     34  H   UNL     1       3.536  -4.970 -22.159  1.00  0.00     0.211 HD
ENDBRANCH  25  33
ENDBRANCH  11  20
BRANCH  10  35
ATOM     35  O   UNL     1       2.096  -1.710 -25.733  1.00  0.00    -0.507 OA
ATOM     36  H   UNL     1       1.970  -2.066 -26.674  1.00  0.00     0.293 HD
ENDBRANCH  10  35
TORSDOF 9
ENDMDL
MODEL 5
REMARK VINA RESULT:    -7.794      2.791      4.726
REMARK INTER + INTRA:         -10.082
REMARK INTER:                  -9.791
REMARK INTRA:                  -0.291
REMARK UNBOUND:                 0.447
REMARK SMILES O=c1c(-c2ccc(O)cc2)coc2c([C@H]3O[C@H](CO)[C@H](O)[C@H](O)[C@H]3O)c(O)ccc12
REMARK SMILES IDX 3 1 11 2 12 3 13 4 30 5 2 6 1 7 29 8 28 9 26 10 14 11 4 12
REMARK SMILES IDX 5 13 6 14 7 15 10 16 9 17 8 18 15 20 24 21 16 22 22 23 17 24
REMARK SMILES IDX 20 25 25 26 23 28 18 30 19 31 21 33 27 35
REMARK H PARENT 8 19 25 27 23 29 19 32 21 34 27 36
REMARK Flexibility Score: inf
ROOT
ATOM      1  C   UNL     1       4.249   3.454 -23.303  1.00  0.00     0.065 A 
ATOM      2  C   UNL     1       5.224   4.443 -23.120  1.00  0.00     0.208 A 
ATOM      3  O   UNL     1       4.996   5.699 -23.480  1.00  0.00    -0.463 OA
ATOM      4  C   UNL     1       3.854   6.108 -24.030  1.00  0.00     0.147 A 
ATOM      5  C   UNL     1       2.825   5.167 -24.273  1.00  0.00     0.066 A 
ATOM      6  C   UNL     1       3.032   3.827 -23.901  1.00  0.00     0.200 A 
ATOM      7  O   UNL     1       2.143   2.959 -24.124  1.00  0.00    -0.288 OA
ATOM      8  C   UNL     1       1.641   5.583 -24.893  1.00  0.00     0.020 A 
ATOM      9  C   UNL     1       1.491   6.905 -25.299  1.00  0.00     0.047 A 
ATOM     10  C   UNL     1       2.505   7.845 -25.073  1.00  0.00     0.125 A 
ATOM     11  C   UNL     1       3.683   7.475 -24.373  1.00  0.00     0.069 A 
ENDROOT
BRANCH   1  12
ATOM     12  C   UNL     1       4.521   2.057 -22.880  1.00  0.00    -0.011 A 
ATOM     13  C   UNL     1       4.842   1.075 -23.833  1.00  0.00     0.013 A 
ATOM     14  C   UNL     1       5.108  -0.239 -23.436  1.00  0.00     0.047 A 
ATOM     15  C   UNL     1       5.062  -0.587 -22.083  1.00  0.00     0.115 A 
ATOM     16  C   UNL     1       4.484   1.700 -21.519  1.00  0.00     0.013 A 
ATOM     17  C   UNL     1       4.751   0.385 -21.125  1.00  0.00     0.047 A 
BRANCH  15  18
ATOM     18  O   UNL     1       5.329  -1.900 -21.702  1.00  0.00    -0.508 OA
ATOM     19  H   UNL     1       5.116  -2.234 -20.769  1.00  0.00     0.293 HD
ENDBRANCH  15  18
ENDBRANCH   1  12
BRANCH  11  20
ATOM     20  C   UNL     1       4.816   8.470 -24.057  1.00  0.00     0.188 C 
ATOM     21  C   UNL     1       4.426   9.598 -23.037  1.00  0.00     0.179 C 
ATOM     22  O   UNL     1       5.499   8.963 -25.210  1.00  0.00    -0.362 OA
ATOM     23  C   UNL     1       5.252  10.870 -23.276  1.00  0.00     0.177 C 
ATOM     24  C   UNL     1       4.928  10.159 -25.720  1.00  0.00     0.176 C 
ATOM     25  C   UNL     1       5.114  11.355 -24.734  1.00  0.00     0.177 C 
BRANCH  21  26
ATOM     26  O   UNL     1       3.046   9.884 -23.025  1.00  0.00    -0.387 OA
ATOM     27  H   UNL     1       2.545   9.031 -23.006  1.00  0.00     0.211 HD
ENDBRANCH  21  26
BRANCH  23  28
ATOM     28  O   UNL     1       6.599  10.592 -22.976  1.00  0.00    -0.387 OA
ATOM     29  H   UNL     1       6.607   9.824 -22.347  1.00  0.00     0.211 HD
ENDBRANCH  23  28
BRANCH  24  30
ATOM     30  C   UNL     1       5.501  10.440 -27.123  1.00  0.00     0.191 C 
BRANCH  30  31
ATOM     31  O   UNL     1       6.903  10.376 -27.125  1.00  0.00    -0.394 OA
ATOM     32  H   UNL     1       7.158   9.697 -27.803  1.00  0.00     0.210 HD
ENDBRANCH  30  31
ENDBRANCH  24  30
BRANCH  25  33
ATOM     33  O   UNL     1       6.231  12.146 -25.066  1.00  0.00    -0.388 OA
ATOM     34  H   UNL     1       6.247  12.915 -24.439  1.00  0.00     0.211 HD
ENDBRANCH  25  33
ENDBRANCH  11  20
BRANCH  10  35
ATOM     35  O   UNL     1       2.332   9.134 -25.574  1.00  0.00    -0.507 OA
ATOM     36  H   UNL     1       1.433   9.601 -25.555  1.00  0.00     0.293 HD
ENDBRANCH  10  35
TORSDOF 9
ENDMDL
MODEL 6
REMARK VINA RESULT:    -7.789      2.153      8.325
REMARK INTER + INTRA:         -10.074
REMARK INTER:                 -10.046
REMARK INTRA:                  -0.028
REMARK UNBOUND:                 0.447
REMARK SMILES O=c1c(-c2ccc(O)cc2)coc2c([C@H]3O[C@H](CO)[C@H](O)[C@H](O)[C@H]3O)c(O)ccc12
REMARK SMILES IDX 3 1 11 2 12 3 13 4 30 5 2 6 1 7 29 8 28 9 26 10 14 11 4 12
REMARK SMILES IDX 5 13 6 14 7 15 10 16 9 17 8 18 15 20 24 21 16 22 22 23 17 24
REMARK SMILES IDX 20 25 25 26 23 28 18 30 19 31 21 33 27 35
REMARK H PARENT 8 19 25 27 23 29 19 32 21 34 27 36
REMARK Flexibility Score: inf
ROOT
ATOM      1  C   UNL     1       2.812   5.213 -25.112  1.00  0.00     0.065 A 
ATOM      2  C   UNL     1       2.470   4.109 -25.904  1.00  0.00     0.208 A 
ATOM      3  O   UNL     1       2.968   2.907 -25.647  1.00  0.00    -0.463 OA
ATOM      4  C   UNL     1       3.810   2.660 -24.646  1.00  0.00     0.147 A 
ATOM      5  C   UNL     1       4.227   3.725 -23.813  1.00  0.00     0.066 A 
ATOM      6  C   UNL     1       3.716   5.013 -24.054  1.00  0.00     0.200 A 
ATOM      7  O   UNL     1       4.085   5.989 -23.342  1.00  0.00    -0.288 OA
ATOM      8  C   UNL     1       5.148   3.481 -22.786  1.00  0.00     0.020 A 
ATOM      9  C   UNL     1       5.675   2.206 -22.611  1.00  0.00     0.047 A 
ATOM     10  C   UNL     1       5.280   1.144 -23.434  1.00  0.00     0.125 A 
ATOM     11  C   UNL     1       4.286   1.340 -24.430  1.00  0.00     0.069 A 
ENDROOT
BRANCH   1  12
ATOM     12  C   UNL     1       2.231   6.547 -25.409  1.00  0.00    -0.011 A 
ATOM     13  C   UNL     1       2.617   7.248 -26.565  1.00  0.00     0.013 A 
ATOM     14  C   UNL     1       2.065   8.500 -26.852  1.00  0.00     0.047 A 
ATOM     15  C   UNL     1       1.117   9.064 -25.992  1.00  0.00     0.115 A 
ATOM     16  C   UNL     1       1.272   7.118 -24.553  1.00  0.00     0.013 A 
ATOM     17  C   UNL     1       0.721   8.370 -24.843  1.00  0.00     0.047 A 
BRANCH  15  18
ATOM     18  O   UNL     1       0.576  10.312 -26.291  1.00  0.00    -0.508 OA
ATOM     19  H   UNL     1       0.427  11.011 -25.571  1.00  0.00     0.293 HD
ENDBRANCH  15  18
ENDBRANCH   1  12
BRANCH  11  20
ATOM     20  C   UNL     1       3.777   0.206 -25.339  1.00  0.00     0.188 C 
ATOM     21  C   UNL     1       3.021  -0.944 -24.584  1.00  0.00     0.179 C 
ATOM     22  O   UNL     1       4.747  -0.274 -26.272  1.00  0.00    -0.362 OA
ATOM     23  C   UNL     1       3.155  -2.278 -25.332  1.00  0.00     0.177 C 
ATOM     24  C   UNL     1       5.511  -1.358 -25.766  1.00  0.00     0.176 C 
ATOM     25  C   UNL     1       4.638  -2.637 -25.566  1.00  0.00     0.177 C 
BRANCH  21  26
ATOM     26  O   UNL     1       3.412  -1.076 -23.236  1.00  0.00    -0.387 OA
ATOM     27  H   UNL     1       3.567  -2.034 -23.043  1.00  0.00     0.211 HD
ENDBRANCH  21  26
BRANCH  23  28
ATOM     28  O   UNL     1       2.475  -2.174 -26.560  1.00  0.00    -0.387 OA
ATOM     29  H   UNL     1       1.664  -1.624 -26.401  1.00  0.00     0.211 HD
ENDBRANCH  23  28
BRANCH  24  30
ATOM     30  C   UNL     1       6.727  -1.597 -26.682  1.00  0.00     0.191 C 
BRANCH  30  31
ATOM     31  O   UNL     1       7.612  -0.507 -26.651  1.00  0.00    -0.394 OA
ATOM     32  H   UNL     1       7.309   0.088 -25.917  1.00  0.00     0.210 HD
ENDBRANCH  30  31
ENDBRANCH  24  30
BRANCH  25  33
ATOM     33  O   UNL     1       4.733  -3.519 -26.660  1.00  0.00    -0.388 OA
ATOM     34  H   UNL     1       3.904  -3.417 -27.196  1.00  0.00     0.211 HD
ENDBRANCH  25  33
ENDBRANCH  11  20
BRANCH  10  35
ATOM     35  O   UNL     1       5.902  -0.090 -23.263  1.00  0.00    -0.507 OA
ATOM     36  H   UNL     1       5.956  -0.544 -22.359  1.00  0.00     0.293 HD
ENDBRANCH  10  35
TORSDOF 9
ENDMDL
MODEL 7
REMARK VINA RESULT:    -7.759      2.871      4.271
REMARK INTER + INTRA:         -10.034
REMARK INTER:                  -9.698
REMARK INTRA:                  -0.336
REMARK UNBOUND:                 0.447
REMARK SMILES O=c1c(-c2ccc(O)cc2)coc2c([C@H]3O[C@H](CO)[C@H](O)[C@H](O)[C@H]3O)c(O)ccc12
REMARK SMILES IDX 3 1 11 2 12 3 13 4 30 5 2 6 1 7 29 8 28 9 26 10 14 11 4 12
REMARK SMILES IDX 5 13 6 14 7 15 10 16 9 17 8 18 15 20 24 21 16 22 22 23 17 24
REMARK SMILES IDX 20 25 25 26 23 28 18 30 19 31 21 33 27 35
REMARK H PARENT 8 19 25 27 23 29 19 32 21 34 27 36
REMARK Flexibility Score: inf
ROOT
ATOM      1  C   UNL     1       4.112   3.573 -24.847  1.00  0.00     0.065 A 
ATOM      2  C   UNL     1       4.195   4.701 -25.673  1.00  0.00     0.208 A 
ATOM      3  O   UNL     1       4.313   5.917 -25.156  1.00  0.00    -0.463 OA
ATOM      4  C   UNL     1       4.360   6.156 -23.847  1.00  0.00     0.147 A 
ATOM      5  C   UNL     1       4.257   5.073 -22.941  1.00  0.00     0.066 A 
ATOM      6  C   UNL     1       4.133   3.769 -23.455  1.00  0.00     0.200 A 
ATOM      7  O   UNL     1       4.018   2.785 -22.673  1.00  0.00    -0.288 OA
ATOM      8  C   UNL     1       4.260   5.322 -21.563  1.00  0.00     0.020 A 
ATOM      9  C   UNL     1       4.327   6.628 -21.090  1.00  0.00     0.047 A 
ATOM     10  C   UNL     1       4.420   7.710 -21.974  1.00  0.00     0.125 A 
ATOM     11  C   UNL     1       4.504   7.487 -23.374  1.00  0.00     0.069 A 
ENDROOT
BRANCH   1  12
ATOM     12  C   UNL     1       3.994   2.221 -25.448  1.00  0.00    -0.011 A 
ATOM     13  C   UNL     1       5.147   1.476 -25.753  1.00  0.00     0.013 A 
ATOM     14  C   UNL     1       5.039   0.199 -26.312  1.00  0.00     0.047 A 
ATOM     15  C   UNL     1       3.780  -0.352 -26.567  1.00  0.00     0.115 A 
ATOM     16  C   UNL     1       2.730   1.656 -25.702  1.00  0.00     0.013 A 
ATOM     17  C   UNL     1       2.626   0.379 -26.260  1.00  0.00     0.047 A 
BRANCH  15  18
ATOM     18  O   UNL     1       3.688  -1.626 -27.124  1.00  0.00    -0.508 OA
ATOM     19  H   UNL     1       3.830  -1.781 -28.116  1.00  0.00     0.293 HD
ENDBRANCH  15  18
ENDBRANCH   1  12
BRANCH  11  20
ATOM     20  C   UNL     1       4.648   8.629 -24.397  1.00  0.00     0.188 C 
ATOM     21  C   UNL     1       6.099   9.218 -24.514  1.00  0.00     0.179 C 
ATOM     22  O   UNL     1       3.637   9.633 -24.298  1.00  0.00    -0.362 OA
ATOM     23  C   UNL     1       6.064  10.689 -24.954  1.00  0.00     0.177 C 
ATOM     24  C   UNL     1       3.999  10.697 -23.431  1.00  0.00     0.176 C 
ATOM     25  C   UNL     1       5.187  11.532 -24.004  1.00  0.00     0.177 C 
BRANCH  21  26
ATOM     26  O   UNL     1       6.860   9.058 -23.339  1.00  0.00    -0.387 OA
ATOM     27  H   UNL     1       6.597   9.758 -22.691  1.00  0.00     0.211 HD
ENDBRANCH  21  26
BRANCH  23  28
ATOM     28  O   UNL     1       5.565  10.751 -26.268  1.00  0.00    -0.387 OA
ATOM     29  H   UNL     1       6.260  10.368 -26.865  1.00  0.00     0.211 HD
ENDBRANCH  23  28
BRANCH  24  30
ATOM     30  C   UNL     1       2.753  11.553 -23.125  1.00  0.00     0.191 C 
BRANCH  30  31
ATOM     31  O   UNL     1       2.132  11.143 -21.935  1.00  0.00    -0.394 OA
ATOM     32  H   UNL     1       2.087  10.152 -21.961  1.00  0.00     0.210 HD
ENDBRANCH  30  31
ENDBRANCH  24  30
BRANCH  25  33
ATOM     33  O   UNL     1       4.745  12.684 -24.684  1.00  0.00    -0.388 OA
ATOM     34  H   UNL     1       5.407  13.403 -24.511  1.00  0.00     0.211 HD
ENDBRANCH  25  33
ENDBRANCH  11  20
BRANCH  10  35
ATOM     35  O   UNL     1       4.403   8.998 -21.445  1.00  0.00    -0.507 OA
ATOM     36  H   UNL     1       5.145   9.663 -21.626  1.00  0.00     0.293 HD
ENDBRANCH  10  35
TORSDOF 9
ENDMDL
MODEL 8
REMARK VINA RESULT:    -7.716      1.457      1.974
REMARK INTER + INTRA:          -9.975
REMARK INTER:                  -9.863
REMARK INTRA:                  -0.112
REMARK UNBOUND:                 0.447
REMARK SMILES O=c1c(-c2ccc(O)cc2)coc2c([C@H]3O[C@H](CO)[C@H](O)[C@H](O)[C@H]3O)c(O)ccc12
REMARK SMILES IDX 3 1 11 2 12 3 13 4 30 5 2 6 1 7 29 8 28 9 26 10 14 11 4 12
REMARK SMILES IDX 5 13 6 14 7 15 10 16 9 17 8 18 15 20 24 21 16 22 22 23 17 24
REMARK SMILES IDX 20 25 25 26 23 28 18 30 19 31 21 33 27 35
REMARK H PARENT 8 19 25 27 23 29 19 32 21 34 27 36
REMARK Flexibility Score: inf
ROOT
ATOM      1  C   UNL     1       4.347   2.018 -24.307  1.00  0.00     0.065 A 
ATOM      2  C   UNL     1       3.359   2.728 -25.001  1.00  0.00     0.208 A 
ATOM      3  O   UNL     1       3.152   4.017 -24.762  1.00  0.00    -0.463 OA
ATOM      4  C   UNL     1       3.846   4.718 -23.869  1.00  0.00     0.147 A 
ATOM      5  C   UNL     1       4.847   4.070 -23.106  1.00  0.00     0.066 A 
ATOM      6  C   UNL     1       5.095   2.705 -23.335  1.00  0.00     0.200 A 
ATOM      7  O   UNL     1       5.967   2.093 -22.656  1.00  0.00    -0.288 OA
ATOM      8  C   UNL     1       5.550   4.792 -22.133  1.00  0.00     0.020 A 
ATOM      9  C   UNL     1       5.241   6.126 -21.894  1.00  0.00     0.047 A 
ATOM     10  C   UNL     1       4.246   6.778 -22.634  1.00  0.00     0.125 A 
ATOM     11  C   UNL     1       3.573   6.099 -23.685  1.00  0.00     0.069 A 
ENDROOT
BRANCH   1  12
ATOM     12  C   UNL     1       4.570   0.580 -24.601  1.00  0.00    -0.011 A 
ATOM     13  C   UNL     1       3.946  -0.409 -23.821  1.00  0.00     0.013 A 
ATOM     14  C   UNL     1       4.148  -1.765 -24.101  1.00  0.00     0.047 A 
ATOM     15  C   UNL     1       4.969  -2.148 -25.166  1.00  0.00     0.115 A 
ATOM     16  C   UNL     1       5.390   0.187 -25.675  1.00  0.00     0.013 A 
ATOM     17  C   UNL     1       5.589  -1.169 -25.952  1.00  0.00     0.047 A 
BRANCH  15  18
ATOM     18  O   UNL     1       5.161  -3.501 -25.433  1.00  0.00    -0.508 OA
ATOM     19  H   UNL     1       5.766  -3.812 -26.185  1.00  0.00     0.293 HD
ENDBRANCH  15  18
ENDBRANCH   1  12
BRANCH  11  20
ATOM     20  C   UNL     1       2.500   6.770 -24.562  1.00  0.00     0.188 C 
ATOM     21  C   UNL     1       2.674   6.526 -26.103  1.00  0.00     0.179 C 
ATOM     22  O   UNL     1       2.246   8.136 -24.232  1.00  0.00    -0.362 OA
ATOM     23  C   UNL     1       2.085   7.687 -26.917  1.00  0.00     0.177 C 
ATOM     24  C   UNL     1       3.057   9.041 -24.966  1.00  0.00     0.176 C 
ATOM     25  C   UNL     1       2.701   9.035 -26.486  1.00  0.00     0.177 C 
BRANCH  21  26
ATOM     26  O   UNL     1       4.008   6.268 -26.478  1.00  0.00    -0.387 OA
ATOM     27  H   UNL     1       4.507   5.958 -25.683  1.00  0.00     0.211 HD
ENDBRANCH  21  26
BRANCH  23  28
ATOM     28  O   UNL     1       0.690   7.702 -26.731  1.00  0.00    -0.387 OA
ATOM     29  H   UNL     1       0.382   6.759 -26.745  1.00  0.00     0.211 HD
ENDBRANCH  23  28
BRANCH  24  30
ATOM     30  C   UNL     1       2.961  10.443 -24.331  1.00  0.00     0.191 C 
BRANCH  30  31
ATOM     31  O   UNL     1       2.417  10.382 -23.039  1.00  0.00    -0.394 OA
ATOM     32  H   UNL     1       1.722   9.673 -23.053  1.00  0.00     0.210 HD
ENDBRANCH  30  31
ENDBRANCH  24  30
BRANCH  25  33
ATOM     33  O   UNL     1       1.816  10.077 -26.827  1.00  0.00    -0.388 OA
ATOM     34  H   UNL     1       2.251  10.931 -26.568  1.00  0.00     0.211 HD
ENDBRANCH  25  33
ENDBRANCH  11  20
BRANCH  10  35
ATOM     35  O   UNL     1       3.924   8.090 -22.295  1.00  0.00    -0.507 OA
ATOM     36  H   UNL     1       4.613   8.833 -22.313  1.00  0.00     0.293 HD
ENDBRANCH  10  35
TORSDOF 9
ENDMDL
MODEL 9
REMARK VINA RESULT:    -7.653      1.686      8.201
REMARK INTER + INTRA:          -9.891
REMARK INTER:                  -9.945
REMARK INTRA:                   0.054
REMARK UNBOUND:                 0.447
REMARK SMILES O=c1c(-c2ccc(O)cc2)coc2c([C@H]3O[C@H](CO)[C@H](O)[C@H](O)[C@H]3O)c(O)ccc12
REMARK SMILES IDX 3 1 11 2 12 3 13 4 30 5 2 6 1 7 29 8 28 9 26 10 14 11 4 12
REMARK SMILES IDX 5 13 6 14 7 15 10 16 9 17 8 18 15 20 24 21 16 22 22 23 17 24
REMARK SMILES IDX 20 25 25 26 23 28 18 30 19 31 21 33 27 35
REMARK H PARENT 8 19 25 27 23 29 19 32 21 34 27 36
REMARK Flexibility Score: inf
ROOT
ATOM      1  C   UNL     1       3.267   5.407 -24.510  1.00  0.00     0.065 A 
ATOM      2  C   UNL     1       3.641   4.396 -25.405  1.00  0.00     0.208 A 
ATOM      3  O   UNL     1       4.133   3.245 -24.967  1.00  0.00    -0.463 OA
ATOM      4  C   UNL     1       4.308   2.967 -23.677  1.00  0.00     0.147 A 
ATOM      5  C   UNL     1       3.979   3.943 -22.706  1.00  0.00     0.066 A 
ATOM      6  C   UNL     1       3.452   5.174 -23.135  1.00  0.00     0.200 A 
ATOM      7  O   UNL     1       3.168   6.074 -22.296  1.00  0.00    -0.288 OA
ATOM      8  C   UNL     1       4.203   3.673 -21.350  1.00  0.00     0.020 A 
ATOM      9  C   UNL     1       4.778   2.467 -20.964  1.00  0.00     0.047 A 
ATOM     10  C   UNL     1       5.118   1.495 -21.914  1.00  0.00     0.125 A 
ATOM     11  C   UNL     1       4.827   1.703 -23.289  1.00  0.00     0.069 A 
ENDROOT
BRANCH   1  12
ATOM     12  C   UNL     1       2.705   6.682 -25.023  1.00  0.00    -0.011 A 
ATOM     13  C   UNL     1       1.385   7.052 -24.712  1.00  0.00     0.013 A 
ATOM     14  C   UNL     1       0.856   8.256 -25.188  1.00  0.00     0.047 A 
ATOM     15  C   UNL     1       1.640   9.107 -25.973  1.00  0.00     0.115 A 
ATOM     16  C   UNL     1       3.490   7.546 -25.809  1.00  0.00     0.013 A 
ATOM     17  C   UNL     1       2.958   8.750 -26.282  1.00  0.00     0.047 A 
BRANCH  15  18
ATOM     18  O   UNL     1       1.099  10.303 -26.439  1.00  0.00    -0.508 OA
ATOM     19  H   UNL     1       1.619  11.172 -26.394  1.00  0.00     0.293 HD
ENDBRANCH  15  18
ENDBRANCH   1  12
BRANCH  11  20
ATOM     20  C   UNL     1       5.136   0.659 -24.377  1.00  0.00     0.188 C 
ATOM     21  C   UNL     1       4.040   0.539 -25.495  1.00  0.00     0.179 C 
ATOM     22  O   UNL     1       5.565  -0.605 -23.869  1.00  0.00    -0.362 OA
ATOM     23  C   UNL     1       4.018  -0.872 -26.099  1.00  0.00     0.177 C 
ATOM     24  C   UNL     1       4.490  -1.509 -23.658  1.00  0.00     0.176 C 
ATOM     25  C   UNL     1       3.826  -1.942 -25.003  1.00  0.00     0.177 C 
BRANCH  21  26
ATOM     26  O   UNL     1       2.756   0.924 -25.058  1.00  0.00    -0.387 OA
ATOM     27  H   UNL     1       2.240   1.249 -25.836  1.00  0.00     0.211 HD
ENDBRANCH  21  26
BRANCH  23  28
ATOM     28  O   UNL     1       5.228  -1.084 -26.786  1.00  0.00    -0.387 OA
ATOM     29  H   UNL     1       5.426  -0.254 -27.293  1.00  0.00     0.211 HD
ENDBRANCH  23  28
BRANCH  24  30
ATOM     30  C   UNL     1       4.984  -2.703 -22.817  1.00  0.00     0.191 C 
BRANCH  30  31
ATOM     31  O   UNL     1       6.227  -2.430 -22.224  1.00  0.00    -0.394 OA
ATOM     32  H   UNL     1       6.521  -1.547 -22.567  1.00  0.00     0.210 HD
ENDBRANCH  30  31
ENDBRANCH  24  30
BRANCH  25  33
ATOM     33  O   UNL     1       4.328  -3.174 -25.467  1.00  0.00    -0.388 OA
ATOM     34  H   UNL     1       4.859  -2.989 -26.285  1.00  0.00     0.211 HD
ENDBRANCH  25  33
ENDBRANCH  11  20
BRANCH  10  35
ATOM     35  O   UNL     1       5.764   0.342 -21.476  1.00  0.00    -0.507 OA
ATOM     36  H   UNL     1       6.475  -0.119 -22.032  1.00  0.00     0.293 HD
ENDBRANCH  10  35
TORSDOF 9
ENDMDL
