MODEL 1
REMARK VINA RESULT:    -5.891      0.000      0.000
REMARK INTER + INTRA:         -13.637
REMARK INTER:                 -11.401
REMARK INTRA:                  -2.236
REMARK UNBOUND:                -2.236
REMARK SMILES CCCCCCCCCCCCCCCCCC(=O)[O-]
REMARK SMILES IDX 10 1 11 2 12 3 13 4 14 5 15 6 16 7 17 8 18 9 19 10 20 11
REMARK SMILES IDX 9 12 8 13 7 14 6 15 5 16 4 17 3 18 2 19 1 20
REMARK H PARENT
REMARK Flexibility Score: inf
ROOT
ATOM      1  C   UNL     1       7.625 -11.189  -3.763  1.00  0.00     0.000 C 
ENDROOT
BRANCH   1   2
ATOM      2  C   UNL     1       7.582 -10.213  -2.573  1.00  0.00     0.000 C 
BRANCH   2   3
ATOM      3  C   UNL     1       6.513 -10.599  -1.537  1.00  0.00     0.000 C 
BRANCH   3   4
ATOM      4  C   UNL     1       6.982 -11.726  -0.602  1.00  0.00     0.000 C 
BRANCH   4   5
ATOM      5  C   UNL     1       6.522 -13.120  -1.068  1.00  0.00     0.000 C 
BRANCH   5   6
ATOM      6  C   UNL     1       7.603 -14.215  -1.018  1.00  0.00     0.000 C 
BRANCH   6   7
ATOM      7  C   UNL     1       9.016 -13.674  -1.283  1.00  0.00     0.006 C 
BRANCH   7   8
ATOM      8  C   UNL     1       9.948 -13.973  -0.105  1.00  0.00     0.053 C 
BRANCH   8   9
ATOM      9  C   UNL     1      10.309 -12.710   0.611  1.00  0.00     0.041 C 
ATOM     10  O   UNL     1      10.267 -12.659   1.868  1.00  0.00    -0.550 OA
ATOM     11  O   UNL     1      10.738 -11.602  -0.109  1.00  0.00    -0.550 OA
ENDBRANCH   8   9
ENDBRANCH   7   8
ENDBRANCH   6   7
ENDBRANCH   5   6
ENDBRANCH   4   5
ENDBRANCH   3   4
ENDBRANCH   2   3
ENDBRANCH   1   2
BRANCH   1  12
ATOM     12  C   UNL     1       9.043 -11.708  -4.061  1.00  0.00     0.000 C 
BRANCH  12  13
ATOM     13  C   UNL     1       9.105 -12.999  -4.900  1.00  0.00    -0.000 C 
BRANCH  13  14
ATOM     14  C   UNL     1       8.666 -12.785  -6.359  1.00  0.00    -0.000 C 
BRANCH  14  15
ATOM     15  C   UNL     1       9.771 -12.146  -7.218  1.00  0.00    -0.000 C 
BRANCH  15  16
ATOM     16  C   UNL     1      11.176 -12.635  -6.826  1.00  0.00    -0.000 C 
BRANCH  16  17
ATOM     17  C   UNL     1      12.145 -11.482  -6.508  1.00  0.00    -0.000 C 
BRANCH  17  18
ATOM     18  C   UNL     1      12.792 -11.540  -5.112  1.00  0.00    -0.000 C 
BRANCH  18  19
ATOM     19  C   UNL     1      12.693 -12.929  -4.464  1.00  0.00    -0.003 C 
ATOM     20  C   UNL     1      12.453 -12.818  -2.961  1.00  0.00     0.004 C 
ENDBRANCH  18  19
ENDBRANCH  17  18
ENDBRANCH  16  17
ENDBRANCH  15  16
ENDBRANCH  14  15
ENDBRANCH  13  14
ENDBRANCH  12  13
ENDBRANCH   1  12
TORSDOF 16
ENDMDL
MODEL 2
REMARK VINA RESULT:    -5.845      2.734      5.842
REMARK INTER + INTRA:         -13.547
REMARK INTER:                 -10.908
REMARK INTRA:                  -2.639
REMARK UNBOUND:                -2.236
REMARK SMILES CCCCCCCCCCCCCCCCCC(=O)[O-]
REMARK SMILES IDX 10 1 11 2 12 3 13 4 14 5 15 6 16 7 17 8 18 9 19 10 20 11
REMARK SMILES IDX 9 12 8 13 7 14 6 15 5 16 4 17 3 18 2 19 1 20
REMARK H PARENT
REMARK Flexibility Score: inf
ROOT
ATOM      1  C   UNL     1       9.517 -12.963  -6.365  1.00  0.00     0.000 C 
ENDROOT
BRANCH   1   2
ATOM      2  C   UNL     1      10.400 -12.172  -7.346  1.00  0.00     0.000 C 
BRANCH   2   3
ATOM      3  C   UNL     1      11.874 -12.131  -6.908  1.00  0.00     0.000 C 
BRANCH   3   4
ATOM      4  C   UNL     1      12.061 -11.458  -5.538  1.00  0.00     0.000 C 
BRANCH   4   5
ATOM      5  C   UNL     1      12.836 -12.338  -4.540  1.00  0.00     0.000 C 
BRANCH   5   6
ATOM      6  C   UNL     1      12.011 -12.853  -3.346  1.00  0.00     0.000 C 
BRANCH   6   7
ATOM      7  C   UNL     1      11.427 -14.253  -3.581  1.00  0.00     0.006 C 
BRANCH   7   8
ATOM      8  C   UNL     1      12.509 -15.226  -4.061  1.00  0.00     0.053 C 
BRANCH   8   9
ATOM      9  C   UNL     1      11.990 -16.076  -5.177  1.00  0.00     0.041 C 
ATOM     10  O   UNL     1      12.780 -16.785  -5.854  1.00  0.00    -0.550 OA
ATOM     11  O   UNL     1      10.627 -16.123  -5.439  1.00  0.00    -0.550 OA
ENDBRANCH   8   9
ENDBRANCH   7   8
ENDBRANCH   6   7
ENDBRANCH   5   6
ENDBRANCH   4   5
ENDBRANCH   3   4
ENDBRANCH   2   3
ENDBRANCH   1   2
BRANCH   1  12
ATOM     12  C   UNL     1       8.456 -12.087  -5.674  1.00  0.00     0.000 C 
BRANCH  12  13
ATOM     13  C   UNL     1       8.599 -11.969  -4.144  1.00  0.00    -0.000 C 
BRANCH  13  14
ATOM     14  C   UNL     1       7.464 -11.156  -3.498  1.00  0.00    -0.000 C 
BRANCH  14  15
ATOM     15  C   UNL     1       7.829 -10.654  -2.091  1.00  0.00    -0.000 C 
BRANCH  15  16
ATOM     16  C   UNL     1       9.145 -11.260  -1.574  1.00  0.00    -0.000 C 
BRANCH  16  17
ATOM     17  C   UNL     1       8.940 -12.209  -0.379  1.00  0.00    -0.000 C 
BRANCH  17  18
ATOM     18  C   UNL     1       9.108 -13.705  -0.699  1.00  0.00    -0.000 C 
BRANCH  18  19
ATOM     19  C   UNL     1       7.871 -14.317  -1.371  1.00  0.00    -0.003 C 
ATOM     20  C   UNL     1       8.225 -15.607  -2.105  1.00  0.00     0.004 C 
ENDBRANCH  18  19
ENDBRANCH  17  18
ENDBRANCH  16  17
ENDBRANCH  15  16
ENDBRANCH  14  15
ENDBRANCH  13  14
ENDBRANCH  12  13
ENDBRANCH   1  12
TORSDOF 16
ENDMDL
MODEL 3
REMARK VINA RESULT:    -5.788      2.156      5.631
REMARK INTER + INTRA:         -13.437
REMARK INTER:                 -11.509
REMARK INTRA:                  -1.928
REMARK UNBOUND:                -2.236
REMARK SMILES CCCCCCCCCCCCCCCCCC(=O)[O-]
REMARK SMILES IDX 10 1 11 2 12 3 13 4 14 5 15 6 16 7 17 8 18 9 19 10 20 11
REMARK SMILES IDX 9 12 8 13 7 14 6 15 5 16 4 17 3 18 2 19 1 20
REMARK H PARENT
REMARK Flexibility Score: inf
ROOT
ATOM      1  C   UNL     1       9.047 -12.783  -7.094  1.00  0.00     0.000 C 
ENDROOT
BRANCH   1   2
ATOM      2  C   UNL     1      10.258 -12.033  -7.677  1.00  0.00     0.000 C 
BRANCH   2   3
ATOM      3  C   UNL     1      11.570 -12.385  -6.955  1.00  0.00     0.000 C 
BRANCH   3   4
ATOM      4  C   UNL     1      12.055 -11.253  -6.034  1.00  0.00     0.000 C 
BRANCH   4   5
ATOM      5  C   UNL     1      12.994 -11.750  -4.919  1.00  0.00     0.000 C 
BRANCH   5   6
ATOM      6  C   UNL     1      12.408 -12.849  -4.014  1.00  0.00     0.000 C 
BRANCH   6   7
ATOM      7  C   UNL     1      12.671 -12.601  -2.522  1.00  0.00     0.006 C 
BRANCH   7   8
ATOM      8  C   UNL     1      12.506 -13.891  -1.714  1.00  0.00     0.053 C 
BRANCH   8   9
ATOM      9  C   UNL     1      13.707 -14.768  -1.877  1.00  0.00     0.041 C 
ATOM     10  O   UNL     1      13.568 -15.995  -2.125  1.00  0.00    -0.550 OA
ATOM     11  O   UNL     1      14.982 -14.222  -1.803  1.00  0.00    -0.550 OA
ENDBRANCH   8   9
ENDBRANCH   7   8
ENDBRANCH   6   7
ENDBRANCH   5   6
ENDBRANCH   4   5
ENDBRANCH   3   4
ENDBRANCH   2   3
ENDBRANCH   1   2
BRANCH   1  12
ATOM     12  C   UNL     1       8.430 -12.071  -5.877  1.00  0.00     0.000 C 
BRANCH  12  13
ATOM     13  C   UNL     1       8.872 -12.618  -4.506  1.00  0.00    -0.000 C 
BRANCH  13  14
ATOM     14  C   UNL     1       8.761 -11.573  -3.381  1.00  0.00    -0.000 C 
BRANCH  14  15
ATOM     15  C   UNL     1       7.323 -11.059  -3.196  1.00  0.00    -0.000 C 
BRANCH  15  16
ATOM     16  C   UNL     1       6.829 -11.206  -1.747  1.00  0.00    -0.000 C 
BRANCH  16  17
ATOM     17  C   UNL     1       6.438 -12.651  -1.390  1.00  0.00    -0.000 C 
BRANCH  17  18
ATOM     18  C   UNL     1       7.480 -13.422  -0.559  1.00  0.00    -0.000 C 
BRANCH  18  19
ATOM     19  C   UNL     1       7.523 -14.920  -0.894  1.00  0.00    -0.003 C 
ATOM     20  C   UNL     1       8.485 -15.199  -2.045  1.00  0.00     0.004 C 
ENDBRANCH  18  19
ENDBRANCH  17  18
ENDBRANCH  16  17
ENDBRANCH  15  16
ENDBRANCH  14  15
ENDBRANCH  13  14
ENDBRANCH  12  13
ENDBRANCH   1  12
TORSDOF 16
ENDMDL
MODEL 4
REMARK VINA RESULT:    -5.762      2.888      3.459
REMARK INTER + INTRA:         -13.387
REMARK INTER:                 -10.999
REMARK INTRA:                  -2.387
REMARK UNBOUND:                -2.236
REMARK SMILES CCCCCCCCCCCCCCCCCC(=O)[O-]
REMARK SMILES IDX 10 1 11 2 12 3 13 4 14 5 15 6 16 7 17 8 18 9 19 10 20 11
REMARK SMILES IDX 9 12 8 13 7 14 6 15 5 16 4 17 3 18 2 19 1 20
REMARK H PARENT
REMARK Flexibility Score: inf
ROOT
ATOM      1  C   UNL     1       8.990 -11.628  -3.993  1.00  0.00     0.000 C 
ENDROOT
BRANCH   1   2
ATOM      2  C   UNL     1       8.691 -11.843  -2.499  1.00  0.00     0.000 C 
BRANCH   2   3
ATOM      3  C   UNL     1       7.183 -11.907  -2.205  1.00  0.00     0.000 C 
BRANCH   3   4
ATOM      4  C   UNL     1       6.803 -13.126  -1.349  1.00  0.00     0.000 C 
BRANCH   4   5
ATOM      5  C   UNL     1       8.029 -13.930  -0.875  1.00  0.00     0.000 C 
BRANCH   5   6
ATOM      6  C   UNL     1       8.057 -15.402  -1.326  1.00  0.00     0.000 C 
BRANCH   6   7
ATOM      7  C   UNL     1       8.820 -15.612  -2.642  1.00  0.00     0.006 C 
BRANCH   7   8
ATOM      8  C   UNL     1       8.281 -16.828  -3.401  1.00  0.00     0.053 C 
BRANCH   8   9
ATOM      9  C   UNL     1       9.272 -17.290  -4.421  1.00  0.00     0.041 C 
ATOM     10  O   UNL     1       9.908 -18.363  -4.247  1.00  0.00    -0.550 OA
ATOM     11  O   UNL     1       9.460 -16.561  -5.588  1.00  0.00    -0.550 OA
ENDBRANCH   8   9
ENDBRANCH   7   8
ENDBRANCH   6   7
ENDBRANCH   5   6
ENDBRANCH   4   5
ENDBRANCH   3   4
ENDBRANCH   2   3
ENDBRANCH   1   2
BRANCH   1  12
ATOM     12  C   UNL     1       9.130 -12.948  -4.773  1.00  0.00     0.000 C 
BRANCH  12  13
ATOM     13  C   UNL     1       8.746 -12.873  -6.263  1.00  0.00    -0.000 C 
BRANCH  13  14
ATOM     14  C   UNL     1       9.877 -12.313  -7.144  1.00  0.00    -0.000 C 
BRANCH  14  15
ATOM     15  C   UNL     1      11.272 -12.691  -6.620  1.00  0.00    -0.000 C 
BRANCH  15  16
ATOM     16  C   UNL     1      12.148 -11.458  -6.338  1.00  0.00    -0.000 C 
BRANCH  16  17
ATOM     17  C   UNL     1      12.949 -11.578  -5.028  1.00  0.00    -0.000 C 
BRANCH  17  18
ATOM     18  C   UNL     1      12.707 -12.874  -4.233  1.00  0.00    -0.000 C 
BRANCH  18  19
ATOM     19  C   UNL     1      12.771 -12.665  -2.714  1.00  0.00    -0.003 C 
ATOM     20  C   UNL     1      11.865 -13.652  -1.984  1.00  0.00     0.004 C 
ENDBRANCH  18  19
ENDBRANCH  17  18
ENDBRANCH  16  17
ENDBRANCH  15  16
ENDBRANCH  14  15
ENDBRANCH  13  14
ENDBRANCH  12  13
ENDBRANCH   1  12
TORSDOF 16
ENDMDL
MODEL 5
REMARK VINA RESULT:    -5.704      2.522      5.364
REMARK INTER + INTRA:         -13.275
REMARK INTER:                 -10.808
REMARK INTRA:                  -2.467
REMARK UNBOUND:                -2.236
REMARK SMILES CCCCCCCCCCCCCCCCCC(=O)[O-]
REMARK SMILES IDX 10 1 11 2 12 3 13 4 14 5 15 6 16 7 17 8 18 9 19 10 20 11
REMARK SMILES IDX 9 12 8 13 7 14 6 15 5 16 4 17 3 18 2 19 1 20
REMARK H PARENT
REMARK Flexibility Score: inf
ROOT
ATOM      1  C   UNL     1       6.204 -11.330  -0.677  1.00  0.00     0.000 C 
ENDROOT
BRANCH   1   2
ATOM      2  C   UNL     1       6.674 -10.328  -1.747  1.00  0.00     0.000 C 
BRANCH   2   3
ATOM      3  C   UNL     1       7.891 -10.841  -2.536  1.00  0.00     0.000 C 
BRANCH   3   4
ATOM      4  C   UNL     1       7.547 -11.165  -4.000  1.00  0.00     0.000 C 
BRANCH   4   5
ATOM      5  C   UNL     1       8.641 -11.992  -4.701  1.00  0.00     0.000 C 
BRANCH   5   6
ATOM      6  C   UNL     1       8.398 -12.258  -6.198  1.00  0.00     0.000 C 
BRANCH   6   7
ATOM      7  C   UNL     1       9.677 -12.648  -6.954  1.00  0.00     0.006 C 
BRANCH   7   8
ATOM      8  C   UNL     1      10.846 -12.847  -5.985  1.00  0.00     0.053 C 
BRANCH   8   9
ATOM      9  C   UNL     1      12.000 -11.977  -6.371  1.00  0.00     0.041 C 
ATOM     10  O   UNL     1      11.872 -11.125  -7.290  1.00  0.00    -0.550 OA
ATOM     11  O   UNL     1      13.203 -12.072  -5.685  1.00  0.00    -0.550 OA
ENDBRANCH   8   9
ENDBRANCH   7   8
ENDBRANCH   6   7
ENDBRANCH   5   6
ENDBRANCH   4   5
ENDBRANCH   3   4
ENDBRANCH   2   3
ENDBRANCH   1   2
BRANCH   1  12
ATOM     12  C   UNL     1       6.663 -12.771  -0.962  1.00  0.00     0.000 C 
BRANCH  12  13
ATOM     13  C   UNL     1       7.264 -13.518   0.244  1.00  0.00    -0.000 C 
BRANCH  13  14
ATOM     14  C   UNL     1       8.143 -14.711  -0.168  1.00  0.00    -0.000 C 
BRANCH  14  15
ATOM     15  C   UNL     1       8.024 -15.039  -1.666  1.00  0.00    -0.000 C 
BRANCH  15  16
ATOM     16  C   UNL     1       9.318 -14.734  -2.439  1.00  0.00    -0.000 C 
BRANCH  16  17
ATOM     17  C   UNL     1      10.476 -14.300  -1.522  1.00  0.00    -0.000 C 
BRANCH  17  18
ATOM     18  C   UNL     1      10.913 -12.832  -1.673  1.00  0.00    -0.000 C 
BRANCH  18  19
ATOM     19  C   UNL     1      10.685 -12.005  -0.401  1.00  0.00    -0.003 C 
ATOM     20  C   UNL     1      11.159 -12.759   0.838  1.00  0.00     0.004 C 
ENDBRANCH  18  19
ENDBRANCH  17  18
ENDBRANCH  16  17
ENDBRANCH  15  16
ENDBRANCH  14  15
ENDBRANCH  13  14
ENDBRANCH  12  13
ENDBRANCH   1  12
TORSDOF 16
ENDMDL
MODEL 6
REMARK VINA RESULT:    -5.699      1.509      2.801
REMARK INTER + INTRA:         -13.264
REMARK INTER:                 -10.623
REMARK INTRA:                  -2.641
REMARK UNBOUND:                -2.236
REMARK SMILES CCCCCCCCCCCCCCCCCC(=O)[O-]
REMARK SMILES IDX 10 1 11 2 12 3 13 4 14 5 15 6 16 7 17 8 18 9 19 10 20 11
REMARK SMILES IDX 9 12 8 13 7 14 6 15 5 16 4 17 3 18 2 19 1 20
REMARK H PARENT
REMARK Flexibility Score: inf
ROOT
ATOM      1  C   UNL     1       8.629 -12.137  -5.356  1.00  0.00     0.000 C 
ENDROOT
BRANCH   1   2
ATOM      2  C   UNL     1       9.058 -12.977  -4.140  1.00  0.00     0.000 C 
BRANCH   2   3
ATOM      3  C   UNL     1       9.336 -14.444  -4.510  1.00  0.00     0.000 C 
BRANCH   3   4
ATOM      4  C   UNL     1       8.858 -15.423  -3.424  1.00  0.00     0.000 C 
BRANCH   4   5
ATOM      5  C   UNL     1       9.151 -14.923  -1.997  1.00  0.00     0.000 C 
BRANCH   5   6
ATOM      6  C   UNL     1       7.925 -14.848  -1.068  1.00  0.00     0.000 C 
BRANCH   6   7
ATOM      7  C   UNL     1       8.024 -13.716  -0.035  1.00  0.00     0.006 C 
BRANCH   7   8
ATOM      8  C   UNL     1       9.009 -12.637  -0.497  1.00  0.00     0.053 C 
BRANCH   8   9
ATOM      9  C   UNL     1      10.064 -12.412   0.540  1.00  0.00     0.041 C 
ATOM     10  O   UNL     1       9.907 -12.853   1.709  1.00  0.00    -0.550 OA
ATOM     11  O   UNL     1      11.241 -11.759   0.203  1.00  0.00    -0.550 OA
ENDBRANCH   8   9
ENDBRANCH   7   8
ENDBRANCH   6   7
ENDBRANCH   5   6
ENDBRANCH   4   5
ENDBRANCH   3   4
ENDBRANCH   2   3
ENDBRANCH   1   2
BRANCH   1  12
ATOM     12  C   UNL     1       8.954 -12.815  -6.699  1.00  0.00     0.000 C 
BRANCH  12  13
ATOM     13  C   UNL     1      10.058 -12.132  -7.528  1.00  0.00    -0.000 C 
BRANCH  13  14
ATOM     14  C   UNL     1      11.471 -12.416  -6.991  1.00  0.00    -0.000 C 
BRANCH  14  15
ATOM     15  C   UNL     1      12.054 -11.225  -6.212  1.00  0.00    -0.000 C 
BRANCH  15  16
ATOM     16  C   UNL     1      13.104 -11.658  -5.174  1.00  0.00    -0.000 C 
BRANCH  16  17
ATOM     17  C   UNL     1      12.698 -12.929  -4.406  1.00  0.00    -0.000 C 
BRANCH  17  18
ATOM     18  C   UNL     1      12.525 -12.746  -2.887  1.00  0.00    -0.000 C 
BRANCH  18  19
ATOM     19  C   UNL     1      12.700 -14.053  -2.102  1.00  0.00    -0.003 C 
ATOM     20  C   UNL     1      12.770 -15.254  -3.041  1.00  0.00     0.004 C 
ENDBRANCH  18  19
ENDBRANCH  17  18
ENDBRANCH  16  17
ENDBRANCH  15  16
ENDBRANCH  14  15
ENDBRANCH  13  14
ENDBRANCH  12  13
ENDBRANCH   1  12
TORSDOF 16
ENDMDL
MODEL 7
REMARK VINA RESULT:    -5.675      1.173      2.038
REMARK INTER + INTRA:         -13.218
REMARK INTER:                 -10.584
REMARK INTRA:                  -2.635
REMARK UNBOUND:                -2.236
REMARK SMILES CCCCCCCCCCCCCCCCCC(=O)[O-]
REMARK SMILES IDX 10 1 11 2 12 3 13 4 14 5 15 6 16 7 17 8 18 9 19 10 20 11
REMARK SMILES IDX 9 12 8 13 7 14 6 15 5 16 4 17 3 18 2 19 1 20
REMARK H PARENT
REMARK Flexibility Score: inf
ROOT
ATOM      1  C   UNL     1       8.932 -12.667  -4.172  1.00  0.00     0.000 C 
ENDROOT
BRANCH   1   2
ATOM      2  C   UNL     1       8.746 -11.392  -3.330  1.00  0.00     0.000 C 
BRANCH   2   3
ATOM      3  C   UNL     1       7.273 -11.136  -2.970  1.00  0.00     0.000 C 
BRANCH   3   4
ATOM      4  C   UNL     1       7.066 -10.927  -1.460  1.00  0.00     0.000 C 
BRANCH   4   5
ATOM      5  C   UNL     1       6.367 -12.119  -0.782  1.00  0.00     0.000 C 
BRANCH   5   6
ATOM      6  C   UNL     1       6.979 -13.498  -1.092  1.00  0.00     0.000 C 
BRANCH   6   7
ATOM      7  C   UNL     1       7.952 -13.980  -0.006  1.00  0.00     0.006 C 
BRANCH   7   8
ATOM      8  C   UNL     1       9.403 -13.690  -0.403  1.00  0.00     0.053 C 
BRANCH   8   9
ATOM      9  C   UNL     1       9.954 -12.564   0.414  1.00  0.00     0.041 C 
ATOM     10  O   UNL     1       9.980 -12.645   1.670  1.00  0.00    -0.550 OA
ATOM     11  O   UNL     1      10.483 -11.444  -0.215  1.00  0.00    -0.550 OA
ENDBRANCH   8   9
ENDBRANCH   7   8
ENDBRANCH   6   7
ENDBRANCH   5   6
ENDBRANCH   4   5
ENDBRANCH   3   4
ENDBRANCH   2   3
ENDBRANCH   1   2
BRANCH   1  12
ATOM     12  C   UNL     1       8.973 -12.386  -5.685  1.00  0.00     0.000 C 
BRANCH  12  13
ATOM     13  C   UNL     1      10.137 -13.051  -6.443  1.00  0.00    -0.000 C 
BRANCH  13  14
ATOM     14  C   UNL     1      11.207 -12.044  -6.899  1.00  0.00    -0.000 C 
BRANCH  14  15
ATOM     15  C   UNL     1      11.957 -11.408  -5.717  1.00  0.00    -0.000 C 
BRANCH  15  16
ATOM     16  C   UNL     1      12.825 -12.425  -4.956  1.00  0.00    -0.000 C 
BRANCH  16  17
ATOM     17  C   UNL     1      12.558 -12.425  -3.440  1.00  0.00    -0.000 C 
BRANCH  17  18
ATOM     18  C   UNL     1      12.244 -13.804  -2.833  1.00  0.00    -0.000 C 
BRANCH  18  19
ATOM     19  C   UNL     1      11.962 -14.876  -3.896  1.00  0.00    -0.003 C 
ATOM     20  C   UNL     1      11.349 -16.125  -3.269  1.00  0.00     0.004 C 
ENDBRANCH  18  19
ENDBRANCH  17  18
ENDBRANCH  16  17
ENDBRANCH  15  16
ENDBRANCH  14  15
ENDBRANCH  13  14
ENDBRANCH  12  13
ENDBRANCH   1  12
TORSDOF 16
ENDMDL
MODEL 8
REMARK VINA RESULT:    -5.659      1.598      4.017
REMARK INTER + INTRA:         -13.188
REMARK INTER:                 -10.658
REMARK INTRA:                  -2.530
REMARK UNBOUND:                -2.236
REMARK SMILES CCCCCCCCCCCCCCCCCC(=O)[O-]
REMARK SMILES IDX 10 1 11 2 12 3 13 4 14 5 15 6 16 7 17 8 18 9 19 10 20 11
REMARK SMILES IDX 9 12 8 13 7 14 6 15 5 16 4 17 3 18 2 19 1 20
REMARK H PARENT
REMARK Flexibility Score: inf
ROOT
ATOM      1  C   UNL     1      12.363 -13.226  -4.270  1.00  0.00     0.000 C 
ENDROOT
BRANCH   1   2
ATOM      2  C   UNL     1      12.237 -13.246  -2.736  1.00  0.00     0.000 C 
BRANCH   2   3
ATOM      3  C   UNL     1      11.441 -14.459  -2.227  1.00  0.00     0.000 C 
BRANCH   3   4
ATOM      4  C   UNL     1      10.971 -15.374  -3.371  1.00  0.00     0.000 C 
BRANCH   4   5
ATOM      5  C   UNL     1       9.445 -15.582  -3.381  1.00  0.00     0.000 C 
BRANCH   5   6
ATOM      6  C   UNL     1       8.836 -16.004  -2.031  1.00  0.00     0.000 C 
BRANCH   6   7
ATOM      7  C   UNL     1       7.944 -14.918  -1.411  1.00  0.00     0.006 C 
BRANCH   7   8
ATOM      8  C   UNL     1       7.775 -15.142   0.095  1.00  0.00     0.053 C 
BRANCH   8   9
ATOM      9  C   UNL     1       8.180 -13.918   0.855  1.00  0.00     0.041 C 
ATOM     10  O   UNL     1       7.773 -13.739   2.033  1.00  0.00    -0.550 OA
ATOM     11  O   UNL     1       9.047 -12.998   0.279  1.00  0.00    -0.550 OA
ENDBRANCH   8   9
ENDBRANCH   7   8
ENDBRANCH   6   7
ENDBRANCH   5   6
ENDBRANCH   4   5
ENDBRANCH   3   4
ENDBRANCH   2   3
ENDBRANCH   1   2
BRANCH   1  12
ATOM     12  C   UNL     1      12.857 -11.873  -4.814  1.00  0.00     0.000 C 
BRANCH  12  13
ATOM     13  C   UNL     1      12.029 -11.294  -5.977  1.00  0.00    -0.000 C 
BRANCH  13  14
ATOM     14  C   UNL     1      11.494 -12.378  -6.929  1.00  0.00    -0.000 C 
BRANCH  14  15
ATOM     15  C   UNL     1       9.968 -12.303  -7.106  1.00  0.00    -0.000 C 
BRANCH  15  16
ATOM     16  C   UNL     1       9.209 -13.003  -5.965  1.00  0.00    -0.000 C 
BRANCH  16  17
ATOM     17  C   UNL     1       8.439 -12.018  -5.066  1.00  0.00    -0.000 C 
BRANCH  17  18
ATOM     18  C   UNL     1       8.868 -12.012  -3.588  1.00  0.00    -0.000 C 
BRANCH  18  19
ATOM     19  C   UNL     1       8.189 -10.903  -2.772  1.00  0.00    -0.003 C 
ATOM     20  C   UNL     1       6.943 -11.425  -2.063  1.00  0.00     0.004 C 
ENDBRANCH  18  19
ENDBRANCH  17  18
ENDBRANCH  16  17
ENDBRANCH  15  16
ENDBRANCH  14  15
ENDBRANCH  13  14
ENDBRANCH  12  13
ENDBRANCH   1  12
TORSDOF 16
ENDMDL
MODEL 9
REMARK VINA RESULT:    -5.658      2.612      4.988
REMARK INTER + INTRA:         -13.185
REMARK INTER:                 -10.043
REMARK INTRA:                  -3.143
REMARK UNBOUND:                -2.236
REMARK SMILES CCCCCCCCCCCCCCCCCC(=O)[O-]
REMARK SMILES IDX 10 1 11 2 12 3 13 4 14 5 15 6 16 7 17 8 18 9 19 10 20 11
REMARK SMILES IDX 9 12 8 13 7 14 6 15 5 16 4 17 3 18 2 19 1 20
REMARK H PARENT
REMARK Flexibility Score: inf
ROOT
ATOM      1  C   UNL     1       9.157 -15.652  -0.682  1.00  0.00     0.000 C 
ENDROOT
BRANCH   1   2
ATOM      2  C   UNL     1       7.904 -14.961  -0.116  1.00  0.00     0.000 C 
BRANCH   2   3
ATOM      3  C   UNL     1       8.244 -13.924   0.967  1.00  0.00     0.000 C 
BRANCH   3   4
ATOM      4  C   UNL     1       9.722 -13.499   0.930  1.00  0.00     0.000 C 
BRANCH   4   5
ATOM      5  C   UNL     1       9.947 -12.186   0.156  1.00  0.00     0.000 C 
BRANCH   5   6
ATOM      6  C   UNL     1      11.294 -12.089  -0.584  1.00  0.00     0.000 C 
BRANCH   6   7
ATOM      7  C   UNL     1      12.219 -13.282  -0.304  1.00  0.00     0.006 C 
BRANCH   7   8
ATOM      8  C   UNL     1      12.649 -13.960  -1.609  1.00  0.00     0.053 C 
BRANCH   8   9
ATOM      9  C   UNL     1      14.051 -14.470  -1.496  1.00  0.00     0.041 C 
ATOM     10  O   UNL     1      14.974 -13.707  -1.108  1.00  0.00    -0.550 OA
ATOM     11  O   UNL     1      14.330 -15.802  -1.773  1.00  0.00    -0.550 OA
ENDBRANCH   8   9
ENDBRANCH   7   8
ENDBRANCH   6   7
ENDBRANCH   5   6
ENDBRANCH   4   5
ENDBRANCH   3   4
ENDBRANCH   2   3
ENDBRANCH   1   2
BRANCH   1  12
ATOM     12  C   UNL     1       9.299 -15.482  -2.206  1.00  0.00     0.000 C 
BRANCH  12  13
ATOM     13  C   UNL     1       8.776 -14.146  -2.767  1.00  0.00    -0.000 C 
BRANCH  13  14
ATOM     14  C   UNL     1       9.752 -13.492  -3.760  1.00  0.00    -0.000 C 
BRANCH  14  15
ATOM     15  C   UNL     1       9.537 -11.974  -3.882  1.00  0.00    -0.000 C 
BRANCH  15  16
ATOM     16  C   UNL     1       8.096 -11.556  -3.542  1.00  0.00    -0.000 C 
BRANCH  16  17
ATOM     17  C   UNL     1       8.028 -10.473  -2.450  1.00  0.00    -0.000 C 
BRANCH  17  18
ATOM     18  C   UNL     1       6.688 -10.388  -1.698  1.00  0.00    -0.000 C 
BRANCH  18  19
ATOM     19  C   UNL     1       6.244 -11.735  -1.112  1.00  0.00    -0.003 C 
ATOM     20  C   UNL     1       5.520 -11.546   0.218  1.00  0.00     0.004 C 
ENDBRANCH  18  19
ENDBRANCH  17  18
ENDBRANCH  16  17
ENDBRANCH  15  16
ENDBRANCH  14  15
ENDBRANCH  13  14
ENDBRANCH  12  13
ENDBRANCH   1  12
TORSDOF 16
ENDMDL
