MODEL 1
REMARK VINA RESULT:    -3.595      0.000      0.000
REMARK INTER + INTRA:          -3.910
REMARK INTER:                  -3.910
REMARK INTRA:                   0.000
REMARK UNBOUND:                 0.000
REMARK SMILES [NH3+]CC(=O)[O-]
REMARK SMILES IDX 2 1 1 2 3 6 4 7 5 8
REMARK H PARENT 1 3 1 4 1 5
REMARK Flexibility Score: inf
ROOT
ATOM      1  C   UNL     1      13.548  36.200  12.627  1.00  0.00     0.312 C 
ENDROOT
BRANCH   1   2
ATOM      2  N   UNL     1      12.714  37.188  13.307  1.00  0.00    -0.353 N 
ATOM      3  H   UNL     1      12.738  37.008  14.337  1.00  0.00     0.344 HD
ATOM      4  H   UNL     1      13.077  38.152  13.123  1.00  0.00     0.344 HD
ATOM      5  H   UNL     1      11.725  37.113  12.973  1.00  0.00     0.344 HD
ENDBRANCH   1   2
BRANCH   1   6
ATOM      6  C   UNL     1      13.980  35.128  13.580  1.00  0.00     0.096 C 
ATOM      7  O   UNL     1      13.121  34.430  14.180  1.00  0.00    -0.544 OA
ATOM      8  O   UNL     1      15.331  34.867  13.765  1.00  0.00    -0.544 OA
ENDBRANCH   1   6
TORSDOF 2
ENDMDL
MODEL 2
REMARK VINA RESULT:    -3.575      0.082      1.450
REMARK INTER + INTRA:          -3.889
REMARK INTER:                  -3.889
REMARK INTRA:                   0.000
REMARK UNBOUND:                 0.000
REMARK SMILES [NH3+]CC(=O)[O-]
REMARK SMILES IDX 2 1 1 2 3 6 4 7 5 8
REMARK H PARENT 1 3 1 4 1 5
REMARK Flexibility Score: inf
ROOT
ATOM      1  C   UNL     1      13.606  36.224  12.584  1.00  0.00     0.312 C 
ENDROOT
BRANCH   1   2
ATOM      2  N   UNL     1      12.751  37.198  13.257  1.00  0.00    -0.353 N 
ATOM      3  H   UNL     1      11.894  37.360  12.679  1.00  0.00     0.344 HD
ATOM      4  H   UNL     1      12.462  36.835  14.195  1.00  0.00     0.344 HD
ATOM      5  H   UNL     1      13.260  38.105  13.369  1.00  0.00     0.344 HD
ENDBRANCH   1   2
BRANCH   1   6
ATOM      6  C   UNL     1      14.041  35.154  13.537  1.00  0.00     0.096 C 
ATOM      7  O   UNL     1      15.265  34.925  13.718  1.00  0.00    -0.544 OA
ATOM      8  O   UNL     1      13.093  34.445  14.264  1.00  0.00    -0.544 OA
ENDBRANCH   1   6
TORSDOF 2
ENDMDL
MODEL 3
REMARK VINA RESULT:    -3.019      2.860      3.038
REMARK INTER + INTRA:          -3.284
REMARK INTER:                  -3.284
REMARK INTRA:                   0.000
REMARK UNBOUND:                 0.000
REMARK SMILES [NH3+]CC(=O)[O-]
REMARK SMILES IDX 2 1 1 2 3 6 4 7 5 8
REMARK H PARENT 1 3 1 4 1 5
REMARK Flexibility Score: inf
ROOT
ATOM      1  C   UNL     1      15.374  34.305  14.093  1.00  0.00     0.312 C 
ENDROOT
BRANCH   1   2
ATOM      2  N   UNL     1      16.063  33.024  13.958  1.00  0.00    -0.353 N 
ATOM      3  H   UNL     1      15.362  32.279  13.739  1.00  0.00     0.344 HD
ATOM      4  H   UNL     1      16.761  33.072  13.180  1.00  0.00     0.344 HD
ATOM      5  H   UNL     1      16.547  32.781  14.853  1.00  0.00     0.344 HD
ENDBRANCH   1   2
BRANCH   1   6
ATOM      6  C   UNL     1      13.932  34.173  13.711  1.00  0.00     0.096 C 
ATOM      7  O   UNL     1      13.073  34.955  14.196  1.00  0.00    -0.544 OA
ATOM      8  O   UNL     1      13.546  33.219  12.779  1.00  0.00    -0.544 OA
ENDBRANCH   1   6
TORSDOF 2
ENDMDL
MODEL 4
REMARK VINA RESULT:    -2.970      2.754      2.920
REMARK INTER + INTRA:          -3.230
REMARK INTER:                  -3.230
REMARK INTRA:                   0.000
REMARK UNBOUND:                 0.000
REMARK SMILES [NH3+]CC(=O)[O-]
REMARK SMILES IDX 2 1 1 2 3 6 4 7 5 8
REMARK H PARENT 1 3 1 4 1 5
REMARK Flexibility Score: inf
ROOT
ATOM      1  C   UNL     1      13.696  33.035  12.824  1.00  0.00     0.312 C 
ENDROOT
BRANCH   1   2
ATOM      2  N   UNL     1      14.456  31.860  13.241  1.00  0.00    -0.353 N 
ATOM      3  H   UNL     1      14.102  31.021  12.727  1.00  0.00     0.344 HD
ATOM      4  H   UNL     1      15.471  31.990  13.018  1.00  0.00     0.344 HD
ATOM      5  H   UNL     1      14.338  31.702  14.269  1.00  0.00     0.344 HD
ENDBRANCH   1   2
BRANCH   1   6
ATOM      6  C   UNL     1      13.996  34.202  13.714  1.00  0.00     0.096 C 
ATOM      7  O   UNL     1      13.064  34.796  14.316  1.00  0.00    -0.544 OA
ATOM      8  O   UNL     1      15.311  34.600  13.917  1.00  0.00    -0.544 OA
ENDBRANCH   1   6
TORSDOF 2
ENDMDL
MODEL 5
REMARK VINA RESULT:    -2.969      2.309      2.440
REMARK INTER + INTRA:          -3.229
REMARK INTER:                  -3.229
REMARK INTRA:                   0.000
REMARK UNBOUND:                 0.000
REMARK SMILES [NH3+]CC(=O)[O-]
REMARK SMILES IDX 2 1 1 2 3 6 4 7 5 8
REMARK H PARENT 1 3 1 4 1 5
REMARK Flexibility Score: inf
ROOT
ATOM      1  C   UNL     1      13.810  34.489  13.388  1.00  0.00     0.312 C 
ENDROOT
BRANCH   1   2
ATOM      2  N   UNL     1      12.826  34.582  14.464  1.00  0.00    -0.353 N 
ATOM      3  H   UNL     1      13.233  35.132  15.255  1.00  0.00     0.344 HD
ATOM      4  H   UNL     1      11.965  35.067  14.122  1.00  0.00     0.344 HD
ATOM      5  H   UNL     1      12.580  33.625  14.809  1.00  0.00     0.344 HD
ENDBRANCH   1   2
BRANCH   1   6
ATOM      6  C   UNL     1      14.081  33.057  13.041  1.00  0.00     0.096 C 
ATOM      7  O   UNL     1      13.268  32.414  12.327  1.00  0.00    -0.544 OA
ATOM      8  O   UNL     1      15.256  32.450  13.465  1.00  0.00    -0.544 OA
ENDBRANCH   1   6
TORSDOF 2
ENDMDL
MODEL 6
REMARK VINA RESULT:    -2.884     14.989     15.428
REMARK INTER + INTRA:          -3.137
REMARK INTER:                  -3.137
REMARK INTRA:                   0.000
REMARK UNBOUND:                 0.000
REMARK SMILES [NH3+]CC(=O)[O-]
REMARK SMILES IDX 2 1 1 2 3 6 4 7 5 8
REMARK H PARENT 1 3 1 4 1 5
REMARK Flexibility Score: inf
ROOT
ATOM      1  C   UNL     1       6.652  47.810   9.474  1.00  0.00     0.312 C 
ENDROOT
BRANCH   1   2
ATOM      2  N   UNL     1       7.080  48.949   8.665  1.00  0.00    -0.353 N 
ATOM      3  H   UNL     1       7.575  48.598   7.814  1.00  0.00     0.344 HD
ATOM      4  H   UNL     1       6.250  49.511   8.366  1.00  0.00     0.344 HD
ATOM      5  H   UNL     1       7.736  49.552   9.214  1.00  0.00     0.344 HD
ENDBRANCH   1   2
BRANCH   1   6
ATOM      6  C   UNL     1       5.252  47.410   9.123  1.00  0.00     0.096 C 
ATOM      7  O   UNL     1       4.765  46.342   9.578  1.00  0.00    -0.544 OA
ATOM      8  O   UNL     1       4.469  48.242   8.333  1.00  0.00    -0.544 OA
ENDBRANCH   1   6
TORSDOF 2
ENDMDL
MODEL 7
REMARK VINA RESULT:    -2.790     15.283     15.552
REMARK INTER + INTRA:          -3.034
REMARK INTER:                  -3.034
REMARK INTRA:                   0.000
REMARK UNBOUND:                 0.000
REMARK SMILES [NH3+]CC(=O)[O-]
REMARK SMILES IDX 2 1 1 2 3 6 4 7 5 8
REMARK H PARENT 1 3 1 4 1 5
REMARK Flexibility Score: inf
ROOT
ATOM      1  C   UNL     1       4.049  47.961   8.367  1.00  0.00     0.312 C 
ENDROOT
BRANCH   1   2
ATOM      2  N   UNL     1       4.999  49.014   8.016  1.00  0.00    -0.353 N 
ATOM      3  H   UNL     1       4.768  49.878   8.557  1.00  0.00     0.344 HD
ATOM      4  H   UNL     1       5.972  48.714   8.257  1.00  0.00     0.344 HD
ATOM      5  H   UNL     1       4.937  49.227   6.994  1.00  0.00     0.344 HD
ENDBRANCH   1   2
BRANCH   1   6
ATOM      6  C   UNL     1       4.690  46.947   9.263  1.00  0.00     0.096 C 
ATOM      7  O   UNL     1       4.307  45.748   9.239  1.00  0.00    -0.544 OA
ATOM      8  O   UNL     1       5.746  47.317  10.086  1.00  0.00    -0.544 OA
ENDBRANCH   1   6
TORSDOF 2
ENDMDL
MODEL 8
REMARK VINA RESULT:    -2.758     13.561     13.963
REMARK INTER + INTRA:          -3.000
REMARK INTER:                  -3.000
REMARK INTRA:                   0.000
REMARK UNBOUND:                 0.000
REMARK SMILES [NH3+]CC(=O)[O-]
REMARK SMILES IDX 2 1 1 2 3 6 4 7 5 8
REMARK H PARENT 1 3 1 4 1 5
REMARK Flexibility Score: inf
ROOT
ATOM      1  C   UNL     1       3.712  45.515  11.396  1.00  0.00     0.312 C 
ENDROOT
BRANCH   1   2
ATOM      2  N   UNL     1       4.617  44.945  12.391  1.00  0.00    -0.353 N 
ATOM      3  H   UNL     1       4.057  44.446  13.119  1.00  0.00     0.344 HD
ATOM      4  H   UNL     1       5.267  44.262  11.936  1.00  0.00     0.344 HD
ATOM      5  H   UNL     1       5.170  45.705  12.851  1.00  0.00     0.344 HD
ENDBRANCH   1   2
BRANCH   1   6
ATOM      6  C   UNL     1       4.117  45.103  10.015  1.00  0.00     0.096 C 
ATOM      7  O   UNL     1       4.470  45.970   9.173  1.00  0.00    -0.544 OA
ATOM      8  O   UNL     1       4.154  43.757   9.674  1.00  0.00    -0.544 OA
ENDBRANCH   1   6
TORSDOF 2
ENDMDL
MODEL 9
REMARK VINA RESULT:    -2.746     14.824     15.215
REMARK INTER + INTRA:          -2.987
REMARK INTER:                  -2.987
REMARK INTRA:                   0.000
REMARK UNBOUND:                 0.000
REMARK SMILES [NH3+]CC(=O)[O-]
REMARK SMILES IDX 2 1 1 2 3 6 4 7 5 8
REMARK H PARENT 1 3 1 4 1 5
REMARK Flexibility Score: inf
ROOT
ATOM      1  C   UNL     1       4.514  46.301   9.937  1.00  0.00     0.312 C 
ENDROOT
BRANCH   1   2
ATOM      2  N   UNL     1       4.182  46.715  11.298  1.00  0.00    -0.353 N 
ATOM      3  H   UNL     1       4.807  47.505  11.578  1.00  0.00     0.344 HD
ATOM      4  H   UNL     1       3.188  47.037  11.343  1.00  0.00     0.344 HD
ATOM      5  H   UNL     1       4.326  45.918  11.961  1.00  0.00     0.344 HD
ENDBRANCH   1   2
BRANCH   1   6
ATOM      6  C   UNL     1       5.222  47.400   9.208  1.00  0.00     0.096 C 
ATOM      7  O   UNL     1       4.593  48.135   8.402  1.00  0.00    -0.544 OA
ATOM      8  O   UNL     1       6.566  47.646   9.458  1.00  0.00    -0.544 OA
ENDBRANCH   1   6
TORSDOF 2
ENDMDL
