MODEL 1
REMARK VINA RESULT:    -3.498      0.000      0.000
REMARK INTER + INTRA:          -4.156
REMARK INTER:                  -4.111
REMARK INTRA:                  -0.045
REMARK UNBOUND:                -0.045
REMARK SMILES O=C([O-])CCC(=O)[O-]
REMARK SMILES IDX 4 1 2 2 1 3 3 4 5 5 6 6 7 7 8 8
REMARK H PARENT
REMARK Flexibility Score: inf
ROOT
ATOM      1  C   UNL     1       8.846  19.210  31.508  1.00  0.00     0.059 C 
ENDROOT
BRANCH   1   2
ATOM      2  C   UNL     1       9.678  17.996  31.242  1.00  0.00     0.042 C 
ATOM      3  O   UNL     1      10.106  17.762  30.082  1.00  0.00    -0.550 OA
ATOM      4  O   UNL     1      10.024  17.148  32.287  1.00  0.00    -0.550 OA
ENDBRANCH   1   2
BRANCH   1   5
ATOM      5  C   UNL     1       8.417  19.864  30.193  1.00  0.00     0.059 C 
BRANCH   5   6
ATOM      6  C   UNL     1       8.081  21.305  30.410  1.00  0.00     0.042 C 
ATOM      7  O   UNL     1       7.875  21.740  31.573  1.00  0.00    -0.550 OA
ATOM      8  O   UNL     1       7.945  22.158  29.321  1.00  0.00    -0.550 OA
ENDBRANCH   5   6
ENDBRANCH   1   5
TORSDOF 3
ENDMDL
MODEL 2
REMARK VINA RESULT:    -3.485      1.526      2.122
REMARK INTER + INTRA:          -4.141
REMARK INTER:                  -4.020
REMARK INTRA:                  -0.121
REMARK UNBOUND:                -0.045
REMARK SMILES O=C([O-])CCC(=O)[O-]
REMARK SMILES IDX 4 1 2 2 1 3 3 4 5 5 6 6 7 7 8 8
REMARK H PARENT
REMARK Flexibility Score: inf
ROOT
ATOM      1  C   UNL     1       9.936  18.908  31.622  1.00  0.00     0.059 C 
ENDROOT
BRANCH   1   2
ATOM      2  C   UNL     1       9.403  17.995  32.681  1.00  0.00     0.042 C 
ATOM      3  O   UNL     1      10.075  16.998  33.053  1.00  0.00    -0.550 OA
ATOM      4  O   UNL     1       8.187  18.274  33.292  1.00  0.00    -0.550 OA
ENDBRANCH   1   2
BRANCH   1   5
ATOM      5  C   UNL     1       9.115  18.775  30.338  1.00  0.00     0.059 C 
BRANCH   5   6
ATOM      6  C   UNL     1       8.344  20.031  30.078  1.00  0.00     0.042 C 
ATOM      7  O   UNL     1       8.029  20.349  28.902  1.00  0.00    -0.550 OA
ATOM      8  O   UNL     1       8.016  20.876  31.131  1.00  0.00    -0.550 OA
ENDBRANCH   5   6
ENDBRANCH   1   5
TORSDOF 3
ENDMDL
MODEL 3
REMARK VINA RESULT:    -3.462      0.827      1.388
REMARK INTER + INTRA:          -4.114
REMARK INTER:                  -4.070
REMARK INTRA:                  -0.045
REMARK UNBOUND:                -0.045
REMARK SMILES O=C([O-])CCC(=O)[O-]
REMARK SMILES IDX 4 1 2 2 1 3 3 4 5 5 6 6 7 7 8 8
REMARK H PARENT
REMARK Flexibility Score: inf
ROOT
ATOM      1  C   UNL     1       8.635  19.647  31.076  1.00  0.00     0.059 C 
ENDROOT
BRANCH   1   2
ATOM      2  C   UNL     1       9.582  18.490  31.113  1.00  0.00     0.042 C 
ATOM      3  O   UNL     1       9.797  17.814  30.073  1.00  0.00    -0.550 OA
ATOM      4  O   UNL     1      10.266  18.188  32.284  1.00  0.00    -0.550 OA
ENDBRANCH   1   2
BRANCH   1   5
ATOM      5  C   UNL     1       8.226  19.959  29.636  1.00  0.00     0.059 C 
BRANCH   5   6
ATOM      6  C   UNL     1       7.967  21.423  29.471  1.00  0.00     0.042 C 
ATOM      7  O   UNL     1       7.876  21.925  28.320  1.00  0.00    -0.550 OA
ATOM      8  O   UNL     1       7.875  22.244  30.589  1.00  0.00    -0.550 OA
ENDBRANCH   5   6
ENDBRANCH   1   5
TORSDOF 3
ENDMDL
MODEL 4
REMARK VINA RESULT:    -3.453      1.670      4.183
REMARK INTER + INTRA:          -4.103
REMARK INTER:                  -3.985
REMARK INTRA:                  -0.118
REMARK UNBOUND:                -0.045
REMARK SMILES O=C([O-])CCC(=O)[O-]
REMARK SMILES IDX 4 1 2 2 1 3 3 4 5 5 6 6 7 7 8 8
REMARK H PARENT
REMARK Flexibility Score: inf
ROOT
ATOM      1  C   UNL     1       9.333  18.529  30.619  1.00  0.00     0.059 C 
ENDROOT
BRANCH   1   2
ATOM      2  C   UNL     1       8.533  19.758  30.326  1.00  0.00     0.042 C 
ATOM      3  O   UNL     1       8.216  20.545  31.255  1.00  0.00    -0.550 OA
ATOM      4  O   UNL     1       8.181  20.062  29.016  1.00  0.00    -0.550 OA
ENDBRANCH   1   2
BRANCH   1   5
ATOM      5  C   UNL     1      10.111  18.696  31.925  1.00  0.00     0.059 C 
BRANCH   5   6
ATOM      6  C   UNL     1       9.588  17.762  32.970  1.00  0.00     0.042 C 
ATOM      7  O   UNL     1      10.169  16.668  33.191  1.00  0.00    -0.550 OA
ATOM      8  O   UNL     1       8.427  18.078  33.666  1.00  0.00    -0.550 OA
ENDBRANCH   5   6
ENDBRANCH   1   5
TORSDOF 3
ENDMDL
MODEL 5
REMARK VINA RESULT:    -3.453      0.827      4.352
REMARK INTER + INTRA:          -4.103
REMARK INTER:                  -4.068
REMARK INTRA:                  -0.035
REMARK UNBOUND:                -0.045
REMARK SMILES O=C([O-])CCC(=O)[O-]
REMARK SMILES IDX 4 1 2 2 1 3 3 4 5 5 6 6 7 7 8 8
REMARK H PARENT
REMARK Flexibility Score: inf
ROOT
ATOM      1  C   UNL     1       8.535  20.552  31.501  1.00  0.00     0.059 C 
ENDROOT
BRANCH   1   2
ATOM      2  C   UNL     1       8.127  21.872  30.928  1.00  0.00     0.042 C 
ATOM      3  O   UNL     1       7.879  22.844  31.688  1.00  0.00    -0.550 OA
ATOM      4  O   UNL     1       8.071  22.044  29.550  1.00  0.00    -0.550 OA
ENDBRANCH   1   2
BRANCH   1   5
ATOM      5  C   UNL     1       8.628  19.496  30.399  1.00  0.00     0.059 C 
BRANCH   5   6
ATOM      6  C   UNL     1       9.394  18.304  30.879  1.00  0.00     0.042 C 
ATOM      7  O   UNL     1      10.155  17.681  30.094  1.00  0.00    -0.550 OA
ATOM      8  O   UNL     1       9.229  17.851  32.183  1.00  0.00    -0.550 OA
ENDBRANCH   5   6
ENDBRANCH   1   5
TORSDOF 3
ENDMDL
MODEL 6
REMARK VINA RESULT:    -3.417      0.798      4.266
REMARK INTER + INTRA:          -4.061
REMARK INTER:                  -4.019
REMARK INTRA:                  -0.042
REMARK UNBOUND:                -0.045
REMARK SMILES O=C([O-])CCC(=O)[O-]
REMARK SMILES IDX 4 1 2 2 1 3 3 4 5 5 6 6 7 7 8 8
REMARK H PARENT
REMARK Flexibility Score: inf
ROOT
ATOM      1  C   UNL     1       8.201  20.189  29.837  1.00  0.00     0.059 C 
ENDROOT
BRANCH   1   2
ATOM      2  C   UNL     1       8.027  21.665  29.664  1.00  0.00     0.042 C 
ATOM      3  O   UNL     1       8.063  22.429  30.663  1.00  0.00    -0.550 OA
ATOM      4  O   UNL     1       7.876  22.203  28.391  1.00  0.00    -0.550 OA
ENDBRANCH   1   2
BRANCH   1   5
ATOM      5  C   UNL     1       8.710  19.871  31.243  1.00  0.00     0.059 C 
BRANCH   5   6
ATOM      6  C   UNL     1       9.339  18.514  31.278  1.00  0.00     0.042 C 
ATOM      7  O   UNL     1       9.418  17.881  32.363  1.00  0.00    -0.550 OA
ATOM      8  O   UNL     1       9.883  17.971  30.121  1.00  0.00    -0.550 OA
ENDBRANCH   5   6
ENDBRANCH   1   5
TORSDOF 3
ENDMDL
MODEL 7
REMARK VINA RESULT:    -3.402      2.289      3.858
REMARK INTER + INTRA:          -4.043
REMARK INTER:                  -3.923
REMARK INTRA:                  -0.121
REMARK UNBOUND:                -0.045
REMARK SMILES O=C([O-])CCC(=O)[O-]
REMARK SMILES IDX 4 1 2 2 1 3 3 4 5 5 6 6 7 7 8 8
REMARK H PARENT
REMARK Flexibility Score: inf
ROOT
ATOM      1  C   UNL     1       8.257  18.227  33.108  1.00  0.00     0.059 C 
ENDROOT
BRANCH   1   2
ATOM      2  C   UNL     1       8.290  19.302  34.148  1.00  0.00     0.042 C 
ATOM      3  O   UNL     1       7.974  19.042  35.338  1.00  0.00    -0.550 OA
ATOM      4  O   UNL     1       8.718  20.581  33.812  1.00  0.00    -0.550 OA
ENDBRANCH   1   2
BRANCH   1   5
ATOM      5  C   UNL     1       9.617  18.104  32.421  1.00  0.00     0.059 C 
BRANCH   5   6
ATOM      6  C   UNL     1       9.490  18.374  30.955  1.00  0.00     0.042 C 
ATOM      7  O   UNL     1      10.126  17.674  30.125  1.00  0.00    -0.550 OA
ATOM      8  O   UNL     1       8.707  19.431  30.508  1.00  0.00    -0.550 OA
ENDBRANCH   5   6
ENDBRANCH   1   5
TORSDOF 3
ENDMDL
MODEL 8
REMARK VINA RESULT:    -3.391      2.322      3.465
REMARK INTER + INTRA:          -4.030
REMARK INTER:                  -3.909
REMARK INTRA:                  -0.122
REMARK UNBOUND:                -0.045
REMARK SMILES O=C([O-])CCC(=O)[O-]
REMARK SMILES IDX 4 1 2 2 1 3 3 4 5 5 6 6 7 7 8 8
REMARK H PARENT
REMARK Flexibility Score: inf
ROOT
ATOM      1  C   UNL     1       9.620  18.139  32.422  1.00  0.00     0.059 C 
ENDROOT
BRANCH   1   2
ATOM      2  C   UNL     1       9.510  18.410  30.954  1.00  0.00     0.042 C 
ATOM      3  O   UNL     1      10.113  17.676  30.128  1.00  0.00    -0.550 OA
ATOM      4  O   UNL     1       8.701  19.442  30.496  1.00  0.00    -0.550 OA
ENDBRANCH   1   2
BRANCH   1   5
ATOM      5  C   UNL     1       8.255  18.281  33.096  1.00  0.00     0.059 C 
BRANCH   5   6
ATOM      6  C   UNL     1       8.293  19.357  34.134  1.00  0.00     0.042 C 
ATOM      7  O   UNL     1       8.713  20.507  33.841  1.00  0.00    -0.550 OA
ATOM      8  O   UNL     1       7.911  19.077  35.441  1.00  0.00    -0.550 OA
ENDBRANCH   5   6
ENDBRANCH   1   5
TORSDOF 3
ENDMDL
MODEL 9
REMARK VINA RESULT:    -3.374      0.777      1.789
REMARK INTER + INTRA:          -4.011
REMARK INTER:                  -3.960
REMARK INTRA:                  -0.051
REMARK UNBOUND:                -0.045
REMARK SMILES O=C([O-])CCC(=O)[O-]
REMARK SMILES IDX 4 1 2 2 1 3 3 4 5 5 6 6 7 7 8 8
REMARK H PARENT
REMARK Flexibility Score: inf
ROOT
ATOM      1  C   UNL     1       8.699  18.904  31.852  1.00  0.00     0.059 C 
ENDROOT
BRANCH   1   2
ATOM      2  C   UNL     1       9.691  17.851  31.471  1.00  0.00     0.042 C 
ATOM      3  O   UNL     1      10.131  17.052  32.337  1.00  0.00    -0.550 OA
ATOM      4  O   UNL     1      10.093  17.722  30.147  1.00  0.00    -0.550 OA
ENDBRANCH   1   2
BRANCH   1   5
ATOM      5  C   UNL     1       8.540  19.924  30.723  1.00  0.00     0.059 C 
BRANCH   5   6
ATOM      6  C   UNL     1       8.476  21.312  31.277  1.00  0.00     0.042 C 
ATOM      7  O   UNL     1       8.396  22.300  30.502  1.00  0.00    -0.550 OA
ATOM      8  O   UNL     1       8.554  21.518  32.649  1.00  0.00    -0.550 OA
ENDBRANCH   5   6
ENDBRANCH   1   5
TORSDOF 3
ENDMDL
