MODEL 1
REMARK VINA RESULT:    -2.862      0.000      0.000
REMARK INTER + INTRA:          -6.502
REMARK INTER:                  -5.037
REMARK INTRA:                  -1.464
REMARK UNBOUND:                -1.464
REMARK SMILES CCCCCCCCCCCCCCC(=O)[O-]
REMARK SMILES IDX 9 1 10 2 11 3 12 4 13 5 14 6 15 7 16 8 17 9 8 10 7 11 6 12
REMARK SMILES IDX 5 13 4 14 3 15 2 16 1 17
REMARK H PARENT
REMARK Flexibility Score: inf
ROOT
ATOM      1  C   UNL     1      52.686 -35.275  23.492  1.00  0.00     0.000 C 
ENDROOT
BRANCH   1   2
ATOM      2  C   UNL     1      51.250 -34.764  23.277  1.00  0.00     0.000 C 
BRANCH   2   3
ATOM      3  C   UNL     1      51.068 -33.301  23.715  1.00  0.00     0.000 C 
BRANCH   3   4
ATOM      4  C   UNL     1      49.943 -32.590  22.946  1.00  0.00     0.000 C 
BRANCH   4   5
ATOM      5  C   UNL     1      50.272 -31.120  22.645  1.00  0.00     0.006 C 
BRANCH   5   6
ATOM      6  C   UNL     1      51.681 -30.721  23.104  1.00  0.00     0.053 C 
BRANCH   6   7
ATOM      7  C   UNL     1      51.681 -29.324  23.637  1.00  0.00     0.041 C 
ATOM      8  O   UNL     1      50.868 -28.474  23.186  1.00  0.00    -0.550 OA
ATOM      9  O   UNL     1      52.545 -28.972  24.666  1.00  0.00    -0.550 OA
ENDBRANCH   6   7
ENDBRANCH   5   6
ENDBRANCH   4   5
ENDBRANCH   3   4
ENDBRANCH   2   3
ENDBRANCH   1   2
BRANCH   1  10
ATOM     10  C   UNL     1      53.678 -34.136  23.779  1.00  0.00     0.000 C 
BRANCH  10  11
ATOM     11  C   UNL     1      55.009 -34.312  23.028  1.00  0.00    -0.000 C 
BRANCH  11  12
ATOM     12  C   UNL     1      55.092 -35.645  22.264  1.00  0.00    -0.000 C 
BRANCH  12  13
ATOM     13  C   UNL     1      56.419 -36.409  22.432  1.00  0.00    -0.000 C 
BRANCH  13  14
ATOM     14  C   UNL     1      57.206 -36.074  23.713  1.00  0.00    -0.000 C 
BRANCH  14  15
ATOM     15  C   UNL     1      56.828 -36.952  24.924  1.00  0.00    -0.000 C 
BRANCH  15  16
ATOM     16  C   UNL     1      56.179 -36.145  26.059  1.00  0.00    -0.003 C 
ATOM     17  C   UNL     1      54.749 -36.612  26.317  1.00  0.00     0.004 C 
ENDBRANCH  15  16
ENDBRANCH  14  15
ENDBRANCH  13  14
ENDBRANCH  12  13
ENDBRANCH  11  12
ENDBRANCH  10  11
ENDBRANCH   1  10
TORSDOF 13
ENDMDL
MODEL 2
REMARK VINA RESULT:    -2.792      2.758      3.856
REMARK INTER + INTRA:          -6.378
REMARK INTER:                  -4.048
REMARK INTRA:                  -2.330
REMARK UNBOUND:                -1.464
REMARK SMILES CCCCCCCCCCCCCCC(=O)[O-]
REMARK SMILES IDX 9 1 10 2 11 3 12 4 13 5 14 6 15 7 16 8 17 9 8 10 7 11 6 12
REMARK SMILES IDX 5 13 4 14 3 15 2 16 1 17
REMARK H PARENT
REMARK Flexibility Score: inf
ROOT
ATOM      1  C   UNL     1      55.135 -35.117  22.368  1.00  0.00     0.000 C 
ENDROOT
BRANCH   1   2
ATOM      2  C   UNL     1      53.799 -35.230  23.123  1.00  0.00     0.000 C 
BRANCH   2   3
ATOM      3  C   UNL     1      53.439 -33.945  23.887  1.00  0.00     0.000 C 
BRANCH   3   4
ATOM      4  C   UNL     1      54.442 -32.808  23.635  1.00  0.00     0.000 C 
BRANCH   4   5
ATOM      5  C   UNL     1      55.141 -32.342  24.922  1.00  0.00     0.006 C 
BRANCH   5   6
ATOM      6  C   UNL     1      56.644 -32.101  24.728  1.00  0.00     0.053 C 
BRANCH   6   7
ATOM      7  C   UNL     1      56.877 -30.797  24.032  1.00  0.00     0.041 C 
ATOM      8  O   UNL     1      56.182 -29.789  24.326  1.00  0.00    -0.550 OA
ATOM      9  O   UNL     1      57.896 -30.682  23.095  1.00  0.00    -0.550 OA
ENDBRANCH   6   7
ENDBRANCH   5   6
ENDBRANCH   4   5
ENDBRANCH   3   4
ENDBRANCH   2   3
ENDBRANCH   1   2
BRANCH   1  10
ATOM     10  C   UNL     1      55.731 -36.491  22.020  1.00  0.00     0.000 C 
BRANCH  10  11
ATOM     11  C   UNL     1      57.045 -36.770  22.771  1.00  0.00    -0.000 C 
BRANCH  11  12
ATOM     12  C   UNL     1      57.586 -35.531  23.508  1.00  0.00    -0.000 C 
BRANCH  12  13
ATOM     13  C   UNL     1      57.707 -35.687  25.036  1.00  0.00    -0.000 C 
BRANCH  13  14
ATOM     14  C   UNL     1      56.646 -36.595  25.685  1.00  0.00    -0.000 C 
BRANCH  14  15
ATOM     15  C   UNL     1      55.514 -35.823  26.395  1.00  0.00    -0.000 C 
BRANCH  15  16
ATOM     16  C   UNL     1      54.236 -36.661  26.550  1.00  0.00    -0.003 C 
ATOM     17  C   UNL     1      53.077 -35.808  27.055  1.00  0.00     0.004 C 
ENDBRANCH  15  16
ENDBRANCH  14  15
ENDBRANCH  13  14
ENDBRANCH  12  13
ENDBRANCH  11  12
ENDBRANCH  10  11
ENDBRANCH   1  10
TORSDOF 13
ENDMDL
MODEL 3
REMARK VINA RESULT:    -2.784      3.403      6.592
REMARK INTER + INTRA:          -6.365
REMARK INTER:                  -4.434
REMARK INTRA:                  -1.930
REMARK UNBOUND:                -1.464
REMARK SMILES CCCCCCCCCCCCCCC(=O)[O-]
REMARK SMILES IDX 9 1 10 2 11 3 12 4 13 5 14 6 15 7 16 8 17 9 8 10 7 11 6 12
REMARK SMILES IDX 5 13 4 14 3 15 2 16 1 17
REMARK H PARENT
REMARK Flexibility Score: inf
ROOT
ATOM      1  C   UNL     1      53.298 -35.418  25.486  1.00  0.00     0.000 C 
ENDROOT
BRANCH   1   2
ATOM      2  C   UNL     1      54.516 -35.478  24.547  1.00  0.00     0.000 C 
BRANCH   2   3
ATOM      3  C   UNL     1      54.146 -35.219  23.078  1.00  0.00     0.000 C 
BRANCH   3   4
ATOM      4  C   UNL     1      55.164 -35.823  22.097  1.00  0.00     0.000 C 
BRANCH   4   5
ATOM      5  C   UNL     1      56.308 -36.558  22.814  1.00  0.00     0.006 C 
BRANCH   5   6
ATOM      6  C   UNL     1      57.691 -36.183  22.265  1.00  0.00     0.053 C 
BRANCH   6   7
ATOM      7  C   UNL     1      58.470 -35.424  23.291  1.00  0.00     0.041 C 
ATOM      8  O   UNL     1      57.894 -34.585  24.033  1.00  0.00    -0.550 OA
ATOM      9  O   UNL     1      59.825 -35.678  23.463  1.00  0.00    -0.550 OA
ENDBRANCH   6   7
ENDBRANCH   5   6
ENDBRANCH   4   5
ENDBRANCH   3   4
ENDBRANCH   2   3
ENDBRANCH   1   2
BRANCH   1  10
ATOM     10  C   UNL     1      52.169 -36.364  25.046  1.00  0.00     0.000 C 
BRANCH  10  11
ATOM     11  C   UNL     1      50.815 -35.644  24.913  1.00  0.00    -0.000 C 
BRANCH  11  12
ATOM     12  C   UNL     1      50.280 -35.642  23.470  1.00  0.00    -0.000 C 
BRANCH  12  13
ATOM     13  C   UNL     1      50.224 -34.256  22.800  1.00  0.00    -0.000 C 
BRANCH  13  14
ATOM     14  C   UNL     1      50.556 -33.071  23.726  1.00  0.00    -0.000 C 
BRANCH  14  15
ATOM     15  C   UNL     1      51.688 -32.164  23.198  1.00  0.00    -0.000 C 
BRANCH  15  16
ATOM     16  C   UNL     1      52.776 -31.906  24.251  1.00  0.00    -0.003 C 
ATOM     17  C   UNL     1      52.197 -31.953  25.662  1.00  0.00     0.004 C 
ENDBRANCH  15  16
ENDBRANCH  14  15
ENDBRANCH  13  14
ENDBRANCH  12  13
ENDBRANCH  11  12
ENDBRANCH  10  11
ENDBRANCH   1  10
TORSDOF 13
ENDMDL
MODEL 4
REMARK VINA RESULT:    -2.737      3.646      6.342
REMARK INTER + INTRA:          -6.281
REMARK INTER:                  -4.316
REMARK INTRA:                  -1.965
REMARK UNBOUND:                -1.464
REMARK SMILES CCCCCCCCCCCCCCC(=O)[O-]
REMARK SMILES IDX 9 1 10 2 11 3 12 4 13 5 14 6 15 7 16 8 17 9 8 10 7 11 6 12
REMARK SMILES IDX 5 13 4 14 3 15 2 16 1 17
REMARK H PARENT
REMARK Flexibility Score: inf
ROOT
ATOM      1  C   UNL     1      53.944 -31.806  26.078  1.00  0.00     0.000 C 
ENDROOT
BRANCH   1   2
ATOM      2  C   UNL     1      54.965 -32.189  24.992  1.00  0.00     0.000 C 
BRANCH   2   3
ATOM      3  C   UNL     1      54.913 -33.681  24.627  1.00  0.00     0.000 C 
BRANCH   3   4
ATOM      4  C   UNL     1      54.936 -33.918  23.108  1.00  0.00     0.000 C 
BRANCH   4   5
ATOM      5  C   UNL     1      54.686 -35.389  22.737  1.00  0.00     0.006 C 
BRANCH   5   6
ATOM      6  C   UNL     1      55.793 -35.972  21.848  1.00  0.00     0.053 C 
BRANCH   6   7
ATOM      7  C   UNL     1      57.006 -36.287  22.664  1.00  0.00     0.041 C 
ATOM      8  O   UNL     1      58.156 -36.040  22.212  1.00  0.00    -0.550 OA
ATOM      9  O   UNL     1      56.867 -36.807  23.944  1.00  0.00    -0.550 OA
ENDBRANCH   6   7
ENDBRANCH   5   6
ENDBRANCH   4   5
ENDBRANCH   3   4
ENDBRANCH   2   3
ENDBRANCH   1   2
BRANCH   1  10
ATOM     10  C   UNL     1      52.512 -31.703  25.528  1.00  0.00     0.000 C 
BRANCH  10  11
ATOM     11  C   UNL     1      52.442 -30.902  24.216  1.00  0.00    -0.000 C 
BRANCH  11  12
ATOM     12  C   UNL     1      51.854 -31.717  23.050  1.00  0.00    -0.000 C 
BRANCH  12  13
ATOM     13  C   UNL     1      50.393 -32.166  23.244  1.00  0.00    -0.000 C 
BRANCH  13  14
ATOM     14  C   UNL     1      50.116 -33.644  22.910  1.00  0.00    -0.000 C 
BRANCH  14  15
ATOM     15  C   UNL     1      51.268 -34.596  23.298  1.00  0.00    -0.000 C 
BRANCH  15  16
ATOM     16  C   UNL     1      51.222 -35.006  24.778  1.00  0.00    -0.003 C 
ATOM     17  C   UNL     1      52.018 -36.284  25.020  1.00  0.00     0.004 C 
ENDBRANCH  15  16
ENDBRANCH  14  15
ENDBRANCH  13  14
ENDBRANCH  12  13
ENDBRANCH  11  12
ENDBRANCH  10  11
ENDBRANCH   1  10
TORSDOF 13
ENDMDL
MODEL 5
REMARK VINA RESULT:    -2.727      3.522      4.768
REMARK INTER + INTRA:          -6.265
REMARK INTER:                  -4.019
REMARK INTRA:                  -2.246
REMARK UNBOUND:                -1.464
REMARK SMILES CCCCCCCCCCCCCCC(=O)[O-]
REMARK SMILES IDX 9 1 10 2 11 3 12 4 13 5 14 6 15 7 16 8 17 9 8 10 7 11 6 12
REMARK SMILES IDX 5 13 4 14 3 15 2 16 1 17
REMARK H PARENT
REMARK Flexibility Score: inf
ROOT
ATOM      1  C   UNL     1      53.917 -35.265  23.165  1.00  0.00     0.000 C 
ENDROOT
BRANCH   1   2
ATOM      2  C   UNL     1      53.787 -33.976  23.997  1.00  0.00     0.000 C 
BRANCH   2   3
ATOM      3  C   UNL     1      54.679 -32.839  23.473  1.00  0.00     0.000 C 
BRANCH   3   4
ATOM      4  C   UNL     1      55.788 -32.454  24.467  1.00  0.00     0.000 C 
BRANCH   4   5
ATOM      5  C   UNL     1      56.865 -31.561  23.831  1.00  0.00     0.006 C 
BRANCH   5   6
ATOM      6  C   UNL     1      58.289 -31.988  24.208  1.00  0.00     0.053 C 
BRANCH   6   7
ATOM      7  C   UNL     1      59.294 -31.113  23.528  1.00  0.00     0.041 C 
ATOM      8  O   UNL     1      60.516 -31.206  23.820  1.00  0.00    -0.550 OA
ATOM      9  O   UNL     1      58.888 -30.230  22.536  1.00  0.00    -0.550 OA
ENDBRANCH   6   7
ENDBRANCH   5   6
ENDBRANCH   4   5
ENDBRANCH   3   4
ENDBRANCH   2   3
ENDBRANCH   1   2
BRANCH   1  10
ATOM     10  C   UNL     1      55.133 -35.236  22.225  1.00  0.00     0.000 C 
BRANCH  10  11
ATOM     11  C   UNL     1      55.743 -36.632  22.009  1.00  0.00    -0.000 C 
BRANCH  11  12
ATOM     12  C   UNL     1      57.086 -36.816  22.739  1.00  0.00    -0.000 C 
BRANCH  12  13
ATOM     13  C   UNL     1      57.613 -35.557  23.455  1.00  0.00    -0.000 C 
BRANCH  13  14
ATOM     14  C   UNL     1      57.643 -35.647  24.992  1.00  0.00    -0.000 C 
BRANCH  14  15
ATOM     15  C   UNL     1      56.959 -36.911  25.556  1.00  0.00    -0.000 C 
BRANCH  15  16
ATOM     16  C   UNL     1      55.594 -36.608  26.192  1.00  0.00    -0.003 C 
ATOM     17  C   UNL     1      55.611 -35.266  26.917  1.00  0.00     0.004 C 
ENDBRANCH  15  16
ENDBRANCH  14  15
ENDBRANCH  13  14
ENDBRANCH  12  13
ENDBRANCH  11  12
ENDBRANCH  10  11
ENDBRANCH   1  10
TORSDOF 13
ENDMDL
MODEL 6
REMARK VINA RESULT:    -2.713      3.554      6.428
REMARK INTER + INTRA:          -6.238
REMARK INTER:                  -4.352
REMARK INTRA:                  -1.886
REMARK UNBOUND:                -1.464
REMARK SMILES CCCCCCCCCCCCCCC(=O)[O-]
REMARK SMILES IDX 9 1 10 2 11 3 12 4 13 5 14 6 15 7 16 8 17 9 8 10 7 11 6 12
REMARK SMILES IDX 5 13 4 14 3 15 2 16 1 17
REMARK H PARENT
REMARK Flexibility Score: inf
ROOT
ATOM      1  C   UNL     1      52.352 -34.723  25.437  1.00  0.00     0.000 C 
ENDROOT
BRANCH   1   2
ATOM      2  C   UNL     1      52.980 -35.907  24.679  1.00  0.00     0.000 C 
BRANCH   2   3
ATOM      3  C   UNL     1      54.407 -35.609  24.190  1.00  0.00     0.000 C 
BRANCH   3   4
ATOM      4  C   UNL     1      54.444 -35.150  22.723  1.00  0.00     0.000 C 
BRANCH   4   5
ATOM      5  C   UNL     1      55.508 -35.892  21.900  1.00  0.00     0.006 C 
BRANCH   5   6
ATOM      6  C   UNL     1      56.485 -36.689  22.774  1.00  0.00     0.053 C 
BRANCH   6   7
ATOM      7  C   UNL     1      57.850 -36.080  22.720  1.00  0.00     0.041 C 
ATOM      8  O   UNL     1      58.115 -35.054  23.400  1.00  0.00    -0.550 OA
ATOM      9  O   UNL     1      58.847 -36.675  21.955  1.00  0.00    -0.550 OA
ENDBRANCH   6   7
ENDBRANCH   5   6
ENDBRANCH   4   5
ENDBRANCH   3   4
ENDBRANCH   2   3
ENDBRANCH   1   2
BRANCH   1  10
ATOM     10  C   UNL     1      50.955 -34.360  24.906  1.00  0.00     0.000 C 
BRANCH  10  11
ATOM     11  C   UNL     1      50.972 -33.982  23.415  1.00  0.00    -0.000 C 
BRANCH  11  12
ATOM     12  C   UNL     1      50.572 -32.517  23.166  1.00  0.00    -0.000 C 
BRANCH  12  13
ATOM     13  C   UNL     1      51.753 -31.538  23.017  1.00  0.00    -0.000 C 
BRANCH  13  14
ATOM     14  C   UNL     1      52.012 -30.639  24.240  1.00  0.00    -0.000 C 
BRANCH  14  15
ATOM     15  C   UNL     1      53.174 -31.122  25.134  1.00  0.00    -0.000 C 
BRANCH  15  16
ATOM     16  C   UNL     1      54.307 -31.773  24.326  1.00  0.00    -0.003 C 
ATOM     17  C   UNL     1      55.397 -32.313  25.247  1.00  0.00     0.004 C 
ENDBRANCH  15  16
ENDBRANCH  14  15
ENDBRANCH  13  14
ENDBRANCH  12  13
ENDBRANCH  11  12
ENDBRANCH  10  11
ENDBRANCH   1  10
TORSDOF 13
ENDMDL
MODEL 7
REMARK VINA RESULT:    -2.711      3.397      6.517
REMARK INTER + INTRA:          -6.235
REMARK INTER:                  -4.050
REMARK INTRA:                  -2.186
REMARK UNBOUND:                -1.464
REMARK SMILES CCCCCCCCCCCCCCC(=O)[O-]
REMARK SMILES IDX 9 1 10 2 11 3 12 4 13 5 14 6 15 7 16 8 17 9 8 10 7 11 6 12
REMARK SMILES IDX 5 13 4 14 3 15 2 16 1 17
REMARK H PARENT
REMARK Flexibility Score: inf
ROOT
ATOM      1  C   UNL     1      55.036 -33.648  24.661  1.00  0.00     0.000 C 
ENDROOT
BRANCH   1   2
ATOM      2  C   UNL     1      55.084 -33.872  23.139  1.00  0.00     0.000 C 
BRANCH   2   3
ATOM      3  C   UNL     1      54.563 -35.259  22.727  1.00  0.00     0.000 C 
BRANCH   3   4
ATOM      4  C   UNL     1      55.532 -35.999  21.789  1.00  0.00     0.000 C 
BRANCH   4   5
ATOM      5  C   UNL     1      56.624 -36.764  22.555  1.00  0.00     0.006 C 
BRANCH   5   6
ATOM      6  C   UNL     1      58.009 -36.118  22.417  1.00  0.00     0.053 C 
BRANCH   6   7
ATOM      7  C   UNL     1      58.428 -35.502  23.714  1.00  0.00     0.041 C 
ATOM      8  O   UNL     1      58.690 -36.231  24.707  1.00  0.00    -0.550 OA
ATOM      9  O   UNL     1      58.578 -34.125  23.813  1.00  0.00    -0.550 OA
ENDBRANCH   6   7
ENDBRANCH   5   6
ENDBRANCH   4   5
ENDBRANCH   3   4
ENDBRANCH   2   3
ENDBRANCH   1   2
BRANCH   1  10
ATOM     10  C   UNL     1      55.161 -34.960  25.452  1.00  0.00     0.000 C 
BRANCH  10  11
ATOM     11  C   UNL     1      54.258 -34.985  26.698  1.00  0.00    -0.000 C 
BRANCH  11  12
ATOM     12  C   UNL     1      52.761 -35.050  26.348  1.00  0.00    -0.000 C 
BRANCH  12  13
ATOM     13  C   UNL     1      52.348 -36.255  25.481  1.00  0.00    -0.000 C 
BRANCH  13  14
ATOM     14  C   UNL     1      51.416 -35.921  24.301  1.00  0.00    -0.000 C 
BRANCH  14  15
ATOM     15  C   UNL     1      50.707 -34.556  24.435  1.00  0.00    -0.000 C 
BRANCH  15  16
ATOM     16  C   UNL     1      50.878 -33.678  23.187  1.00  0.00    -0.003 C 
ATOM     17  C   UNL     1      51.709 -32.436  23.498  1.00  0.00     0.004 C 
ENDBRANCH  15  16
ENDBRANCH  14  15
ENDBRANCH  13  14
ENDBRANCH  12  13
ENDBRANCH  11  12
ENDBRANCH  10  11
ENDBRANCH   1  10
TORSDOF 13
ENDMDL
MODEL 8
REMARK VINA RESULT:    -2.706      3.437      5.383
REMARK INTER + INTRA:          -6.227
REMARK INTER:                  -3.809
REMARK INTRA:                  -2.418
REMARK UNBOUND:                -1.464
REMARK SMILES CCCCCCCCCCCCCCC(=O)[O-]
REMARK SMILES IDX 9 1 10 2 11 3 12 4 13 5 14 6 15 7 16 8 17 9 8 10 7 11 6 12
REMARK SMILES IDX 5 13 4 14 3 15 2 16 1 17
REMARK H PARENT
REMARK Flexibility Score: inf
ROOT
ATOM      1  C   UNL     1      50.476 -32.956  24.741  1.00  0.00     0.000 C 
ENDROOT
BRANCH   1   2
ATOM      2  C   UNL     1      50.029 -34.426  24.829  1.00  0.00     0.000 C 
BRANCH   2   3
ATOM      3  C   UNL     1      50.799 -35.339  23.860  1.00  0.00     0.000 C 
BRANCH   3   4
ATOM      4  C   UNL     1      52.253 -35.574  24.301  1.00  0.00     0.000 C 
BRANCH   4   5
ATOM      5  C   UNL     1      53.271 -35.089  23.256  1.00  0.00     0.006 C 
BRANCH   5   6
ATOM      6  C   UNL     1      54.718 -35.431  23.634  1.00  0.00     0.053 C 
BRANCH   6   7
ATOM      7  C   UNL     1      55.458 -35.954  22.443  1.00  0.00     0.041 C 
ATOM      8  O   UNL     1      56.651 -36.342  22.558  1.00  0.00    -0.550 OA
ATOM      9  O   UNL     1      54.815 -36.058  21.216  1.00  0.00    -0.550 OA
ENDBRANCH   6   7
ENDBRANCH   5   6
ENDBRANCH   4   5
ENDBRANCH   3   4
ENDBRANCH   2   3
ENDBRANCH   1   2
BRANCH   1  10
ATOM     10  C   UNL     1      50.593 -32.463  23.290  1.00  0.00     0.000 C 
BRANCH  10  11
ATOM     11  C   UNL     1      51.808 -31.544  23.076  1.00  0.00    -0.000 C 
BRANCH  11  12
ATOM     12  C   UNL     1      52.574 -31.254  24.380  1.00  0.00    -0.000 C 
BRANCH  12  13
ATOM     13  C   UNL     1      54.040 -31.730  24.391  1.00  0.00    -0.000 C 
BRANCH  13  14
ATOM     14  C   UNL     1      54.533 -32.288  25.739  1.00  0.00    -0.000 C 
BRANCH  14  15
ATOM     15  C   UNL     1      53.459 -32.279  26.848  1.00  0.00    -0.000 C 
BRANCH  15  16
ATOM     16  C   UNL     1      53.043 -33.694  27.277  1.00  0.00    -0.003 C 
ATOM     17  C   UNL     1      54.243 -34.636  27.304  1.00  0.00     0.004 C 
ENDBRANCH  15  16
ENDBRANCH  14  15
ENDBRANCH  13  14
ENDBRANCH  12  13
ENDBRANCH  11  12
ENDBRANCH  10  11
ENDBRANCH   1  10
TORSDOF 13
ENDMDL
MODEL 9
REMARK VINA RESULT:    -2.684      3.278      6.459
REMARK INTER + INTRA:          -6.188
REMARK INTER:                  -4.247
REMARK INTRA:                  -1.941
REMARK UNBOUND:                -1.464
REMARK SMILES CCCCCCCCCCCCCCC(=O)[O-]
REMARK SMILES IDX 9 1 10 2 11 3 12 4 13 5 14 6 15 7 16 8 17 9 8 10 7 11 6 12
REMARK SMILES IDX 5 13 4 14 3 15 2 16 1 17
REMARK H PARENT
REMARK Flexibility Score: inf
ROOT
ATOM      1  C   UNL     1      54.228 -34.077  24.658  1.00  0.00     0.000 C 
ENDROOT
BRANCH   1   2
ATOM      2  C   UNL     1      54.063 -35.297  23.733  1.00  0.00     0.000 C 
BRANCH   2   3
ATOM      3  C   UNL     1      54.795 -35.127  22.391  1.00  0.00     0.000 C 
BRANCH   3   4
ATOM      4  C   UNL     1      55.625 -36.365  22.012  1.00  0.00     0.000 C 
BRANCH   4   5
ATOM      5  C   UNL     1      57.098 -36.238  22.433  1.00  0.00     0.006 C 
BRANCH   5   6
ATOM      6  C   UNL     1      57.414 -37.006  23.723  1.00  0.00     0.053 C 
BRANCH   6   7
ATOM      7  C   UNL     1      57.600 -36.056  24.864  1.00  0.00     0.041 C 
ATOM      8  O   UNL     1      57.701 -36.492  26.041  1.00  0.00    -0.550 OA
ATOM      9  O   UNL     1      57.712 -34.693  24.622  1.00  0.00    -0.550 OA
ENDBRANCH   6   7
ENDBRANCH   5   6
ENDBRANCH   4   5
ENDBRANCH   3   4
ENDBRANCH   2   3
ENDBRANCH   1   2
BRANCH   1  10
ATOM     10  C   UNL     1      53.886 -32.755  23.953  1.00  0.00     0.000 C 
BRANCH  10  11
ATOM     11  C   UNL     1      52.504 -32.212  24.358  1.00  0.00    -0.000 C 
BRANCH  11  12
ATOM     12  C   UNL     1      51.498 -32.211  23.193  1.00  0.00    -0.000 C 
BRANCH  12  13
ATOM     13  C   UNL     1      50.333 -33.209  23.341  1.00  0.00    -0.000 C 
BRANCH  13  14
ATOM     14  C   UNL     1      50.594 -34.606  22.748  1.00  0.00    -0.000 C 
BRANCH  14  15
ATOM     15  C   UNL     1      50.337 -35.761  23.738  1.00  0.00    -0.000 C 
BRANCH  15  16
ATOM     16  C   UNL     1      50.668 -35.378  25.189  1.00  0.00    -0.003 C 
ATOM     17  C   UNL     1      51.351 -36.530  25.919  1.00  0.00     0.004 C 
ENDBRANCH  15  16
ENDBRANCH  14  15
ENDBRANCH  13  14
ENDBRANCH  12  13
ENDBRANCH  11  12
ENDBRANCH  10  11
ENDBRANCH   1  10
TORSDOF 13
ENDMDL
