MODEL 1
REMARK VINA RESULT:    -3.614      0.000      0.000
REMARK INTER + INTRA:          -4.531
REMARK INTER:                  -4.459
REMARK INTRA:                  -0.073
REMARK UNBOUND:                -0.073
REMARK SMILES CCCCCC=O
REMARK SMILES IDX 4 1 3 2 2 3 1 4 5 5 6 6 7 7
REMARK H PARENT
REMARK Flexibility Score: inf
ROOT
ATOM      1  C   UNL     1      13.645  38.774 -11.703  1.00  0.00     0.008 C 
ENDROOT
BRANCH   1   2
ATOM      2  C   UNL     1      12.769  38.210 -12.832  1.00  0.00     0.000 C 
BRANCH   2   3
ATOM      3  C   UNL     1      12.779  39.097 -14.086  1.00  0.00    -0.003 C 
ATOM      4  C   UNL     1      13.943  40.089 -14.100  1.00  0.00     0.004 C 
ENDBRANCH   2   3
ENDBRANCH   1   2
BRANCH   1   5
ATOM      5  C   UNL     1      13.031  38.470 -10.331  1.00  0.00     0.072 C 
BRANCH   5   6
ATOM      6  C   UNL     1      12.979  39.705  -9.483  1.00  0.00     0.224 C 
ATOM      7  O   UNL     1      11.955  40.006  -8.888  1.00  0.00    -0.303 OA
ENDBRANCH   5   6
ENDBRANCH   1   5
TORSDOF 4
ENDMDL
MODEL 2
REMARK VINA RESULT:    -3.434      3.128      3.845
REMARK INTER + INTRA:          -4.309
REMARK INTER:                  -4.125
REMARK INTRA:                  -0.184
REMARK UNBOUND:                -0.073
REMARK SMILES CCCCCC=O
REMARK SMILES IDX 4 1 3 2 2 3 1 4 5 5 6 6 7 7
REMARK H PARENT
REMARK Flexibility Score: inf
ROOT
ATOM      1  C   UNL     1      13.773  37.193 -13.022  1.00  0.00     0.008 C 
ENDROOT
BRANCH   1   2
ATOM      2  C   UNL     1      12.815  38.241 -13.607  1.00  0.00     0.000 C 
BRANCH   2   3
ATOM      3  C   UNL     1      13.526  39.552 -13.974  1.00  0.00    -0.003 C 
ATOM      4  C   UNL     1      14.360  40.114 -12.823  1.00  0.00     0.004 C 
ENDBRANCH   2   3
ENDBRANCH   1   2
BRANCH   1   5
ATOM      5  C   UNL     1      14.754  36.693 -14.089  1.00  0.00     0.072 C 
BRANCH   5   6
ATOM      6  C   UNL     1      16.172  36.955 -13.678  1.00  0.00     0.224 C 
ATOM      7  O   UNL     1      16.426  37.363 -12.555  1.00  0.00    -0.303 OA
ENDBRANCH   5   6
ENDBRANCH   1   5
TORSDOF 4
ENDMDL
MODEL 3
REMARK VINA RESULT:    -3.390      2.980      4.402
REMARK INTER + INTRA:          -4.256
REMARK INTER:                  -4.168
REMARK INTRA:                  -0.088
REMARK UNBOUND:                -0.073
REMARK SMILES CCCCCC=O
REMARK SMILES IDX 4 1 3 2 2 3 1 4 5 5 6 6 7 7
REMARK H PARENT
REMARK Flexibility Score: inf
ROOT
ATOM      1  C   UNL     1      13.117  38.153 -13.157  1.00  0.00     0.008 C 
ENDROOT
BRANCH   1   2
ATOM      2  C   UNL     1      13.687  38.903 -11.944  1.00  0.00     0.000 C 
BRANCH   2   3
ATOM      3  C   UNL     1      13.120  38.389 -10.612  1.00  0.00    -0.003 C 
ATOM      4  C   UNL     1      13.089  39.466  -9.527  1.00  0.00     0.004 C 
ENDBRANCH   2   3
ENDBRANCH   1   2
BRANCH   1   5
ATOM      5  C   UNL     1      13.727  36.751 -13.269  1.00  0.00     0.072 C 
BRANCH   5   6
ATOM      6  C   UNL     1      14.958  36.769 -14.125  1.00  0.00     0.224 C 
ATOM      7  O   UNL     1      16.067  36.743 -13.615  1.00  0.00    -0.303 OA
ENDBRANCH   5   6
ENDBRANCH   1   5
TORSDOF 4
ENDMDL
MODEL 4
REMARK VINA RESULT:    -3.377      3.092      3.983
REMARK INTER + INTRA:          -4.239
REMARK INTER:                  -4.036
REMARK INTRA:                  -0.204
REMARK UNBOUND:                -0.073
REMARK SMILES CCCCCC=O
REMARK SMILES IDX 4 1 3 2 2 3 1 4 5 5 6 6 7 7
REMARK H PARENT
REMARK Flexibility Score: inf
ROOT
ATOM      1  C   UNL     1      14.973  37.227 -13.866  1.00  0.00     0.008 C 
ENDROOT
BRANCH   1   2
ATOM      2  C   UNL     1      13.703  36.991 -13.034  1.00  0.00     0.000 C 
BRANCH   2   3
ATOM      3  C   UNL     1      13.070  38.300 -12.539  1.00  0.00    -0.003 C 
ATOM      4  C   UNL     1      13.204  38.487 -11.028  1.00  0.00     0.004 C 
ENDBRANCH   2   3
ENDBRANCH   1   2
BRANCH   1   5
ATOM      5  C   UNL     1      16.189  37.444 -12.958  1.00  0.00     0.072 C 
BRANCH   5   6
ATOM      6  C   UNL     1      16.848  38.758 -13.250  1.00  0.00     0.224 C 
ATOM      7  O   UNL     1      16.231  39.804 -13.116  1.00  0.00    -0.303 OA
ENDBRANCH   5   6
ENDBRANCH   1   5
TORSDOF 4
ENDMDL
MODEL 5
REMARK VINA RESULT:    -3.342      2.954      3.769
REMARK INTER + INTRA:          -4.197
REMARK INTER:                  -4.000
REMARK INTRA:                  -0.197
REMARK UNBOUND:                -0.073
REMARK SMILES CCCCCC=O
REMARK SMILES IDX 4 1 3 2 2 3 1 4 5 5 6 6 7 7
REMARK H PARENT
REMARK Flexibility Score: inf
ROOT
ATOM      1  C   UNL     1      13.701  39.708 -14.078  1.00  0.00     0.008 C 
ENDROOT
BRANCH   1   2
ATOM      2  C   UNL     1      14.637  40.064 -12.913  1.00  0.00     0.000 C 
BRANCH   2   3
ATOM      3  C   UNL     1      16.107  40.166 -13.347  1.00  0.00    -0.003 C 
ATOM      4  C   UNL     1      16.871  38.855 -13.160  1.00  0.00     0.004 C 
ENDBRANCH   2   3
ENDBRANCH   1   2
BRANCH   1   5
ATOM      5  C   UNL     1      12.703  38.620 -13.665  1.00  0.00     0.072 C 
BRANCH   5   6
ATOM      6  C   UNL     1      13.369  37.575 -12.821  1.00  0.00     0.224 C 
ATOM      7  O   UNL     1      14.003  36.670 -13.342  1.00  0.00    -0.303 OA
ENDBRANCH   5   6
ENDBRANCH   1   5
TORSDOF 4
ENDMDL
MODEL 6
REMARK VINA RESULT:    -3.295      1.865      2.090
REMARK INTER + INTRA:          -4.138
REMARK INTER:                  -4.042
REMARK INTRA:                  -0.096
REMARK UNBOUND:                -0.073
REMARK SMILES CCCCCC=O
REMARK SMILES IDX 4 1 3 2 2 3 1 4 5 5 6 6 7 7
REMARK H PARENT
REMARK Flexibility Score: inf
ROOT
ATOM      1  C   UNL     1      13.936  39.079 -12.469  1.00  0.00     0.008 C 
ENDROOT
BRANCH   1   2
ATOM      2  C   UNL     1      14.063  38.331 -13.804  1.00  0.00     0.000 C 
BRANCH   2   3
ATOM      3  C   UNL     1      14.695  36.939 -13.644  1.00  0.00    -0.003 C 
ATOM      4  C   UNL     1      16.220  36.989 -13.560  1.00  0.00     0.004 C 
ENDBRANCH   2   3
ENDBRANCH   1   2
BRANCH   1   5
ATOM      5  C   UNL     1      13.178  38.234 -11.438  1.00  0.00     0.072 C 
BRANCH   5   6
ATOM      6  C   UNL     1      13.209  38.882 -10.087  1.00  0.00     0.224 C 
ATOM      7  O   UNL     1      12.170  39.141  -9.500  1.00  0.00    -0.303 OA
ENDBRANCH   5   6
ENDBRANCH   1   5
TORSDOF 4
ENDMDL
MODEL 7
REMARK VINA RESULT:    -3.287      2.285      4.102
REMARK INTER + INTRA:          -4.129
REMARK INTER:                  -4.067
REMARK INTRA:                  -0.061
REMARK UNBOUND:                -0.073
REMARK SMILES CCCCCC=O
REMARK SMILES IDX 4 1 3 2 2 3 1 4 5 5 6 6 7 7
REMARK H PARENT
REMARK Flexibility Score: inf
ROOT
ATOM      1  C   UNL     1      14.025  39.178 -12.016  1.00  0.00     0.008 C 
ENDROOT
BRANCH   1   2
ATOM      2  C   UNL     1      12.991  38.609 -11.033  1.00  0.00     0.000 C 
BRANCH   2   3
ATOM      3  C   UNL     1      13.126  39.206  -9.624  1.00  0.00    -0.003 C 
ATOM      4  C   UNL     1      11.795  39.711  -9.066  1.00  0.00     0.004 C 
ENDBRANCH   2   3
ENDBRANCH   1   2
BRANCH   1   5
ATOM      5  C   UNL     1      13.477  39.175 -13.448  1.00  0.00     0.072 C 
BRANCH   5   6
ATOM      6  C   UNL     1      12.754  37.895 -13.742  1.00  0.00     0.224 C 
ATOM      7  O   UNL     1      11.594  37.913 -14.125  1.00  0.00    -0.303 OA
ENDBRANCH   5   6
ENDBRANCH   1   5
TORSDOF 4
ENDMDL
MODEL 8
REMARK VINA RESULT:    -3.263      3.020      4.094
REMARK INTER + INTRA:          -4.098
REMARK INTER:                  -4.009
REMARK INTRA:                  -0.090
REMARK UNBOUND:                -0.073
REMARK SMILES CCCCCC=O
REMARK SMILES IDX 4 1 3 2 2 3 1 4 5 5 6 6 7 7
REMARK H PARENT
REMARK Flexibility Score: inf
ROOT
ATOM      1  C   UNL     1      14.879  40.134 -12.955  1.00  0.00     0.008 C 
ENDROOT
BRANCH   1   2
ATOM      2  C   UNL     1      13.787  39.723 -13.954  1.00  0.00     0.000 C 
BRANCH   2   3
ATOM      3  C   UNL     1      12.904  38.581 -13.428  1.00  0.00    -0.003 C 
ATOM      4  C   UNL     1      13.116  38.307 -11.940  1.00  0.00     0.004 C 
ENDBRANCH   2   3
ENDBRANCH   1   2
BRANCH   1   5
ATOM      5  C   UNL     1      16.265  39.716 -13.458  1.00  0.00     0.072 C 
BRANCH   5   6
ATOM      6  C   UNL     1      17.243  40.846 -13.337  1.00  0.00     0.224 C 
ATOM      7  O   UNL     1      17.266  41.540 -12.332  1.00  0.00    -0.303 OA
ENDBRANCH   5   6
ENDBRANCH   1   5
TORSDOF 4
ENDMDL
MODEL 9
REMARK VINA RESULT:    -2.226      2.956      4.106
REMARK INTER + INTRA:          -2.819
REMARK INTER:                  -2.596
REMARK INTRA:                  -0.223
REMARK UNBOUND:                -0.073
REMARK SMILES CCCCCC=O
REMARK SMILES IDX 4 1 3 2 2 3 1 4 5 5 6 6 7 7
REMARK H PARENT
REMARK Flexibility Score: inf
ROOT
ATOM      1  C   UNL     1      14.749  40.123 -13.332  1.00  0.00     0.008 C 
ENDROOT
BRANCH   1   2
ATOM      2  C   UNL     1      13.489  39.744 -14.125  1.00  0.00     0.000 C 
BRANCH   2   3
ATOM      3  C   UNL     1      12.784  38.503 -13.556  1.00  0.00    -0.003 C 
ATOM      4  C   UNL     1      13.119  38.255 -12.086  1.00  0.00     0.004 C 
ENDBRANCH   2   3
ENDBRANCH   1   2
BRANCH   1   5
ATOM      5  C   UNL     1      16.016  39.772 -14.119  1.00  0.00     0.072 C 
BRANCH   5   6
ATOM      6  C   UNL     1      16.874  38.810 -13.353  1.00  0.00     0.224 C 
ATOM      7  O   UNL     1      16.459  37.696 -13.073  1.00  0.00    -0.303 OA
ENDBRANCH   5   6
ENDBRANCH   1   5
TORSDOF 4
ENDMDL
