MODEL 1
REMARK VINA RESULT:    -3.580      0.000      0.000
REMARK INTER + INTRA:          -4.511
REMARK INTER:                  -4.313
REMARK INTRA:                  -0.198
REMARK UNBOUND:                -0.198
REMARK SMILES OCC(O)CO
REMARK SMILES IDX 3 1 5 2 6 3 2 5 1 6 4 8
REMARK H PARENT 6 4 1 7 4 9
REMARK Flexibility Score: inf
ROOT
ATOM      1  C   UNL     1       4.473  28.384  17.556  1.00  0.00     0.165 C 
ENDROOT
BRANCH   1   2
ATOM      2  C   UNL     1       4.832  29.850  17.294  1.00  0.00     0.190 C 
BRANCH   2   3
ATOM      3  O   UNL     1       4.318  30.652  18.323  1.00  0.00    -0.394 OA
ATOM      4  H   UNL     1       4.562  31.586  18.091  1.00  0.00     0.210 HD
ENDBRANCH   2   3
ENDBRANCH   1   2
BRANCH   1   5
ATOM      5  C   UNL     1       3.693  28.249  18.870  1.00  0.00     0.190 C 
BRANCH   5   6
ATOM      6  O   UNL     1       2.316  28.287  18.610  1.00  0.00    -0.394 OA
ATOM      7  H   UNL     1       2.204  27.976  17.674  1.00  0.00     0.210 HD
ENDBRANCH   5   6
ENDBRANCH   1   5
BRANCH   1   8
ATOM      8  O   UNL     1       3.701  27.901  16.488  1.00  0.00    -0.388 OA
ATOM      9  H   UNL     1       2.792  28.289  16.589  1.00  0.00     0.211 HD
ENDBRANCH   1   8
TORSDOF 5
ENDMDL
MODEL 2
REMARK VINA RESULT:    -3.505      0.772      2.541
REMARK INTER + INTRA:          -4.421
REMARK INTER:                  -4.237
REMARK INTRA:                  -0.183
REMARK UNBOUND:                -0.198
REMARK SMILES OCC(O)CO
REMARK SMILES IDX 3 1 5 2 6 3 2 5 1 6 4 8
REMARK H PARENT 6 4 1 7 4 9
REMARK Flexibility Score: inf
ROOT
ATOM      1  C   UNL     1       4.508  28.870  18.474  1.00  0.00     0.165 C 
ENDROOT
BRANCH   1   2
ATOM      2  C   UNL     1       3.380  28.248  19.302  1.00  0.00     0.190 C 
BRANCH   2   3
ATOM      3  O   UNL     1       2.191  28.255  18.559  1.00  0.00    -0.394 OA
ATOM      4  H   UNL     1       1.519  28.724  19.120  1.00  0.00     0.210 HD
ENDBRANCH   2   3
ENDBRANCH   1   2
BRANCH   1   5
ATOM      5  C   UNL     1       4.857  27.971  17.280  1.00  0.00     0.190 C 
BRANCH   5   6
ATOM      6  O   UNL     1       3.775  27.920  16.392  1.00  0.00    -0.394 OA
ATOM      7  H   UNL     1       3.044  28.439  16.819  1.00  0.00     0.210 HD
ENDBRANCH   5   6
ENDBRANCH   1   5
BRANCH   1   8
ATOM      8  O   UNL     1       4.101  30.134  18.018  1.00  0.00    -0.388 OA
ATOM      9  H   UNL     1       4.801  30.781  18.296  1.00  0.00     0.211 HD
ENDBRANCH   1   8
TORSDOF 5
ENDMDL
MODEL 3
REMARK VINA RESULT:    -3.452      1.285      2.661
REMARK INTER + INTRA:          -4.357
REMARK INTER:                  -4.148
REMARK INTRA:                  -0.209
REMARK UNBOUND:                -0.198
REMARK SMILES OCC(O)CO
REMARK SMILES IDX 3 1 5 2 6 3 2 5 1 6 4 8
REMARK H PARENT 6 4 1 7 4 9
REMARK Flexibility Score: inf
ROOT
ATOM      1  C   UNL     1       4.746  28.337  18.098  1.00  0.00     0.165 C 
ENDROOT
BRANCH   1   2
ATOM      2  C   UNL     1       3.627  28.236  19.139  1.00  0.00     0.190 C 
BRANCH   2   3
ATOM      3  O   UNL     1       2.381  28.295  18.500  1.00  0.00    -0.394 OA
ATOM      4  H   UNL     1       1.902  29.065  18.902  1.00  0.00     0.210 HD
ENDBRANCH   2   3
ENDBRANCH   1   2
BRANCH   1   5
ATOM      5  C   UNL     1       4.743  29.722  17.439  1.00  0.00     0.190 C 
BRANCH   5   6
ATOM      6  O   UNL     1       4.303  30.684  18.357  1.00  0.00    -0.394 OA
ATOM      7  H   UNL     1       4.836  30.541  19.183  1.00  0.00     0.210 HD
ENDBRANCH   5   6
ENDBRANCH   1   5
BRANCH   1   8
ATOM      8  O   UNL     1       5.981  28.107  18.726  1.00  0.00    -0.388 OA
ATOM      9  H   UNL     1       6.651  28.671  18.259  1.00  0.00     0.211 HD
ENDBRANCH   1   8
TORSDOF 5
ENDMDL
MODEL 4
REMARK VINA RESULT:    -3.310      1.363      2.021
REMARK INTER + INTRA:          -4.186
REMARK INTER:                  -4.006
REMARK INTRA:                  -0.181
REMARK UNBOUND:                -0.198
REMARK SMILES OCC(O)CO
REMARK SMILES IDX 3 1 5 2 6 3 2 5 1 6 4 8
REMARK H PARENT 6 4 1 7 4 9
REMARK Flexibility Score: inf
ROOT
ATOM      1  C   UNL     1       4.685  28.766  18.583  1.00  0.00     0.165 C 
ENDROOT
BRANCH   1   2
ATOM      2  C   UNL     1       4.460  28.920  17.076  1.00  0.00     0.190 C 
BRANCH   2   3
ATOM      3  O   UNL     1       3.825  27.775  16.575  1.00  0.00    -0.394 OA
ATOM      4  H   UNL     1       4.236  27.597  15.689  1.00  0.00     0.210 HD
ENDBRANCH   2   3
ENDBRANCH   1   2
BRANCH   1   5
ATOM      5  C   UNL     1       3.566  27.925  19.210  1.00  0.00     0.190 C 
BRANCH   5   6
ATOM      6  O   UNL     1       2.321  28.367  18.742  1.00  0.00    -0.394 OA
ATOM      7  H   UNL     1       2.357  29.359  18.761  1.00  0.00     0.210 HD
ENDBRANCH   5   6
ENDBRANCH   1   5
BRANCH   1   8
ATOM      8  O   UNL     1       5.928  28.149  18.801  1.00  0.00    -0.388 OA
ATOM      9  H   UNL     1       6.501  28.369  18.022  1.00  0.00     0.211 HD
ENDBRANCH   1   8
TORSDOF 5
ENDMDL
MODEL 5
REMARK VINA RESULT:    -3.199      0.843      2.423
REMARK INTER + INTRA:          -4.052
REMARK INTER:                  -3.878
REMARK INTRA:                  -0.174
REMARK UNBOUND:                -0.198
REMARK SMILES OCC(O)CO
REMARK SMILES IDX 3 1 5 2 6 3 2 5 1 6 4 8
REMARK H PARENT 6 4 1 7 4 9
REMARK Flexibility Score: inf
ROOT
ATOM      1  C   UNL     1       3.771  28.319  18.594  1.00  0.00     0.165 C 
ENDROOT
BRANCH   1   2
ATOM      2  C   UNL     1       4.551  27.953  17.327  1.00  0.00     0.190 C 
BRANCH   2   3
ATOM      3  O   UNL     1       3.683  27.940  16.227  1.00  0.00    -0.394 OA
ATOM      4  H   UNL     1       4.057  27.279  15.589  1.00  0.00     0.210 HD
ENDBRANCH   2   3
ENDBRANCH   1   2
BRANCH   1   5
ATOM      5  C   UNL     1       4.095  29.754  19.028  1.00  0.00     0.190 C 
BRANCH   5   6
ATOM      6  O   UNL     1       4.490  30.509  17.916  1.00  0.00    -0.394 OA
ATOM      7  H   UNL     1       5.092  29.923  17.386  1.00  0.00     0.210 HD
ENDBRANCH   5   6
ENDBRANCH   1   5
BRANCH   1   8
ATOM      8  O   UNL     1       2.396  28.194  18.339  1.00  0.00    -0.388 OA
ATOM      9  H   UNL     1       1.994  27.753  19.132  1.00  0.00     0.211 HD
ENDBRANCH   1   8
TORSDOF 5
ENDMDL
MODEL 6
REMARK VINA RESULT:    -3.177     14.311     15.609
REMARK INTER + INTRA:          -4.026
REMARK INTER:                  -3.997
REMARK INTRA:                  -0.028
REMARK UNBOUND:                -0.198
REMARK SMILES OCC(O)CO
REMARK SMILES IDX 3 1 5 2 6 3 2 5 1 6 4 8
REMARK H PARENT 6 4 1 7 4 9
REMARK Flexibility Score: inf
ROOT
ATOM      1  C   UNL     1       2.489  23.128  32.240  1.00  0.00     0.165 C 
ENDROOT
BRANCH   1   2
ATOM      2  C   UNL     1       2.557  21.695  32.778  1.00  0.00     0.190 C 
BRANCH   2   3
ATOM      3  O   UNL     1       2.418  20.787  31.719  1.00  0.00    -0.394 OA
ATOM      4  H   UNL     1       3.037  21.098  31.007  1.00  0.00     0.210 HD
ENDBRANCH   2   3
ENDBRANCH   1   2
BRANCH   1   5
ATOM      5  C   UNL     1       2.173  23.124  30.739  1.00  0.00     0.190 C 
BRANCH   5   6
ATOM      6  O   UNL     1       1.069  23.948  30.484  1.00  0.00    -0.394 OA
ATOM      7  H   UNL     1       0.279  23.472  30.852  1.00  0.00     0.210 HD
ENDBRANCH   5   6
ENDBRANCH   1   5
BRANCH   1   8
ATOM      8  O   UNL     1       1.495  23.833  32.937  1.00  0.00    -0.388 OA
ATOM      9  H   UNL     1       0.921  24.273  32.257  1.00  0.00     0.211 HD
ENDBRANCH   1   8
TORSDOF 5
ENDMDL
MODEL 7
REMARK VINA RESULT:    -3.174     14.042     15.177
REMARK INTER + INTRA:          -4.021
REMARK INTER:                  -3.998
REMARK INTRA:                  -0.023
REMARK UNBOUND:                -0.198
REMARK SMILES OCC(O)CO
REMARK SMILES IDX 3 1 5 2 6 3 2 5 1 6 4 8
REMARK H PARENT 6 4 1 7 4 9
REMARK Flexibility Score: inf
ROOT
ATOM      1  C   UNL     1       2.694  23.099  31.906  1.00  0.00     0.165 C 
ENDROOT
BRANCH   1   2
ATOM      2  C   UNL     1       2.151  23.022  30.476  1.00  0.00     0.190 C 
BRANCH   2   3
ATOM      3  O   UNL     1       1.088  23.924  30.327  1.00  0.00    -0.394 OA
ATOM      4  H   UNL     1       1.355  24.546  29.601  1.00  0.00     0.210 HD
ENDBRANCH   2   3
ENDBRANCH   1   2
BRANCH   1   5
ATOM      5  C   UNL     1       2.503  21.757  32.626  1.00  0.00     0.190 C 
BRANCH   5   6
ATOM      6  O   UNL     1       2.459  20.717  31.688  1.00  0.00    -0.394 OA
ATOM      7  H   UNL     1       1.962  21.074  30.906  1.00  0.00     0.210 HD
ENDBRANCH   5   6
ENDBRANCH   1   5
BRANCH   1   8
ATOM      8  O   UNL     1       4.058  23.429  31.864  1.00  0.00    -0.388 OA
ATOM      9  H   UNL     1       4.127  24.315  31.421  1.00  0.00     0.211 HD
ENDBRANCH   1   8
TORSDOF 5
ENDMDL
MODEL 8
REMARK VINA RESULT:    -3.082     14.410     15.582
REMARK INTER + INTRA:          -3.911
REMARK INTER:                  -3.687
REMARK INTRA:                  -0.224
REMARK UNBOUND:                -0.198
REMARK SMILES OCC(O)CO
REMARK SMILES IDX 3 1 5 2 6 3 2 5 1 6 4 8
REMARK H PARENT 6 4 1 7 4 9
REMARK Flexibility Score: inf
ROOT
ATOM      1  C   UNL     1       2.490  22.926  32.753  1.00  0.00     0.165 C 
ENDROOT
BRANCH   1   2
ATOM      2  C   UNL     1       2.386  22.963  31.226  1.00  0.00     0.190 C 
BRANCH   2   3
ATOM      3  O   UNL     1       2.226  24.287  30.796  1.00  0.00    -0.394 OA
ATOM      4  H   UNL     1       1.567  24.258  30.054  1.00  0.00     0.210 HD
ENDBRANCH   2   3
ENDBRANCH   1   2
BRANCH   1   5
ATOM      5  C   UNL     1       3.899  23.333  33.205  1.00  0.00     0.190 C 
BRANCH   5   6
ATOM      6  O   UNL     1       4.725  23.503  32.087  1.00  0.00    -0.394 OA
ATOM      7  H   UNL     1       5.289  24.297  32.279  1.00  0.00     0.210 HD
ENDBRANCH   5   6
ENDBRANCH   1   5
BRANCH   1   8
ATOM      8  O   UNL     1       1.540  23.804  33.300  1.00  0.00    -0.388 OA
ATOM      9  H   UNL     1       1.477  24.581  32.686  1.00  0.00     0.211 HD
ENDBRANCH   1   8
TORSDOF 5
ENDMDL
MODEL 9
REMARK VINA RESULT:    -2.959     15.132     16.139
REMARK INTER + INTRA:          -3.764
REMARK INTER:                  -3.540
REMARK INTRA:                  -0.224
REMARK UNBOUND:                -0.198
REMARK SMILES OCC(O)CO
REMARK SMILES IDX 3 1 5 2 6 3 2 5 1 6 4 8
REMARK H PARENT 6 4 1 7 4 9
REMARK Flexibility Score: inf
ROOT
ATOM      1  C   UNL     1       2.487  21.794  32.552  1.00  0.00     0.165 C 
ENDROOT
BRANCH   1   2
ATOM      2  C   UNL     1       3.674  21.861  33.519  1.00  0.00     0.190 C 
BRANCH   2   3
ATOM      3  O   UNL     1       4.739  22.539  32.910  1.00  0.00    -0.394 OA
ATOM      4  H   UNL     1       4.374  23.411  32.609  1.00  0.00     0.210 HD
ENDBRANCH   2   3
ENDBRANCH   1   2
BRANCH   1   5
ATOM      5  C   UNL     1       2.565  22.932  31.526  1.00  0.00     0.190 C 
BRANCH   5   6
ATOM      6  O   UNL     1       2.390  24.164  32.170  1.00  0.00    -0.394 OA
ATOM      7  H   UNL     1       3.298  24.472  32.428  1.00  0.00     0.210 HD
ENDBRANCH   5   6
ENDBRANCH   1   5
BRANCH   1   8
ATOM      8  O   UNL     1       2.499  20.554  31.894  1.00  0.00    -0.388 OA
ATOM      9  H   UNL     1       1.929  20.649  31.087  1.00  0.00     0.211 HD
ENDBRANCH   1   8
TORSDOF 5
ENDMDL
