MODEL 1
REMARK VINA RESULT:    -5.140      0.000      0.000
REMARK INTER + INTRA:          -6.758
REMARK INTER:                  -6.492
REMARK INTRA:                  -0.265
REMARK UNBOUND:                -0.265
REMARK SMILES CC(C)=CCCC(C)=CCO
REMARK SMILES IDX 7 1 9 2 8 3 6 4 5 5 4 6 1 7 2 8 3 9 10 10 11 11
REMARK H PARENT 11 12
REMARK Flexibility Score: inf
ROOT
ATOM      1  C   UNL     1     -23.747  -1.111  51.193  1.00  0.00    -0.075 C 
ATOM      2  C   UNL     1     -24.395  -2.296  51.151  1.00  0.00    -0.000 C 
ATOM      3  C   UNL     1     -23.883  -0.181  52.375  1.00  0.00     0.039 C 
ENDROOT
BRANCH   1   4
ATOM      4  C   UNL     1     -22.890  -0.687  50.019  1.00  0.00     0.034 C 
BRANCH   4   5
ATOM      5  C   UNL     1     -22.938  -1.713  48.879  1.00  0.00     0.032 C 
BRANCH   5   6
ATOM      6  C   UNL     1     -21.604  -1.820  48.177  1.00  0.00    -0.028 C 
ATOM      7  C   UNL     1     -20.036  -2.287  46.344  1.00  0.00     0.039 C 
ATOM      8  C   UNL     1     -21.439  -2.160  46.880  1.00  0.00    -0.080 C 
ATOM      9  C   UNL     1     -22.610  -2.420  45.963  1.00  0.00     0.039 C 
ENDBRANCH   5   6
ENDBRANCH   4   5
ENDBRANCH   1   4
BRANCH   2  10
ATOM     10  C   UNL     1     -25.296  -2.782  52.253  1.00  0.00     0.183 C 
BRANCH  10  11
ATOM     11  O   UNL     1     -24.628  -3.751  53.012  1.00  0.00    -0.392 OA
ATOM     12  H   UNL     1     -25.234  -4.537  53.048  1.00  0.00     0.210 HD
ENDBRANCH  10  11
ENDBRANCH   2  10
TORSDOF 5
ENDMDL
MODEL 2
REMARK VINA RESULT:    -4.952     14.100     15.250
REMARK INTER + INTRA:          -6.520
REMARK INTER:                  -6.263
REMARK INTRA:                  -0.257
REMARK UNBOUND:                -0.265
REMARK SMILES CC(C)=CCCC(C)=CCO
REMARK SMILES IDX 7 1 9 2 8 3 6 4 5 5 4 6 1 7 2 8 3 9 10 10 11 11
REMARK H PARENT 11 12
REMARK Flexibility Score: inf
ROOT
ATOM      1  C   UNL     1     -25.894 -16.047  46.444  1.00  0.00    -0.075 C 
ATOM      2  C   UNL     1     -26.116 -14.716  46.527  1.00  0.00    -0.000 C 
ATOM      3  C   UNL     1     -26.294 -16.837  45.221  1.00  0.00     0.039 C 
ENDROOT
BRANCH   1   4
ATOM      4  C   UNL     1     -25.258 -16.772  47.611  1.00  0.00     0.034 C 
BRANCH   4   5
ATOM      5  C   UNL     1     -23.831 -16.276  47.880  1.00  0.00     0.032 C 
BRANCH   5   6
ATOM      6  C   UNL     1     -23.072 -17.235  48.767  1.00  0.00    -0.028 C 
ATOM      7  C   UNL     1     -22.188 -18.177  50.857  1.00  0.00     0.039 C 
ATOM      8  C   UNL     1     -23.048 -17.185  50.117  1.00  0.00    -0.080 C 
ATOM      9  C   UNL     1     -23.847 -16.169  50.897  1.00  0.00     0.039 C 
ENDBRANCH   5   6
ENDBRANCH   4   5
ENDBRANCH   1   4
BRANCH   2  10
ATOM     10  C   UNL     1     -26.774 -13.921  45.435  1.00  0.00     0.183 C 
BRANCH  10  11
ATOM     11  O   UNL     1     -25.798 -13.439  44.553  1.00  0.00    -0.392 OA
ATOM     12  H   UNL     1     -25.647 -12.489  44.803  1.00  0.00     0.210 HD
ENDBRANCH  10  11
ENDBRANCH   2  10
TORSDOF 5
ENDMDL
MODEL 3
REMARK VINA RESULT:    -4.897      2.129      2.938
REMARK INTER + INTRA:          -6.451
REMARK INTER:                  -5.858
REMARK INTRA:                  -0.592
REMARK UNBOUND:                -0.265
REMARK SMILES CC(C)=CCCC(C)=CCO
REMARK SMILES IDX 7 1 9 2 8 3 6 4 5 5 4 6 1 7 2 8 3 9 10 10 11 11
REMARK H PARENT 11 12
REMARK Flexibility Score: inf
ROOT
ATOM      1  C   UNL     1     -23.683  -1.181  50.838  1.00  0.00    -0.075 C 
ATOM      2  C   UNL     1     -24.483  -2.259  50.999  1.00  0.00    -0.000 C 
ATOM      3  C   UNL     1     -23.408  -0.228  51.975  1.00  0.00     0.039 C 
ENDROOT
BRANCH   1   4
ATOM      4  C   UNL     1     -23.070  -0.903  49.482  1.00  0.00     0.034 C 
BRANCH   4   5
ATOM      5  C   UNL     1     -21.707  -1.588  49.321  1.00  0.00     0.032 C 
BRANCH   5   6
ATOM      6  C   UNL     1     -20.572  -0.612  49.526  1.00  0.00    -0.028 C 
ATOM      7  C   UNL     1     -18.678   0.458  50.669  1.00  0.00     0.039 C 
ATOM      8  C   UNL     1     -19.720  -0.627  50.575  1.00  0.00    -0.080 C 
ATOM      9  C   UNL     1     -19.785  -1.688  51.647  1.00  0.00     0.039 C 
ENDBRANCH   5   6
ENDBRANCH   4   5
ENDBRANCH   1   4
BRANCH   2  10
ATOM     10  C   UNL     1     -25.162  -2.593  52.298  1.00  0.00     0.183 C 
BRANCH  10  11
ATOM     11  O   UNL     1     -24.500  -3.664  52.911  1.00  0.00    -0.392 OA
ATOM     12  H   UNL     1     -24.996  -4.483  52.646  1.00  0.00     0.210 HD
ENDBRANCH  10  11
ENDBRANCH   2  10
TORSDOF 5
ENDMDL
MODEL 4
REMARK VINA RESULT:    -4.885     14.336     15.224
REMARK INTER + INTRA:          -6.435
REMARK INTER:                  -5.889
REMARK INTRA:                  -0.546
REMARK UNBOUND:                -0.265
REMARK SMILES CC(C)=CCCC(C)=CCO
REMARK SMILES IDX 7 1 9 2 8 3 6 4 5 5 4 6 1 7 2 8 3 9 10 10 11 11
REMARK H PARENT 11 12
REMARK Flexibility Score: inf
ROOT
ATOM      1  C   UNL     1     -25.805 -15.987  46.706  1.00  0.00    -0.075 C 
ATOM      2  C   UNL     1     -26.136 -14.677  46.658  1.00  0.00    -0.000 C 
ATOM      3  C   UNL     1     -26.010 -16.896  45.518  1.00  0.00     0.039 C 
ENDROOT
BRANCH   1   4
ATOM      4  C   UNL     1     -25.246 -16.569  47.987  1.00  0.00     0.034 C 
BRANCH   4   5
ATOM      5  C   UNL     1     -23.806 -16.103  48.243  1.00  0.00     0.032 C 
BRANCH   5   6
ATOM      6  C   UNL     1     -22.856 -17.274  48.337  1.00  0.00    -0.028 C 
ATOM      7  C   UNL     1     -21.297 -19.000  47.545  1.00  0.00     0.039 C 
ATOM      8  C   UNL     1     -22.155 -17.785  47.301  1.00  0.00    -0.080 C 
ATOM      9  C   UNL     1     -22.210 -17.181  45.918  1.00  0.00     0.039 C 
ENDBRANCH   5   6
ENDBRANCH   4   5
ENDBRANCH   1   4
BRANCH   2  10
ATOM     10  C   UNL     1     -26.731 -14.023  45.442  1.00  0.00     0.183 C 
BRANCH  10  11
ATOM     11  O   UNL     1     -25.708 -13.478  44.655  1.00  0.00    -0.392 OA
ATOM     12  H   UNL     1     -24.879 -13.963  44.907  1.00  0.00     0.210 HD
ENDBRANCH  10  11
ENDBRANCH   2  10
TORSDOF 5
ENDMDL
MODEL 5
REMARK VINA RESULT:    -4.872      1.403      1.945
REMARK INTER + INTRA:          -6.418
REMARK INTER:                  -6.005
REMARK INTRA:                  -0.413
REMARK UNBOUND:                -0.265
REMARK SMILES CC(C)=CCCC(C)=CCO
REMARK SMILES IDX 7 1 9 2 8 3 6 4 5 5 4 6 1 7 2 8 3 9 10 10 11 11
REMARK H PARENT 11 12
REMARK Flexibility Score: inf
ROOT
ATOM      1  C   UNL     1     -23.538  -1.621  50.462  1.00  0.00    -0.075 C 
ATOM      2  C   UNL     1     -24.466  -2.481  50.938  1.00  0.00    -0.000 C 
ATOM      3  C   UNL     1     -23.024  -0.474  51.298  1.00  0.00     0.039 C 
ENDROOT
BRANCH   1   4
ATOM      4  C   UNL     1     -23.021  -1.789  49.049  1.00  0.00     0.034 C 
BRANCH   4   5
ATOM      5  C   UNL     1     -22.686  -0.438  48.401  1.00  0.00     0.032 C 
BRANCH   5   6
ATOM      6  C   UNL     1     -21.581  -0.576  47.380  1.00  0.00    -0.028 C 
ATOM      7  C   UNL     1     -19.294  -0.481  46.484  1.00  0.00     0.039 C 
ATOM      8  C   UNL     1     -20.269  -0.368  47.629  1.00  0.00    -0.080 C 
ATOM      9  C   UNL     1     -19.757  -0.022  49.007  1.00  0.00     0.039 C 
ENDBRANCH   5   6
ENDBRANCH   4   5
ENDBRANCH   1   4
BRANCH   2  10
ATOM     10  C   UNL     1     -25.062  -2.370  52.313  1.00  0.00     0.183 C 
BRANCH  10  11
ATOM     11  O   UNL     1     -24.779  -3.533  53.042  1.00  0.00    -0.392 OA
ATOM     12  H   UNL     1     -24.037  -3.297  53.659  1.00  0.00     0.210 HD
ENDBRANCH  10  11
ENDBRANCH   2  10
TORSDOF 5
ENDMDL
MODEL 6
REMARK VINA RESULT:    -4.870      6.373      8.886
REMARK INTER + INTRA:          -6.417
REMARK INTER:                  -5.845
REMARK INTRA:                  -0.571
REMARK UNBOUND:                -0.265
REMARK SMILES CC(C)=CCCC(C)=CCO
REMARK SMILES IDX 7 1 9 2 8 3 6 4 5 5 4 6 1 7 2 8 3 9 10 10 11 11
REMARK H PARENT 11 12
REMARK Flexibility Score: inf
ROOT
ATOM      1  C   UNL     1     -14.732  -2.468  46.774  1.00  0.00    -0.075 C 
ATOM      2  C   UNL     1     -14.324  -3.751  46.647  1.00  0.00    -0.000 C 
ATOM      3  C   UNL     1     -14.585  -1.479  45.643  1.00  0.00     0.039 C 
ENDROOT
BRANCH   1   4
ATOM      4  C   UNL     1     -15.322  -1.999  48.088  1.00  0.00     0.034 C 
BRANCH   4   5
ATOM      5  C   UNL     1     -16.505  -1.046  47.872  1.00  0.00     0.032 C 
BRANCH   5   6
ATOM      6  C   UNL     1     -17.760  -1.800  47.499  1.00  0.00    -0.028 C 
ATOM      7  C   UNL     1     -19.794  -2.331  46.228  1.00  0.00     0.039 C 
ATOM      8  C   UNL     1     -18.535  -1.527  46.426  1.00  0.00    -0.080 C 
ATOM      9  C   UNL     1     -18.182  -0.445  45.434  1.00  0.00     0.039 C 
ENDBRANCH   5   6
ENDBRANCH   4   5
ENDBRANCH   1   4
BRANCH   2  10
ATOM     10  C   UNL     1     -13.695  -4.294  45.395  1.00  0.00     0.183 C 
BRANCH  10  11
ATOM     11  O   UNL     1     -14.677  -4.898  44.600  1.00  0.00    -0.392 OA
ATOM     12  H   UNL     1     -14.210  -5.228  43.788  1.00  0.00     0.210 HD
ENDBRANCH  10  11
ENDBRANCH   2  10
TORSDOF 5
ENDMDL
MODEL 7
REMARK VINA RESULT:    -4.844     15.643     16.607
REMARK INTER + INTRA:          -6.383
REMARK INTER:                  -5.836
REMARK INTRA:                  -0.547
REMARK UNBOUND:                -0.265
REMARK SMILES CC(C)=CCCC(C)=CCO
REMARK SMILES IDX 7 1 9 2 8 3 6 4 5 5 4 6 1 7 2 8 3 9 10 10 11 11
REMARK H PARENT 11 12
REMARK Flexibility Score: inf
ROOT
ATOM      1  C   UNL     1     -16.622 -17.133  50.826  1.00  0.00    -0.075 C 
ATOM      2  C   UNL     1     -15.934 -15.971  50.906  1.00  0.00    -0.000 C 
ATOM      3  C   UNL     1     -16.693 -18.088  51.993  1.00  0.00     0.039 C 
ENDROOT
BRANCH   1   4
ATOM      4  C   UNL     1     -17.313 -17.503  49.531  1.00  0.00     0.034 C 
BRANCH   4   5
ATOM      5  C   UNL     1     -18.612 -16.711  49.332  1.00  0.00     0.032 C 
BRANCH   5   6
ATOM      6  C   UNL     1     -19.806 -17.630  49.221  1.00  0.00    -0.028 C 
ATOM      7  C   UNL     1     -21.705 -18.986  49.990  1.00  0.00     0.039 C 
ATOM      8  C   UNL     1     -20.588 -18.010  50.256  1.00  0.00    -0.080 C 
ATOM      9  C   UNL     1     -20.373 -17.492  51.657  1.00  0.00     0.039 C 
ENDBRANCH   5   6
ENDBRANCH   4   5
ENDBRANCH   1   4
BRANCH   2  10
ATOM     10  C   UNL     1     -15.188 -15.540  52.138  1.00  0.00     0.183 C 
BRANCH  10  11
ATOM     11  O   UNL     1     -16.023 -14.750  52.939  1.00  0.00    -0.392 OA
ATOM     12  H   UNL     1     -16.019 -13.844  52.531  1.00  0.00     0.210 HD
ENDBRANCH  10  11
ENDBRANCH   2  10
TORSDOF 5
ENDMDL
MODEL 8
REMARK VINA RESULT:    -4.838      6.563      9.379
REMARK INTER + INTRA:          -6.376
REMARK INTER:                  -6.125
REMARK INTRA:                  -0.251
REMARK UNBOUND:                -0.265
REMARK SMILES CC(C)=CCCC(C)=CCO
REMARK SMILES IDX 7 1 9 2 8 3 6 4 5 5 4 6 1 7 2 8 3 9 10 10 11 11
REMARK H PARENT 11 12
REMARK Flexibility Score: inf
ROOT
ATOM      1  C   UNL     1     -14.621  -2.379  46.575  1.00  0.00    -0.075 C 
ATOM      2  C   UNL     1     -14.291  -3.690  46.569  1.00  0.00    -0.000 C 
ATOM      3  C   UNL     1     -14.391  -1.503  45.368  1.00  0.00     0.039 C 
ENDROOT
BRANCH   1   4
ATOM      4  C   UNL     1     -15.208  -1.764  47.828  1.00  0.00     0.034 C 
BRANCH   4   5
ATOM      5  C   UNL     1     -16.676  -2.165  48.026  1.00  0.00     0.032 C 
BRANCH   5   6
ATOM      6  C   UNL     1     -17.413  -1.156  48.876  1.00  0.00    -0.028 C 
ATOM      7  C   UNL     1     -18.334  -0.153  50.921  1.00  0.00     0.039 C 
ATOM      8  C   UNL     1     -17.505  -1.201  50.224  1.00  0.00    -0.080 C 
ATOM      9  C   UNL     1     -16.812  -2.264  51.041  1.00  0.00     0.039 C 
ENDBRANCH   5   6
ENDBRANCH   4   5
ENDBRANCH   1   4
BRANCH   2  10
ATOM     10  C   UNL     1     -13.671  -4.377  45.385  1.00  0.00     0.183 C 
BRANCH  10  11
ATOM     11  O   UNL     1     -14.679  -4.913  44.573  1.00  0.00    -0.392 OA
ATOM     12  H   UNL     1     -15.449  -4.290  44.642  1.00  0.00     0.210 HD
ENDBRANCH  10  11
ENDBRANCH   2  10
TORSDOF 5
ENDMDL
MODEL 9
REMARK VINA RESULT:    -4.733      7.128      9.077
REMARK INTER + INTRA:          -6.244
REMARK INTER:                  -5.801
REMARK INTRA:                  -0.442
REMARK UNBOUND:                -0.265
REMARK SMILES CC(C)=CCCC(C)=CCO
REMARK SMILES IDX 7 1 9 2 8 3 6 4 5 5 4 6 1 7 2 8 3 9 10 10 11 11
REMARK H PARENT 11 12
REMARK Flexibility Score: inf
ROOT
ATOM      1  C   UNL     1     -17.071  -0.737  46.628  1.00  0.00    -0.075 C 
ATOM      2  C   UNL     1     -16.325  -0.477  45.531  1.00  0.00    -0.000 C 
ATOM      3  C   UNL     1     -18.375  -0.019  46.881  1.00  0.00     0.039 C 
ENDROOT
BRANCH   1   4
ATOM      4  C   UNL     1     -16.579  -1.745  47.644  1.00  0.00     0.034 C 
BRANCH   4   5
ATOM      5  C   UNL     1     -15.053  -1.897  47.603  1.00  0.00     0.032 C 
BRANCH   5   6
ATOM      6  C   UNL     1     -14.648  -3.328  47.333  1.00  0.00    -0.028 C 
ATOM      7  C   UNL     1     -13.744  -5.229  46.066  1.00  0.00     0.039 C 
ATOM      8  C   UNL     1     -14.022  -3.755  46.214  1.00  0.00    -0.080 C 
ATOM      9  C   UNL     1     -13.602  -2.807  45.117  1.00  0.00     0.039 C 
ENDBRANCH   5   6
ENDBRANCH   4   5
ENDBRANCH   1   4
BRANCH   2  10
ATOM     10  C   UNL     1     -16.716   0.533  44.489  1.00  0.00     0.183 C 
BRANCH  10  11
ATOM     11  O   UNL     1     -15.980   0.309  43.319  1.00  0.00    -0.392 OA
ATOM     12  H   UNL     1     -15.352  -0.432  43.527  1.00  0.00     0.210 HD
ENDBRANCH  10  11
ENDBRANCH   2  10
TORSDOF 5
ENDMDL
