MODEL 1
REMARK VINA RESULT:    -5.820      0.000      0.000
REMARK INTER + INTRA:          -9.982
REMARK INTER:                  -7.861
REMARK INTRA:                  -2.121
REMARK UNBOUND:                -2.121
REMARK SMILES CC[C@@H](CC[C@H](C)[C@H]1CC[C@@H]2[C@H]3CC(=O)C4=CC(=O)CC[C@]4(C)[C@H]3CC[C@]21C)C(C)C
REMARK SMILES IDX 4 1 3 2 2 3 1 4 29 5 30 6 31 7 5 8 6 9 7 10 8 11 9 12 27 13
REMARK SMILES IDX 10 14 11 15 26 16 28 17 12 18 25 19 24 20 13 21 22 22 14 23
REMARK SMILES IDX 16 24 21 25 23 26 15 27 17 28 20 29 18 30 19 31
REMARK H PARENT
REMARK Flexibility Score: inf
ROOT
ATOM      1  C   UNL     1      31.107  61.851  97.999  1.00  0.00     0.004 C 
ENDROOT
BRANCH   1   2
ATOM      2  C   UNL     1      29.565  61.674  97.878  1.00  0.00    -0.009 C 
BRANCH   2   3
ATOM      3  C   UNL     1      29.124  60.212  97.582  1.00  0.00     0.000 C 
ATOM      4  C   UNL     1      30.193  59.141  97.801  1.00  0.00     0.004 C 
ENDBRANCH   2   3
BRANCH   2   5
ATOM      5  C   UNL     1      28.895  62.717  96.917  1.00  0.00    -0.014 C 
ATOM      6  C   UNL     1      29.752  63.100  95.693  1.00  0.00     0.007 C 
ATOM      7  C   UNL     1      28.504  63.994  97.679  1.00  0.00     0.007 C 
ENDBRANCH   2   5
ENDBRANCH   1   2
BRANCH   1   8
ATOM      8  C   UNL     1      31.573  62.723  99.186  1.00  0.00     0.004 C 
BRANCH   8   9
ATOM      9  C   UNL     1      30.797  62.437 100.511  1.00  0.00    -0.011 C 
ATOM     10  C   UNL     1      30.766  63.712 101.382  1.00  0.00     0.008 C 
BRANCH   9  11
ATOM     11  C   UNL     1      31.350  61.142 101.214  1.00  0.00    -0.002 C 
ATOM     12  C   UNL     1      32.254  61.412 102.447  1.00  0.00     0.005 C 
ATOM     13  C   UNL     1      30.321  60.067 101.700  1.00  0.00    -0.026 C 
ATOM     14  C   UNL     1      31.626  60.680 103.643  1.00  0.00     0.005 C 
ATOM     15  C   UNL     1      30.204  60.372 103.196  1.00  0.00    -0.001 C 
ATOM     16  C   UNL     1      28.898  60.116 101.100  1.00  0.00     0.007 C 
ATOM     17  C   UNL     1      30.955  58.663 101.414  1.00  0.00     0.012 C 
ATOM     18  C   UNL     1      29.396  59.318 103.990  1.00  0.00     0.004 C 
ATOM     19  C   UNL     1      27.960  59.098 101.783  1.00  0.00     0.005 C 
ATOM     20  C   UNL     1      27.960  59.096 103.357  1.00  0.00     0.003 C 
ATOM     21  C   UNL     1      29.378  59.681 105.501  1.00  0.00     0.085 C 
ATOM     22  C   UNL     1      26.781  59.883 104.068  1.00  0.00    -0.000 C 
ATOM     23  C   UNL     1      28.128  59.256 106.195  1.00  0.00     0.159 C 
ATOM     24  C   UNL     1      26.814  59.503 105.557  1.00  0.00     0.005 C 
ATOM     25  C   UNL     1      25.402  59.465 103.450  1.00  0.00     0.020 C 
ATOM     26  C   UNL     1      26.937  61.416 103.935  1.00  0.00     0.017 C 
ATOM     27  O   UNL     1      28.207  58.732 107.339  1.00  0.00    -0.295 OA
ATOM     28  C   UNL     1      25.694  59.389 106.296  1.00  0.00     0.055 C 
ATOM     29  C   UNL     1      24.185  59.898 104.279  1.00  0.00     0.081 C 
ATOM     30  C   UNL     1      24.356  59.554 105.719  1.00  0.00     0.156 C 
ATOM     31  O   UNL     1      23.342  59.435 106.457  1.00  0.00    -0.295 OA
ENDBRANCH   9  11
ENDBRANCH   8   9
ENDBRANCH   1   8
TORSDOF 6
ENDMDL
MODEL 2
REMARK VINA RESULT:    -5.688      7.218     10.347
REMARK INTER + INTRA:          -9.804
REMARK INTER:                  -7.503
REMARK INTRA:                  -2.301
REMARK UNBOUND:                -2.121
REMARK SMILES CC[C@@H](CC[C@H](C)[C@H]1CC[C@@H]2[C@H]3CC(=O)C4=CC(=O)CC[C@]4(C)[C@H]3CC[C@]21C)C(C)C
REMARK SMILES IDX 4 1 3 2 2 3 1 4 29 5 30 6 31 7 5 8 6 9 7 10 8 11 9 12 27 13
REMARK SMILES IDX 10 14 11 15 26 16 28 17 12 18 25 19 24 20 13 21 22 22 14 23
REMARK SMILES IDX 16 24 21 25 23 26 15 27 17 28 20 29 18 30 19 31
REMARK H PARENT
REMARK Flexibility Score: inf
ROOT
ATOM      1  C   UNL     1      34.199  72.244 106.077  1.00  0.00     0.004 C 
ENDROOT
BRANCH   1   2
ATOM      2  C   UNL     1      35.423  71.408 106.550  1.00  0.00    -0.009 C 
BRANCH   2   3
ATOM      3  C   UNL     1      35.948  70.406 105.483  1.00  0.00     0.000 C 
ATOM      4  C   UNL     1      35.291  70.501 104.106  1.00  0.00     0.004 C 
ENDBRANCH   2   3
BRANCH   2   5
ATOM      5  C   UNL     1      35.213  70.745 107.957  1.00  0.00    -0.014 C 
ATOM      6  C   UNL     1      35.726  71.587 109.143  1.00  0.00     0.007 C 
ATOM      7  C   UNL     1      35.861  69.351 108.010  1.00  0.00     0.007 C 
ENDBRANCH   2   5
ENDBRANCH   1   2
BRANCH   1   8
ATOM      8  C   UNL     1      32.854  71.864 106.736  1.00  0.00     0.004 C 
BRANCH   8   9
ATOM      9  C   UNL     1      32.154  70.641 106.062  1.00  0.00    -0.011 C 
ATOM     10  C   UNL     1      30.996  71.132 105.166  1.00  0.00     0.008 C 
BRANCH   9  11
ATOM     11  C   UNL     1      31.775  69.554 107.135  1.00  0.00    -0.002 C 
ATOM     12  C   UNL     1      30.262  69.485 107.480  1.00  0.00     0.005 C 
ATOM     13  C   UNL     1      32.191  68.068 106.863  1.00  0.00    -0.026 C 
ATOM     14  C   UNL     1      29.795  68.049 107.202  1.00  0.00     0.005 C 
ATOM     15  C   UNL     1      30.894  67.453 106.332  1.00  0.00    -0.001 C 
ATOM     16  C   UNL     1      33.293  67.817 105.810  1.00  0.00     0.007 C 
ATOM     17  C   UNL     1      32.636  67.459 108.235  1.00  0.00     0.012 C 
ATOM     18  C   UNL     1      30.950  65.915 106.169  1.00  0.00     0.004 C 
ATOM     19  C   UNL     1      33.486  66.309 105.542  1.00  0.00     0.005 C 
ATOM     20  C   UNL     1      32.179  65.476 105.271  1.00  0.00     0.003 C 
ATOM     21  C   UNL     1      29.576  65.376 105.681  1.00  0.00     0.085 C 
ATOM     22  C   UNL     1      31.830  65.176 103.752  1.00  0.00    -0.000 C 
ATOM     23  C   UNL     1      29.691  64.165 104.817  1.00  0.00     0.159 C 
ATOM     24  C   UNL     1      30.710  64.124 103.742  1.00  0.00     0.005 C 
ATOM     25  C   UNL     1      33.090  64.609 103.011  1.00  0.00     0.020 C 
ATOM     26  C   UNL     1      31.344  66.439 103.004  1.00  0.00     0.017 C 
ATOM     27  O   UNL     1      28.887  63.209 104.987  1.00  0.00    -0.295 OA
ATOM     28  C   UNL     1      30.624  63.174 102.792  1.00  0.00     0.055 C 
ATOM     29  C   UNL     1      32.783  63.971 101.649  1.00  0.00     0.081 C 
ATOM     30  C   UNL     1      31.630  63.030 101.736  1.00  0.00     0.156 C 
ATOM     31  O   UNL     1      31.500  62.122 100.873  1.00  0.00    -0.295 OA
ENDBRANCH   9  11
ENDBRANCH   8   9
ENDBRANCH   1   8
TORSDOF 6
ENDMDL
MODEL 3
REMARK VINA RESULT:    -5.675      4.041      7.317
REMARK INTER + INTRA:          -9.787
REMARK INTER:                  -8.300
REMARK INTRA:                  -1.487
REMARK UNBOUND:                -2.121
REMARK SMILES CC[C@@H](CC[C@H](C)[C@H]1CC[C@@H]2[C@H]3CC(=O)C4=CC(=O)CC[C@]4(C)[C@H]3CC[C@]21C)C(C)C
REMARK SMILES IDX 4 1 3 2 2 3 1 4 29 5 30 6 31 7 5 8 6 9 7 10 8 11 9 12 27 13
REMARK SMILES IDX 10 14 11 15 26 16 28 17 12 18 25 19 24 20 13 21 22 22 14 23
REMARK SMILES IDX 16 24 21 25 23 26 15 27 17 28 20 29 18 30 19 31
REMARK H PARENT
REMARK Flexibility Score: inf
ROOT
ATOM      1  C   UNL     1      23.647  61.204 104.527  1.00  0.00     0.004 C 
ENDROOT
BRANCH   1   2
ATOM      2  C   UNL     1      23.552  62.711 104.906  1.00  0.00    -0.009 C 
BRANCH   2   3
ATOM      3  C   UNL     1      23.218  62.960 106.404  1.00  0.00     0.000 C 
ATOM      4  C   UNL     1      24.370  62.743 107.385  1.00  0.00     0.004 C 
ENDBRANCH   2   3
BRANCH   2   5
ATOM      5  C   UNL     1      22.639  63.536 103.933  1.00  0.00    -0.014 C 
ATOM      6  C   UNL     1      22.407  64.999 104.362  1.00  0.00     0.007 C 
ATOM      7  C   UNL     1      21.278  62.846 103.738  1.00  0.00     0.007 C 
ENDBRANCH   2   5
ENDBRANCH   1   2
BRANCH   1   8
ATOM      8  C   UNL     1      24.922  60.804 103.752  1.00  0.00     0.004 C 
BRANCH   8   9
ATOM      9  C   UNL     1      25.243  59.276 103.824  1.00  0.00    -0.011 C 
ATOM     10  C   UNL     1      24.457  58.634 104.989  1.00  0.00     0.008 C 
BRANCH   9  11
ATOM     11  C   UNL     1      26.797  59.031 103.831  1.00  0.00    -0.002 C 
ATOM     12  C   UNL     1      27.494  59.263 102.462  1.00  0.00     0.005 C 
ATOM     13  C   UNL     1      27.668  59.824 104.863  1.00  0.00    -0.026 C 
ATOM     14  C   UNL     1      28.587  60.321 102.680  1.00  0.00     0.005 C 
ATOM     15  C   UNL     1      28.231  60.966 104.013  1.00  0.00    -0.001 C 
ATOM     16  C   UNL     1      26.943  60.456 106.073  1.00  0.00     0.007 C 
ATOM     17  C   UNL     1      28.776  58.844 105.377  1.00  0.00     0.012 C 
ATOM     18  C   UNL     1      29.311  61.810 104.732  1.00  0.00     0.004 C 
ATOM     19  C   UNL     1      27.900  61.328 106.913  1.00  0.00     0.005 C 
ATOM     20  C   UNL     1      28.781  62.363 106.118  1.00  0.00     0.003 C 
ATOM     21  C   UNL     1      29.862  62.904 103.776  1.00  0.00     0.085 C 
ATOM     22  C   UNL     1      28.263  63.862 106.092  1.00  0.00    -0.000 C 
ATOM     23  C   UNL     1      30.279  64.150 104.484  1.00  0.00     0.159 C 
ATOM     24  C   UNL     1      29.404  64.726 105.531  1.00  0.00     0.005 C 
ATOM     25  C   UNL     1      27.911  64.337 107.545  1.00  0.00     0.020 C 
ATOM     26  C   UNL     1      27.013  64.034 105.199  1.00  0.00     0.017 C 
ATOM     27  O   UNL     1      31.352  64.719 104.148  1.00  0.00    -0.295 OA
ATOM     28  C   UNL     1      29.630  65.984 105.956  1.00  0.00     0.055 C 
ATOM     29  C   UNL     1      27.730  65.855 107.682  1.00  0.00     0.081 C 
ATOM     30  C   UNL     1      28.849  66.597 107.034  1.00  0.00     0.156 C 
ATOM     31  O   UNL     1      29.106  67.778 107.393  1.00  0.00    -0.295 OA
ENDBRANCH   9  11
ENDBRANCH   8   9
ENDBRANCH   1   8
TORSDOF 6
ENDMDL
MODEL 4
REMARK VINA RESULT:    -5.627     11.832     14.679
REMARK INTER + INTRA:          -9.722
REMARK INTER:                  -7.443
REMARK INTRA:                  -2.279
REMARK UNBOUND:                -2.121
REMARK SMILES CC[C@@H](CC[C@H](C)[C@H]1CC[C@@H]2[C@H]3CC(=O)C4=CC(=O)CC[C@]4(C)[C@H]3CC[C@]21C)C(C)C
REMARK SMILES IDX 4 1 3 2 2 3 1 4 29 5 30 6 31 7 5 8 6 9 7 10 8 11 9 12 27 13
REMARK SMILES IDX 10 14 11 15 26 16 28 17 12 18 25 19 24 20 13 21 22 22 14 23
REMARK SMILES IDX 16 24 21 25 23 26 15 27 17 28 20 29 18 30 19 31
REMARK H PARENT
REMARK Flexibility Score: inf
ROOT
ATOM      1  C   UNL     1      25.389  74.417 107.646  1.00  0.00     0.004 C 
ENDROOT
BRANCH   1   2
ATOM      2  C   UNL     1      24.700  73.904 108.944  1.00  0.00    -0.009 C 
BRANCH   2   3
ATOM      3  C   UNL     1      24.364  75.031 109.962  1.00  0.00     0.000 C 
ATOM      4  C   UNL     1      22.973  75.651 109.827  1.00  0.00     0.004 C 
ENDBRANCH   2   3
BRANCH   2   5
ATOM      5  C   UNL     1      25.448  72.692 109.604  1.00  0.00    -0.014 C 
ATOM      6  C   UNL     1      26.144  71.749 108.602  1.00  0.00     0.007 C 
ATOM      7  C   UNL     1      24.493  71.874 110.489  1.00  0.00     0.007 C 
ENDBRANCH   2   5
ENDBRANCH   1   2
BRANCH   1   8
ATOM      8  C   UNL     1      24.423  74.881 106.534  1.00  0.00     0.004 C 
BRANCH   8   9
ATOM      9  C   UNL     1      23.486  73.746 106.008  1.00  0.00    -0.011 C 
ATOM     10  C   UNL     1      23.415  73.803 104.466  1.00  0.00     0.008 C 
BRANCH   9  11
ATOM     11  C   UNL     1      22.103  73.771 106.757  1.00  0.00    -0.002 C 
ATOM     12  C   UNL     1      20.924  74.336 105.920  1.00  0.00     0.005 C 
ATOM     13  C   UNL     1      21.562  72.429 107.357  1.00  0.00    -0.026 C 
ATOM     14  C   UNL     1      19.837  73.251 105.872  1.00  0.00     0.005 C 
ATOM     15  C   UNL     1      20.553  71.976 106.299  1.00  0.00    -0.001 C 
ATOM     16  C   UNL     1      22.573  71.279 107.562  1.00  0.00     0.007 C 
ATOM     17  C   UNL     1      20.890  72.778 108.728  1.00  0.00     0.012 C 
ATOM     18  C   UNL     1      19.696  70.761 106.727  1.00  0.00     0.004 C 
ATOM     19  C   UNL     1      21.869  69.981 108.013  1.00  0.00     0.005 C 
ATOM     20  C   UNL     1      20.607  69.546 107.179  1.00  0.00     0.003 C 
ATOM     21  C   UNL     1      18.668  70.410 105.617  1.00  0.00     0.085 C 
ATOM     22  C   UNL     1      20.837  68.429 106.075  1.00  0.00    -0.000 C 
ATOM     23  C   UNL     1      18.352  68.953 105.544  1.00  0.00     0.159 C 
ATOM     24  C   UNL     1      19.449  67.961 105.608  1.00  0.00     0.005 C 
ATOM     25  C   UNL     1      21.621  67.217 106.688  1.00  0.00     0.020 C 
ATOM     26  C   UNL     1      21.625  68.963 104.858  1.00  0.00     0.017 C 
ATOM     27  O   UNL     1      17.155  68.591 105.385  1.00  0.00    -0.295 OA
ATOM     28  C   UNL     1      19.202  66.685 105.255  1.00  0.00     0.055 C 
ATOM     29  C   UNL     1      21.599  65.952 105.820  1.00  0.00     0.081 C 
ATOM     30  C   UNL     1      20.219  65.634 105.355  1.00  0.00     0.156 C 
ATOM     31  O   UNL     1      19.931  64.457 105.012  1.00  0.00    -0.295 OA
ENDBRANCH   9  11
ENDBRANCH   8   9
ENDBRANCH   1   8
TORSDOF 6
ENDMDL
MODEL 5
REMARK VINA RESULT:    -5.619      7.384      9.666
REMARK INTER + INTRA:          -9.710
REMARK INTER:                  -7.971
REMARK INTRA:                  -1.739
REMARK UNBOUND:                -2.121
REMARK SMILES CC[C@@H](CC[C@H](C)[C@H]1CC[C@@H]2[C@H]3CC(=O)C4=CC(=O)CC[C@]4(C)[C@H]3CC[C@]21C)C(C)C
REMARK SMILES IDX 4 1 3 2 2 3 1 4 29 5 30 6 31 7 5 8 6 9 7 10 8 11 9 12 27 13
REMARK SMILES IDX 10 14 11 15 26 16 28 17 12 18 25 19 24 20 13 21 22 22 14 23
REMARK SMILES IDX 16 24 21 25 23 26 15 27 17 28 20 29 18 30 19 31
REMARK H PARENT
REMARK Flexibility Score: inf
ROOT
ATOM      1  C   UNL     1      33.579  71.867 105.828  1.00  0.00     0.004 C 
ENDROOT
BRANCH   1   2
ATOM      2  C   UNL     1      34.981  71.883 106.505  1.00  0.00    -0.009 C 
BRANCH   2   3
ATOM      3  C   UNL     1      35.923  70.745 106.020  1.00  0.00     0.000 C 
ATOM      4  C   UNL     1      35.679  70.245 104.596  1.00  0.00     0.004 C 
ENDBRANCH   2   3
BRANCH   2   5
ATOM      5  C   UNL     1      34.911  71.991 108.069  1.00  0.00    -0.014 C 
ATOM      6  C   UNL     1      35.277  73.380 108.629  1.00  0.00     0.007 C 
ATOM      7  C   UNL     1      35.802  70.928 108.733  1.00  0.00     0.007 C 
ENDBRANCH   2   5
ENDBRANCH   1   2
BRANCH   1   8
ATOM      8  C   UNL     1      32.399  71.561 106.777  1.00  0.00     0.004 C 
BRANCH   8   9
ATOM      9  C   UNL     1      31.635  70.246 106.417  1.00  0.00    -0.011 C 
ATOM     10  C   UNL     1      30.383  70.110 107.311  1.00  0.00     0.008 C 
BRANCH   9  11
ATOM     11  C   UNL     1      32.613  69.014 106.418  1.00  0.00    -0.002 C 
ATOM     12  C   UNL     1      33.251  68.696 107.797  1.00  0.00     0.005 C 
ATOM     13  C   UNL     1      32.072  67.638 105.901  1.00  0.00    -0.026 C 
ATOM     14  C   UNL     1      32.893  67.242 108.143  1.00  0.00     0.005 C 
ATOM     15  C   UNL     1      31.746  66.900 107.202  1.00  0.00    -0.001 C 
ATOM     16  C   UNL     1      30.790  67.653 105.038  1.00  0.00     0.007 C 
ATOM     17  C   UNL     1      33.232  66.963 105.093  1.00  0.00     0.012 C 
ATOM     18  C   UNL     1      31.377  65.410 107.003  1.00  0.00     0.004 C 
ATOM     19  C   UNL     1      30.296  66.223 104.733  1.00  0.00     0.005 C 
ATOM     20  C   UNL     1      30.195  65.244 105.962  1.00  0.00     0.003 C 
ATOM     21  C   UNL     1      31.118  64.733 108.378  1.00  0.00     0.085 C 
ATOM     22  C   UNL     1      28.756  65.052 106.601  1.00  0.00    -0.000 C 
ATOM     23  C   UNL     1      30.100  63.644 108.316  1.00  0.00     0.159 C 
ATOM     24  C   UNL     1      28.842  63.857 107.564  1.00  0.00     0.005 C 
ATOM     25  C   UNL     1      27.703  64.747 105.479  1.00  0.00     0.020 C 
ATOM     26  C   UNL     1      28.294  66.301 107.386  1.00  0.00     0.017 C 
ATOM     27  O   UNL     1      30.308  62.571 108.944  1.00  0.00    -0.295 OA
ATOM     28  C   UNL     1      27.816  63.005 107.746  1.00  0.00     0.055 C 
ATOM     29  C   UNL     1      26.363  64.213 106.004  1.00  0.00     0.081 C 
ATOM     30  C   UNL     1      26.565  63.113 106.990  1.00  0.00     0.156 C 
ATOM     31  O   UNL     1      25.637  62.287 107.201  1.00  0.00    -0.295 OA
ENDBRANCH   9  11
ENDBRANCH   8   9
ENDBRANCH   1   8
TORSDOF 6
ENDMDL
MODEL 6
REMARK VINA RESULT:    -5.592      6.318      9.520
REMARK INTER + INTRA:          -9.675
REMARK INTER:                  -7.301
REMARK INTRA:                  -2.373
REMARK UNBOUND:                -2.121
REMARK SMILES CC[C@@H](CC[C@H](C)[C@H]1CC[C@@H]2[C@H]3CC(=O)C4=CC(=O)CC[C@]4(C)[C@H]3CC[C@]21C)C(C)C
REMARK SMILES IDX 4 1 3 2 2 3 1 4 29 5 30 6 31 7 5 8 6 9 7 10 8 11 9 12 27 13
REMARK SMILES IDX 10 14 11 15 26 16 28 17 12 18 25 19 24 20 13 21 22 22 14 23
REMARK SMILES IDX 16 24 21 25 23 26 15 27 17 28 20 29 18 30 19 31
REMARK H PARENT
REMARK Flexibility Score: inf
ROOT
ATOM      1  C   UNL     1      22.891  58.009 105.139  1.00  0.00     0.004 C 
ENDROOT
BRANCH   1   2
ATOM      2  C   UNL     1      21.618  58.891 105.296  1.00  0.00    -0.009 C 
BRANCH   2   3
ATOM      3  C   UNL     1      20.751  58.524 106.533  1.00  0.00     0.000 C 
ATOM      4  C   UNL     1      21.269  59.031 107.879  1.00  0.00     0.004 C 
ENDBRANCH   2   3
BRANCH   2   5
ATOM      5  C   UNL     1      20.777  59.004 103.976  1.00  0.00    -0.014 C 
ATOM      6  C   UNL     1      21.366  58.235 102.776  1.00  0.00     0.007 C 
ATOM      7  C   UNL     1      20.570  60.475 103.580  1.00  0.00     0.007 C 
ENDBRANCH   2   5
ENDBRANCH   1   2
BRANCH   1   8
ATOM      8  C   UNL     1      24.224  58.789 105.100  1.00  0.00     0.004 C 
BRANCH   8   9
ATOM      9  C   UNL     1      24.038  60.340 105.063  1.00  0.00    -0.011 C 
ATOM     10  C   UNL     1      24.730  60.917 103.809  1.00  0.00     0.008 C 
BRANCH   9  11
ATOM     11  C   UNL     1      24.459  60.986 106.434  1.00  0.00    -0.002 C 
ATOM     12  C   UNL     1      25.923  61.503 106.483  1.00  0.00     0.005 C 
ATOM     13  C   UNL     1      23.598  62.170 106.991  1.00  0.00    -0.026 C 
ATOM     14  C   UNL     1      25.869  62.995 106.848  1.00  0.00     0.005 C 
ATOM     15  C   UNL     1      24.422  63.396 106.591  1.00  0.00    -0.001 C 
ATOM     16  C   UNL     1      22.177  62.352 106.413  1.00  0.00     0.007 C 
ATOM     17  C   UNL     1      23.505  61.979 108.543  1.00  0.00     0.012 C 
ATOM     18  C   UNL     1      23.909  64.723 107.200  1.00  0.00     0.004 C 
ATOM     19  C   UNL     1      21.512  63.641 106.943  1.00  0.00     0.005 C 
ATOM     20  C   UNL     1      22.377  64.954 106.868  1.00  0.00     0.003 C 
ATOM     21  C   UNL     1      24.836  65.898 106.785  1.00  0.00     0.085 C 
ATOM     22  C   UNL     1      22.091  65.923 105.644  1.00  0.00    -0.000 C 
ATOM     23  C   UNL     1      24.116  67.198 106.647  1.00  0.00     0.159 C 
ATOM     24  C   UNL     1      22.819  67.245 105.934  1.00  0.00     0.005 C 
ATOM     25  C   UNL     1      20.551  66.189 105.515  1.00  0.00     0.020 C 
ATOM     26  C   UNL     1      22.607  65.344 104.307  1.00  0.00     0.017 C 
ATOM     27  O   UNL     1      24.646  68.247 107.103  1.00  0.00    -0.295 OA
ATOM     28  C   UNL     1      22.319  68.438 105.559  1.00  0.00     0.055 C 
ATOM     29  C   UNL     1      20.192  67.364 104.595  1.00  0.00     0.081 C 
ATOM     30  C   UNL     1      21.012  68.569 104.908  1.00  0.00     0.156 C 
ATOM     31  O   UNL     1      20.593  69.712 104.580  1.00  0.00    -0.295 OA
ENDBRANCH   9  11
ENDBRANCH   8   9
ENDBRANCH   1   8
TORSDOF 6
ENDMDL
MODEL 7
REMARK VINA RESULT:    -5.580      5.022      8.560
REMARK INTER + INTRA:          -9.658
REMARK INTER:                  -7.438
REMARK INTRA:                  -2.220
REMARK UNBOUND:                -2.121
REMARK SMILES CC[C@@H](CC[C@H](C)[C@H]1CC[C@@H]2[C@H]3CC(=O)C4=CC(=O)CC[C@]4(C)[C@H]3CC[C@]21C)C(C)C
REMARK SMILES IDX 4 1 3 2 2 3 1 4 29 5 30 6 31 7 5 8 6 9 7 10 8 11 9 12 27 13
REMARK SMILES IDX 10 14 11 15 26 16 28 17 12 18 25 19 24 20 13 21 22 22 14 23
REMARK SMILES IDX 16 24 21 25 23 26 15 27 17 28 20 29 18 30 19 31
REMARK H PARENT
REMARK Flexibility Score: inf
ROOT
ATOM      1  C   UNL     1      27.709  59.119 105.475  1.00  0.00     0.004 C 
ENDROOT
BRANCH   1   2
ATOM      2  C   UNL     1      26.578  58.932 104.421  1.00  0.00    -0.009 C 
BRANCH   2   3
ATOM      3  C   UNL     1      26.936  59.488 103.013  1.00  0.00     0.000 C 
ATOM      4  C   UNL     1      28.270  60.227 102.913  1.00  0.00     0.004 C 
ENDBRANCH   2   3
BRANCH   2   5
ATOM      5  C   UNL     1      25.174  59.415 104.928  1.00  0.00    -0.014 C 
ATOM      6  C   UNL     1      24.080  58.328 104.910  1.00  0.00     0.007 C 
ATOM      7  C   UNL     1      24.689  60.632 104.123  1.00  0.00     0.007 C 
ENDBRANCH   2   5
ENDBRANCH   1   2
BRANCH   1   8
ATOM      8  C   UNL     1      27.227  59.524 106.885  1.00  0.00     0.004 C 
BRANCH   8   9
ATOM      9  C   UNL     1      27.743  60.927 107.341  1.00  0.00    -0.011 C 
ATOM     10  C   UNL     1      27.766  60.997 108.883  1.00  0.00     0.008 C 
BRANCH   9  11
ATOM     11  C   UNL     1      26.950  62.076 106.616  1.00  0.00    -0.002 C 
ATOM     12  C   UNL     1      25.995  62.883 107.536  1.00  0.00     0.005 C 
ATOM     13  C   UNL     1      27.767  63.162 105.837  1.00  0.00    -0.026 C 
ATOM     14  C   UNL     1      26.407  64.360 107.441  1.00  0.00     0.005 C 
ATOM     15  C   UNL     1      27.802  64.327 106.830  1.00  0.00    -0.001 C 
ATOM     16  C   UNL     1      29.228  62.825 105.462  1.00  0.00     0.007 C 
ATOM     17  C   UNL     1      26.962  63.497 104.536  1.00  0.00     0.012 C 
ATOM     18  C   UNL     1      28.378  65.637 106.242  1.00  0.00     0.004 C 
ATOM     19  C   UNL     1      29.947  64.040 104.838  1.00  0.00     0.005 C 
ATOM     20  C   UNL     1      29.814  65.403 105.614  1.00  0.00     0.003 C 
ATOM     21  C   UNL     1      28.321  66.772 107.302  1.00  0.00     0.085 C 
ATOM     22  C   UNL     1      31.031  65.811 106.546  1.00  0.00    -0.000 C 
ATOM     23  C   UNL     1      29.434  67.758 107.170  1.00  0.00     0.159 C 
ATOM     24  C   UNL     1      30.818  67.277 106.955  1.00  0.00     0.005 C 
ATOM     25  C   UNL     1      32.381  65.676 105.760  1.00  0.00     0.020 C 
ATOM     26  C   UNL     1      31.112  64.938 107.819  1.00  0.00     0.017 C 
ATOM     27  O   UNL     1      29.183  68.987 107.288  1.00  0.00    -0.295 OA
ATOM     28  C   UNL     1      31.844  68.132 107.127  1.00  0.00     0.055 C 
ATOM     29  C   UNL     1      33.575  66.361 106.440  1.00  0.00     0.081 C 
ATOM     30  C   UNL     1      33.235  67.748 106.869  1.00  0.00     0.156 C 
ATOM     31  O   UNL     1      34.155  68.590 107.044  1.00  0.00    -0.295 OA
ENDBRANCH   9  11
ENDBRANCH   8   9
ENDBRANCH   1   8
TORSDOF 6
ENDMDL
MODEL 8
REMARK VINA RESULT:    -5.544      1.457      1.887
REMARK INTER + INTRA:          -9.610
REMARK INTER:                  -7.536
REMARK INTRA:                  -2.074
REMARK UNBOUND:                -2.121
REMARK SMILES CC[C@@H](CC[C@H](C)[C@H]1CC[C@@H]2[C@H]3CC(=O)C4=CC(=O)CC[C@]4(C)[C@H]3CC[C@]21C)C(C)C
REMARK SMILES IDX 4 1 3 2 2 3 1 4 29 5 30 6 31 7 5 8 6 9 7 10 8 11 9 12 27 13
REMARK SMILES IDX 10 14 11 15 26 16 28 17 12 18 25 19 24 20 13 21 22 22 14 23
REMARK SMILES IDX 16 24 21 25 23 26 15 27 17 28 20 29 18 30 19 31
REMARK H PARENT
REMARK Flexibility Score: inf
ROOT
ATOM      1  C   UNL     1      31.061  60.657  99.028  1.00  0.00     0.004 C 
ENDROOT
BRANCH   1   2
ATOM      2  C   UNL     1      29.546  60.298  99.024  1.00  0.00    -0.009 C 
BRANCH   2   3
ATOM      3  C   UNL     1      29.259  58.788  99.260  1.00  0.00     0.000 C 
ATOM      4  C   UNL     1      30.451  57.953  99.730  1.00  0.00     0.004 C 
ENDBRANCH   2   3
BRANCH   2   5
ATOM      5  C   UNL     1      28.777  60.878  97.785  1.00  0.00    -0.014 C 
ATOM      6  C   UNL     1      29.240  60.316  96.426  1.00  0.00     0.007 C 
ATOM      7  C   UNL     1      28.864  62.413  97.753  1.00  0.00     0.007 C 
ENDBRANCH   2   5
ENDBRANCH   1   2
BRANCH   1   8
ATOM      8  C   UNL     1      31.523  61.530 100.216  1.00  0.00     0.004 C 
BRANCH   8   9
ATOM      9  C   UNL     1      30.454  61.653 101.350  1.00  0.00    -0.011 C 
ATOM     10  C   UNL     1      30.353  63.123 101.812  1.00  0.00     0.008 C 
BRANCH   9  11
ATOM     11  C   UNL     1      30.721  60.597 102.486  1.00  0.00    -0.002 C 
ATOM     12  C   UNL     1      31.499  61.148 103.712  1.00  0.00     0.005 C 
ATOM     13  C   UNL     1      29.493  59.841 103.098  1.00  0.00    -0.026 C 
ATOM     14  C   UNL     1      30.629  60.900 104.954  1.00  0.00     0.005 C 
ATOM     15  C   UNL     1      29.242  60.613 104.395  1.00  0.00    -0.001 C 
ATOM     16  C   UNL     1      28.177  59.845 102.289  1.00  0.00     0.007 C 
ATOM     17  C   UNL     1      29.943  58.362 103.348  1.00  0.00     0.012 C 
ATOM     18  C   UNL     1      28.197  59.953 105.326  1.00  0.00     0.004 C 
ATOM     19  C   UNL     1      27.023  59.197 103.083  1.00  0.00     0.005 C 
ATOM     20  C   UNL     1      26.832  59.691 104.565  1.00  0.00     0.003 C 
ATOM     21  C   UNL     1      28.050  60.774 106.637  1.00  0.00     0.085 C 
ATOM     22  C   UNL     1      25.704  60.780 104.811  1.00  0.00    -0.000 C 
ATOM     23  C   UNL     1      26.675  60.721 107.216  1.00  0.00     0.159 C 
ATOM     24  C   UNL     1      25.500  60.887 106.330  1.00  0.00     0.005 C 
ATOM     25  C   UNL     1      24.364  60.331 104.131  1.00  0.00     0.020 C 
ATOM     26  C   UNL     1      26.100  62.167 104.255  1.00  0.00     0.017 C 
ATOM     27  O   UNL     1      26.537  60.579 108.460  1.00  0.00    -0.295 OA
ATOM     28  C   UNL     1      24.294  61.129 106.878  1.00  0.00     0.055 C 
ATOM     29  C   UNL     1      23.132  61.127 104.586  1.00  0.00     0.081 C 
ATOM     30  C   UNL     1      23.075  61.239 106.071  1.00  0.00     0.156 C 
ATOM     31  O   UNL     1      21.973  61.465 106.638  1.00  0.00    -0.295 OA
ENDBRANCH   9  11
ENDBRANCH   8   9
ENDBRANCH   1   8
TORSDOF 6
ENDMDL
MODEL 9
REMARK VINA RESULT:    -5.494      6.689     10.660
REMARK INTER + INTRA:          -9.542
REMARK INTER:                  -7.655
REMARK INTRA:                  -1.887
REMARK UNBOUND:                -2.121
REMARK SMILES CC[C@@H](CC[C@H](C)[C@H]1CC[C@@H]2[C@H]3CC(=O)C4=CC(=O)CC[C@]4(C)[C@H]3CC[C@]21C)C(C)C
REMARK SMILES IDX 4 1 3 2 2 3 1 4 29 5 30 6 31 7 5 8 6 9 7 10 8 11 9 12 27 13
REMARK SMILES IDX 10 14 11 15 26 16 28 17 12 18 25 19 24 20 13 21 22 22 14 23
REMARK SMILES IDX 16 24 21 25 23 26 15 27 17 28 20 29 18 30 19 31
REMARK H PARENT
REMARK Flexibility Score: inf
ROOT
ATOM      1  C   UNL     1      23.655  60.466 106.429  1.00  0.00     0.004 C 
ENDROOT
BRANCH   1   2
ATOM      2  C   UNL     1      23.713  59.913 104.975  1.00  0.00    -0.009 C 
BRANCH   2   3
ATOM      3  C   UNL     1      23.819  58.363 104.898  1.00  0.00     0.000 C 
ATOM      4  C   UNL     1      22.498  57.618 104.703  1.00  0.00     0.004 C 
ENDBRANCH   2   3
BRANCH   2   5
ATOM      5  C   UNL     1      24.774  60.641 104.078  1.00  0.00    -0.014 C 
ATOM      6  C   UNL     1      25.751  59.695 103.349  1.00  0.00     0.007 C 
ATOM      7  C   UNL     1      25.579  61.663 104.898  1.00  0.00     0.007 C 
ENDBRANCH   2   5
ENDBRANCH   1   2
BRANCH   1   8
ATOM      8  C   UNL     1      22.257  60.432 107.086  1.00  0.00     0.004 C 
BRANCH   8   9
ATOM      9  C   UNL     1      21.563  61.831 107.146  1.00  0.00    -0.011 C 
ATOM     10  C   UNL     1      20.324  61.758 108.065  1.00  0.00     0.008 C 
BRANCH   9  11
ATOM     11  C   UNL     1      21.307  62.389 105.697  1.00  0.00    -0.002 C 
ATOM     12  C   UNL     1      19.813  62.642 105.356  1.00  0.00     0.005 C 
ATOM     13  C   UNL     1      22.042  63.704 105.270  1.00  0.00    -0.026 C 
ATOM     14  C   UNL     1      19.679  64.118 104.955  1.00  0.00     0.005 C 
ATOM     15  C   UNL     1      20.959  64.768 105.463  1.00  0.00    -0.001 C 
ATOM     16  C   UNL     1      23.274  64.135 106.098  1.00  0.00     0.007 C 
ATOM     17  C   UNL     1      22.461  63.529 103.771  1.00  0.00     0.012 C 
ATOM     18  C   UNL     1      21.343  66.163 104.915  1.00  0.00     0.004 C 
ATOM     19  C   UNL     1      23.796  65.519 105.656  1.00  0.00     0.005 C 
ATOM     20  C   UNL     1      22.720  66.660 105.520  1.00  0.00     0.003 C 
ATOM     21  C   UNL     1      20.165  67.158 105.105  1.00  0.00     0.085 C 
ATOM     22  C   UNL     1      22.596  67.667 106.740  1.00  0.00    -0.000 C 
ATOM     23  C   UNL     1      20.612  68.565 105.329  1.00  0.00     0.159 C 
ATOM     24  C   UNL     1      21.721  68.841 106.271  1.00  0.00     0.005 C 
ATOM     25  C   UNL     1      24.014  68.200 107.146  1.00  0.00     0.020 C 
ATOM     26  C   UNL     1      21.941  67.010 107.976  1.00  0.00     0.017 C 
ATOM     27  O   UNL     1      20.007  69.503 104.744  1.00  0.00    -0.295 OA
ATOM     28  C   UNL     1      21.927  70.104 106.690  1.00  0.00     0.055 C 
ATOM     29  C   UNL     1      23.983  69.423 108.074  1.00  0.00     0.081 C 
ATOM     30  C   UNL     1      23.043  70.464 107.569  1.00  0.00     0.156 C 
ATOM     31  O   UNL     1      23.189  71.663 107.929  1.00  0.00    -0.295 OA
ENDBRANCH   9  11
ENDBRANCH   8   9
ENDBRANCH   1   8
TORSDOF 6
ENDMDL
