MODEL 1
REMARK VINA RESULT:    -6.827      0.000      0.000
REMARK INTER + INTRA:          -8.387
REMARK INTER:                  -8.223
REMARK INTRA:                  -0.164
REMARK UNBOUND:                -0.164
REMARK SMILES O=c1c(O)c(-c2ccc(O)c(O)c2)oc2cc(O)cc(O)c12
REMARK SMILES IDX 5 1 3 2 2 3 1 4 22 5 20 6 19 7 17 8 16 9 15 10 14 11 6 12
REMARK SMILES IDX 7 13 8 14 9 15 13 16 11 17 10 18 12 20 4 22 21 24 18 26
REMARK H PARENT 10 19 12 21 4 23 21 25 18 27
REMARK Flexibility Score: inf
ROOT
ATOM      1  C   UNL     1      30.885 -92.168  37.468  1.00  0.00     0.180 A 
ATOM      2  C   UNL     1      29.638 -92.733  37.149  1.00  0.00     0.208 A 
ATOM      3  C   UNL     1      29.453 -94.114  37.316  1.00  0.00     0.238 A 
ATOM      4  O   UNL     1      28.312 -94.600  37.098  1.00  0.00    -0.285 OA
ATOM      5  C   UNL     1      30.532 -94.924  37.746  1.00  0.00     0.111 A 
ATOM      6  C   UNL     1      30.471 -96.341  37.907  1.00  0.00     0.134 A 
ATOM      7  C   UNL     1      31.571 -97.024  38.441  1.00  0.00     0.093 A 
ATOM      8  C   UNL     1      32.752 -96.350  38.760  1.00  0.00     0.123 A 
ATOM      9  C   UNL     1      32.841 -94.976  38.555  1.00  0.00     0.094 A 
ATOM     10  C   UNL     1      31.748 -94.261  38.060  1.00  0.00     0.146 A 
ATOM     11  O   UNL     1      31.869 -92.948  37.901  1.00  0.00    -0.452 OA
ENDROOT
BRANCH   1  12
ATOM     12  C   UNL     1      31.152 -90.718  37.333  1.00  0.00     0.025 A 
ATOM     13  C   UNL     1      32.054 -90.226  36.374  1.00  0.00     0.016 A 
ATOM     14  C   UNL     1      32.271 -88.851  36.249  1.00  0.00     0.051 A 
ATOM     15  C   UNL     1      31.581 -87.948  37.069  1.00  0.00     0.157 A 
ATOM     16  C   UNL     1      30.448 -89.808  38.137  1.00  0.00     0.062 A 
ATOM     17  C   UNL     1      30.663 -88.431  38.016  1.00  0.00     0.158 A 
BRANCH  15  18
ATOM     18  O   UNL     1      31.802 -86.578  36.943  1.00  0.00    -0.504 OA
ATOM     19  H   UNL     1      31.374 -86.037  36.201  1.00  0.00     0.293 HD
ENDBRANCH  15  18
BRANCH  17  20
ATOM     20  O   UNL     1      29.954 -87.559  38.841  1.00  0.00    -0.504 OA
ATOM     21  H   UNL     1      30.186 -86.575  38.909  1.00  0.00     0.293 HD
ENDBRANCH  17  20
ENDBRANCH   1  12
BRANCH   2  22
ATOM     22  O   UNL     1      28.609 -91.928  36.652  1.00  0.00    -0.502 OA
ATOM     23  H   UNL     1      28.513 -90.952  36.901  1.00  0.00     0.293 HD
ENDBRANCH   2  22
BRANCH   6  24
ATOM     24  O   UNL     1      29.374 -97.125  37.537  1.00  0.00    -0.507 OA
ATOM     25  H   UNL     1      28.853 -97.023  36.679  1.00  0.00     0.293 HD
ENDBRANCH   6  24
BRANCH   8  26
ATOM     26  O   UNL     1      33.847 -97.040  39.274  1.00  0.00    -0.508 OA
ATOM     27  H   UNL     1      34.676 -96.554  39.597  1.00  0.00     0.293 HD
ENDBRANCH   8  26
TORSDOF 6
ENDMDL
MODEL 2
REMARK VINA RESULT:    -5.733      9.407     10.853
REMARK INTER + INTRA:          -7.069
REMARK INTER:                  -6.859
REMARK INTRA:                  -0.210
REMARK UNBOUND:                -0.164
REMARK SMILES O=c1c(O)c(-c2ccc(O)c(O)c2)oc2cc(O)cc(O)c12
REMARK SMILES IDX 5 1 3 2 2 3 1 4 22 5 20 6 19 7 17 8 16 9 15 10 14 11 6 12
REMARK SMILES IDX 7 13 8 14 9 15 13 16 11 17 10 18 12 20 4 22 21 24 18 26
REMARK H PARENT 10 19 12 21 4 23 21 25 18 27
REMARK Flexibility Score: inf
ROOT
ATOM      1  C   UNL     1      36.131 -95.303  29.881  1.00  0.00     0.180 A 
ATOM      2  C   UNL     1      37.182 -95.724  29.046  1.00  0.00     0.208 A 
ATOM      3  C   UNL     1      38.488 -95.758  29.560  1.00  0.00     0.238 A 
ATOM      4  O   UNL     1      39.411 -96.205  28.830  1.00  0.00    -0.285 OA
ATOM      5  C   UNL     1      38.737 -95.319  30.883  1.00  0.00     0.111 A 
ATOM      6  C   UNL     1      40.027 -95.268  31.492  1.00  0.00     0.134 A 
ATOM      7  C   UNL     1      40.140 -94.916  32.843  1.00  0.00     0.093 A 
ATOM      8  C   UNL     1      39.016 -94.552  33.589  1.00  0.00     0.123 A 
ATOM      9  C   UNL     1      37.760 -94.545  32.989  1.00  0.00     0.094 A 
ATOM     10  C   UNL     1      37.611 -94.928  31.654  1.00  0.00     0.146 A 
ATOM     11  O   UNL     1      36.392 -94.928  31.127  1.00  0.00    -0.452 OA
ENDROOT
BRANCH   1  12
ATOM     12  C   UNL     1      34.727 -95.255  29.416  1.00  0.00     0.025 A 
ATOM     13  C   UNL     1      34.306 -94.325  28.449  1.00  0.00     0.016 A 
ATOM     14  C   UNL     1      32.981 -94.315  28.008  1.00  0.00     0.051 A 
ATOM     15  C   UNL     1      32.059 -95.241  28.517  1.00  0.00     0.157 A 
ATOM     16  C   UNL     1      33.804 -96.194  29.906  1.00  0.00     0.062 A 
ATOM     17  C   UNL     1      32.476 -96.186  29.468  1.00  0.00     0.158 A 
BRANCH  15  18
ATOM     18  O   UNL     1      30.736 -95.226  28.077  1.00  0.00    -0.504 OA
ATOM     19  H   UNL     1      30.370 -94.460  27.523  1.00  0.00     0.293 HD
ENDBRANCH  15  18
BRANCH  17  20
ATOM     20  O   UNL     1      31.586 -97.125  29.988  1.00  0.00    -0.504 OA
ATOM     21  H   UNL     1      30.650 -97.242  29.617  1.00  0.00     0.293 HD
ENDBRANCH  17  20
ENDBRANCH   1  12
BRANCH   2  22
ATOM     22  O   UNL     1      36.926 -96.080  27.719  1.00  0.00    -0.502 OA
ATOM     23  H   UNL     1      36.044 -96.479  27.424  1.00  0.00     0.293 HD
ENDBRANCH   2  22
BRANCH   6  24
ATOM     24  O   UNL     1      41.224 -95.525  30.816  1.00  0.00    -0.507 OA
ATOM     25  H   UNL     1      41.939 -96.164  31.130  1.00  0.00     0.293 HD
ENDBRANCH   6  24
BRANCH   8  26
ATOM     26  O   UNL     1      39.140 -94.187  34.928  1.00  0.00    -0.508 OA
ATOM     27  H   UNL     1      40.039 -94.176  35.393  1.00  0.00     0.293 HD
ENDBRANCH   8  26
TORSDOF 6
ENDMDL
MODEL 3
REMARK VINA RESULT:    -5.702      9.305     10.984
REMARK INTER + INTRA:          -7.032
REMARK INTER:                  -6.846
REMARK INTRA:                  -0.186
REMARK UNBOUND:                -0.164
REMARK SMILES O=c1c(O)c(-c2ccc(O)c(O)c2)oc2cc(O)cc(O)c12
REMARK SMILES IDX 5 1 3 2 2 3 1 4 22 5 20 6 19 7 17 8 16 9 15 10 14 11 6 12
REMARK SMILES IDX 7 13 8 14 9 15 13 16 11 17 10 18 12 20 4 22 21 24 18 26
REMARK H PARENT 10 19 12 21 4 23 21 25 18 27
REMARK Flexibility Score: inf
ROOT
ATOM      1  C   UNL     1      37.453 -95.411  30.998  1.00  0.00     0.180 A 
ATOM      2  C   UNL     1      38.111 -96.062  29.940  1.00  0.00     0.208 A 
ATOM      3  C   UNL     1      37.455 -96.187  28.705  1.00  0.00     0.238 A 
ATOM      4  O   UNL     1      38.079 -96.705  27.742  1.00  0.00    -0.285 OA
ATOM      5  C   UNL     1      36.130 -95.711  28.558  1.00  0.00     0.111 A 
ATOM      6  C   UNL     1      35.353 -95.825  27.365  1.00  0.00     0.134 A 
ATOM      7  C   UNL     1      34.090 -95.222  27.303  1.00  0.00     0.093 A 
ATOM      8  C   UNL     1      33.550 -94.565  28.411  1.00  0.00     0.123 A 
ATOM      9  C   UNL     1      34.277 -94.496  29.596  1.00  0.00     0.094 A 
ATOM     10  C   UNL     1      35.555 -95.054  29.678  1.00  0.00     0.146 A 
ATOM     11  O   UNL     1      36.222 -94.946  30.821  1.00  0.00    -0.452 OA
ENDROOT
BRANCH   1  12
ATOM     12  C   UNL     1      38.083 -95.227  32.325  1.00  0.00     0.025 A 
ATOM     13  C   UNL     1      39.229 -94.428  32.487  1.00  0.00     0.016 A 
ATOM     14  C   UNL     1      39.792 -94.250  33.753  1.00  0.00     0.051 A 
ATOM     15  C   UNL     1      39.212 -94.855  34.877  1.00  0.00     0.157 A 
ATOM     16  C   UNL     1      37.494 -95.813  33.457  1.00  0.00     0.062 A 
ATOM     17  C   UNL     1      38.055 -95.638  34.726  1.00  0.00     0.158 A 
BRANCH  15  18
ATOM     18  O   UNL     1      39.778 -94.677  36.138  1.00  0.00    -0.504 OA
ATOM     19  H   UNL     1      39.211 -94.453  36.948  1.00  0.00     0.293 HD
ENDBRANCH  15  18
BRANCH  17  20
ATOM     20  O   UNL     1      37.450 -96.247  35.825  1.00  0.00    -0.504 OA
ATOM     21  H   UNL     1      37.534 -97.240  36.003  1.00  0.00     0.293 HD
ENDBRANCH  17  20
ENDBRANCH   1  12
BRANCH   2  22
ATOM     22  O   UNL     1      39.389 -96.593  30.128  1.00  0.00    -0.502 OA
ATOM     23  H   UNL     1      40.088 -96.138  30.702  1.00  0.00     0.293 HD
ENDBRANCH   2  22
BRANCH   6  24
ATOM     24  O   UNL     1      35.758 -96.535  26.231  1.00  0.00    -0.507 OA
ATOM     25  H   UNL     1      35.231 -96.605  25.374  1.00  0.00     0.293 HD
ENDBRANCH   6  24
BRANCH   8  26
ATOM     26  O   UNL     1      32.286 -93.983  28.345  1.00  0.00    -0.508 OA
ATOM     27  H   UNL     1      31.723 -94.032  27.505  1.00  0.00     0.293 HD
ENDBRANCH   8  26
TORSDOF 6
ENDMDL
MODEL 4
REMARK VINA RESULT:    -5.441      1.218      2.988
REMARK INTER + INTRA:          -6.717
REMARK INTER:                  -6.539
REMARK INTRA:                  -0.179
REMARK UNBOUND:                -0.164
REMARK SMILES O=c1c(O)c(-c2ccc(O)c(O)c2)oc2cc(O)cc(O)c12
REMARK SMILES IDX 5 1 3 2 2 3 1 4 22 5 20 6 19 7 17 8 16 9 15 10 14 11 6 12
REMARK SMILES IDX 7 13 8 14 9 15 13 16 11 17 10 18 12 20 4 22 21 24 18 26
REMARK H PARENT 10 19 12 21 4 23 21 25 18 27
REMARK Flexibility Score: inf
ROOT
ATOM      1  C   UNL     1      30.968 -92.049  37.415  1.00  0.00     0.180 A 
ATOM      2  C   UNL     1      31.994 -92.924  37.813  1.00  0.00     0.208 A 
ATOM      3  C   UNL     1      31.703 -94.289  37.964  1.00  0.00     0.238 A 
ATOM      4  O   UNL     1      32.642 -95.078  38.248  1.00  0.00    -0.285 OA
ATOM      5  C   UNL     1      30.380 -94.755  37.772  1.00  0.00     0.111 A 
ATOM      6  C   UNL     1      29.962 -96.109  37.942  1.00  0.00     0.134 A 
ATOM      7  C   UNL     1      28.648 -96.473  37.621  1.00  0.00     0.093 A 
ATOM      8  C   UNL     1      27.720 -95.520  37.196  1.00  0.00     0.123 A 
ATOM      9  C   UNL     1      28.103 -94.186  37.079  1.00  0.00     0.094 A 
ATOM     10  C   UNL     1      29.416 -93.799  37.356  1.00  0.00     0.146 A 
ATOM     11  O   UNL     1      29.743 -92.520  37.210  1.00  0.00    -0.452 OA
ENDROOT
BRANCH   1  12
ATOM     12  C   UNL     1      31.200 -90.600  37.220  1.00  0.00     0.025 A 
ATOM     13  C   UNL     1      32.071 -90.125  36.224  1.00  0.00     0.016 A 
ATOM     14  C   UNL     1      32.255 -88.752  36.043  1.00  0.00     0.051 A 
ATOM     15  C   UNL     1      31.561 -87.834  36.843  1.00  0.00     0.157 A 
ATOM     16  C   UNL     1      30.491 -89.675  38.004  1.00  0.00     0.062 A 
ATOM     17  C   UNL     1      30.673 -88.300  37.827  1.00  0.00     0.158 A 
BRANCH  15  18
ATOM     18  O   UNL     1      31.749 -86.464  36.661  1.00  0.00    -0.504 OA
ATOM     19  H   UNL     1      32.059 -86.085  35.774  1.00  0.00     0.293 HD
ENDBRANCH  15  18
BRANCH  17  20
ATOM     20  O   UNL     1      29.962 -87.412  38.633  1.00  0.00    -0.504 OA
ATOM     21  H   UNL     1      29.453 -87.720  39.453  1.00  0.00     0.293 HD
ENDBRANCH  17  20
ENDBRANCH   1  12
BRANCH   2  22
ATOM     22  O   UNL     1      33.276 -92.433  38.073  1.00  0.00    -0.502 OA
ATOM     23  H   UNL     1      33.788 -92.668  38.914  1.00  0.00     0.293 HD
ENDBRANCH   2  22
BRANCH   6  24
ATOM     24  O   UNL     1      30.781 -97.125  38.445  1.00  0.00    -0.507 OA
ATOM     25  H   UNL     1      30.679 -97.554  39.352  1.00  0.00     0.293 HD
ENDBRANCH   6  24
BRANCH   8  26
ATOM     26  O   UNL     1      26.410 -95.887  36.894  1.00  0.00    -0.508 OA
ATOM     27  H   UNL     1      26.080 -96.834  37.036  1.00  0.00     0.293 HD
ENDBRANCH   8  26
TORSDOF 6
ENDMDL
MODEL 5
REMARK VINA RESULT:    -5.432      8.069     10.667
REMARK INTER + INTRA:          -6.707
REMARK INTER:                  -6.465
REMARK INTRA:                  -0.242
REMARK UNBOUND:                -0.164
REMARK SMILES O=c1c(O)c(-c2ccc(O)c(O)c2)oc2cc(O)cc(O)c12
REMARK SMILES IDX 5 1 3 2 2 3 1 4 22 5 20 6 19 7 17 8 16 9 15 10 14 11 6 12
REMARK SMILES IDX 7 13 8 14 9 15 13 16 11 17 10 18 12 20 4 22 21 24 18 26
REMARK H PARENT 10 19 12 21 4 23 21 25 18 27
REMARK Flexibility Score: inf
ROOT
ATOM      1  C   UNL     1      39.755 -95.338  35.200  1.00  0.00     0.180 A 
ATOM      2  C   UNL     1      40.804 -94.947  36.051  1.00  0.00     0.208 A 
ATOM      3  C   UNL     1      40.625 -95.039  37.440  1.00  0.00     0.238 A 
ATOM      4  O   UNL     1      41.593 -94.758  38.193  1.00  0.00    -0.285 OA
ATOM      5  C   UNL     1      39.380 -95.465  37.964  1.00  0.00     0.111 A 
ATOM      6  C   UNL     1      39.071 -95.553  39.356  1.00  0.00     0.134 A 
ATOM      7  C   UNL     1      37.842 -96.090  39.758  1.00  0.00     0.093 A 
ATOM      8  C   UNL     1      36.885 -96.483  38.820  1.00  0.00     0.123 A 
ATOM      9  C   UNL     1      37.155 -96.350  37.460  1.00  0.00     0.094 A 
ATOM     10  C   UNL     1      38.387 -95.854  37.027  1.00  0.00     0.146 A 
ATOM     11  O   UNL     1      38.610 -95.765  35.721  1.00  0.00    -0.452 OA
ENDROOT
BRANCH   1  12
ATOM     12  C   UNL     1      39.873 -95.284  33.726  1.00  0.00     0.025 A 
ATOM     13  C   UNL     1      39.231 -94.285  32.974  1.00  0.00     0.016 A 
ATOM     14  C   UNL     1      39.378 -94.241  31.586  1.00  0.00     0.051 A 
ATOM     15  C   UNL     1      40.179 -95.185  30.929  1.00  0.00     0.157 A 
ATOM     16  C   UNL     1      40.692 -96.214  33.065  1.00  0.00     0.062 A 
ATOM     17  C   UNL     1      40.841 -96.174  31.675  1.00  0.00     0.158 A 
BRANCH  15  18
ATOM     18  O   UNL     1      40.322 -95.139  29.543  1.00  0.00    -0.504 OA
ATOM     19  H   UNL     1      39.666 -94.635  28.959  1.00  0.00     0.293 HD
ENDBRANCH  15  18
BRANCH  17  20
ATOM     20  O   UNL     1      41.652 -97.123  31.052  1.00  0.00    -0.504 OA
ATOM     21  H   UNL     1      42.156 -97.827  31.577  1.00  0.00     0.293 HD
ENDBRANCH  17  20
ENDBRANCH   1  12
BRANCH   2  22
ATOM     22  O   UNL     1      41.997 -94.456  35.515  1.00  0.00    -0.502 OA
ATOM     23  H   UNL     1      42.834 -95.021  35.443  1.00  0.00     0.293 HD
ENDBRANCH   2  22
BRANCH   6  24
ATOM     24  O   UNL     1      39.918 -95.107  40.375  1.00  0.00    -0.507 OA
ATOM     25  H   UNL     1      40.650 -95.656  40.801  1.00  0.00     0.293 HD
ENDBRANCH   6  24
BRANCH   8  26
ATOM     26  O   UNL     1      35.659 -97.000  39.229  1.00  0.00    -0.508 OA
ATOM     27  H   UNL     1      35.304 -96.845  40.165  1.00  0.00     0.293 HD
ENDBRANCH   8  26
TORSDOF 6
ENDMDL
MODEL 6
REMARK VINA RESULT:    -5.419      9.025     11.263
REMARK INTER + INTRA:          -6.691
REMARK INTER:                  -6.463
REMARK INTRA:                  -0.228
REMARK UNBOUND:                -0.164
REMARK SMILES O=c1c(O)c(-c2ccc(O)c(O)c2)oc2cc(O)cc(O)c12
REMARK SMILES IDX 5 1 3 2 2 3 1 4 22 5 20 6 19 7 17 8 16 9 15 10 14 11 6 12
REMARK SMILES IDX 7 13 8 14 9 15 13 16 11 17 10 18 12 20 4 22 21 24 18 26
REMARK H PARENT 10 19 12 21 4 23 21 25 18 27
REMARK Flexibility Score: inf
ROOT
ATOM      1  C   UNL     1      40.246 -95.640  35.798  1.00  0.00     0.180 A 
ATOM      2  C   UNL     1      41.426 -95.627  35.033  1.00  0.00     0.208 A 
ATOM      3  C   UNL     1      41.334 -95.464  33.641  1.00  0.00     0.238 A 
ATOM      4  O   UNL     1      42.396 -95.380  32.973  1.00  0.00    -0.285 OA
ATOM      5  C   UNL     1      40.063 -95.373  33.024  1.00  0.00     0.111 A 
ATOM      6  C   UNL     1      39.848 -95.252  31.618  1.00  0.00     0.134 A 
ATOM      7  C   UNL     1      38.549 -95.062  31.131  1.00  0.00     0.093 A 
ATOM      8  C   UNL     1      37.450 -95.054  31.992  1.00  0.00     0.123 A 
ATOM      9  C   UNL     1      37.643 -95.227  33.360  1.00  0.00     0.094 A 
ATOM     10  C   UNL     1      38.930 -95.379  33.881  1.00  0.00     0.146 A 
ATOM     11  O   UNL     1      39.070 -95.520  35.194  1.00  0.00    -0.452 OA
ENDROOT
BRANCH   1  12
ATOM     12  C   UNL     1      40.263 -95.792  37.270  1.00  0.00     0.025 A 
ATOM     13  C   UNL     1      40.606 -97.013  37.877  1.00  0.00     0.016 A 
ATOM     14  C   UNL     1      40.639 -97.125  39.269  1.00  0.00     0.051 A 
ATOM     15  C   UNL     1      40.343 -96.017  40.075  1.00  0.00     0.157 A 
ATOM     16  C   UNL     1      39.988 -94.680  38.082  1.00  0.00     0.062 A 
ATOM     17  C   UNL     1      40.019 -94.788  39.477  1.00  0.00     0.158 A 
BRANCH  15  18
ATOM     18  O   UNL     1      40.374 -96.133  41.464  1.00  0.00    -0.504 OA
ATOM     19  H   UNL     1      40.170 -97.011  41.927  1.00  0.00     0.293 HD
ENDBRANCH  15  18
BRANCH  17  20
ATOM     20  O   UNL     1      39.727 -93.665  40.250  1.00  0.00    -0.504 OA
ATOM     21  H   UNL     1      40.453 -93.062  40.618  1.00  0.00     0.293 HD
ENDBRANCH  17  20
ENDBRANCH   1  12
BRANCH   2  22
ATOM     22  O   UNL     1      42.667 -95.796  35.652  1.00  0.00    -0.502 OA
ATOM     23  H   UNL     1      42.758 -96.086  36.617  1.00  0.00     0.293 HD
ENDBRANCH   2  22
BRANCH   6  24
ATOM     24  O   UNL     1      40.864 -95.335  30.661  1.00  0.00    -0.507 OA
ATOM     25  H   UNL     1      41.804 -94.989  30.784  1.00  0.00     0.293 HD
ENDBRANCH   6  24
BRANCH   8  26
ATOM     26  O   UNL     1      36.159 -94.882  31.497  1.00  0.00    -0.508 OA
ATOM     27  H   UNL     1      35.395 -94.596  32.097  1.00  0.00     0.293 HD
ENDBRANCH   8  26
TORSDOF 6
ENDMDL
MODEL 7
REMARK VINA RESULT:    -5.394     15.012     16.613
REMARK INTER + INTRA:          -6.662
REMARK INTER:                  -6.466
REMARK INTRA:                  -0.196
REMARK UNBOUND:                -0.164
REMARK SMILES O=c1c(O)c(-c2ccc(O)c(O)c2)oc2cc(O)cc(O)c12
REMARK SMILES IDX 5 1 3 2 2 3 1 4 22 5 20 6 19 7 17 8 16 9 15 10 14 11 6 12
REMARK SMILES IDX 7 13 8 14 9 15 13 16 11 17 10 18 12 20 4 22 21 24 18 26
REMARK H PARENT 10 19 12 21 4 23 21 25 18 27
REMARK Flexibility Score: inf
ROOT
ATOM      1  C   UNL     1      37.299 -77.936  37.683  1.00  0.00     0.180 A 
ATOM      2  C   UNL     1      37.848 -77.826  36.393  1.00  0.00     0.208 A 
ATOM      3  C   UNL     1      36.985 -77.776  35.288  1.00  0.00     0.238 A 
ATOM      4  O   UNL     1      37.480 -77.603  34.144  1.00  0.00    -0.285 OA
ATOM      5  C   UNL     1      35.586 -77.892  35.478  1.00  0.00     0.111 A 
ATOM      6  C   UNL     1      34.620 -77.899  34.427  1.00  0.00     0.134 A 
ATOM      7  C   UNL     1      33.256 -77.912  34.742  1.00  0.00     0.093 A 
ATOM      8  C   UNL     1      32.823 -77.983  36.068  1.00  0.00     0.123 A 
ATOM      9  C   UNL     1      33.758 -78.033  37.099  1.00  0.00     0.094 A 
ATOM     10  C   UNL     1      35.126 -77.982  36.819  1.00  0.00     0.146 A 
ATOM     11  O   UNL     1      35.982 -78.010  37.833  1.00  0.00    -0.452 OA
ENDROOT
BRANCH   1  12
ATOM     12  C   UNL     1      38.143 -77.980  38.898  1.00  0.00     0.025 A 
ATOM     13  C   UNL     1      38.919 -76.877  39.292  1.00  0.00     0.016 A 
ATOM     14  C   UNL     1      39.689 -76.934  40.457  1.00  0.00     0.051 A 
ATOM     15  C   UNL     1      39.684 -78.088  41.252  1.00  0.00     0.157 A 
ATOM     16  C   UNL     1      38.125 -79.126  39.710  1.00  0.00     0.062 A 
ATOM     17  C   UNL     1      38.896 -79.188  40.876  1.00  0.00     0.158 A 
BRANCH  15  18
ATOM     18  O   UNL     1      40.456 -78.142  42.412  1.00  0.00    -0.504 OA
ATOM     19  H   UNL     1      40.450 -78.956  43.015  1.00  0.00     0.293 HD
ENDBRANCH  15  18
BRANCH  17  20
ATOM     20  O   UNL     1      38.863 -80.347  41.650  1.00  0.00    -0.504 OA
ATOM     21  H   UNL     1      39.309 -81.206  41.351  1.00  0.00     0.293 HD
ENDBRANCH  17  20
ENDBRANCH   1  12
BRANCH   2  22
ATOM     22  O   UNL     1      39.234 -77.791  36.220  1.00  0.00    -0.502 OA
ATOM     23  H   UNL     1      39.822 -77.108  36.682  1.00  0.00     0.293 HD
ENDBRANCH   2  22
BRANCH   6  24
ATOM     24  O   UNL     1      34.943 -77.919  33.067  1.00  0.00    -0.507 OA
ATOM     25  H   UNL     1      35.819 -78.246  32.685  1.00  0.00     0.293 HD
ENDBRANCH   6  24
BRANCH   8  26
ATOM     26  O   UNL     1      31.464 -78.013  36.372  1.00  0.00    -0.508 OA
ATOM     27  H   UNL     1      31.134 -77.990  37.329  1.00  0.00     0.293 HD
ENDBRANCH   8  26
TORSDOF 6
ENDMDL
MODEL 8
REMARK VINA RESULT:    -5.340      9.352     10.806
REMARK INTER + INTRA:          -6.596
REMARK INTER:                  -6.336
REMARK INTRA:                  -0.260
REMARK UNBOUND:                -0.164
REMARK SMILES O=c1c(O)c(-c2ccc(O)c(O)c2)oc2cc(O)cc(O)c12
REMARK SMILES IDX 5 1 3 2 2 3 1 4 22 5 20 6 19 7 17 8 16 9 15 10 14 11 6 12
REMARK SMILES IDX 7 13 8 14 9 15 13 16 11 17 10 18 12 20 4 22 21 24 18 26
REMARK H PARENT 10 19 12 21 4 23 21 25 18 27
REMARK Flexibility Score: inf
ROOT
ATOM      1  C   UNL     1      36.226 -95.590  30.208  1.00  0.00     0.180 A 
ATOM      2  C   UNL     1      37.253 -96.043  29.361  1.00  0.00     0.208 A 
ATOM      3  C   UNL     1      38.578 -96.014  29.822  1.00  0.00     0.238 A 
ATOM      4  O   UNL     1      39.482 -96.489  29.087  1.00  0.00    -0.285 OA
ATOM      5  C   UNL     1      38.869 -95.481  31.101  1.00  0.00     0.111 A 
ATOM      6  C   UNL     1      40.180 -95.361  31.653  1.00  0.00     0.134 A 
ATOM      7  C   UNL     1      40.337 -94.916  32.972  1.00  0.00     0.093 A 
ATOM      8  C   UNL     1      39.236 -94.527  33.737  1.00  0.00     0.123 A 
ATOM      9  C   UNL     1      37.957 -94.588  33.189  1.00  0.00     0.094 A 
ATOM     10  C   UNL     1      37.764 -95.064  31.890  1.00  0.00     0.146 A 
ATOM     11  O   UNL     1      36.526 -95.126  31.415  1.00  0.00    -0.452 OA
ENDROOT
BRANCH   1  12
ATOM     12  C   UNL     1      34.803 -95.603  29.799  1.00  0.00     0.025 A 
ATOM     13  C   UNL     1      33.896 -96.534  30.333  1.00  0.00     0.016 A 
ATOM     14  C   UNL     1      32.552 -96.511  29.950  1.00  0.00     0.051 A 
ATOM     15  C   UNL     1      32.093 -95.549  29.039  1.00  0.00     0.157 A 
ATOM     16  C   UNL     1      34.333 -94.628  28.904  1.00  0.00     0.062 A 
ATOM     17  C   UNL     1      32.989 -94.602  28.517  1.00  0.00     0.158 A 
BRANCH  15  18
ATOM     18  O   UNL     1      30.752 -95.531  28.657  1.00  0.00    -0.504 OA
ATOM     19  H   UNL     1      30.479 -95.523  27.682  1.00  0.00     0.293 HD
ENDBRANCH  15  18
BRANCH  17  20
ATOM     20  O   UNL     1      32.562 -93.628  27.615  1.00  0.00    -0.504 OA
ATOM     21  H   UNL     1      33.054 -93.443  26.749  1.00  0.00     0.293 HD
ENDBRANCH  17  20
ENDBRANCH   1  12
BRANCH   2  22
ATOM     22  O   UNL     1      36.953 -96.493  28.073  1.00  0.00    -0.502 OA
ATOM     23  H   UNL     1      36.224 -97.171  27.889  1.00  0.00     0.293 HD
ENDBRANCH   2  22
BRANCH   6  24
ATOM     24  O   UNL     1      41.355 -95.637  30.947  1.00  0.00    -0.507 OA
ATOM     25  H   UNL     1      42.225 -95.137  31.054  1.00  0.00     0.293 HD
ENDBRANCH   6  24
BRANCH   8  26
ATOM     26  O   UNL     1      39.403 -94.070  35.042  1.00  0.00    -0.508 OA
ATOM     27  H   UNL     1      38.694 -93.511  35.503  1.00  0.00     0.293 HD
ENDBRANCH   8  26
TORSDOF 6
ENDMDL
MODEL 9
REMARK VINA RESULT:    -5.153     10.533     12.011
REMARK INTER + INTRA:          -6.371
REMARK INTER:                  -6.049
REMARK INTRA:                  -0.322
REMARK UNBOUND:                -0.164
REMARK SMILES O=c1c(O)c(-c2ccc(O)c(O)c2)oc2cc(O)cc(O)c12
REMARK SMILES IDX 5 1 3 2 2 3 1 4 22 5 20 6 19 7 17 8 16 9 15 10 14 11 6 12
REMARK SMILES IDX 7 13 8 14 9 15 13 16 11 17 10 18 12 20 4 22 21 24 18 26
REMARK H PARENT 10 19 12 21 4 23 21 25 18 27
REMARK Flexibility Score: inf
ROOT
ATOM      1  C   UNL     1      40.035 -95.250  31.335  1.00  0.00     0.180 A 
ATOM      2  C   UNL     1      38.683 -95.384  31.698  1.00  0.00     0.208 A 
ATOM      3  C   UNL     1      38.342 -95.399  33.060  1.00  0.00     0.238 A 
ATOM      4  O   UNL     1      37.125 -95.446  33.376  1.00  0.00    -0.285 OA
ATOM      5  C   UNL     1      39.359 -95.336  34.043  1.00  0.00     0.111 A 
ATOM      6  C   UNL     1      39.133 -95.389  35.451  1.00  0.00     0.134 A 
ATOM      7  C   UNL     1      40.208 -95.210  36.331  1.00  0.00     0.093 A 
ATOM      8  C   UNL     1      41.510 -95.045  35.854  1.00  0.00     0.123 A 
ATOM      9  C   UNL     1      41.749 -95.048  34.482  1.00  0.00     0.094 A 
ATOM     10  C   UNL     1      40.693 -95.185  33.579  1.00  0.00     0.146 A 
ATOM     11  O   UNL     1      40.964 -95.160  32.279  1.00  0.00    -0.452 OA
ENDROOT
BRANCH   1  12
ATOM     12  C   UNL     1      40.471 -95.211  29.921  1.00  0.00     0.025 A 
ATOM     13  C   UNL     1      40.824 -96.383  29.230  1.00  0.00     0.016 A 
ATOM     14  C   UNL     1      41.209 -96.323  27.888  1.00  0.00     0.051 A 
ATOM     15  C   UNL     1      41.234 -95.095  27.213  1.00  0.00     0.157 A 
ATOM     16  C   UNL     1      40.477 -93.986  29.233  1.00  0.00     0.062 A 
ATOM     17  C   UNL     1      40.863 -93.922  27.890  1.00  0.00     0.158 A 
BRANCH  15  18
ATOM     18  O   UNL     1      41.621 -95.039  25.875  1.00  0.00    -0.504 OA
ATOM     19  H   UNL     1      40.959 -95.198  25.124  1.00  0.00     0.293 HD
ENDBRANCH  15  18
BRANCH  17  20
ATOM     20  O   UNL     1      40.869 -92.686  27.245  1.00  0.00    -0.504 OA
ATOM     21  H   UNL     1      40.016 -92.236  26.935  1.00  0.00     0.293 HD
ENDBRANCH  17  20
ENDBRANCH   1  12
BRANCH   2  22
ATOM     22  O   UNL     1      37.701 -95.523  30.714  1.00  0.00    -0.502 OA
ATOM     23  H   UNL     1      37.098 -96.334  30.657  1.00  0.00     0.293 HD
ENDBRANCH   2  22
BRANCH   6  24
ATOM     24  O   UNL     1      37.888 -95.637  36.035  1.00  0.00    -0.507 OA
ATOM     25  H   UNL     1      37.477 -95.089  36.777  1.00  0.00     0.293 HD
ENDBRANCH   6  24
BRANCH   8  26
ATOM     26  O   UNL     1      42.576 -94.886  36.737  1.00  0.00    -0.508 OA
ATOM     27  H   UNL     1      42.743 -95.542  37.490  1.00  0.00     0.293 HD
ENDBRANCH   8  26
TORSDOF 6
ENDMDL
