MODEL 1
REMARK VINA RESULT:    -3.290      0.000      0.000
REMARK INTER + INTRA:          -8.131
REMARK INTER:                  -5.791
REMARK INTRA:                  -2.340
REMARK UNBOUND:                -2.340
REMARK SMILES CCCCCCCCCCCCCCC(=O)[O-]
REMARK SMILES IDX 9 1 10 2 11 3 12 4 13 5 14 6 15 7 16 8 17 9 8 10 7 11 6 12
REMARK SMILES IDX 5 13 4 14 3 15 2 16 1 17
REMARK H PARENT
REMARK Flexibility Score: inf
ROOT
ATOM      1  C   UNL     1       7.706 -32.982  14.699  1.00  0.00     0.000 C 
ENDROOT
BRANCH   1   2
ATOM      2  C   UNL     1       7.025 -33.289  16.041  1.00  0.00     0.000 C 
BRANCH   2   3
ATOM      3  C   UNL     1       7.188 -32.149  17.059  1.00  0.00     0.000 C 
BRANCH   3   4
ATOM      4  C   UNL     1       6.288 -30.941  16.745  1.00  0.00     0.000 C 
BRANCH   4   5
ATOM      5  C   UNL     1       7.091 -29.647  16.534  1.00  0.00     0.006 C 
BRANCH   5   6
ATOM      6  C   UNL     1       8.606 -29.875  16.612  1.00  0.00     0.053 C 
BRANCH   6   7
ATOM      7  C   UNL     1       9.205 -29.048  17.705  1.00  0.00     0.041 C 
ATOM      8  O   UNL     1       8.784 -29.159  18.886  1.00  0.00    -0.550 OA
ATOM      9  O   UNL     1      10.197 -28.121  17.412  1.00  0.00    -0.550 OA
ENDBRANCH   6   7
ENDBRANCH   5   6
ENDBRANCH   4   5
ENDBRANCH   3   4
ENDBRANCH   2   3
ENDBRANCH   1   2
BRANCH   1  10
ATOM     10  C   UNL     1       6.776 -33.311  13.524  1.00  0.00     0.000 C 
BRANCH  10  11
ATOM     11  C   UNL     1       6.786 -32.187  12.482  1.00  0.00    -0.000 C 
BRANCH  11  12
ATOM     12  C   UNL     1       6.130 -30.914  13.040  1.00  0.00    -0.000 C 
BRANCH  12  13
ATOM     13  C   UNL     1       6.985 -29.654  12.816  1.00  0.00    -0.000 C 
BRANCH  13  14
ATOM     14  C   UNL     1       8.360 -29.904  12.162  1.00  0.00    -0.000 C 
BRANCH  14  15
ATOM     15  C   UNL     1       9.572 -29.482  13.012  1.00  0.00    -0.000 C 
BRANCH  15  16
ATOM     16  C   UNL     1      10.408 -30.677  13.492  1.00  0.00    -0.003 C 
ATOM     17  C   UNL     1      10.506 -31.749  12.411  1.00  0.00     0.004 C 
ENDBRANCH  15  16
ENDBRANCH  14  15
ENDBRANCH  13  14
ENDBRANCH  12  13
ENDBRANCH  11  12
ENDBRANCH  10  11
ENDBRANCH   1  10
TORSDOF 13
ENDMDL
MODEL 2
REMARK VINA RESULT:    -3.223      1.293      2.682
REMARK INTER + INTRA:          -8.012
REMARK INTER:                  -5.938
REMARK INTRA:                  -2.074
REMARK UNBOUND:                -2.340
REMARK SMILES CCCCCCCCCCCCCCC(=O)[O-]
REMARK SMILES IDX 9 1 10 2 11 3 12 4 13 5 14 6 15 7 16 8 17 9 8 10 7 11 6 12
REMARK SMILES IDX 5 13 4 14 3 15 2 16 1 17
REMARK H PARENT
REMARK Flexibility Score: inf
ROOT
ATOM      1  C   UNL     1       6.976 -30.012  14.141  1.00  0.00     0.000 C 
ENDROOT
BRANCH   1   2
ATOM      2  C   UNL     1       5.967 -31.136  14.418  1.00  0.00     0.000 C 
BRANCH   2   3
ATOM      3  C   UNL     1       6.274 -31.898  15.717  1.00  0.00     0.000 C 
BRANCH   3   4
ATOM      4  C   UNL     1       7.629 -31.503  16.329  1.00  0.00     0.000 C 
BRANCH   4   5
ATOM      5  C   UNL     1       7.526 -31.169  17.826  1.00  0.00     0.006 C 
BRANCH   5   6
ATOM      6  C   UNL     1       7.501 -29.658  18.090  1.00  0.00     0.053 C 
BRANCH   6   7
ATOM      7  C   UNL     1       8.891 -29.138  18.289  1.00  0.00     0.041 C 
ATOM      8  O   UNL     1       9.369 -29.039  19.449  1.00  0.00    -0.550 OA
ATOM      9  O   UNL     1       9.640 -28.721  17.197  1.00  0.00    -0.550 OA
ENDBRANCH   6   7
ENDBRANCH   5   6
ENDBRANCH   4   5
ENDBRANCH   3   4
ENDBRANCH   2   3
ENDBRANCH   1   2
BRANCH   1  10
ATOM     10  C   UNL     1       7.091 -29.735  12.637  1.00  0.00     0.000 C 
BRANCH  10  11
ATOM     11  C   UNL     1       8.539 -29.420  12.243  1.00  0.00    -0.000 C 
BRANCH  11  12
ATOM     12  C   UNL     1       9.472 -29.514  13.459  1.00  0.00    -0.000 C 
BRANCH  12  13
ATOM     13  C   UNL     1      10.862 -30.073  13.105  1.00  0.00    -0.000 C 
BRANCH  13  14
ATOM     14  C   UNL     1      10.934 -31.608  12.968  1.00  0.00    -0.000 C 
BRANCH  14  15
ATOM     15  C   UNL     1      10.082 -32.394  13.981  1.00  0.00    -0.000 C 
BRANCH  15  16
ATOM     16  C   UNL     1       9.413 -33.630  13.364  1.00  0.00    -0.003 C 
ATOM     17  C   UNL     1       8.283 -33.229  12.420  1.00  0.00     0.004 C 
ENDBRANCH  15  16
ENDBRANCH  14  15
ENDBRANCH  13  14
ENDBRANCH  12  13
ENDBRANCH  11  12
ENDBRANCH  10  11
ENDBRANCH   1  10
TORSDOF 13
ENDMDL
MODEL 3
REMARK VINA RESULT:    -3.138      1.276      2.367
REMARK INTER + INTRA:          -7.862
REMARK INTER:                  -6.151
REMARK INTRA:                  -1.711
REMARK UNBOUND:                -2.340
REMARK SMILES CCCCCCCCCCCCCCC(=O)[O-]
REMARK SMILES IDX 9 1 10 2 11 3 12 4 13 5 14 6 15 7 16 8 17 9 8 10 7 11 6 12
REMARK SMILES IDX 5 13 4 14 3 15 2 16 1 17
REMARK H PARENT
REMARK Flexibility Score: inf
ROOT
ATOM      1  C   UNL     1       8.231 -32.991  14.979  1.00  0.00     0.000 C 
ENDROOT
BRANCH   1   2
ATOM      2  C   UNL     1       6.787 -32.509  15.190  1.00  0.00     0.000 C 
BRANCH   2   3
ATOM      3  C   UNL     1       6.589 -31.815  16.547  1.00  0.00     0.000 C 
BRANCH   3   4
ATOM      4  C   UNL     1       6.040 -30.384  16.406  1.00  0.00     0.000 C 
BRANCH   4   5
ATOM      5  C   UNL     1       6.322 -29.520  17.646  1.00  0.00     0.006 C 
BRANCH   5   6
ATOM      6  C   UNL     1       7.447 -30.092  18.518  1.00  0.00     0.053 C 
BRANCH   6   7
ATOM      7  C   UNL     1       8.699 -29.288  18.351  1.00  0.00     0.041 C 
ATOM      8  O   UNL     1       9.240 -28.745  19.349  1.00  0.00    -0.550 OA
ATOM      9  O   UNL     1       9.242 -29.102  17.086  1.00  0.00    -0.550 OA
ENDBRANCH   6   7
ENDBRANCH   5   6
ENDBRANCH   4   5
ENDBRANCH   3   4
ENDBRANCH   2   3
ENDBRANCH   1   2
BRANCH   1  10
ATOM     10  C   UNL     1       8.336 -33.883  13.736  1.00  0.00     0.000 C 
BRANCH  10  11
ATOM     11  C   UNL     1       9.735 -33.797  13.113  1.00  0.00    -0.000 C 
BRANCH  11  12
ATOM     12  C   UNL     1      10.557 -32.673  13.761  1.00  0.00    -0.000 C 
BRANCH  12  13
ATOM     13  C   UNL     1      11.229 -31.752  12.727  1.00  0.00    -0.000 C 
BRANCH  13  14
ATOM     14  C   UNL     1      10.293 -30.722  12.061  1.00  0.00    -0.000 C 
BRANCH  14  15
ATOM     15  C   UNL     1       9.973 -29.484  12.917  1.00  0.00    -0.000 C 
BRANCH  15  16
ATOM     16  C   UNL     1       8.647 -29.614  13.680  1.00  0.00    -0.003 C 
ATOM     17  C   UNL     1       7.475 -29.792  12.720  1.00  0.00     0.004 C 
ENDBRANCH  15  16
ENDBRANCH  14  15
ENDBRANCH  13  14
ENDBRANCH  12  13
ENDBRANCH  11  12
ENDBRANCH  10  11
ENDBRANCH   1  10
TORSDOF 13
ENDMDL
MODEL 4
REMARK VINA RESULT:    -3.116      2.616      5.538
REMARK INTER + INTRA:          -7.825
REMARK INTER:                  -6.139
REMARK INTRA:                  -1.685
REMARK UNBOUND:                -2.340
REMARK SMILES CCCCCCCCCCCCCCC(=O)[O-]
REMARK SMILES IDX 9 1 10 2 11 3 12 4 13 5 14 6 15 7 16 8 17 9 8 10 7 11 6 12
REMARK SMILES IDX 5 13 4 14 3 15 2 16 1 17
REMARK H PARENT
REMARK Flexibility Score: inf
ROOT
ATOM      1  C   UNL     1      10.189 -28.139  17.509  1.00  0.00     0.000 C 
ENDROOT
BRANCH   1   2
ATOM      2  C   UNL     1       9.992 -28.771  16.123  1.00  0.00     0.000 C 
BRANCH   2   3
ATOM      3  C   UNL     1      11.131 -28.427  15.150  1.00  0.00     0.000 C 
BRANCH   3   4
ATOM      4  C   UNL     1      11.008 -29.167  13.807  1.00  0.00     0.000 C 
BRANCH   4   5
ATOM      5  C   UNL     1       9.677 -29.925  13.671  1.00  0.00     0.006 C 
BRANCH   5   6
ATOM      6  C   UNL     1       9.765 -31.094  12.681  1.00  0.00     0.053 C 
BRANCH   6   7
ATOM      7  C   UNL     1      10.774 -32.098  13.144  1.00  0.00     0.041 C 
ATOM      8  O   UNL     1      11.867 -32.226  12.532  1.00  0.00    -0.550 OA
ATOM      9  O   UNL     1      10.489 -32.924  14.223  1.00  0.00    -0.550 OA
ENDBRANCH   6   7
ENDBRANCH   5   6
ENDBRANCH   4   5
ENDBRANCH   3   4
ENDBRANCH   2   3
ENDBRANCH   1   2
BRANCH   1  10
ATOM     10  C   UNL     1       9.211 -28.736  18.528  1.00  0.00     0.000 C 
BRANCH  10  11
ATOM     11  C   UNL     1       8.395 -29.876  17.907  1.00  0.00    -0.000 C 
BRANCH  11  12
ATOM     12  C   UNL     1       6.906 -29.742  18.259  1.00  0.00    -0.000 C 
BRANCH  12  13
ATOM     13  C   UNL     1       6.015 -29.537  17.021  1.00  0.00    -0.000 C 
BRANCH  13  14
ATOM     14  C   UNL     1       6.559 -30.152  15.715  1.00  0.00    -0.000 C 
BRANCH  14  15
ATOM     15  C   UNL     1       6.125 -31.604  15.448  1.00  0.00    -0.000 C 
BRANCH  15  16
ATOM     16  C   UNL     1       7.257 -32.616  15.677  1.00  0.00    -0.003 C 
ATOM     17  C   UNL     1       7.109 -33.309  17.028  1.00  0.00     0.004 C 
ENDBRANCH  15  16
ENDBRANCH  14  15
ENDBRANCH  13  14
ENDBRANCH  12  13
ENDBRANCH  11  12
ENDBRANCH  10  11
ENDBRANCH   1  10
TORSDOF 13
ENDMDL
MODEL 5
REMARK VINA RESULT:    -3.115      1.438      3.778
REMARK INTER + INTRA:          -7.823
REMARK INTER:                  -5.893
REMARK INTRA:                  -1.930
REMARK UNBOUND:                -2.340
REMARK SMILES CCCCCCCCCCCCCCC(=O)[O-]
REMARK SMILES IDX 9 1 10 2 11 3 12 4 13 5 14 6 15 7 16 8 17 9 8 10 7 11 6 12
REMARK SMILES IDX 5 13 4 14 3 15 2 16 1 17
REMARK H PARENT
REMARK Flexibility Score: inf
ROOT
ATOM      1  C   UNL     1      10.676 -29.265  13.827  1.00  0.00     0.000 C 
ENDROOT
BRANCH   1   2
ATOM      2  C   UNL     1       9.713 -29.408  15.015  1.00  0.00     0.000 C 
BRANCH   2   3
ATOM      3  C   UNL     1       8.254 -29.602  14.574  1.00  0.00     0.000 C 
BRANCH   3   4
ATOM      4  C   UNL     1       7.320 -29.945  15.747  1.00  0.00     0.000 C 
BRANCH   4   5
ATOM      5  C   UNL     1       8.089 -30.274  17.037  1.00  0.00     0.006 C 
BRANCH   5   6
ATOM      6  C   UNL     1       7.855 -29.235  18.142  1.00  0.00     0.053 C 
BRANCH   6   7
ATOM      7  C   UNL     1       9.161 -28.744  18.683  1.00  0.00     0.041 C 
ATOM      8  O   UNL     1       9.920 -28.043  17.964  1.00  0.00    -0.550 OA
ATOM      9  O   UNL     1       9.560 -29.099  19.965  1.00  0.00    -0.550 OA
ENDBRANCH   6   7
ENDBRANCH   5   6
ENDBRANCH   4   5
ENDBRANCH   3   4
ENDBRANCH   2   3
ENDBRANCH   1   2
BRANCH   1  10
ATOM     10  C   UNL     1       9.953 -29.525  12.500  1.00  0.00     0.000 C 
BRANCH  10  11
ATOM     11  C   UNL     1      10.407 -30.850  11.875  1.00  0.00    -0.000 C 
BRANCH  11  12
ATOM     12  C   UNL     1      11.477 -31.529  12.743  1.00  0.00    -0.000 C 
BRANCH  12  13
ATOM     13  C   UNL     1      11.065 -32.937  13.208  1.00  0.00    -0.000 C 
BRANCH  13  14
ATOM     14  C   UNL     1       9.953 -32.975  14.277  1.00  0.00    -0.000 C 
BRANCH  14  15
ATOM     15  C   UNL     1       8.755 -33.880  13.939  1.00  0.00    -0.000 C 
BRANCH  15  16
ATOM     16  C   UNL     1       7.439 -33.101  13.807  1.00  0.00    -0.003 C 
ATOM     17  C   UNL     1       7.152 -32.750  12.351  1.00  0.00     0.004 C 
ENDBRANCH  15  16
ENDBRANCH  14  15
ENDBRANCH  13  14
ENDBRANCH  12  13
ENDBRANCH  11  12
ENDBRANCH  10  11
ENDBRANCH   1  10
TORSDOF 13
ENDMDL
MODEL 6
REMARK VINA RESULT:    -2.969      1.619      4.108
REMARK INTER + INTRA:          -7.566
REMARK INTER:                  -5.392
REMARK INTRA:                  -2.174
REMARK UNBOUND:                -2.340
REMARK SMILES CCCCCCCCCCCCCCC(=O)[O-]
REMARK SMILES IDX 9 1 10 2 11 3 12 4 13 5 14 6 15 7 16 8 17 9 8 10 7 11 6 12
REMARK SMILES IDX 5 13 4 14 3 15 2 16 1 17
REMARK H PARENT
REMARK Flexibility Score: inf
ROOT
ATOM      1  C   UNL     1      10.692 -29.426  13.777  1.00  0.00     0.000 C 
ENDROOT
BRANCH   1   2
ATOM      2  C   UNL     1       9.609 -29.500  14.864  1.00  0.00     0.000 C 
BRANCH   2   3
ATOM      3  C   UNL     1       8.223 -29.838  14.294  1.00  0.00     0.000 C 
BRANCH   3   4
ATOM      4  C   UNL     1       7.413 -30.765  15.217  1.00  0.00     0.000 C 
BRANCH   4   5
ATOM      5  C   UNL     1       8.248 -31.313  16.385  1.00  0.00     0.006 C 
BRANCH   5   6
ATOM      6  C   UNL     1       7.525 -31.196  17.733  1.00  0.00     0.053 C 
BRANCH   6   7
ATOM      7  C   UNL     1       7.451 -29.765  18.164  1.00  0.00     0.041 C 
ATOM      8  O   UNL     1       8.498 -29.147  18.490  1.00  0.00    -0.550 OA
ATOM      9  O   UNL     1       6.220 -29.127  18.251  1.00  0.00    -0.550 OA
ENDBRANCH   6   7
ENDBRANCH   5   6
ENDBRANCH   4   5
ENDBRANCH   3   4
ENDBRANCH   2   3
ENDBRANCH   1   2
BRANCH   1  10
ATOM     10  C   UNL     1      10.432 -30.457  12.672  1.00  0.00     0.000 C 
BRANCH  10  11
ATOM     11  C   UNL     1      11.217 -31.749  12.927  1.00  0.00    -0.000 C 
BRANCH  11  12
ATOM     12  C   UNL     1      10.277 -32.887  13.355  1.00  0.00    -0.000 C 
BRANCH  12  13
ATOM     13  C   UNL     1       9.231 -33.235  12.281  1.00  0.00    -0.000 C 
BRANCH  13  14
ATOM     14  C   UNL     1       7.804 -33.483  12.814  1.00  0.00    -0.000 C 
BRANCH  14  15
ATOM     15  C   UNL     1       7.728 -34.281  14.127  1.00  0.00    -0.000 C 
BRANCH  15  16
ATOM     16  C   UNL     1       6.292 -34.442  14.645  1.00  0.00    -0.003 C 
ATOM     17  C   UNL     1       6.249 -34.401  16.169  1.00  0.00     0.004 C 
ENDBRANCH  15  16
ENDBRANCH  14  15
ENDBRANCH  13  14
ENDBRANCH  12  13
ENDBRANCH  11  12
ENDBRANCH  10  11
ENDBRANCH   1  10
TORSDOF 13
ENDMDL
MODEL 7
REMARK VINA RESULT:    -2.939      1.346      2.748
REMARK INTER + INTRA:          -7.513
REMARK INTER:                  -5.443
REMARK INTRA:                  -2.070
REMARK UNBOUND:                -2.340
REMARK SMILES CCCCCCCCCCCCCCC(=O)[O-]
REMARK SMILES IDX 9 1 10 2 11 3 12 4 13 5 14 6 15 7 16 8 17 9 8 10 7 11 6 12
REMARK SMILES IDX 5 13 4 14 3 15 2 16 1 17
REMARK H PARENT
REMARK Flexibility Score: inf
ROOT
ATOM      1  C   UNL     1       6.506 -32.540  13.242  1.00  0.00     0.000 C 
ENDROOT
BRANCH   1   2
ATOM      2  C   UNL     1       6.574 -31.020  13.027  1.00  0.00     0.000 C 
BRANCH   2   3
ATOM      3  C   UNL     1       6.774 -30.247  14.340  1.00  0.00     0.000 C 
BRANCH   3   4
ATOM      4  C   UNL     1       7.039 -31.174  15.540  1.00  0.00     0.000 C 
BRANCH   4   5
ATOM      5  C   UNL     1       8.409 -30.922  16.189  1.00  0.00     0.006 C 
BRANCH   5   6
ATOM      6  C   UNL     1       8.553 -29.490  16.721  1.00  0.00     0.053 C 
BRANCH   6   7
ATOM      7  C   UNL     1       8.472 -29.476  18.215  1.00  0.00     0.041 C 
ATOM      8  O   UNL     1       9.400 -28.965  18.894  1.00  0.00    -0.550 OA
ATOM      9  O   UNL     1       7.393 -30.068  18.858  1.00  0.00    -0.550 OA
ENDBRANCH   6   7
ENDBRANCH   5   6
ENDBRANCH   4   5
ENDBRANCH   3   4
ENDBRANCH   2   3
ENDBRANCH   1   2
BRANCH   1  10
ATOM     10  C   UNL     1       7.617 -33.255  12.464  1.00  0.00     0.000 C 
BRANCH  10  11
ATOM     11  C   UNL     1       8.354 -34.263  13.356  1.00  0.00    -0.000 C 
BRANCH  11  12
ATOM     12  C   UNL     1       9.865 -33.990  13.361  1.00  0.00    -0.000 C 
BRANCH  12  13
ATOM     13  C   UNL     1      10.210 -32.542  13.754  1.00  0.00    -0.000 C 
BRANCH  13  14
ATOM     14  C   UNL     1      11.079 -31.776  12.735  1.00  0.00    -0.000 C 
BRANCH  14  15
ATOM     15  C   UNL     1      10.369 -30.615  12.016  1.00  0.00    -0.000 C 
BRANCH  15  16
ATOM     16  C   UNL     1       9.955 -29.487  12.972  1.00  0.00    -0.003 C 
ATOM     17  C   UNL     1      11.115 -29.076  13.872  1.00  0.00     0.004 C 
ENDBRANCH  15  16
ENDBRANCH  14  15
ENDBRANCH  13  14
ENDBRANCH  12  13
ENDBRANCH  11  12
ENDBRANCH  10  11
ENDBRANCH   1  10
TORSDOF 13
ENDMDL
MODEL 8
REMARK VINA RESULT:    -2.923      1.331      2.290
REMARK INTER + INTRA:          -7.485
REMARK INTER:                  -5.744
REMARK INTRA:                  -1.741
REMARK UNBOUND:                -2.340
REMARK SMILES CCCCCCCCCCCCCCC(=O)[O-]
REMARK SMILES IDX 9 1 10 2 11 3 12 4 13 5 14 6 15 7 16 8 17 9 8 10 7 11 6 12
REMARK SMILES IDX 5 13 4 14 3 15 2 16 1 17
REMARK H PARENT
REMARK Flexibility Score: inf
ROOT
ATOM      1  C   UNL     1       7.680 -32.470  13.343  1.00  0.00     0.000 C 
ENDROOT
BRANCH   1   2
ATOM      2  C   UNL     1       6.846 -33.651  13.861  1.00  0.00     0.000 C 
BRANCH   2   3
ATOM      3  C   UNL     1       5.993 -33.280  15.084  1.00  0.00     0.000 C 
BRANCH   3   4
ATOM      4  C   UNL     1       6.844 -32.953  16.323  1.00  0.00     0.000 C 
BRANCH   4   5
ATOM      5  C   UNL     1       6.631 -31.515  16.823  1.00  0.00     0.006 C 
BRANCH   5   6
ATOM      6  C   UNL     1       7.883 -30.934  17.493  1.00  0.00     0.053 C 
BRANCH   6   7
ATOM      7  C   UNL     1       7.565 -29.628  18.153  1.00  0.00     0.041 C 
ATOM      8  O   UNL     1       8.489 -28.919  18.630  1.00  0.00    -0.550 OA
ATOM      9  O   UNL     1       6.245 -29.217  18.281  1.00  0.00    -0.550 OA
ENDBRANCH   6   7
ENDBRANCH   5   6
ENDBRANCH   4   5
ENDBRANCH   3   4
ENDBRANCH   2   3
ENDBRANCH   1   2
BRANCH   1  10
ATOM     10  C   UNL     1       6.779 -31.380  12.751  1.00  0.00     0.000 C 
BRANCH  10  11
ATOM     11  C   UNL     1       7.049 -30.023  13.412  1.00  0.00    -0.000 C 
BRANCH  11  12
ATOM     12  C   UNL     1       8.540 -29.858  13.741  1.00  0.00    -0.000 C 
BRANCH  12  13
ATOM     13  C   UNL     1       9.357 -29.312  12.556  1.00  0.00    -0.000 C 
BRANCH  13  14
ATOM     14  C   UNL     1      10.344 -30.315  11.924  1.00  0.00    -0.000 C 
BRANCH  14  15
ATOM     15  C   UNL     1      11.173 -31.135  12.928  1.00  0.00    -0.000 C 
BRANCH  15  16
ATOM     16  C   UNL     1      11.386 -32.588  12.480  1.00  0.00    -0.003 C 
ATOM     17  C   UNL     1      11.356 -33.540  13.672  1.00  0.00     0.004 C 
ENDBRANCH  15  16
ENDBRANCH  14  15
ENDBRANCH  13  14
ENDBRANCH  12  13
ENDBRANCH  11  12
ENDBRANCH  10  11
ENDBRANCH   1  10
TORSDOF 13
ENDMDL
MODEL 9
REMARK VINA RESULT:    -2.867      1.394      4.403
REMARK INTER + INTRA:          -7.386
REMARK INTER:                  -5.608
REMARK INTRA:                  -1.777
REMARK UNBOUND:                -2.340
REMARK SMILES CCCCCCCCCCCCCCC(=O)[O-]
REMARK SMILES IDX 9 1 10 2 11 3 12 4 13 5 14 6 15 7 16 8 17 9 8 10 7 11 6 12
REMARK SMILES IDX 5 13 4 14 3 15 2 16 1 17
REMARK H PARENT
REMARK Flexibility Score: inf
ROOT
ATOM      1  C   UNL     1       6.478 -31.850  12.102  1.00  0.00     0.000 C 
ENDROOT
BRANCH   1   2
ATOM      2  C   UNL     1       6.264 -30.566  12.918  1.00  0.00     0.000 C 
BRANCH   2   3
ATOM      3  C   UNL     1       7.332 -29.499  12.632  1.00  0.00     0.000 C 
BRANCH   3   4
ATOM      4  C   UNL     1       8.572 -30.076  11.926  1.00  0.00     0.000 C 
BRANCH   4   5
ATOM      5  C   UNL     1       9.843 -29.965  12.783  1.00  0.00     0.006 C 
BRANCH   5   6
ATOM      6  C   UNL     1       9.546 -29.520  14.221  1.00  0.00     0.053 C 
BRANCH   6   7
ATOM      7  C   UNL     1      10.729 -28.811  14.804  1.00  0.00     0.041 C 
ATOM      8  O   UNL     1      11.771 -28.648  14.117  1.00  0.00    -0.550 OA
ATOM      9  O   UNL     1      10.696 -28.371  16.121  1.00  0.00    -0.550 OA
ENDBRANCH   6   7
ENDBRANCH   5   6
ENDBRANCH   4   5
ENDBRANCH   3   4
ENDBRANCH   2   3
ENDBRANCH   1   2
BRANCH   1  10
ATOM     10  C   UNL     1       6.538 -33.078  13.017  1.00  0.00     0.000 C 
BRANCH  10  11
ATOM     11  C   UNL     1       7.702 -32.970  14.010  1.00  0.00    -0.000 C 
BRANCH  11  12
ATOM     12  C   UNL     1       7.340 -33.620  15.354  1.00  0.00    -0.000 C 
BRANCH  12  13
ATOM     13  C   UNL     1       6.586 -32.665  16.296  1.00  0.00    -0.000 C 
BRANCH  13  14
ATOM     14  C   UNL     1       7.112 -31.214  16.314  1.00  0.00    -0.000 C 
BRANCH  14  15
ATOM     15  C   UNL     1       6.065 -30.146  16.677  1.00  0.00    -0.000 C 
BRANCH  15  16
ATOM     16  C   UNL     1       6.355 -29.458  18.018  1.00  0.00    -0.003 C 
ATOM     17  C   UNL     1       7.765 -29.779  18.506  1.00  0.00     0.004 C 
ENDBRANCH  15  16
ENDBRANCH  14  15
ENDBRANCH  13  14
ENDBRANCH  12  13
ENDBRANCH  11  12
ENDBRANCH  10  11
ENDBRANCH   1  10
TORSDOF 13
ENDMDL
