MODEL 1
REMARK VINA RESULT:    -3.531      0.000      0.000
REMARK INTER + INTRA:          -5.501
REMARK INTER:                  -4.769
REMARK INTRA:                  -0.732
REMARK UNBOUND:                -0.732
REMARK SMILES O=C[C@H](O)[C@@H](O)[C@@H](O)CO
REMARK SMILES IDX 7 1 9 2 10 3 5 5 3 6 2 7 1 8 4 9 6 11 8 13
REMARK H PARENT 10 4 4 10 6 12 8 14
REMARK Flexibility Score: inf
ROOT
ATOM      1  C   UNL     1       8.312   9.913  10.607  1.00  0.00     0.171 C 
ENDROOT
BRANCH   1   2
ATOM      2  C   UNL     1       8.794  11.367  10.459  1.00  0.00     0.190 C 
BRANCH   2   3
ATOM      3  O   UNL     1       8.473  12.113  11.602  1.00  0.00    -0.394 OA
ATOM      4  H   UNL     1       7.631  11.724  11.957  1.00  0.00     0.210 HD
ENDBRANCH   2   3
ENDBRANCH   1   2
BRANCH   1   5
ATOM      5  C   UNL     1       6.941   9.667   9.915  1.00  0.00     0.181 C 
BRANCH   5   6
ATOM      6  C   UNL     1       6.167   8.494  10.560  1.00  0.00     0.209 C 
BRANCH   6   7
ATOM      7  C   UNL     1       5.791   8.811  11.984  1.00  0.00     0.258 C 
ATOM      8  O   UNL     1       5.021   9.723  12.238  1.00  0.00    -0.300 OA
ENDBRANCH   6   7
BRANCH   6   9
ATOM      9  O   UNL     1       6.935   7.317  10.520  1.00  0.00    -0.383 OA
ATOM     10  H   UNL     1       6.395   6.638  10.038  1.00  0.00     0.211 HD
ENDBRANCH   6   9
ENDBRANCH   5   6
BRANCH   5  11
ATOM     11  O   UNL     1       6.163  10.841   9.913  1.00  0.00    -0.387 OA
ATOM     12  H   UNL     1       6.282  11.285  10.793  1.00  0.00     0.211 HD
ENDBRANCH   5  11
ENDBRANCH   1   5
BRANCH   1  13
ATOM     13  O   UNL     1       9.293   9.026  10.128  1.00  0.00    -0.388 OA
ATOM     14  H   UNL     1      10.138   9.221  10.612  1.00  0.00     0.211 HD
ENDBRANCH   1  13
TORSDOF 8
ENDMDL
MODEL 2
REMARK VINA RESULT:    -3.515     12.795     13.629
REMARK INTER + INTRA:          -5.480
REMARK INTER:                  -4.959
REMARK INTRA:                  -0.521
REMARK UNBOUND:                -0.732
REMARK SMILES O=C[C@H](O)[C@@H](O)[C@@H](O)CO
REMARK SMILES IDX 7 1 9 2 10 3 5 5 3 6 2 7 1 8 4 9 6 11 8 13
REMARK H PARENT 10 4 4 10 6 12 8 14
REMARK Flexibility Score: inf
ROOT
ATOM      1  C   UNL     1      11.004   7.048  24.448  1.00  0.00     0.171 C 
ENDROOT
BRANCH   1   2
ATOM      2  C   UNL     1      12.207   6.387  25.143  1.00  0.00     0.190 C 
BRANCH   2   3
ATOM      3  O   UNL     1      11.911   5.061  25.489  1.00  0.00    -0.394 OA
ATOM      4  H   UNL     1      11.404   4.684  24.723  1.00  0.00     0.210 HD
ENDBRANCH   2   3
ENDBRANCH   1   2
BRANCH   1   5
ATOM      5  C   UNL     1      11.415   7.842  23.175  1.00  0.00     0.181 C 
BRANCH   5   6
ATOM      6  C   UNL     1      11.999   6.919  22.079  1.00  0.00     0.209 C 
BRANCH   6   7
ATOM      7  C   UNL     1      12.728   7.718  21.031  1.00  0.00     0.258 C 
ATOM      8  O   UNL     1      12.113   8.372  20.204  1.00  0.00    -0.300 OA
ENDBRANCH   6   7
BRANCH   6   9
ATOM      9  O   UNL     1      10.978   6.163  21.478  1.00  0.00    -0.383 OA
ATOM     10  H   UNL     1      10.871   6.507  20.553  1.00  0.00     0.211 HD
ENDBRANCH   6   9
ENDBRANCH   5   6
BRANCH   5  11
ATOM     11  O   UNL     1      10.328   8.587  22.677  1.00  0.00    -0.387 OA
ATOM     12  H   UNL     1       9.495   8.099  22.907  1.00  0.00     0.211 HD
ENDBRANCH   5  11
ENDBRANCH   1   5
BRANCH   1  13
ATOM     13  O   UNL     1      10.022   6.084  24.155  1.00  0.00    -0.388 OA
ATOM     14  H   UNL     1       9.778   6.185  23.197  1.00  0.00     0.211 HD
ENDBRANCH   1  13
TORSDOF 8
ENDMDL
MODEL 3
REMARK VINA RESULT:    -3.397      1.696      3.477
REMARK INTER + INTRA:          -5.320
REMARK INTER:                  -4.832
REMARK INTRA:                  -0.489
REMARK UNBOUND:                -0.732
REMARK SMILES O=C[C@H](O)[C@@H](O)[C@@H](O)CO
REMARK SMILES IDX 7 1 9 2 10 3 5 5 3 6 2 7 1 8 4 9 6 11 8 13
REMARK H PARENT 10 4 4 10 6 12 8 14
REMARK Flexibility Score: inf
ROOT
ATOM      1  C   UNL     1       7.989   9.817  10.306  1.00  0.00     0.171 C 
ENDROOT
BRANCH   1   2
ATOM      2  C   UNL     1       6.842   8.867   9.921  1.00  0.00     0.190 C 
BRANCH   2   3
ATOM      3  O   UNL     1       7.045   7.596  10.477  1.00  0.00    -0.394 OA
ATOM      4  H   UNL     1       6.321   7.469  11.145  1.00  0.00     0.210 HD
ENDBRANCH   2   3
ENDBRANCH   1   2
BRANCH   1   5
ATOM      5  C   UNL     1       7.785  10.458  11.709  1.00  0.00     0.181 C 
BRANCH   5   6
ATOM      6  C   UNL     1       7.113  11.849  11.619  1.00  0.00     0.209 C 
BRANCH   6   7
ATOM      7  C   UNL     1       7.563  12.742  12.745  1.00  0.00     0.258 C 
ATOM      8  O   UNL     1       8.085  12.273  13.743  1.00  0.00    -0.300 OA
ENDBRANCH   6   7
BRANCH   6   9
ATOM      9  O   UNL     1       5.714  11.721  11.642  1.00  0.00    -0.383 OA
ATOM     10  H   UNL     1       5.389  11.947  10.731  1.00  0.00     0.211 HD
ENDBRANCH   6   9
ENDBRANCH   5   6
BRANCH   5  11
ATOM     11  O   UNL     1       7.051   9.600  12.550  1.00  0.00    -0.387 OA
ATOM     12  H   UNL     1       7.116   9.954  13.475  1.00  0.00     0.211 HD
ENDBRANCH   5  11
ENDBRANCH   1   5
BRANCH   1  13
ATOM     13  O   UNL     1       9.223   9.147  10.225  1.00  0.00    -0.388 OA
ATOM     14  H   UNL     1       9.258   8.685   9.347  1.00  0.00     0.211 HD
ENDBRANCH   1  13
TORSDOF 8
ENDMDL
MODEL 4
REMARK VINA RESULT:    -3.383      4.810      6.190
REMARK INTER + INTRA:          -5.302
REMARK INTER:                  -4.305
REMARK INTRA:                  -0.998
REMARK UNBOUND:                -0.732
REMARK SMILES O=C[C@H](O)[C@@H](O)[C@@H](O)CO
REMARK SMILES IDX 7 1 9 2 10 3 5 5 3 6 2 7 1 8 4 9 6 11 8 13
REMARK H PARENT 10 4 4 10 6 12 8 14
REMARK Flexibility Score: inf
ROOT
ATOM      1  C   UNL     1       6.975  15.003  15.259  1.00  0.00     0.171 C 
ENDROOT
BRANCH   1   2
ATOM      2  C   UNL     1       8.441  14.889  14.806  1.00  0.00     0.190 C 
BRANCH   2   3
ATOM      3  O   UNL     1       8.514  14.567  13.444  1.00  0.00    -0.394 OA
ATOM      4  H   UNL     1       9.063  13.742  13.386  1.00  0.00     0.210 HD
ENDBRANCH   2   3
ENDBRANCH   1   2
BRANCH   1   5
ATOM      5  C   UNL     1       6.242  13.631  15.256  1.00  0.00     0.181 C 
BRANCH   5   6
ATOM      6  C   UNL     1       5.350  13.453  14.004  1.00  0.00     0.209 C 
BRANCH   6   7
ATOM      7  C   UNL     1       5.820  12.295  13.164  1.00  0.00     0.258 C 
ATOM      8  O   UNL     1       6.836  12.383  12.493  1.00  0.00    -0.300 OA
ENDBRANCH   6   7
BRANCH   6   9
ATOM      9  O   UNL     1       5.342  14.629  13.235  1.00  0.00    -0.383 OA
ATOM     10  H   UNL     1       5.810  15.325  13.768  1.00  0.00     0.211 HD
ENDBRANCH   6   9
ENDBRANCH   5   6
BRANCH   5  11
ATOM     11  O   UNL     1       7.163  12.572  15.370  1.00  0.00    -0.387 OA
ATOM     12  H   UNL     1       7.893  12.732  14.718  1.00  0.00     0.211 HD
ENDBRANCH   5  11
ENDBRANCH   1   5
BRANCH   1  13
ATOM     13  O   UNL     1       6.903  15.617  16.523  1.00  0.00    -0.388 OA
ATOM     14  H   UNL     1       6.873  16.600  16.380  1.00  0.00     0.211 HD
ENDBRANCH   1  13
TORSDOF 8
ENDMDL
MODEL 5
REMARK VINA RESULT:    -3.355      3.533      5.080
REMARK INTER + INTRA:          -5.264
REMARK INTER:                  -4.534
REMARK INTRA:                  -0.730
REMARK UNBOUND:                -0.732
REMARK SMILES O=C[C@H](O)[C@@H](O)[C@@H](O)CO
REMARK SMILES IDX 7 1 9 2 10 3 5 5 3 6 2 7 1 8 4 9 6 11 8 13
REMARK H PARENT 10 4 4 10 6 12 8 14
REMARK Flexibility Score: inf
ROOT
ATOM      1  C   UNL     1       5.159  13.030  12.996  1.00  0.00     0.171 C 
ENDROOT
BRANCH   1   2
ATOM      2  C   UNL     1       3.824  12.710  12.300  1.00  0.00     0.190 C 
BRANCH   2   3
ATOM      3  O   UNL     1       3.948  12.840  10.910  1.00  0.00    -0.394 OA
ATOM      4  H   UNL     1       3.368  13.604  10.652  1.00  0.00     0.210 HD
ENDBRANCH   2   3
ENDBRANCH   1   2
BRANCH   1   5
ATOM      5  C   UNL     1       6.376  12.386  12.272  1.00  0.00     0.181 C 
BRANCH   5   6
ATOM      6  C   UNL     1       7.691  12.578  13.065  1.00  0.00     0.209 C 
BRANCH   6   7
ATOM      7  C   UNL     1       7.547  12.085  14.480  1.00  0.00     0.258 C 
ATOM      8  O   UNL     1       7.336  10.905  14.712  1.00  0.00    -0.300 OA
ENDBRANCH   6   7
BRANCH   6   9
ATOM      9  O   UNL     1       8.070  13.932  13.067  1.00  0.00    -0.383 OA
ATOM     10  H   UNL     1       7.480  14.397  12.418  1.00  0.00     0.211 HD
ENDBRANCH   6   9
ENDBRANCH   5   6
BRANCH   5  11
ATOM     11  O   UNL     1       6.141  11.022  12.013  1.00  0.00    -0.387 OA
ATOM     12  H   UNL     1       6.109  10.549  12.885  1.00  0.00     0.211 HD
ENDBRANCH   5  11
ENDBRANCH   1   5
BRANCH   1  13
ATOM     13  O   UNL     1       5.319  14.422  13.124  1.00  0.00    -0.388 OA
ATOM     14  H   UNL     1       5.555  14.782  12.230  1.00  0.00     0.211 HD
ENDBRANCH   1  13
TORSDOF 8
ENDMDL
MODEL 6
REMARK VINA RESULT:    -3.340      6.279      7.983
REMARK INTER + INTRA:          -5.243
REMARK INTER:                  -4.554
REMARK INTRA:                  -0.690
REMARK UNBOUND:                -0.732
REMARK SMILES O=C[C@H](O)[C@@H](O)[C@@H](O)CO
REMARK SMILES IDX 7 1 9 2 10 3 5 5 3 6 2 7 1 8 4 9 6 11 8 13
REMARK H PARENT 10 4 4 10 6 12 8 14
REMARK Flexibility Score: inf
ROOT
ATOM      1  C   UNL     1       7.016  15.016  17.128  1.00  0.00     0.171 C 
ENDROOT
BRANCH   1   2
ATOM      2  C   UNL     1       5.723  14.410  17.702  1.00  0.00     0.190 C 
BRANCH   2   3
ATOM      3  O   UNL     1       4.679  15.344  17.661  1.00  0.00    -0.394 OA
ATOM      4  H   UNL     1       5.078  16.215  17.920  1.00  0.00     0.210 HD
ENDBRANCH   2   3
ENDBRANCH   1   2
BRANCH   1   5
ATOM      5  C   UNL     1       6.954  15.196  15.584  1.00  0.00     0.181 C 
BRANCH   5   6
ATOM      6  C   UNL     1       8.330  14.960  14.917  1.00  0.00     0.209 C 
BRANCH   6   7
ATOM      7  C   UNL     1       8.385  13.610  14.252  1.00  0.00     0.258 C 
ATOM      8  O   UNL     1       8.041  13.472  13.089  1.00  0.00    -0.300 OA
ENDBRANCH   6   7
BRANCH   6   9
ATOM      9  O   UNL     1       9.361  15.067  15.867  1.00  0.00    -0.383 OA
ATOM     10  H   UNL     1       9.165  15.871  16.415  1.00  0.00     0.211 HD
ENDBRANCH   6   9
ENDBRANCH   5   6
BRANCH   5  11
ATOM     11  O   UNL     1       5.973  14.357  15.021  1.00  0.00    -0.387 OA
ATOM     12  H   UNL     1       6.010  14.467  14.035  1.00  0.00     0.211 HD
ENDBRANCH   5  11
ENDBRANCH   1   5
BRANCH   1  13
ATOM     13  O   UNL     1       7.311  16.231  17.773  1.00  0.00    -0.388 OA
ATOM     14  H   UNL     1       7.223  16.958  17.101  1.00  0.00     0.211 HD
ENDBRANCH   1  13
TORSDOF 8
ENDMDL
MODEL 7
REMARK VINA RESULT:    -3.325      1.744      4.098
REMARK INTER + INTRA:          -5.224
REMARK INTER:                  -4.517
REMARK INTRA:                  -0.707
REMARK UNBOUND:                -0.732
REMARK SMILES O=C[C@H](O)[C@@H](O)[C@@H](O)CO
REMARK SMILES IDX 7 1 9 2 10 3 5 5 3 6 2 7 1 8 4 9 6 11 8 13
REMARK H PARENT 10 4 4 10 6 12 8 14
REMARK Flexibility Score: inf
ROOT
ATOM      1  C   UNL     1       5.544   7.006  10.685  1.00  0.00     0.171 C 
ENDROOT
BRANCH   1   2
ATOM      2  C   UNL     1       6.230   5.701  10.243  1.00  0.00     0.190 C 
BRANCH   2   3
ATOM      3  O   UNL     1       7.387   5.470  11.000  1.00  0.00    -0.394 OA
ATOM      4  H   UNL     1       7.171   4.716  11.609  1.00  0.00     0.210 HD
ENDBRANCH   2   3
ENDBRANCH   1   2
BRANCH   1   5
ATOM      5  C   UNL     1       6.140   8.259   9.983  1.00  0.00     0.181 C 
BRANCH   5   6
ATOM      6  C   UNL     1       5.391   9.555  10.375  1.00  0.00     0.209 C 
BRANCH   6   7
ATOM      7  C   UNL     1       6.289  10.758  10.250  1.00  0.00     0.258 C 
ATOM      8  O   UNL     1       6.967  11.132  11.194  1.00  0.00    -0.300 OA
ENDBRANCH   6   7
BRANCH   6   9
ATOM      9  O   UNL     1       4.900   9.460  11.688  1.00  0.00    -0.383 OA
ATOM     10  H   UNL     1       4.138  10.094  11.757  1.00  0.00     0.211 HD
ENDBRANCH   6   9
ENDBRANCH   5   6
BRANCH   5  11
ATOM     11  O   UNL     1       7.518   8.375  10.250  1.00  0.00    -0.387 OA
ATOM     12  H   UNL     1       7.722   7.811  11.041  1.00  0.00     0.211 HD
ENDBRANCH   5  11
ENDBRANCH   1   5
BRANCH   1  13
ATOM     13  O   UNL     1       4.155   6.918  10.481  1.00  0.00    -0.388 OA
ATOM     14  H   UNL     1       3.854   6.037  10.827  1.00  0.00     0.211 HD
ENDBRANCH   1  13
TORSDOF 8
ENDMDL
MODEL 8
REMARK VINA RESULT:    -3.284      2.715      3.648
REMARK INTER + INTRA:          -5.168
REMARK INTER:                  -4.613
REMARK INTRA:                  -0.555
REMARK UNBOUND:                -0.732
REMARK SMILES O=C[C@H](O)[C@@H](O)[C@@H](O)CO
REMARK SMILES IDX 7 1 9 2 10 3 5 5 3 6 2 7 1 8 4 9 6 11 8 13
REMARK H PARENT 10 4 4 10 6 12 8 14
REMARK Flexibility Score: inf
ROOT
ATOM      1  C   UNL     1       6.078   7.420  10.217  1.00  0.00     0.171 C 
ENDROOT
BRANCH   1   2
ATOM      2  C   UNL     1       6.153   5.893  10.392  1.00  0.00     0.190 C 
BRANCH   2   3
ATOM      3  O   UNL     1       7.399   5.515  10.910  1.00  0.00    -0.394 OA
ATOM      4  H   UNL     1       7.523   4.562  10.661  1.00  0.00     0.210 HD
ENDBRANCH   2   3
ENDBRANCH   1   2
BRANCH   1   5
ATOM      5  C   UNL     1       5.055   8.080  11.184  1.00  0.00     0.181 C 
BRANCH   5   6
ATOM      6  C   UNL     1       5.390   7.794  12.668  1.00  0.00     0.209 C 
BRANCH   6   7
ATOM      7  C   UNL     1       4.232   8.148  13.563  1.00  0.00     0.258 C 
ATOM      8  O   UNL     1       3.947   9.314  13.785  1.00  0.00    -0.300 OA
ENDBRANCH   6   7
BRANCH   6   9
ATOM      9  O   UNL     1       6.533   8.512  13.059  1.00  0.00    -0.383 OA
ATOM     10  H   UNL     1       6.440   8.694  14.031  1.00  0.00     0.211 HD
ENDBRANCH   6   9
ENDBRANCH   5   6
BRANCH   5  11
ATOM     11  O   UNL     1       4.964   9.465  10.948  1.00  0.00    -0.387 OA
ATOM     12  H   UNL     1       4.934   9.922  11.829  1.00  0.00     0.211 HD
ENDBRANCH   5  11
ENDBRANCH   1   5
BRANCH   1  13
ATOM     13  O   UNL     1       7.357   7.988  10.360  1.00  0.00    -0.388 OA
ATOM     14  H   UNL     1       7.319   8.628  11.119  1.00  0.00     0.211 HD
ENDBRANCH   1  13
TORSDOF 8
ENDMDL
MODEL 9
REMARK VINA RESULT:    -3.228      6.034      7.484
REMARK INTER + INTRA:          -5.093
REMARK INTER:                  -4.104
REMARK INTRA:                  -0.988
REMARK UNBOUND:                -0.732
REMARK SMILES O=C[C@H](O)[C@@H](O)[C@@H](O)CO
REMARK SMILES IDX 7 1 9 2 10 3 5 5 3 6 2 7 1 8 4 9 6 11 8 13
REMARK H PARENT 10 4 4 10 6 12 8 14
REMARK Flexibility Score: inf
ROOT
ATOM      1  C   UNL     1       5.766  14.743  16.969  1.00  0.00     0.171 C 
ENDROOT
BRANCH   1   2
ATOM      2  C   UNL     1       6.735  14.010  17.914  1.00  0.00     0.190 C 
BRANCH   2   3
ATOM      3  O   UNL     1       7.962  13.775  17.279  1.00  0.00    -0.394 OA
ATOM      4  H   UNL     1       8.237  14.643  16.883  1.00  0.00     0.210 HD
ENDBRANCH   2   3
ENDBRANCH   1   2
BRANCH   1   5
ATOM      5  C   UNL     1       5.289  13.845  15.792  1.00  0.00     0.181 C 
BRANCH   5   6
ATOM      6  C   UNL     1       6.010  14.193  14.468  1.00  0.00     0.209 C 
BRANCH   6   7
ATOM      7  C   UNL     1       6.834  13.032  13.978  1.00  0.00     0.258 C 
ATOM      8  O   UNL     1       7.874  12.724  14.538  1.00  0.00    -0.300 OA
ENDBRANCH   6   7
BRANCH   6   9
ATOM      9  O   UNL     1       6.828  15.323  14.636  1.00  0.00    -0.383 OA
ATOM     10  H   UNL     1       6.487  15.810  15.431  1.00  0.00     0.211 HD
ENDBRANCH   6   9
ENDBRANCH   5   6
BRANCH   5  11
ATOM     11  O   UNL     1       5.448  12.481  16.106  1.00  0.00    -0.387 OA
ATOM     12  H   UNL     1       4.688  12.213  16.686  1.00  0.00     0.211 HD
ENDBRANCH   5  11
ENDBRANCH   1   5
BRANCH   1  13
ATOM     13  O   UNL     1       4.676  15.257  17.694  1.00  0.00    -0.388 OA
ATOM     14  H   UNL     1       4.374  14.551  18.325  1.00  0.00     0.211 HD
ENDBRANCH   1  13
TORSDOF 8
ENDMDL
