MODEL 1
REMARK VINA RESULT:    -4.209      0.000      0.000
REMARK INTER + INTRA:         -15.439
REMARK INTER:                 -11.098
REMARK INTRA:                  -4.341
REMARK UNBOUND:                -4.341
REMARK SMILES CCCCCCCCCCCCCCCCCCCCCCCCCCCCCC(=O)[O-]
REMARK SMILES IDX 16 1 17 2 18 3 19 4 20 5 21 6 22 7 23 8 24 9 25 10 26 11
REMARK SMILES IDX 27 12 28 13 29 14 30 15 31 16 32 17 15 18 14 19 13 20 12 21
REMARK SMILES IDX 11 22 10 23 9 24 8 25 7 26 6 27 5 28 4 29 3 30 2 31 1 32
REMARK H PARENT
REMARK Flexibility Score: inf
ROOT
ATOM      1  C   UNL     1     -34.175 -49.495  -9.830  1.00  0.00     0.000 C 
ENDROOT
BRANCH   1   2
ATOM      2  C   UNL     1     -35.677 -49.199  -9.954  1.00  0.00     0.000 C 
BRANCH   2   3
ATOM      3  C   UNL     1     -35.955 -47.869 -10.674  1.00  0.00     0.000 C 
BRANCH   3   4
ATOM      4  C   UNL     1     -37.238 -47.914 -11.519  1.00  0.00     0.000 C 
BRANCH   4   5
ATOM      5  C   UNL     1     -36.916 -47.882 -13.018  1.00  0.00     0.000 C 
BRANCH   5   6
ATOM      6  C   UNL     1     -35.742 -46.934 -13.304  1.00  0.00     0.000 C 
BRANCH   6   7
ATOM      7  C   UNL     1     -36.179 -45.631 -13.997  1.00  0.00     0.000 C 
BRANCH   7   8
ATOM      8  C   UNL     1     -37.640 -45.611 -14.492  1.00  0.00     0.000 C 
BRANCH   8   9
ATOM      9  C   UNL     1     -37.816 -45.591 -16.021  1.00  0.00     0.000 C 
BRANCH   9  10
ATOM     10  C   UNL     1     -36.540 -45.158 -16.764  1.00  0.00     0.000 C 
BRANCH  10  11
ATOM     11  C   UNL     1     -36.111 -46.159 -17.849  1.00  0.00     0.000 C 
BRANCH  11  12
ATOM     12  C   UNL     1     -36.492 -47.627 -17.577  1.00  0.00     0.000 C 
BRANCH  12  13
ATOM     13  C   UNL     1     -35.456 -48.397 -16.727  1.00  0.00     0.006 C 
BRANCH  13  14
ATOM     14  C   UNL     1     -34.047 -47.782 -16.766  1.00  0.00     0.053 C 
BRANCH  14  15
ATOM     15  C   UNL     1     -33.000 -48.795 -17.121  1.00  0.00     0.041 C 
ATOM     16  O   UNL     1     -32.870 -49.177 -18.315  1.00  0.00    -0.550 OA
ATOM     17  O   UNL     1     -32.189 -49.338 -16.133  1.00  0.00    -0.550 OA
ENDBRANCH  14  15
ENDBRANCH  13  14
ENDBRANCH  12  13
ENDBRANCH  11  12
ENDBRANCH  10  11
ENDBRANCH   9  10
ENDBRANCH   8   9
ENDBRANCH   7   8
ENDBRANCH   6   7
ENDBRANCH   5   6
ENDBRANCH   4   5
ENDBRANCH   3   4
ENDBRANCH   2   3
ENDBRANCH   1   2
BRANCH   1  18
ATOM     18  C   UNL     1     -33.347 -48.491 -10.644  1.00  0.00     0.000 C 
BRANCH  18  19
ATOM     19  C   UNL     1     -31.843 -48.698 -10.402  1.00  0.00     0.000 C 
BRANCH  19  20
ATOM     20  C   UNL     1     -31.541 -49.320  -9.022  1.00  0.00     0.000 C 
BRANCH  20  21
ATOM     21  C   UNL     1     -30.078 -49.151  -8.567  1.00  0.00     0.000 C 
BRANCH  21  22
ATOM     22  C   UNL     1     -29.842 -49.323  -7.054  1.00  0.00     0.000 C 
BRANCH  22  23
ATOM     23  C   UNL     1     -29.636 -48.009  -6.273  1.00  0.00     0.000 C 
BRANCH  23  24
ATOM     24  C   UNL     1     -30.914 -47.189  -6.015  1.00  0.00    -0.000 C 
BRANCH  24  25
ATOM     25  C   UNL     1     -32.015 -47.926  -5.230  1.00  0.00    -0.000 C 
BRANCH  25  26
ATOM     26  C   UNL     1     -33.429 -47.639  -5.767  1.00  0.00    -0.000 C 
BRANCH  26  27
ATOM     27  C   UNL     1     -33.418 -46.629  -6.936  1.00  0.00    -0.000 C 
BRANCH  27  28
ATOM     28  C   UNL     1     -33.810 -45.197  -6.531  1.00  0.00    -0.000 C 
BRANCH  28  29
ATOM     29  C   UNL     1     -33.956 -44.252  -7.733  1.00  0.00    -0.000 C 
BRANCH  29  30
ATOM     30  C   UNL     1     -34.170 -45.007  -9.054  1.00  0.00    -0.000 C 
BRANCH  30  31
ATOM     31  C   UNL     1     -35.005 -44.203 -10.062  1.00  0.00    -0.003 C 
ATOM     32  C   UNL     1     -34.257 -44.035 -11.383  1.00  0.00     0.004 C 
ENDBRANCH  30  31
ENDBRANCH  29  30
ENDBRANCH  28  29
ENDBRANCH  27  28
ENDBRANCH  26  27
ENDBRANCH  25  26
ENDBRANCH  24  25
ENDBRANCH  23  24
ENDBRANCH  22  23
ENDBRANCH  21  22
ENDBRANCH  20  21
ENDBRANCH  19  20
ENDBRANCH  18  19
ENDBRANCH   1  18
TORSDOF 28
ENDMDL
MODEL 2
REMARK VINA RESULT:    -4.034      1.226      4.189
REMARK INTER + INTRA:         -14.978
REMARK INTER:                 -11.228
REMARK INTRA:                  -3.750
REMARK UNBOUND:                -4.341
REMARK SMILES CCCCCCCCCCCCCCCCCCCCCCCCCCCCCC(=O)[O-]
REMARK SMILES IDX 16 1 17 2 18 3 19 4 20 5 21 6 22 7 23 8 24 9 25 10 26 11
REMARK SMILES IDX 27 12 28 13 29 14 30 15 31 16 32 17 15 18 14 19 13 20 12 21
REMARK SMILES IDX 11 22 10 23 9 24 8 25 7 26 6 27 5 28 4 29 3 30 2 31 1 32
REMARK H PARENT
REMARK Flexibility Score: inf
ROOT
ATOM      1  C   UNL     1     -34.135 -43.741  -9.110  1.00  0.00     0.000 C 
ENDROOT
BRANCH   1   2
ATOM      2  C   UNL     1     -34.312 -43.969 -10.619  1.00  0.00     0.000 C 
BRANCH   2   3
ATOM      3  C   UNL     1     -35.014 -45.301 -10.932  1.00  0.00     0.000 C 
BRANCH   3   4
ATOM      4  C   UNL     1     -35.401 -45.427 -12.413  1.00  0.00     0.000 C 
BRANCH   4   5
ATOM      5  C   UNL     1     -35.824 -46.861 -12.756  1.00  0.00     0.000 C 
BRANCH   5   6
ATOM      6  C   UNL     1     -37.352 -47.009 -12.697  1.00  0.00     0.000 C 
BRANCH   6   7
ATOM      7  C   UNL     1     -38.091 -45.930 -13.510  1.00  0.00     0.000 C 
BRANCH   7   8
ATOM      8  C   UNL     1     -38.030 -46.109 -15.042  1.00  0.00     0.000 C 
BRANCH   8   9
ATOM      9  C   UNL     1     -37.094 -45.136 -15.780  1.00  0.00     0.000 C 
BRANCH   9  10
ATOM     10  C   UNL     1     -35.913 -45.845 -16.463  1.00  0.00     0.000 C 
BRANCH  10  11
ATOM     11  C   UNL     1     -36.285 -47.231 -17.015  1.00  0.00     0.000 C 
BRANCH  11  12
ATOM     12  C   UNL     1     -35.810 -48.426 -16.165  1.00  0.00     0.000 C 
BRANCH  12  13
ATOM     13  C   UNL     1     -34.289 -48.436 -15.892  1.00  0.00     0.006 C 
BRANCH  13  14
ATOM     14  C   UNL     1     -33.433 -48.399 -17.168  1.00  0.00     0.053 C 
BRANCH  14  15
ATOM     15  C   UNL     1     -32.028 -48.858 -16.918  1.00  0.00     0.041 C 
ATOM     16  O   UNL     1     -31.109 -48.554 -17.726  1.00  0.00    -0.550 OA
ATOM     17  O   UNL     1     -31.735 -49.646 -15.812  1.00  0.00    -0.550 OA
ENDBRANCH  14  15
ENDBRANCH  13  14
ENDBRANCH  12  13
ENDBRANCH  11  12
ENDBRANCH  10  11
ENDBRANCH   9  10
ENDBRANCH   8   9
ENDBRANCH   7   8
ENDBRANCH   6   7
ENDBRANCH   5   6
ENDBRANCH   4   5
ENDBRANCH   3   4
ENDBRANCH   2   3
ENDBRANCH   1   2
BRANCH   1  18
ATOM     18  C   UNL     1     -34.215 -45.066  -8.340  1.00  0.00     0.000 C 
BRANCH  18  19
ATOM     19  C   UNL     1     -33.762 -44.882  -6.883  1.00  0.00     0.000 C 
BRANCH  19  20
ATOM     20  C   UNL     1     -33.267 -46.195  -6.241  1.00  0.00     0.000 C 
BRANCH  20  21
ATOM     21  C   UNL     1     -34.176 -46.720  -5.112  1.00  0.00     0.000 C 
BRANCH  21  22
ATOM     22  C   UNL     1     -34.535 -48.215  -5.207  1.00  0.00     0.000 C 
BRANCH  22  23
ATOM     23  C   UNL     1     -33.767 -49.003  -6.288  1.00  0.00     0.000 C 
BRANCH  23  24
ATOM     24  C   UNL     1     -34.643 -49.836  -7.243  1.00  0.00    -0.000 C 
BRANCH  24  25
ATOM     25  C   UNL     1     -34.219 -49.793  -8.723  1.00  0.00    -0.000 C 
BRANCH  25  26
ATOM     26  C   UNL     1     -33.872 -48.373  -9.206  1.00  0.00    -0.000 C 
BRANCH  26  27
ATOM     27  C   UNL     1     -32.364 -48.205  -9.493  1.00  0.00    -0.000 C 
BRANCH  27  28
ATOM     28  C   UNL     1     -31.525 -49.459  -9.189  1.00  0.00    -0.000 C 
BRANCH  28  29
ATOM     29  C   UNL     1     -30.200 -49.136  -8.480  1.00  0.00    -0.000 C 
BRANCH  29  30
ATOM     30  C   UNL     1     -30.385 -48.184  -7.288  1.00  0.00    -0.000 C 
BRANCH  30  31
ATOM     31  C   UNL     1     -29.743 -48.723  -6.001  1.00  0.00    -0.003 C 
ATOM     32  C   UNL     1     -28.608 -47.816  -5.532  1.00  0.00     0.004 C 
ENDBRANCH  30  31
ENDBRANCH  29  30
ENDBRANCH  28  29
ENDBRANCH  27  28
ENDBRANCH  26  27
ENDBRANCH  25  26
ENDBRANCH  24  25
ENDBRANCH  23  24
ENDBRANCH  22  23
ENDBRANCH  21  22
ENDBRANCH  20  21
ENDBRANCH  19  20
ENDBRANCH  18  19
ENDBRANCH   1  18
TORSDOF 28
ENDMDL
MODEL 3
REMARK VINA RESULT:    -3.975      1.815      5.082
REMARK INTER + INTRA:         -14.823
REMARK INTER:                 -10.530
REMARK INTRA:                  -4.293
REMARK UNBOUND:                -4.341
REMARK SMILES CCCCCCCCCCCCCCCCCCCCCCCCCCCCCC(=O)[O-]
REMARK SMILES IDX 16 1 17 2 18 3 19 4 20 5 21 6 22 7 23 8 24 9 25 10 26 11
REMARK SMILES IDX 27 12 28 13 29 14 30 15 31 16 32 17 15 18 14 19 13 20 12 21
REMARK SMILES IDX 11 22 10 23 9 24 8 25 7 26 6 27 5 28 4 29 3 30 2 31 1 32
REMARK H PARENT
REMARK Flexibility Score: inf
ROOT
ATOM      1  C   UNL     1     -33.388 -45.452  -6.243  1.00  0.00     0.000 C 
ENDROOT
BRANCH   1   2
ATOM      2  C   UNL     1     -33.892 -45.384  -7.692  1.00  0.00     0.000 C 
BRANCH   2   3
ATOM      3  C   UNL     1     -33.944 -43.944  -8.228  1.00  0.00     0.000 C 
BRANCH   3   4
ATOM      4  C   UNL     1     -34.855 -43.807  -9.458  1.00  0.00     0.000 C 
BRANCH   4   5
ATOM      5  C   UNL     1     -34.633 -44.961 -10.443  1.00  0.00     0.000 C 
BRANCH   5   6
ATOM      6  C   UNL     1     -34.714 -44.464 -11.894  1.00  0.00     0.000 C 
BRANCH   6   7
ATOM      7  C   UNL     1     -35.376 -45.481 -12.841  1.00  0.00     0.000 C 
BRANCH   7   8
ATOM      8  C   UNL     1     -36.588 -46.232 -12.251  1.00  0.00     0.000 C 
BRANCH   8   9
ATOM      9  C   UNL     1     -36.664 -47.730 -12.597  1.00  0.00     0.000 C 
BRANCH   9  10
ATOM     10  C   UNL     1     -35.395 -48.248 -13.294  1.00  0.00     0.000 C 
BRANCH  10  11
ATOM     11  C   UNL     1     -35.659 -48.743 -14.726  1.00  0.00     0.000 C 
BRANCH  11  12
ATOM     12  C   UNL     1     -34.476 -48.591 -15.702  1.00  0.00     0.000 C 
BRANCH  12  13
ATOM     13  C   UNL     1     -34.543 -47.318 -16.575  1.00  0.00     0.006 C 
BRANCH  13  14
ATOM     14  C   UNL     1     -35.825 -46.496 -16.370  1.00  0.00     0.053 C 
BRANCH  14  15
ATOM     15  C   UNL     1     -36.714 -46.528 -17.576  1.00  0.00     0.041 C 
ATOM     16  O   UNL     1     -37.806 -45.897 -17.574  1.00  0.00    -0.550 OA
ATOM     17  O   UNL     1     -36.356 -47.275 -18.691  1.00  0.00    -0.550 OA
ENDBRANCH  14  15
ENDBRANCH  13  14
ENDBRANCH  12  13
ENDBRANCH  11  12
ENDBRANCH  10  11
ENDBRANCH   9  10
ENDBRANCH   8   9
ENDBRANCH   7   8
ENDBRANCH   6   7
ENDBRANCH   5   6
ENDBRANCH   4   5
ENDBRANCH   3   4
ENDBRANCH   2   3
ENDBRANCH   1   2
BRANCH   1  18
ATOM     18  C   UNL     1     -34.556 -45.382  -5.250  1.00  0.00     0.000 C 
BRANCH  18  19
ATOM     19  C   UNL     1     -34.717 -46.713  -4.498  1.00  0.00     0.000 C 
BRANCH  19  20
ATOM     20  C   UNL     1     -33.938 -47.869  -5.159  1.00  0.00     0.000 C 
BRANCH  20  21
ATOM     21  C   UNL     1     -34.833 -49.017  -5.665  1.00  0.00     0.000 C 
BRANCH  21  22
ATOM     22  C   UNL     1     -34.244 -49.836  -6.830  1.00  0.00     0.000 C 
BRANCH  22  23
ATOM     23  C   UNL     1     -35.179 -50.009  -8.044  1.00  0.00     0.000 C 
BRANCH  23  24
ATOM     24  C   UNL     1     -34.512 -49.821  -9.421  1.00  0.00    -0.000 C 
BRANCH  24  25
ATOM     25  C   UNL     1     -34.186 -48.362  -9.794  1.00  0.00    -0.000 C 
BRANCH  25  26
ATOM     26  C   UNL     1     -32.675 -48.075  -9.830  1.00  0.00    -0.000 C 
BRANCH  26  27
ATOM     27  C   UNL     1     -31.831 -49.353  -9.627  1.00  0.00    -0.000 C 
BRANCH  27  28
ATOM     28  C   UNL     1     -30.873 -49.287  -8.424  1.00  0.00    -0.000 C 
BRANCH  28  29
ATOM     29  C   UNL     1     -31.028 -47.997  -7.604  1.00  0.00    -0.000 C 
BRANCH  29  30
ATOM     30  C   UNL     1     -30.634 -48.183  -6.131  1.00  0.00    -0.000 C 
BRANCH  30  31
ATOM     31  C   UNL     1     -29.204 -48.718  -5.968  1.00  0.00    -0.003 C 
ATOM     32  C   UNL     1     -28.263 -47.627  -5.462  1.00  0.00     0.004 C 
ENDBRANCH  30  31
ENDBRANCH  29  30
ENDBRANCH  28  29
ENDBRANCH  27  28
ENDBRANCH  26  27
ENDBRANCH  25  26
ENDBRANCH  24  25
ENDBRANCH  23  24
ENDBRANCH  22  23
ENDBRANCH  21  22
ENDBRANCH  20  21
ENDBRANCH  19  20
ENDBRANCH  18  19
ENDBRANCH   1  18
TORSDOF 28
ENDMDL
MODEL 4
REMARK VINA RESULT:    -3.957      3.095      8.597
REMARK INTER + INTRA:         -14.775
REMARK INTER:                 -10.483
REMARK INTRA:                  -4.292
REMARK UNBOUND:                -4.341
REMARK SMILES CCCCCCCCCCCCCCCCCCCCCCCCCCCCCC(=O)[O-]
REMARK SMILES IDX 16 1 17 2 18 3 19 4 20 5 21 6 22 7 23 8 24 9 25 10 26 11
REMARK SMILES IDX 27 12 28 13 29 14 30 15 31 16 32 17 15 18 14 19 13 20 12 21
REMARK SMILES IDX 11 22 10 23 9 24 8 25 7 26 6 27 5 28 4 29 3 30 2 31 1 32
REMARK H PARENT
REMARK Flexibility Score: inf
ROOT
ATOM      1  C   UNL     1     -34.624 -43.973  -8.645  1.00  0.00     0.000 C 
ENDROOT
BRANCH   1   2
ATOM      2  C   UNL     1     -33.858 -44.400  -7.385  1.00  0.00     0.000 C 
BRANCH   2   3
ATOM      3  C   UNL     1     -33.802 -45.928  -7.221  1.00  0.00     0.000 C 
BRANCH   3   4
ATOM      4  C   UNL     1     -33.740 -46.359  -5.748  1.00  0.00     0.000 C 
BRANCH   4   5
ATOM      5  C   UNL     1     -33.531 -47.873  -5.621  1.00  0.00     0.000 C 
BRANCH   5   6
ATOM      6  C   UNL     1     -34.851 -48.579  -5.274  1.00  0.00     0.000 C 
BRANCH   6   7
ATOM      7  C   UNL     1     -35.104 -49.833  -6.131  1.00  0.00     0.000 C 
BRANCH   7   8
ATOM      8  C   UNL     1     -34.040 -50.112  -7.212  1.00  0.00     0.000 C 
BRANCH   8   9
ATOM      9  C   UNL     1     -34.520 -49.947  -8.665  1.00  0.00     0.000 C 
BRANCH   9  10
ATOM     10  C   UNL     1     -34.172 -48.570  -9.257  1.00  0.00     0.000 C 
BRANCH  10  11
ATOM     11  C   UNL     1     -33.172 -48.656 -10.422  1.00  0.00     0.000 C 
BRANCH  11  12
ATOM     12  C   UNL     1     -31.687 -48.684 -10.012  1.00  0.00     0.000 C 
BRANCH  12  13
ATOM     13  C   UNL     1     -31.421 -48.167  -8.580  1.00  0.00     0.006 C 
BRANCH  13  14
ATOM     14  C   UNL     1     -30.516 -49.090  -7.748  1.00  0.00     0.053 C 
BRANCH  14  15
ATOM     15  C   UNL     1     -29.944 -48.391  -6.553  1.00  0.00     0.041 C 
ATOM     16  O   UNL     1     -30.143 -47.157  -6.387  1.00  0.00    -0.550 OA
ATOM     17  O   UNL     1     -29.168 -49.090  -5.637  1.00  0.00    -0.550 OA
ENDBRANCH  14  15
ENDBRANCH  13  14
ENDBRANCH  12  13
ENDBRANCH  11  12
ENDBRANCH  10  11
ENDBRANCH   9  10
ENDBRANCH   8   9
ENDBRANCH   7   8
ENDBRANCH   6   7
ENDBRANCH   5   6
ENDBRANCH   4   5
ENDBRANCH   3   4
ENDBRANCH   2   3
ENDBRANCH   1   2
BRANCH   1  18
ATOM     18  C   UNL     1     -34.236 -44.845  -9.847  1.00  0.00     0.000 C 
BRANCH  18  19
ATOM     19  C   UNL     1     -34.419 -44.075 -11.165  1.00  0.00     0.000 C 
BRANCH  19  20
ATOM     20  C   UNL     1     -35.052 -44.938 -12.277  1.00  0.00     0.000 C 
BRANCH  20  21
ATOM     21  C   UNL     1     -35.650 -46.267 -11.773  1.00  0.00     0.000 C 
BRANCH  21  22
ATOM     22  C   UNL     1     -37.030 -46.622 -12.356  1.00  0.00     0.000 C 
BRANCH  22  23
ATOM     23  C   UNL     1     -37.124 -48.017 -13.009  1.00  0.00     0.000 C 
BRANCH  23  24
ATOM     24  C   UNL     1     -35.840 -48.866 -12.932  1.00  0.00    -0.000 C 
BRANCH  24  25
ATOM     25  C   UNL     1     -34.946 -48.812 -14.185  1.00  0.00    -0.000 C 
BRANCH  25  26
ATOM     26  C   UNL     1     -35.698 -48.332 -15.439  1.00  0.00    -0.000 C 
BRANCH  26  27
ATOM     27  C   UNL     1     -34.996 -47.138 -16.122  1.00  0.00    -0.000 C 
BRANCH  27  28
ATOM     28  C   UNL     1     -35.964 -46.095 -16.709  1.00  0.00    -0.000 C 
BRANCH  28  29
ATOM     29  C   UNL     1     -36.734 -45.318 -15.631  1.00  0.00    -0.000 C 
BRANCH  29  30
ATOM     30  C   UNL     1     -38.144 -44.913 -16.089  1.00  0.00    -0.000 C 
BRANCH  30  31
ATOM     31  C   UNL     1     -38.195 -44.545 -17.579  1.00  0.00    -0.003 C 
ATOM     32  C   UNL     1     -38.796 -43.157 -17.782  1.00  0.00     0.004 C 
ENDBRANCH  30  31
ENDBRANCH  29  30
ENDBRANCH  28  29
ENDBRANCH  27  28
ENDBRANCH  26  27
ENDBRANCH  25  26
ENDBRANCH  24  25
ENDBRANCH  23  24
ENDBRANCH  22  23
ENDBRANCH  21  22
ENDBRANCH  20  21
ENDBRANCH  19  20
ENDBRANCH  18  19
ENDBRANCH   1  18
TORSDOF 28
ENDMDL
MODEL 5
REMARK VINA RESULT:    -3.908      3.083      9.103
REMARK INTER + INTRA:         -14.646
REMARK INTER:                 -10.729
REMARK INTRA:                  -3.917
REMARK UNBOUND:                -4.341
REMARK SMILES CCCCCCCCCCCCCCCCCCCCCCCCCCCCCC(=O)[O-]
REMARK SMILES IDX 16 1 17 2 18 3 19 4 20 5 21 6 22 7 23 8 24 9 25 10 26 11
REMARK SMILES IDX 27 12 28 13 29 14 30 15 31 16 32 17 15 18 14 19 13 20 12 21
REMARK SMILES IDX 11 22 10 23 9 24 8 25 7 26 6 27 5 28 4 29 3 30 2 31 1 32
REMARK H PARENT
REMARK Flexibility Score: inf
ROOT
ATOM      1  C   UNL     1     -35.682 -46.530 -10.908  1.00  0.00     0.000 C 
ENDROOT
BRANCH   1   2
ATOM      2  C   UNL     1     -34.427 -46.019 -10.187  1.00  0.00     0.000 C 
BRANCH   2   3
ATOM      3  C   UNL     1     -34.464 -44.499  -9.950  1.00  0.00     0.000 C 
BRANCH   3   4
ATOM      4  C   UNL     1     -34.280 -44.131  -8.469  1.00  0.00     0.000 C 
BRANCH   4   5
ATOM      5  C   UNL     1     -33.714 -45.311  -7.670  1.00  0.00     0.000 C 
BRANCH   5   6
ATOM      6  C   UNL     1     -33.904 -45.090  -6.162  1.00  0.00     0.000 C 
BRANCH   6   7
ATOM      7  C   UNL     1     -34.287 -46.378  -5.411  1.00  0.00     0.000 C 
BRANCH   7   8
ATOM      8  C   UNL     1     -33.355 -47.582  -5.658  1.00  0.00     0.000 C 
BRANCH   8   9
ATOM      9  C   UNL     1     -34.066 -48.898  -6.022  1.00  0.00     0.000 C 
BRANCH   9  10
ATOM     10  C   UNL     1     -34.209 -49.101  -7.540  1.00  0.00     0.000 C 
BRANCH  10  11
ATOM     11  C   UNL     1     -32.893 -48.869  -8.301  1.00  0.00     0.000 C 
BRANCH  11  12
ATOM     12  C   UNL     1     -31.759 -49.858  -7.968  1.00  0.00     0.000 C 
BRANCH  12  13
ATOM     13  C   UNL     1     -30.341 -49.284  -8.186  1.00  0.00     0.006 C 
BRANCH  13  14
ATOM     14  C   UNL     1     -29.416 -49.446  -6.969  1.00  0.00     0.053 C 
BRANCH  14  15
ATOM     15  C   UNL     1     -29.288 -48.174  -6.185  1.00  0.00     0.041 C 
ATOM     16  O   UNL     1     -28.306 -48.003  -5.414  1.00  0.00    -0.550 OA
ATOM     17  O   UNL     1     -30.265 -47.192  -6.281  1.00  0.00    -0.550 OA
ENDBRANCH  14  15
ENDBRANCH  13  14
ENDBRANCH  12  13
ENDBRANCH  11  12
ENDBRANCH  10  11
ENDBRANCH   9  10
ENDBRANCH   8   9
ENDBRANCH   7   8
ENDBRANCH   6   7
ENDBRANCH   5   6
ENDBRANCH   4   5
ENDBRANCH   3   4
ENDBRANCH   2   3
ENDBRANCH   1   2
BRANCH   1  18
ATOM     18  C   UNL     1     -35.840 -48.046 -10.729  1.00  0.00     0.000 C 
BRANCH  18  19
ATOM     19  C   UNL     1     -34.728 -48.804 -11.473  1.00  0.00     0.000 C 
BRANCH  19  20
ATOM     20  C   UNL     1     -35.221 -49.446 -12.788  1.00  0.00     0.000 C 
BRANCH  20  21
ATOM     21  C   UNL     1     -34.090 -49.795 -13.775  1.00  0.00     0.000 C 
BRANCH  21  22
ATOM     22  C   UNL     1     -34.493 -49.767 -15.262  1.00  0.00     0.000 C 
BRANCH  22  23
ATOM     23  C   UNL     1     -33.548 -48.963 -16.179  1.00  0.00     0.000 C 
BRANCH  23  24
ATOM     24  C   UNL     1     -34.237 -47.925 -17.086  1.00  0.00    -0.000 C 
BRANCH  24  25
ATOM     25  C   UNL     1     -35.732 -48.180 -17.350  1.00  0.00    -0.000 C 
BRANCH  25  26
ATOM     26  C   UNL     1     -36.337 -47.199 -18.371  1.00  0.00    -0.000 C 
BRANCH  26  27
ATOM     27  C   UNL     1     -36.218 -45.729 -17.911  1.00  0.00    -0.000 C 
BRANCH  27  28
ATOM     28  C   UNL     1     -37.554 -45.098 -17.479  1.00  0.00    -0.000 C 
BRANCH  28  29
ATOM     29  C   UNL     1     -37.590 -44.736 -15.986  1.00  0.00    -0.000 C 
BRANCH  29  30
ATOM     30  C   UNL     1     -38.121 -45.884 -15.113  1.00  0.00    -0.000 C 
BRANCH  30  31
ATOM     31  C   UNL     1     -37.011 -46.567 -14.301  1.00  0.00    -0.003 C 
ATOM     32  C   UNL     1     -35.736 -45.727 -14.300  1.00  0.00     0.004 C 
ENDBRANCH  30  31
ENDBRANCH  29  30
ENDBRANCH  28  29
ENDBRANCH  27  28
ENDBRANCH  26  27
ENDBRANCH  25  26
ENDBRANCH  24  25
ENDBRANCH  23  24
ENDBRANCH  22  23
ENDBRANCH  21  22
ENDBRANCH  20  21
ENDBRANCH  19  20
ENDBRANCH  18  19
ENDBRANCH   1  18
TORSDOF 28
ENDMDL
MODEL 6
REMARK VINA RESULT:    -3.855     17.449     20.298
REMARK INTER + INTRA:         -14.505
REMARK INTER:                 -10.915
REMARK INTRA:                  -3.590
REMARK UNBOUND:                -4.341
REMARK SMILES CCCCCCCCCCCCCCCCCCCCCCCCCCCCCC(=O)[O-]
REMARK SMILES IDX 16 1 17 2 18 3 19 4 20 5 21 6 22 7 23 8 24 9 25 10 26 11
REMARK SMILES IDX 27 12 28 13 29 14 30 15 31 16 32 17 15 18 14 19 13 20 12 21
REMARK SMILES IDX 11 22 10 23 9 24 8 25 7 26 6 27 5 28 4 29 3 30 2 31 1 32
REMARK H PARENT
REMARK Flexibility Score: inf
ROOT
ATOM      1  C   UNL     1     -27.730 -34.655 -14.137  1.00  0.00     0.000 C 
ENDROOT
BRANCH   1   2
ATOM      2  C   UNL     1     -27.511 -33.151 -13.920  1.00  0.00     0.000 C 
BRANCH   2   3
ATOM      3  C   UNL     1     -28.492 -32.556 -12.897  1.00  0.00     0.000 C 
BRANCH   3   4
ATOM      4  C   UNL     1     -28.551 -31.022 -12.962  1.00  0.00     0.000 C 
BRANCH   4   5
ATOM      5  C   UNL     1     -28.240 -30.396 -11.596  1.00  0.00     0.000 C 
BRANCH   5   6
ATOM      6  C   UNL     1     -27.111 -31.162 -10.890  1.00  0.00     0.000 C 
BRANCH   6   7
ATOM      7  C   UNL     1     -25.710 -30.747 -11.374  1.00  0.00     0.000 C 
BRANCH   7   8
ATOM      8  C   UNL     1     -24.568 -31.704 -10.972  1.00  0.00     0.000 C 
BRANCH   8   9
ATOM      9  C   UNL     1     -23.335 -31.029 -10.347  1.00  0.00     0.000 C 
BRANCH   9  10
ATOM     10  C   UNL     1     -22.099 -31.077 -11.262  1.00  0.00     0.000 C 
BRANCH  10  11
ATOM     11  C   UNL     1     -20.821 -31.500 -10.518  1.00  0.00     0.000 C 
BRANCH  11  12
ATOM     12  C   UNL     1     -19.696 -30.447 -10.494  1.00  0.00     0.000 C 
BRANCH  12  13
ATOM     13  C   UNL     1     -19.362 -29.918  -9.081  1.00  0.00     0.006 C 
BRANCH  13  14
ATOM     14  C   UNL     1     -19.507 -30.976  -7.976  1.00  0.00     0.053 C 
BRANCH  14  15
ATOM     15  C   UNL     1     -20.499 -30.566  -6.930  1.00  0.00     0.041 C 
ATOM     16  O   UNL     1     -20.133 -30.424  -5.732  1.00  0.00    -0.550 OA
ATOM     17  O   UNL     1     -21.832 -30.369  -7.268  1.00  0.00    -0.550 OA
ENDBRANCH  14  15
ENDBRANCH  13  14
ENDBRANCH  12  13
ENDBRANCH  11  12
ENDBRANCH  10  11
ENDBRANCH   9  10
ENDBRANCH   8   9
ENDBRANCH   7   8
ENDBRANCH   6   7
ENDBRANCH   5   6
ENDBRANCH   4   5
ENDBRANCH   3   4
ENDBRANCH   2   3
ENDBRANCH   1   2
BRANCH   1  18
ATOM     18  C   UNL     1     -26.618 -35.475 -13.468  1.00  0.00     0.000 C 
BRANCH  18  19
ATOM     19  C   UNL     1     -26.316 -34.941 -12.058  1.00  0.00     0.000 C 
BRANCH  19  20
ATOM     20  C   UNL     1     -24.932 -35.383 -11.537  1.00  0.00     0.000 C 
BRANCH  20  21
ATOM     21  C   UNL     1     -23.864 -35.523 -12.640  1.00  0.00     0.000 C 
BRANCH  21  22
ATOM     22  C   UNL     1     -22.828 -34.384 -12.691  1.00  0.00     0.000 C 
BRANCH  22  23
ATOM     23  C   UNL     1     -21.493 -34.746 -13.373  1.00  0.00     0.000 C 
BRANCH  23  24
ATOM     24  C   UNL     1     -20.244 -34.635 -12.477  1.00  0.00    -0.000 C 
BRANCH  24  25
ATOM     25  C   UNL     1     -18.918 -34.418 -13.230  1.00  0.00    -0.000 C 
BRANCH  25  26
ATOM     26  C   UNL     1     -19.077 -33.540 -14.484  1.00  0.00    -0.000 C 
BRANCH  26  27
ATOM     27  C   UNL     1     -19.113 -32.034 -14.143  1.00  0.00    -0.000 C 
BRANCH  27  28
ATOM     28  C   UNL     1     -20.501 -31.389 -14.304  1.00  0.00    -0.000 C 
BRANCH  28  29
ATOM     29  C   UNL     1     -20.474 -30.116 -15.164  1.00  0.00    -0.000 C 
BRANCH  29  30
ATOM     30  C   UNL     1     -19.750 -30.325 -16.504  1.00  0.00    -0.000 C 
BRANCH  30  31
ATOM     31  C   UNL     1     -20.640 -31.005 -17.554  1.00  0.00    -0.003 C 
ATOM     32  C   UNL     1     -20.838 -30.105 -18.771  1.00  0.00     0.004 C 
ENDBRANCH  30  31
ENDBRANCH  29  30
ENDBRANCH  28  29
ENDBRANCH  27  28
ENDBRANCH  26  27
ENDBRANCH  25  26
ENDBRANCH  24  25
ENDBRANCH  23  24
ENDBRANCH  22  23
ENDBRANCH  21  22
ENDBRANCH  20  21
ENDBRANCH  19  20
ENDBRANCH  18  19
ENDBRANCH   1  18
TORSDOF 28
ENDMDL
MODEL 7
REMARK VINA RESULT:    -3.852      2.153      9.707
REMARK INTER + INTRA:         -14.499
REMARK INTER:                 -11.558
REMARK INTRA:                  -2.941
REMARK UNBOUND:                -4.341
REMARK SMILES CCCCCCCCCCCCCCCCCCCCCCCCCCCCCC(=O)[O-]
REMARK SMILES IDX 16 1 17 2 18 3 19 4 20 5 21 6 22 7 23 8 24 9 25 10 26 11
REMARK SMILES IDX 27 12 28 13 29 14 30 15 31 16 32 17 15 18 14 19 13 20 12 21
REMARK SMILES IDX 11 22 10 23 9 24 8 25 7 26 6 27 5 28 4 29 3 30 2 31 1 32
REMARK H PARENT
REMARK Flexibility Score: inf
ROOT
ATOM      1  C   UNL     1     -35.633 -46.146 -13.092  1.00  0.00     0.000 C 
ENDROOT
BRANCH   1   2
ATOM      2  C   UNL     1     -35.346 -45.552 -11.704  1.00  0.00     0.000 C 
BRANCH   2   3
ATOM      3  C   UNL     1     -34.587 -44.217 -11.783  1.00  0.00     0.000 C 
BRANCH   3   4
ATOM      4  C   UNL     1     -33.997 -43.797 -10.428  1.00  0.00     0.000 C 
BRANCH   4   5
ATOM      5  C   UNL     1     -34.630 -44.589  -9.277  1.00  0.00     0.000 C 
BRANCH   5   6
ATOM      6  C   UNL     1     -34.017 -44.178  -7.929  1.00  0.00     0.000 C 
BRANCH   6   7
ATOM      7  C   UNL     1     -33.565 -45.382  -7.084  1.00  0.00     0.000 C 
BRANCH   7   8
ATOM      8  C   UNL     1     -34.209 -45.479  -5.685  1.00  0.00     0.000 C 
BRANCH   8   9
ATOM      9  C   UNL     1     -34.105 -46.857  -5.008  1.00  0.00     0.000 C 
BRANCH   9  10
ATOM     10  C   UNL     1     -33.198 -47.834  -5.776  1.00  0.00     0.000 C 
BRANCH  10  11
ATOM     11  C   UNL     1     -31.711 -47.677  -5.418  1.00  0.00     0.000 C 
BRANCH  11  12
ATOM     12  C   UNL     1     -30.730 -48.414  -6.350  1.00  0.00     0.000 C 
BRANCH  12  13
ATOM     13  C   UNL     1     -31.413 -49.154  -7.522  1.00  0.00     0.006 C 
BRANCH  13  14
ATOM     14  C   UNL     1     -30.835 -48.794  -8.899  1.00  0.00     0.053 C 
BRANCH  14  15
ATOM     15  C   UNL     1     -31.906 -48.414  -9.877  1.00  0.00     0.041 C 
ATOM     16  O   UNL     1     -32.717 -47.489  -9.599  1.00  0.00    -0.550 OA
ATOM     17  O   UNL     1     -32.029 -49.096 -11.081  1.00  0.00    -0.550 OA
ENDBRANCH  14  15
ENDBRANCH  13  14
ENDBRANCH  12  13
ENDBRANCH  11  12
ENDBRANCH  10  11
ENDBRANCH   9  10
ENDBRANCH   8   9
ENDBRANCH   7   8
ENDBRANCH   6   7
ENDBRANCH   5   6
ENDBRANCH   4   5
ENDBRANCH   3   4
ENDBRANCH   2   3
ENDBRANCH   1   2
BRANCH   1  18
ATOM     18  C   UNL     1     -37.142 -46.297 -13.324  1.00  0.00     0.000 C 
BRANCH  18  19
ATOM     19  C   UNL     1     -37.537 -45.775 -14.716  1.00  0.00     0.000 C 
BRANCH  19  20
ATOM     20  C   UNL     1     -36.338 -45.199 -15.499  1.00  0.00     0.000 C 
BRANCH  20  21
ATOM     21  C   UNL     1     -36.461 -45.349 -17.028  1.00  0.00     0.000 C 
BRANCH  21  22
ATOM     22  C   UNL     1     -37.293 -46.556 -17.500  1.00  0.00     0.000 C 
BRANCH  22  23
ATOM     23  C   UNL     1     -36.493 -47.856 -17.718  1.00  0.00     0.000 C 
BRANCH  23  24
ATOM     24  C   UNL     1     -36.661 -48.925 -16.620  1.00  0.00    -0.000 C 
BRANCH  24  25
ATOM     25  C   UNL     1     -35.515 -48.992 -15.594  1.00  0.00    -0.000 C 
BRANCH  25  26
ATOM     26  C   UNL     1     -34.257 -48.232 -16.049  1.00  0.00    -0.000 C 
BRANCH  26  27
ATOM     27  C   UNL     1     -33.071 -49.179 -16.334  1.00  0.00    -0.000 C 
BRANCH  27  28
ATOM     28  C   UNL     1     -32.102 -48.663 -17.414  1.00  0.00    -0.000 C 
BRANCH  28  29
ATOM     29  C   UNL     1     -32.143 -49.497 -18.704  1.00  0.00    -0.000 C 
BRANCH  29  30
ATOM     30  C   UNL     1     -30.826 -49.431 -19.492  1.00  0.00    -0.000 C 
BRANCH  30  31
ATOM     31  C   UNL     1     -29.687 -48.796 -18.680  1.00  0.00    -0.003 C 
ATOM     32  C   UNL     1     -28.968 -47.721 -19.492  1.00  0.00     0.004 C 
ENDBRANCH  30  31
ENDBRANCH  29  30
ENDBRANCH  28  29
ENDBRANCH  27  28
ENDBRANCH  26  27
ENDBRANCH  25  26
ENDBRANCH  24  25
ENDBRANCH  23  24
ENDBRANCH  22  23
ENDBRANCH  21  22
ENDBRANCH  20  21
ENDBRANCH  19  20
ENDBRANCH  18  19
ENDBRANCH   1  18
TORSDOF 28
ENDMDL
MODEL 8
REMARK VINA RESULT:    -3.837      1.236      2.704
REMARK INTER + INTRA:         -14.459
REMARK INTER:                 -10.269
REMARK INTRA:                  -4.190
REMARK UNBOUND:                -4.341
REMARK SMILES CCCCCCCCCCCCCCCCCCCCCCCCCCCCCC(=O)[O-]
REMARK SMILES IDX 16 1 17 2 18 3 19 4 20 5 21 6 22 7 23 8 24 9 25 10 26 11
REMARK SMILES IDX 27 12 28 13 29 14 30 15 31 16 32 17 15 18 14 19 13 20 12 21
REMARK SMILES IDX 11 22 10 23 9 24 8 25 7 26 6 27 5 28 4 29 3 30 2 31 1 32
REMARK H PARENT
REMARK Flexibility Score: inf
ROOT
ATOM      1  C   UNL     1     -35.302 -47.436 -10.722  1.00  0.00     0.000 C 
ENDROOT
BRANCH   1   2
ATOM      2  C   UNL     1     -36.146 -46.443 -11.535  1.00  0.00     0.000 C 
BRANCH   2   3
ATOM      3  C   UNL     1     -35.436 -45.986 -12.821  1.00  0.00     0.000 C 
BRANCH   3   4
ATOM      4  C   UNL     1     -36.404 -45.836 -14.005  1.00  0.00     0.000 C 
BRANCH   4   5
ATOM      5  C   UNL     1     -37.832 -46.230 -13.607  1.00  0.00     0.000 C 
BRANCH   5   6
ATOM      6  C   UNL     1     -38.794 -46.068 -14.794  1.00  0.00     0.000 C 
BRANCH   6   7
ATOM      7  C   UNL     1     -38.417 -44.894 -15.715  1.00  0.00     0.000 C 
BRANCH   7   8
ATOM      8  C   UNL     1     -38.221 -45.263 -17.201  1.00  0.00     0.000 C 
BRANCH   8   9
ATOM      9  C   UNL     1     -36.757 -45.401 -17.655  1.00  0.00     0.000 C 
BRANCH   9  10
ATOM     10  C   UNL     1     -36.440 -46.789 -18.238  1.00  0.00     0.000 C 
BRANCH  10  11
ATOM     11  C   UNL     1     -36.028 -47.808 -17.163  1.00  0.00     0.000 C 
BRANCH  11  12
ATOM     12  C   UNL     1     -34.573 -47.689 -16.667  1.00  0.00     0.000 C 
BRANCH  12  13
ATOM     13  C   UNL     1     -34.199 -48.710 -15.569  1.00  0.00     0.006 C 
BRANCH  13  14
ATOM     14  C   UNL     1     -33.331 -49.872 -16.078  1.00  0.00     0.053 C 
BRANCH  14  15
ATOM     15  C   UNL     1     -31.873 -49.524 -16.091  1.00  0.00     0.041 C 
ATOM     16  O   UNL     1     -31.119 -49.925 -15.165  1.00  0.00    -0.550 OA
ATOM     17  O   UNL     1     -31.352 -48.733 -17.108  1.00  0.00    -0.550 OA
ENDBRANCH  14  15
ENDBRANCH  13  14
ENDBRANCH  12  13
ENDBRANCH  11  12
ENDBRANCH  10  11
ENDBRANCH   9  10
ENDBRANCH   8   9
ENDBRANCH   7   8
ENDBRANCH   6   7
ENDBRANCH   5   6
ENDBRANCH   4   5
ENDBRANCH   3   4
ENDBRANCH   2   3
ENDBRANCH   1   2
BRANCH   1  18
ATOM     18  C   UNL     1     -36.065 -48.748 -10.495  1.00  0.00     0.000 C 
BRANCH  18  19
ATOM     19  C   UNL     1     -35.163 -49.961 -10.779  1.00  0.00     0.000 C 
BRANCH  19  20
ATOM     20  C   UNL     1     -34.392 -49.832 -12.110  1.00  0.00     0.000 C 
BRANCH  20  21
ATOM     21  C   UNL     1     -32.860 -49.800 -11.943  1.00  0.00     0.000 C 
BRANCH  21  22
ATOM     22  C   UNL     1     -32.359 -49.933 -10.493  1.00  0.00     0.000 C 
BRANCH  22  23
ATOM     23  C   UNL     1     -31.870 -48.620  -9.848  1.00  0.00     0.000 C 
BRANCH  23  24
ATOM     24  C   UNL     1     -30.800 -48.784  -8.751  1.00  0.00    -0.000 C 
BRANCH  24  25
ATOM     25  C   UNL     1     -31.152 -48.144  -7.395  1.00  0.00    -0.000 C 
BRANCH  25  26
ATOM     26  C   UNL     1     -32.420 -48.742  -6.761  1.00  0.00    -0.000 C 
BRANCH  26  27
ATOM     27  C   UNL     1     -33.483 -47.666  -6.450  1.00  0.00    -0.000 C 
BRANCH  27  28
ATOM     28  C   UNL     1     -32.897 -46.271  -6.168  1.00  0.00    -0.000 C 
BRANCH  28  29
ATOM     29  C   UNL     1     -33.752 -45.133  -6.748  1.00  0.00    -0.000 C 
BRANCH  29  30
ATOM     30  C   UNL     1     -33.843 -45.186  -8.282  1.00  0.00    -0.000 C 
BRANCH  30  31
ATOM     31  C   UNL     1     -34.630 -44.004  -8.865  1.00  0.00    -0.003 C 
ATOM     32  C   UNL     1     -34.137 -43.654 -10.267  1.00  0.00     0.004 C 
ENDBRANCH  30  31
ENDBRANCH  29  30
ENDBRANCH  28  29
ENDBRANCH  27  28
ENDBRANCH  26  27
ENDBRANCH  25  26
ENDBRANCH  24  25
ENDBRANCH  23  24
ENDBRANCH  22  23
ENDBRANCH  21  22
ENDBRANCH  20  21
ENDBRANCH  19  20
ENDBRANCH  18  19
ENDBRANCH   1  18
TORSDOF 28
ENDMDL
MODEL 9
REMARK VINA RESULT:    -3.545      1.370      4.254
REMARK INTER + INTRA:         -13.688
REMARK INTER:                  -9.117
REMARK INTRA:                  -4.571
REMARK UNBOUND:                -4.341
REMARK SMILES CCCCCCCCCCCCCCCCCCCCCCCCCCCCCC(=O)[O-]
REMARK SMILES IDX 16 1 17 2 18 3 19 4 20 5 21 6 22 7 23 8 24 9 25 10 26 11
REMARK SMILES IDX 27 12 28 13 29 14 30 15 31 16 32 17 15 18 14 19 13 20 12 21
REMARK SMILES IDX 11 22 10 23 9 24 8 25 7 26 6 27 5 28 4 29 3 30 2 31 1 32
REMARK H PARENT
REMARK Flexibility Score: inf
ROOT
ATOM      1  C   UNL     1     -34.413 -45.661  -9.882  1.00  0.00     0.000 C 
ENDROOT
BRANCH   1   2
ATOM      2  C   UNL     1     -35.012 -45.465 -11.283  1.00  0.00     0.000 C 
BRANCH   2   3
ATOM      3  C   UNL     1     -36.210 -46.394 -11.544  1.00  0.00     0.000 C 
BRANCH   3   4
ATOM      4  C   UNL     1     -35.789 -47.862 -11.710  1.00  0.00     0.000 C 
BRANCH   4   5
ATOM      5  C   UNL     1     -36.883 -48.813 -11.210  1.00  0.00     0.000 C 
BRANCH   5   6
ATOM      6  C   UNL     1     -37.338 -49.759 -12.331  1.00  0.00     0.000 C 
BRANCH   6   7
ATOM      7  C   UNL     1     -37.446 -49.061 -13.699  1.00  0.00     0.000 C 
BRANCH   7   8
ATOM      8  C   UNL     1     -38.828 -48.450 -14.015  1.00  0.00     0.000 C 
BRANCH   8   9
ATOM      9  C   UNL     1     -38.875 -46.912 -14.040  1.00  0.00     0.000 C 
BRANCH   9  10
ATOM     10  C   UNL     1     -38.984 -46.340 -15.464  1.00  0.00     0.000 C 
BRANCH  10  11
ATOM     11  C   UNL     1     -37.782 -45.462 -15.850  1.00  0.00     0.000 C 
BRANCH  11  12
ATOM     12  C   UNL     1     -36.582 -45.531 -14.885  1.00  0.00     0.000 C 
BRANCH  12  13
ATOM     13  C   UNL     1     -35.406 -46.388 -15.406  1.00  0.00     0.006 C 
BRANCH  13  14
ATOM     14  C   UNL     1     -35.752 -47.217 -16.653  1.00  0.00     0.053 C 
BRANCH  14  15
ATOM     15  C   UNL     1     -34.838 -48.394 -16.819  1.00  0.00     0.041 C 
ATOM     16  O   UNL     1     -34.217 -48.564 -17.903  1.00  0.00    -0.550 OA
ATOM     17  O   UNL     1     -34.692 -49.317 -15.792  1.00  0.00    -0.550 OA
ENDBRANCH  14  15
ENDBRANCH  13  14
ENDBRANCH  12  13
ENDBRANCH  11  12
ENDBRANCH  10  11
ENDBRANCH   9  10
ENDBRANCH   8   9
ENDBRANCH   7   8
ENDBRANCH   6   7
ENDBRANCH   5   6
ENDBRANCH   4   5
ENDBRANCH   3   4
ENDBRANCH   2   3
ENDBRANCH   1   2
BRANCH   1  18
ATOM     18  C   UNL     1     -34.361 -44.333  -9.115  1.00  0.00     0.000 C 
BRANCH  18  19
ATOM     19  C   UNL     1     -33.968 -44.563  -7.647  1.00  0.00     0.000 C 
BRANCH  19  20
ATOM     20  C   UNL     1     -33.470 -46.000  -7.381  1.00  0.00     0.000 C 
BRANCH  20  21
ATOM     21  C   UNL     1     -33.583 -46.439  -5.908  1.00  0.00     0.000 C 
BRANCH  21  22
ATOM     22  C   UNL     1     -33.185 -47.901  -5.631  1.00  0.00     0.000 C 
BRANCH  22  23
ATOM     23  C   UNL     1     -34.284 -48.943  -5.920  1.00  0.00     0.000 C 
BRANCH  23  24
ATOM     24  C   UNL     1     -33.990 -49.904  -7.088  1.00  0.00    -0.000 C 
BRANCH  24  25
ATOM     25  C   UNL     1     -34.440 -49.405  -8.473  1.00  0.00    -0.000 C 
BRANCH  25  26
ATOM     26  C   UNL     1     -33.534 -49.902  -9.613  1.00  0.00    -0.000 C 
BRANCH  26  27
ATOM     27  C   UNL     1     -32.056 -50.020  -9.178  1.00  0.00    -0.000 C 
BRANCH  27  28
ATOM     28  C   UNL     1     -31.252 -48.716  -9.332  1.00  0.00    -0.000 C 
BRANCH  28  29
ATOM     29  C   UNL     1     -30.533 -48.300  -8.040  1.00  0.00    -0.000 C 
BRANCH  29  30
ATOM     30  C   UNL     1     -29.939 -49.498  -7.283  1.00  0.00    -0.000 C 
BRANCH  30  31
ATOM     31  C   UNL     1     -29.364 -49.103  -5.915  1.00  0.00    -0.003 C 
ATOM     32  C   UNL     1     -28.862 -47.661  -5.925  1.00  0.00     0.004 C 
ENDBRANCH  30  31
ENDBRANCH  29  30
ENDBRANCH  28  29
ENDBRANCH  27  28
ENDBRANCH  26  27
ENDBRANCH  25  26
ENDBRANCH  24  25
ENDBRANCH  23  24
ENDBRANCH  22  23
ENDBRANCH  21  22
ENDBRANCH  20  21
ENDBRANCH  19  20
ENDBRANCH  18  19
ENDBRANCH   1  18
TORSDOF 28
ENDMDL
