MODEL 1
REMARK VINA RESULT:    -3.803      0.000      0.000
REMARK INTER + INTRA:          -9.509
REMARK INTER:                  -7.360
REMARK INTRA:                  -2.148
REMARK UNBOUND:                -2.148
REMARK SMILES CCCCCCCCCCCCCCCCCC(=O)[O-]
REMARK SMILES IDX 10 1 11 2 12 3 13 4 14 5 15 6 16 7 17 8 18 9 19 10 20 11
REMARK SMILES IDX 9 12 8 13 7 14 6 15 5 16 4 17 3 18 2 19 1 20
REMARK H PARENT
REMARK Flexibility Score: inf
ROOT
ATOM      1  C   UNL     1      -6.398  30.363  47.446  1.00  0.00     0.000 C 
ENDROOT
BRANCH   1   2
ATOM      2  C   UNL     1      -5.459  29.844  46.342  1.00  0.00     0.000 C 
BRANCH   2   3
ATOM      3  C   UNL     1      -4.847  28.476  46.685  1.00  0.00     0.000 C 
BRANCH   3   4
ATOM      4  C   UNL     1      -5.343  27.358  45.753  1.00  0.00     0.000 C 
BRANCH   4   5
ATOM      5  C   UNL     1      -6.861  27.142  45.846  1.00  0.00     0.000 C 
BRANCH   5   6
ATOM      6  C   UNL     1      -7.575  27.373  44.506  1.00  0.00     0.000 C 
BRANCH   6   7
ATOM      7  C   UNL     1      -9.046  27.757  44.726  1.00  0.00     0.006 C 
BRANCH   7   8
ATOM      8  C   UNL     1      -9.746  28.147  43.418  1.00  0.00     0.053 C 
BRANCH   8   9
ATOM      9  C   UNL     1     -10.664  27.066  42.935  1.00  0.00     0.041 C 
ATOM     10  O   UNL     1     -11.878  27.067  43.271  1.00  0.00    -0.550 OA
ATOM     11  O   UNL     1     -10.185  26.076  42.086  1.00  0.00    -0.550 OA
ENDBRANCH   8   9
ENDBRANCH   7   8
ENDBRANCH   6   7
ENDBRANCH   5   6
ENDBRANCH   4   5
ENDBRANCH   3   4
ENDBRANCH   2   3
ENDBRANCH   1   2
BRANCH   1  12
ATOM     12  C   UNL     1      -7.831  30.592  46.939  1.00  0.00     0.000 C 
BRANCH  12  13
ATOM     13  C   UNL     1      -7.869  31.080  45.480  1.00  0.00    -0.000 C 
BRANCH  13  14
ATOM     14  C   UNL     1      -8.452  32.496  45.345  1.00  0.00    -0.000 C 
BRANCH  14  15
ATOM     15  C   UNL     1      -7.425  33.590  45.669  1.00  0.00    -0.000 C 
BRANCH  15  16
ATOM     16  C   UNL     1      -8.022  34.639  46.620  1.00  0.00    -0.000 C 
BRANCH  16  17
ATOM     17  C   UNL     1      -7.183  34.838  47.895  1.00  0.00    -0.000 C 
BRANCH  17  18
ATOM     18  C   UNL     1      -5.801  34.155  47.883  1.00  0.00    -0.000 C 
BRANCH  18  19
ATOM     19  C   UNL     1      -5.409  33.458  49.197  1.00  0.00    -0.003 C 
ATOM     20  C   UNL     1      -6.169  33.999  50.408  1.00  0.00     0.004 C 
ENDBRANCH  18  19
ENDBRANCH  17  18
ENDBRANCH  16  17
ENDBRANCH  15  16
ENDBRANCH  14  15
ENDBRANCH  13  14
ENDBRANCH  12  13
ENDBRANCH   1  12
TORSDOF 16
ENDMDL
MODEL 2
REMARK VINA RESULT:    -3.762      3.996      6.264
REMARK INTER + INTRA:          -9.429
REMARK INTER:                  -6.500
REMARK INTRA:                  -2.930
REMARK UNBOUND:                -2.148
REMARK SMILES CCCCCCCCCCCCCCCCCC(=O)[O-]
REMARK SMILES IDX 10 1 11 2 12 3 13 4 14 5 15 6 16 7 17 8 18 9 19 10 20 11
REMARK SMILES IDX 9 12 8 13 7 14 6 15 5 16 4 17 3 18 2 19 1 20
REMARK H PARENT
REMARK Flexibility Score: inf
ROOT
ATOM      1  C   UNL     1      -5.749  27.527  44.701  1.00  0.00     0.000 C 
ENDROOT
BRANCH   1   2
ATOM      2  C   UNL     1      -5.880  27.772  46.215  1.00  0.00     0.000 C 
BRANCH   2   3
ATOM      3  C   UNL     1      -4.806  28.732  46.751  1.00  0.00     0.000 C 
BRANCH   3   4
ATOM      4  C   UNL     1      -5.322  30.173  46.896  1.00  0.00     0.000 C 
BRANCH   4   5
ATOM      5  C   UNL     1      -6.809  30.232  47.280  1.00  0.00     0.000 C 
BRANCH   5   6
ATOM      6  C   UNL     1      -7.459  31.577  46.926  1.00  0.00     0.000 C 
BRANCH   6   7
ATOM      7  C   UNL     1      -6.447  32.726  47.048  1.00  0.00     0.006 C 
BRANCH   7   8
ATOM      8  C   UNL     1      -6.710  33.603  48.279  1.00  0.00     0.053 C 
BRANCH   8   9
ATOM      9  C   UNL     1      -5.539  33.616  49.212  1.00  0.00     0.041 C 
ATOM     10  O   UNL     1      -5.721  33.602  50.459  1.00  0.00    -0.550 OA
ATOM     11  O   UNL     1      -4.245  33.609  48.705  1.00  0.00    -0.550 OA
ENDBRANCH   8   9
ENDBRANCH   7   8
ENDBRANCH   6   7
ENDBRANCH   5   6
ENDBRANCH   4   5
ENDBRANCH   3   4
ENDBRANCH   2   3
ENDBRANCH   1   2
BRANCH   1  12
ATOM     12  C   UNL     1      -7.111  27.502  43.989  1.00  0.00     0.000 C 
BRANCH  12  13
ATOM     13  C   UNL     1      -8.290  27.633  44.969  1.00  0.00    -0.000 C 
BRANCH  13  14
ATOM     14  C   UNL     1      -9.079  28.938  44.773  1.00  0.00    -0.000 C 
BRANCH  14  15
ATOM     15  C   UNL     1      -8.822  29.582  43.402  1.00  0.00    -0.000 C 
BRANCH  15  16
ATOM     16  C   UNL     1      -8.640  31.102  43.536  1.00  0.00    -0.000 C 
BRANCH  16  17
ATOM     17  C   UNL     1      -7.370  31.616  42.834  1.00  0.00    -0.000 C 
BRANCH  17  18
ATOM     18  C   UNL     1      -6.061  30.920  43.255  1.00  0.00    -0.000 C 
BRANCH  18  19
ATOM     19  C   UNL     1      -4.970  31.860  43.796  1.00  0.00    -0.003 C 
ATOM     20  C   UNL     1      -5.052  33.268  43.207  1.00  0.00     0.004 C 
ENDBRANCH  18  19
ENDBRANCH  17  18
ENDBRANCH  16  17
ENDBRANCH  15  16
ENDBRANCH  14  15
ENDBRANCH  13  14
ENDBRANCH  12  13
ENDBRANCH   1  12
TORSDOF 16
ENDMDL
MODEL 3
REMARK VINA RESULT:    -3.711      3.912      7.268
REMARK INTER + INTRA:          -9.331
REMARK INTER:                  -6.932
REMARK INTRA:                  -2.399
REMARK UNBOUND:                -2.148
REMARK SMILES CCCCCCCCCCCCCCCCCC(=O)[O-]
REMARK SMILES IDX 10 1 11 2 12 3 13 4 14 5 15 6 16 7 17 8 18 9 19 10 20 11
REMARK SMILES IDX 9 12 8 13 7 14 6 15 5 16 4 17 3 18 2 19 1 20
REMARK H PARENT
REMARK Flexibility Score: inf
ROOT
ATOM      1  C   UNL     1      -7.973  31.534  45.670  1.00  0.00     0.000 C 
ENDROOT
BRANCH   1   2
ATOM      2  C   UNL     1      -7.905  30.689  46.953  1.00  0.00     0.000 C 
BRANCH   2   3
ATOM      3  C   UNL     1      -6.463  30.464  47.435  1.00  0.00     0.000 C 
BRANCH   3   4
ATOM      4  C   UNL     1      -5.424  30.739  46.334  1.00  0.00     0.000 C 
BRANCH   4   5
ATOM      5  C   UNL     1      -4.356  31.754  46.771  1.00  0.00     0.000 C 
BRANCH   5   6
ATOM      6  C   UNL     1      -4.652  33.176  46.273  1.00  0.00     0.000 C 
BRANCH   6   7
ATOM      7  C   UNL     1      -5.374  33.996  47.353  1.00  0.00     0.006 C 
BRANCH   7   8
ATOM      8  C   UNL     1      -4.886  33.654  48.766  1.00  0.00     0.053 C 
BRANCH   8   9
ATOM      9  C   UNL     1      -5.905  34.001  49.806  1.00  0.00     0.041 C 
ATOM     10  O   UNL     1      -5.750  33.625  50.999  1.00  0.00    -0.550 OA
ATOM     11  O   UNL     1      -7.012  34.770  49.466  1.00  0.00    -0.550 OA
ENDBRANCH   8   9
ENDBRANCH   7   8
ENDBRANCH   6   7
ENDBRANCH   5   6
ENDBRANCH   4   5
ENDBRANCH   3   4
ENDBRANCH   2   3
ENDBRANCH   1   2
BRANCH   1  12
ATOM     12  C   UNL     1      -8.498  30.736  44.466  1.00  0.00     0.000 C 
BRANCH  12  13
ATOM     13  C   UNL     1      -8.858  29.286  44.833  1.00  0.00    -0.000 C 
BRANCH  13  14
ATOM     14  C   UNL     1      -7.782  28.281  44.390  1.00  0.00    -0.000 C 
BRANCH  14  15
ATOM     15  C   UNL     1      -7.625  27.112  45.374  1.00  0.00    -0.000 C 
BRANCH  15  16
ATOM     16  C   UNL     1      -6.289  27.205  46.127  1.00  0.00    -0.000 C 
BRANCH  16  17
ATOM     17  C   UNL     1      -5.129  26.531  45.373  1.00  0.00    -0.000 C 
BRANCH  17  18
ATOM     18  C   UNL     1      -3.976  27.471  44.969  1.00  0.00    -0.000 C 
BRANCH  18  19
ATOM     19  C   UNL     1      -3.954  27.870  43.483  1.00  0.00    -0.003 C 
ATOM     20  C   UNL     1      -4.508  29.272  43.235  1.00  0.00     0.004 C 
ENDBRANCH  18  19
ENDBRANCH  17  18
ENDBRANCH  16  17
ENDBRANCH  15  16
ENDBRANCH  14  15
ENDBRANCH  13  14
ENDBRANCH  12  13
ENDBRANCH   1  12
TORSDOF 16
ENDMDL
MODEL 4
REMARK VINA RESULT:    -3.592      1.446      3.015
REMARK INTER + INTRA:          -9.100
REMARK INTER:                  -6.351
REMARK INTRA:                  -2.749
REMARK UNBOUND:                -2.148
REMARK SMILES CCCCCCCCCCCCCCCCCC(=O)[O-]
REMARK SMILES IDX 10 1 11 2 12 3 13 4 14 5 15 6 16 7 17 8 18 9 19 10 20 11
REMARK SMILES IDX 9 12 8 13 7 14 6 15 5 16 4 17 3 18 2 19 1 20
REMARK H PARENT
REMARK Flexibility Score: inf
ROOT
ATOM      1  C   UNL     1      -8.044  30.267  46.571  1.00  0.00     0.000 C 
ENDROOT
BRANCH   1   2
ATOM      2  C   UNL     1      -7.980  31.674  45.952  1.00  0.00     0.000 C 
BRANCH   2   3
ATOM      3  C   UNL     1      -8.161  31.655  44.426  1.00  0.00     0.000 C 
BRANCH   3   4
ATOM      4  C   UNL     1      -6.855  31.329  43.682  1.00  0.00     0.000 C 
BRANCH   4   5
ATOM      5  C   UNL     1      -6.860  29.920  43.070  1.00  0.00     0.000 C 
BRANCH   5   6
ATOM      6  C   UNL     1      -8.278  29.368  42.867  1.00  0.00     0.000 C 
BRANCH   6   7
ATOM      7  C   UNL     1      -8.468  28.048  43.629  1.00  0.00     0.006 C 
BRANCH   7   8
ATOM      8  C   UNL     1      -9.935  27.798  44.001  1.00  0.00     0.053 C 
BRANCH   8   9
ATOM      9  C   UNL     1     -10.745  27.373  42.816  1.00  0.00     0.041 C 
ATOM     10  O   UNL     1     -11.382  28.226  42.142  1.00  0.00    -0.550 OA
ATOM     11  O   UNL     1     -10.770  26.037  42.434  1.00  0.00    -0.550 OA
ENDBRANCH   8   9
ENDBRANCH   7   8
ENDBRANCH   6   7
ENDBRANCH   5   6
ENDBRANCH   4   5
ENDBRANCH   3   4
ENDBRANCH   2   3
ENDBRANCH   1   2
BRANCH   1  12
ATOM     12  C   UNL     1      -6.747  29.885  47.302  1.00  0.00     0.000 C 
BRANCH  12  13
ATOM     13  C   UNL     1      -5.885  28.899  46.494  1.00  0.00    -0.000 C 
BRANCH  13  14
ATOM     14  C   UNL     1      -4.557  29.520  46.030  1.00  0.00    -0.000 C 
BRANCH  14  15
ATOM     15  C   UNL     1      -4.144  30.733  46.877  1.00  0.00    -0.000 C 
BRANCH  15  16
ATOM     16  C   UNL     1      -4.103  32.009  46.023  1.00  0.00    -0.000 C 
BRANCH  16  17
ATOM     17  C   UNL     1      -4.699  33.231  46.746  1.00  0.00    -0.000 C 
BRANCH  17  18
ATOM     18  C   UNL     1      -5.210  32.963  48.175  1.00  0.00    -0.000 C 
BRANCH  18  19
ATOM     19  C   UNL     1      -5.772  34.194  48.906  1.00  0.00    -0.003 C 
ATOM     20  C   UNL     1      -6.060  33.930  50.384  1.00  0.00     0.004 C 
ENDBRANCH  18  19
ENDBRANCH  17  18
ENDBRANCH  16  17
ENDBRANCH  15  16
ENDBRANCH  14  15
ENDBRANCH  13  14
ENDBRANCH  12  13
ENDBRANCH   1  12
TORSDOF 16
ENDMDL
MODEL 5
REMARK VINA RESULT:    -3.583      1.749      2.884
REMARK INTER + INTRA:          -9.082
REMARK INTER:                  -6.104
REMARK INTRA:                  -2.979
REMARK UNBOUND:                -2.148
REMARK SMILES CCCCCCCCCCCCCCCCCC(=O)[O-]
REMARK SMILES IDX 10 1 11 2 12 3 13 4 14 5 15 6 16 7 17 8 18 9 19 10 20 11
REMARK SMILES IDX 9 12 8 13 7 14 6 15 5 16 4 17 3 18 2 19 1 20
REMARK H PARENT
REMARK Flexibility Score: inf
ROOT
ATOM      1  C   UNL     1      -6.160  30.256  43.276  1.00  0.00     0.000 C 
ENDROOT
BRANCH   1   2
ATOM      2  C   UNL     1      -4.856  30.534  44.043  1.00  0.00     0.000 C 
BRANCH   2   3
ATOM      3  C   UNL     1      -4.122  29.244  44.444  1.00  0.00     0.000 C 
BRANCH   3   4
ATOM      4  C   UNL     1      -3.960  29.107  45.968  1.00  0.00     0.000 C 
BRANCH   4   5
ATOM      5  C   UNL     1      -5.110  28.319  46.615  1.00  0.00     0.000 C 
BRANCH   5   6
ATOM      6  C   UNL     1      -5.303  26.931  45.988  1.00  0.00     0.000 C 
BRANCH   6   7
ATOM      7  C   UNL     1      -6.795  26.578  45.884  1.00  0.00     0.006 C 
BRANCH   7   8
ATOM      8  C   UNL     1      -7.654  27.792  45.505  1.00  0.00     0.053 C 
BRANCH   8   9
ATOM      9  C   UNL     1      -8.463  27.536  44.271  1.00  0.00     0.041 C 
ATOM     10  O   UNL     1      -9.695  27.802  44.254  1.00  0.00    -0.550 OA
ATOM     11  O   UNL     1      -7.851  27.036  43.129  1.00  0.00    -0.550 OA
ENDBRANCH   8   9
ENDBRANCH   7   8
ENDBRANCH   6   7
ENDBRANCH   5   6
ENDBRANCH   4   5
ENDBRANCH   3   4
ENDBRANCH   2   3
ENDBRANCH   1   2
BRANCH   1  12
ATOM     12  C   UNL     1      -7.139  31.440  43.331  1.00  0.00     0.000 C 
BRANCH  12  13
ATOM     13  C   UNL     1      -8.240  31.245  44.388  1.00  0.00    -0.000 C 
BRANCH  13  14
ATOM     14  C   UNL     1      -7.963  32.029  45.681  1.00  0.00    -0.000 C 
BRANCH  14  15
ATOM     15  C   UNL     1      -7.657  31.111  46.873  1.00  0.00    -0.000 C 
BRANCH  15  16
ATOM     16  C   UNL     1      -6.334  31.508  47.546  1.00  0.00    -0.000 C 
BRANCH  16  17
ATOM     17  C   UNL     1      -6.342  32.954  48.074  1.00  0.00    -0.000 C 
BRANCH  17  18
ATOM     18  C   UNL     1      -5.184  33.841  47.574  1.00  0.00    -0.000 C 
BRANCH  18  19
ATOM     19  C   UNL     1      -4.473  33.329  46.310  1.00  0.00    -0.003 C 
ATOM     20  C   UNL     1      -4.915  34.058  45.042  1.00  0.00     0.004 C 
ENDBRANCH  18  19
ENDBRANCH  17  18
ENDBRANCH  16  17
ENDBRANCH  15  16
ENDBRANCH  14  15
ENDBRANCH  13  14
ENDBRANCH  12  13
ENDBRANCH   1  12
TORSDOF 16
ENDMDL
MODEL 6
REMARK VINA RESULT:    -3.555      2.549      5.134
REMARK INTER + INTRA:          -9.028
REMARK INTER:                  -5.863
REMARK INTRA:                  -3.165
REMARK UNBOUND:                -2.148
REMARK SMILES CCCCCCCCCCCCCCCCCC(=O)[O-]
REMARK SMILES IDX 10 1 11 2 12 3 13 4 14 5 15 6 16 7 17 8 18 9 19 10 20 11
REMARK SMILES IDX 9 12 8 13 7 14 6 15 5 16 4 17 3 18 2 19 1 20
REMARK H PARENT
REMARK Flexibility Score: inf
ROOT
ATOM      1  C   UNL     1      -7.201  31.986  46.656  1.00  0.00     0.000 C 
ENDROOT
BRANCH   1   2
ATOM      2  C   UNL     1      -6.160  32.321  47.739  1.00  0.00     0.000 C 
BRANCH   2   3
ATOM      3  C   UNL     1      -4.720  32.045  47.278  1.00  0.00     0.000 C 
BRANCH   3   4
ATOM      4  C   UNL     1      -4.623  31.800  45.762  1.00  0.00     0.000 C 
BRANCH   4   5
ATOM      5  C   UNL     1      -4.023  30.427  45.423  1.00  0.00     0.000 C 
BRANCH   5   6
ATOM      6  C   UNL     1      -3.927  29.505  46.647  1.00  0.00     0.000 C 
BRANCH   6   7
ATOM      7  C   UNL     1      -4.996  28.402  46.590  1.00  0.00     0.006 C 
BRANCH   7   8
ATOM      8  C   UNL     1      -4.696  27.359  45.505  1.00  0.00     0.053 C 
BRANCH   8   9
ATOM      9  C   UNL     1      -5.761  26.309  45.434  1.00  0.00     0.041 C 
ATOM     10  O   UNL     1      -6.193  25.917  44.318  1.00  0.00    -0.550 OA
ATOM     11  O   UNL     1      -6.253  25.738  46.602  1.00  0.00    -0.550 OA
ENDBRANCH   8   9
ENDBRANCH   7   8
ENDBRANCH   6   7
ENDBRANCH   5   6
ENDBRANCH   4   5
ENDBRANCH   3   4
ENDBRANCH   2   3
ENDBRANCH   1   2
BRANCH   1  12
ATOM     12  C   UNL     1      -7.878  30.627  46.890  1.00  0.00     0.000 C 
BRANCH  12  13
ATOM     13  C   UNL     1      -8.763  30.198  45.706  1.00  0.00    -0.000 C 
BRANCH  13  14
ATOM     14  C   UNL     1      -8.348  28.839  45.121  1.00  0.00    -0.000 C 
BRANCH  14  15
ATOM     15  C   UNL     1      -8.099  28.899  43.607  1.00  0.00    -0.000 C 
BRANCH  15  16
ATOM     16  C   UNL     1      -6.738  29.542  43.300  1.00  0.00    -0.000 C 
BRANCH  16  17
ATOM     17  C   UNL     1      -6.844  30.737  42.335  1.00  0.00    -0.000 C 
BRANCH  17  18
ATOM     18  C   UNL     1      -7.076  32.105  43.009  1.00  0.00    -0.000 C 
BRANCH  18  19
ATOM     19  C   UNL     1      -8.287  32.892  42.480  1.00  0.00    -0.003 C 
ATOM     20  C   UNL     1      -9.602  32.124  42.617  1.00  0.00     0.004 C 
ENDBRANCH  18  19
ENDBRANCH  17  18
ENDBRANCH  16  17
ENDBRANCH  15  16
ENDBRANCH  14  15
ENDBRANCH  13  14
ENDBRANCH  12  13
ENDBRANCH   1  12
TORSDOF 16
ENDMDL
MODEL 7
REMARK VINA RESULT:    -3.544      1.232      2.316
REMARK INTER + INTRA:          -9.007
REMARK INTER:                  -6.166
REMARK INTRA:                  -2.841
REMARK UNBOUND:                -2.148
REMARK SMILES CCCCCCCCCCCCCCCCCC(=O)[O-]
REMARK SMILES IDX 10 1 11 2 12 3 13 4 14 5 15 6 16 7 17 8 18 9 19 10 20 11
REMARK SMILES IDX 9 12 8 13 7 14 6 15 5 16 4 17 3 18 2 19 1 20
REMARK H PARENT
REMARK Flexibility Score: inf
ROOT
ATOM      1  C   UNL     1      -4.733  30.465  46.501  1.00  0.00     0.000 C 
ENDROOT
BRANCH   1   2
ATOM      2  C   UNL     1      -5.643  29.299  46.928  1.00  0.00     0.000 C 
BRANCH   2   3
ATOM      3  C   UNL     1      -5.119  27.937  46.446  1.00  0.00     0.000 C 
BRANCH   3   4
ATOM      4  C   UNL     1      -6.246  27.006  45.968  1.00  0.00     0.000 C 
BRANCH   4   5
ATOM      5  C   UNL     1      -7.580  27.745  45.775  1.00  0.00     0.000 C 
BRANCH   5   6
ATOM      6  C   UNL     1      -8.168  27.549  44.371  1.00  0.00     0.000 C 
BRANCH   6   7
ATOM      7  C   UNL     1      -9.617  28.056  44.306  1.00  0.00     0.006 C 
BRANCH   7   8
ATOM      8  C   UNL     1     -10.183  28.016  42.881  1.00  0.00     0.053 C 
BRANCH   8   9
ATOM      9  C   UNL     1     -11.107  26.855  42.682  1.00  0.00     0.041 C 
ATOM     10  O   UNL     1     -10.714  25.829  42.065  1.00  0.00    -0.550 OA
ATOM     11  O   UNL     1     -12.393  26.892  43.208  1.00  0.00    -0.550 OA
ENDBRANCH   8   9
ENDBRANCH   7   8
ENDBRANCH   6   7
ENDBRANCH   5   6
ENDBRANCH   4   5
ENDBRANCH   3   4
ENDBRANCH   2   3
ENDBRANCH   1   2
BRANCH   1  12
ATOM     12  C   UNL     1      -4.155  30.275  45.090  1.00  0.00     0.000 C 
BRANCH  12  13
ATOM     13  C   UNL     1      -4.863  31.150  44.041  1.00  0.00    -0.000 C 
BRANCH  13  14
ATOM     14  C   UNL     1      -6.235  30.589  43.633  1.00  0.00    -0.000 C 
BRANCH  14  15
ATOM     15  C   UNL     1      -7.361  31.624  43.775  1.00  0.00    -0.000 C 
BRANCH  15  16
ATOM     16  C   UNL     1      -8.229  31.323  45.007  1.00  0.00    -0.000 C 
BRANCH  16  17
ATOM     17  C   UNL     1      -7.907  32.235  46.204  1.00  0.00    -0.000 C 
BRANCH  17  18
ATOM     18  C   UNL     1      -7.070  33.486  45.868  1.00  0.00    -0.000 C 
BRANCH  18  19
ATOM     19  C   UNL     1      -6.096  33.931  46.971  1.00  0.00    -0.003 C 
ATOM     20  C   UNL     1      -6.355  33.239  48.309  1.00  0.00     0.004 C 
ENDBRANCH  18  19
ENDBRANCH  17  18
ENDBRANCH  16  17
ENDBRANCH  15  16
ENDBRANCH  14  15
ENDBRANCH  13  14
ENDBRANCH  12  13
ENDBRANCH   1  12
TORSDOF 16
ENDMDL
MODEL 8
REMARK VINA RESULT:    -3.502      2.308      3.260
REMARK INTER + INTRA:          -8.926
REMARK INTER:                  -5.650
REMARK INTRA:                  -3.276
REMARK UNBOUND:                -2.148
REMARK SMILES CCCCCCCCCCCCCCCCCC(=O)[O-]
REMARK SMILES IDX 10 1 11 2 12 3 13 4 14 5 15 6 16 7 17 8 18 9 19 10 20 11
REMARK SMILES IDX 9 12 8 13 7 14 6 15 5 16 4 17 3 18 2 19 1 20
REMARK H PARENT
REMARK Flexibility Score: inf
ROOT
ATOM      1  C   UNL     1      -7.495  29.943  46.615  1.00  0.00     0.000 C 
ENDROOT
BRANCH   1   2
ATOM      2  C   UNL     1      -6.727  31.140  47.202  1.00  0.00     0.000 C 
BRANCH   2   3
ATOM      3  C   UNL     1      -5.203  30.941  47.157  1.00  0.00     0.000 C 
BRANCH   3   4
ATOM      4  C   UNL     1      -4.563  31.568  45.907  1.00  0.00     0.000 C 
BRANCH   4   5
ATOM      5  C   UNL     1      -3.994  30.515  44.944  1.00  0.00     0.000 C 
BRANCH   5   6
ATOM      6  C   UNL     1      -4.866  30.322  43.695  1.00  0.00     0.000 C 
BRANCH   6   7
ATOM      7  C   UNL     1      -5.509  28.927  43.684  1.00  0.00     0.006 C 
BRANCH   7   8
ATOM      8  C   UNL     1      -4.935  28.014  44.775  1.00  0.00     0.053 C 
BRANCH   8   9
ATOM      9  C   UNL     1      -5.885  26.915  45.138  1.00  0.00     0.041 C 
ATOM     10  O   UNL     1      -6.045  26.585  46.343  1.00  0.00    -0.550 OA
ATOM     11  O   UNL     1      -6.621  26.277  44.146  1.00  0.00    -0.550 OA
ENDBRANCH   8   9
ENDBRANCH   7   8
ENDBRANCH   6   7
ENDBRANCH   5   6
ENDBRANCH   4   5
ENDBRANCH   3   4
ENDBRANCH   2   3
ENDBRANCH   1   2
BRANCH   1  12
ATOM     12  C   UNL     1      -8.505  30.364  45.535  1.00  0.00     0.000 C 
BRANCH  12  13
ATOM     13  C   UNL     1      -8.563  31.890  45.347  1.00  0.00    -0.000 C 
BRANCH  13  14
ATOM     14  C   UNL     1      -7.941  32.346  44.017  1.00  0.00    -0.000 C 
BRANCH  14  15
ATOM     15  C   UNL     1      -7.069  33.600  44.172  1.00  0.00    -0.000 C 
BRANCH  15  16
ATOM     16  C   UNL     1      -7.440  34.371  45.448  1.00  0.00    -0.000 C 
BRANCH  16  17
ATOM     17  C   UNL     1      -6.209  34.803  46.266  1.00  0.00    -0.000 C 
BRANCH  17  18
ATOM     18  C   UNL     1      -6.457  34.984  47.777  1.00  0.00    -0.000 C 
BRANCH  18  19
ATOM     19  C   UNL     1      -5.363  34.402  48.689  1.00  0.00    -0.003 C 
ATOM     20  C   UNL     1      -5.930  33.661  49.900  1.00  0.00     0.004 C 
ENDBRANCH  18  19
ENDBRANCH  17  18
ENDBRANCH  16  17
ENDBRANCH  15  16
ENDBRANCH  14  15
ENDBRANCH  13  14
ENDBRANCH  12  13
ENDBRANCH   1  12
TORSDOF 16
ENDMDL
