MODEL 1
REMARK VINA RESULT:    -3.689      0.000      0.000
REMARK INTER + INTRA:          -5.022
REMARK INTER:                  -5.199
REMARK INTRA:                   0.178
REMARK UNBOUND:                 0.178
REMARK SMILES CC1=CCC(=C(C)C)C(=O)CC(C)=CCC1
REMARK SMILES IDX 12 1 14 2 13 3 15 4 16 5 2 6 1 7 3 8 11 10 9 11 10 12 5 13
REMARK SMILES IDX 6 14 7 15 8 16 4 17
REMARK H PARENT
REMARK Flexibility Score: 60.00
ROOT
ATOM      1  C   UNL     1     -11.667   3.796 -17.709  1.00  0.00    -0.070 C 
ATOM      2  C   UNL     1     -10.678   4.544 -18.277  1.00  0.00    -0.027 C 
ATOM      3  C   UNL     1     -11.996   4.093 -16.264  1.00  0.00     0.039 C 
ENDROOT
BRANCH   2   4
ATOM      4  C   UNL     1     -10.045   4.496 -19.663  1.00  0.00     0.032 C 
BRANCH   4   5
ATOM      5  C   UNL     1      -8.671   3.827 -19.785  1.00  0.00     0.034 C 
BRANCH   5   6
ATOM      6  C   UNL     1      -8.458   2.472 -19.096  1.00  0.00    -0.077 C 
ATOM      7  C   UNL     1      -7.315   2.421 -18.104  1.00  0.00     0.039 C 
ATOM      8  C   UNL     1      -9.102   1.286 -19.311  1.00  0.00    -0.023 CG0
ATOM      9  G   UNL     1     -10.235   0.928 -20.253  1.00  0.00     0.000 G0
ENDBRANCH   5   6
ENDBRANCH   4   5
ENDBRANCH   2   4
BRANCH   1  10
ATOM     10  C   UNL     1     -12.480   2.700 -18.379  1.00  0.00     0.111 C 
BRANCH  10  11
ATOM     11  C   UNL     1     -11.797   1.369 -18.296  1.00  0.00     0.163 C 
ATOM     12  O   UNL     1     -11.431   0.939 -17.169  1.00  0.00    -0.294 OA
BRANCH  11  13
ATOM     13  C   UNL     1     -11.514   0.582 -19.524  1.00  0.00    -0.002 C 
ATOM     14  C   UNL     1     -12.356  -0.404 -19.950  1.00  0.00    -0.069 C 
ATOM     15  C   UNL     1     -13.678  -0.653 -19.259  1.00  0.00     0.039 C 
ATOM     16  C   UNL     1     -12.018  -1.278 -21.136  1.00  0.00     0.039 C 
BRANCH  13  17
ATOM     17  C   UNL     1     -10.233   0.927 -20.255  1.00  0.00     0.066 CG0
ATOM     18  G   UNL     1      -9.109   1.276 -19.300  1.00  0.00     0.000 G0
ENDBRANCH  13  17
ENDBRANCH  11  13
ENDBRANCH  10  11
ENDBRANCH   1  10
TORSDOF 0
ENDMDL
MODEL 2
REMARK VINA RESULT:    -3.332      1.783      3.487
REMARK INTER + INTRA:          -4.517
REMARK INTER:                  -4.881
REMARK INTRA:                   0.363
REMARK UNBOUND:                 0.178
REMARK SMILES CC1=CCC(=C(C)C)C(=O)CC(C)=CCC1
REMARK SMILES IDX 12 1 14 2 13 3 15 4 16 5 2 6 1 7 3 8 11 10 9 11 10 12 5 13
REMARK SMILES IDX 6 14 7 15 8 16 4 17
REMARK H PARENT
REMARK Flexibility Score: 60.00
ROOT
ATOM      1  C   UNL     1      -8.611   3.640 -19.429  1.00  0.00    -0.070 C 
ATOM      2  C   UNL     1      -8.355   3.880 -18.111  1.00  0.00    -0.027 C 
ATOM      3  C   UNL     1      -7.650   4.243 -20.427  1.00  0.00     0.039 C 
ENDROOT
BRANCH   2   4
ATOM      4  C   UNL     1      -9.116   3.494 -16.847  1.00  0.00     0.032 C 
BRANCH   4   5
ATOM      5  C   UNL     1     -10.362   4.316 -16.499  1.00  0.00     0.034 C 
BRANCH   5   6
ATOM      6  C   UNL     1     -11.643   4.074 -17.309  1.00  0.00    -0.077 C 
ATOM      7  C   UNL     1     -12.477   5.306 -17.588  1.00  0.00     0.039 C 
ATOM      8  C   UNL     1     -12.177   2.893 -17.742  1.00  0.00    -0.023 CG0
ATOM      9  G   UNL     1     -11.679   1.467 -17.603  1.00  0.00     0.000 G0
ENDBRANCH   5   6
ENDBRANCH   4   5
ENDBRANCH   2   4
BRANCH   1  10
ATOM     10  C   UNL     1      -9.758   2.820 -20.000  1.00  0.00     0.111 C 
BRANCH  10  11
ATOM     11  C   UNL     1      -9.843   1.465 -19.365  1.00  0.00     0.163 C 
ATOM     12  O   UNL     1      -8.792   0.777 -19.250  1.00  0.00    -0.294 OA
BRANCH  11  13
ATOM     13  C   UNL     1     -11.148   0.917 -18.915  1.00  0.00    -0.002 C 
ATOM     14  C   UNL     1     -11.822  -0.014 -19.650  1.00  0.00    -0.069 C 
ATOM     15  C   UNL     1     -11.210  -0.621 -20.893  1.00  0.00     0.039 C 
ATOM     16  C   UNL     1     -13.199  -0.495 -19.251  1.00  0.00     0.039 C 
BRANCH  13  17
ATOM     17  C   UNL     1     -11.686   1.466 -17.610  1.00  0.00     0.066 CG0
ATOM     18  G   UNL     1     -12.185   2.890 -17.756  1.00  0.00     0.000 G0
ENDBRANCH  13  17
ENDBRANCH  11  13
ENDBRANCH  10  11
ENDBRANCH   1  10
TORSDOF 0
ENDMDL
MODEL 3
REMARK VINA RESULT:    -2.969      1.644      4.670
REMARK INTER + INTRA:          -4.007
REMARK INTER:                  -4.382
REMARK INTRA:                   0.375
REMARK UNBOUND:                 0.178
REMARK SMILES CC1=CCC(=C(C)C)C(=O)CC(C)=CCC1
REMARK SMILES IDX 12 1 14 2 13 3 15 4 16 5 2 6 1 7 3 8 11 10 9 11 10 12 5 13
REMARK SMILES IDX 6 14 7 15 8 16 4 17
REMARK H PARENT
REMARK Flexibility Score: 60.00
ROOT
ATOM      1  C   UNL     1      -8.582   2.184 -19.181  1.00  0.00    -0.070 C 
ATOM      2  C   UNL     1      -8.870   0.897 -19.528  1.00  0.00    -0.027 C 
ATOM      3  C   UNL     1      -7.460   2.383 -18.189  1.00  0.00     0.039 C 
ENDROOT
BRANCH   2   4
ATOM      4  C   UNL     1      -9.947   0.312 -20.435  1.00  0.00     0.032 C 
BRANCH   4   5
ATOM      5  C   UNL     1     -10.970  -0.632 -19.794  1.00  0.00     0.034 C 
BRANCH   5   6
ATOM      6  C   UNL     1     -12.294  -0.039 -19.293  1.00  0.00    -0.077 C 
ATOM      7  C   UNL     1     -13.544  -0.625 -19.914  1.00  0.00     0.039 C 
ATOM      8  C   UNL     1     -12.499   0.998 -18.427  1.00  0.00    -0.023 CG0
ATOM      9  G   UNL     1     -11.516   1.865 -17.665  1.00  0.00     0.000 G0
ENDBRANCH   5   6
ENDBRANCH   4   5
ENDBRANCH   2   4
BRANCH   1  10
ATOM     10  C   UNL     1      -9.265   3.441 -19.695  1.00  0.00     0.111 C 
BRANCH  10  11
ATOM     11  C   UNL     1     -10.758   3.342 -19.600  1.00  0.00     0.163 C 
ATOM     12  O   UNL     1     -11.441   3.367 -20.661  1.00  0.00    -0.294 OA
BRANCH  11  13
ATOM     13  C   UNL     1     -11.432   3.258 -18.280  1.00  0.00    -0.002 C 
ATOM     14  C   UNL     1     -11.923   4.369 -17.657  1.00  0.00    -0.069 C 
ATOM     15  C   UNL     1     -11.914   5.717 -18.344  1.00  0.00     0.039 C 
ATOM     16  C   UNL     1     -12.513   4.304 -16.267  1.00  0.00     0.039 C 
BRANCH  13  17
ATOM     17  C   UNL     1     -11.522   1.877 -17.665  1.00  0.00     0.066 CG0
ATOM     18  G   UNL     1     -12.496   0.985 -18.409  1.00  0.00     0.000 G0
ENDBRANCH  13  17
ENDBRANCH  11  13
ENDBRANCH  10  11
ENDBRANCH   1  10
TORSDOF 0
ENDMDL
MODEL 4
REMARK VINA RESULT:    -2.813      1.796      4.036
REMARK INTER + INTRA:          -3.787
REMARK INTER:                  -4.714
REMARK INTRA:                   0.928
REMARK UNBOUND:                 0.178
REMARK SMILES CC1=CCC(=C(C)C)C(=O)CC(C)=CCC1
REMARK SMILES IDX 12 1 14 2 13 3 15 4 16 5 2 6 1 7 3 8 11 10 9 11 10 12 5 13
REMARK SMILES IDX 6 14 7 15 8 16 4 17
REMARK H PARENT
REMARK Flexibility Score: 60.00
ROOT
ATOM      1  C   UNL     1      -9.039   3.944 -18.490  1.00  0.00    -0.070 C 
ATOM      2  C   UNL     1      -8.388   2.881 -19.043  1.00  0.00    -0.027 C 
ATOM      3  C   UNL     1      -8.659   5.313 -19.005  1.00  0.00     0.039 C 
ENDROOT
BRANCH   2   4
ATOM      4  C   UNL     1      -8.460   1.387 -18.746  1.00  0.00     0.032 C 
BRANCH   4   5
ATOM      5  C   UNL     1      -9.301   0.522 -19.693  1.00  0.00     0.034 C 
BRANCH   5   6
ATOM      6  C   UNL     1     -10.830   0.643 -19.624  1.00  0.00    -0.077 C 
ATOM      7  C   UNL     1     -11.565  -0.623 -19.241  1.00  0.00     0.039 C 
ATOM      8  C   UNL     1     -11.623   1.711 -19.939  1.00  0.00    -0.023 CG0
ATOM      9  G   UNL     1     -11.269   3.106 -20.415  1.00  0.00     0.000 G0
ENDBRANCH   5   6
ENDBRANCH   4   5
ENDBRANCH   2   4
BRANCH   1  10
ATOM     10  C   UNL     1     -10.115   3.896 -17.416  1.00  0.00     0.111 C 
BRANCH  10  11
ATOM     11  C   UNL     1     -11.492   3.892 -18.008  1.00  0.00     0.163 C 
ATOM     12  O   UNL     1     -12.472   3.595 -17.272  1.00  0.00    -0.294 OA
BRANCH  11  13
ATOM     13  C   UNL     1     -11.701   4.190 -19.448  1.00  0.00    -0.002 C 
ATOM     14  C   UNL     1     -12.264   5.364 -19.859  1.00  0.00    -0.069 C 
ATOM     15  C   UNL     1     -12.583   6.464 -18.872  1.00  0.00     0.039 C 
ATOM     16  C   UNL     1     -12.577   5.627 -21.315  1.00  0.00     0.039 C 
BRANCH  13  17
ATOM     17  C   UNL     1     -11.272   3.112 -20.420  1.00  0.00     0.066 CG0
ATOM     18  G   UNL     1     -11.640   1.725 -19.930  1.00  0.00     0.000 G0
ENDBRANCH  13  17
ENDBRANCH  11  13
ENDBRANCH  10  11
ENDBRANCH   1  10
TORSDOF 0
ENDMDL
MODEL 5
REMARK VINA RESULT:    -2.484      1.671      3.804
REMARK INTER + INTRA:          -3.322
REMARK INTER:                  -3.912
REMARK INTRA:                   0.589
REMARK UNBOUND:                 0.178
REMARK SMILES CC1=CCC(=C(C)C)C(=O)CC(C)=CCC1
REMARK SMILES IDX 12 1 14 2 13 3 15 4 16 5 2 6 1 7 3 8 11 10 9 11 10 12 5 13
REMARK SMILES IDX 6 14 7 15 8 16 4 17
REMARK H PARENT
REMARK Flexibility Score: 60.00
ROOT
ATOM      1  C   UNL     1     -11.888   0.561 -18.996  1.00  0.00    -0.070 C 
ATOM      2  C   UNL     1     -10.993   0.452 -20.019  1.00  0.00    -0.027 C 
ATOM      3  C   UNL     1     -13.277   0.024 -19.251  1.00  0.00     0.039 C 
ENDROOT
BRANCH   2   4
ATOM      4  C   UNL     1      -9.547   0.920 -20.151  1.00  0.00     0.032 C 
BRANCH   4   5
ATOM      5  C   UNL     1      -8.660   0.819 -18.905  1.00  0.00     0.034 C 
BRANCH   5   6
ATOM      6  C   UNL     1      -7.798   2.032 -18.525  1.00  0.00    -0.077 C 
ATOM      7  C   UNL     1      -6.363   1.984 -19.003  1.00  0.00     0.039 C 
ATOM      8  C   UNL     1      -8.123   3.109 -17.748  1.00  0.00    -0.023 CG0
ATOM      9  G   UNL     1      -9.418   3.474 -17.048  1.00  0.00     0.000 G0
ENDBRANCH   5   6
ENDBRANCH   4   5
ENDBRANCH   2   4
BRANCH   1  10
ATOM     10  C   UNL     1     -11.632   1.158 -17.620  1.00  0.00     0.111 C 
BRANCH  10  11
ATOM     11  C   UNL     1     -11.744   2.653 -17.632  1.00  0.00     0.163 C 
ATOM     12  O   UNL     1     -12.851   3.184 -17.345  1.00  0.00    -0.294 OA
BRANCH  11  13
ATOM     13  C   UNL     1     -10.586   3.499 -18.016  1.00  0.00    -0.002 C 
ATOM     14  C   UNL     1     -10.582   4.220 -19.175  1.00  0.00    -0.069 C 
ATOM     15  C   UNL     1     -11.808   4.286 -20.057  1.00  0.00     0.039 C 
ATOM     16  C   UNL     1      -9.364   4.997 -19.621  1.00  0.00     0.039 C 
BRANCH  13  17
ATOM     17  C   UNL     1      -9.414   3.497 -17.057  1.00  0.00     0.066 CG0
ATOM     18  G   UNL     1      -8.117   3.120 -17.747  1.00  0.00     0.000 G0
ENDBRANCH  13  17
ENDBRANCH  11  13
ENDBRANCH  10  11
ENDBRANCH   1  10
TORSDOF 0
ENDMDL
MODEL 6
REMARK VINA RESULT:    -2.415      1.776      3.201
REMARK INTER + INTRA:          -3.226
REMARK INTER:                  -4.908
REMARK INTRA:                   1.683
REMARK UNBOUND:                 0.178
REMARK SMILES CC1=CCC(=C(C)C)C(=O)CC(C)=CCC1
REMARK SMILES IDX 12 1 14 2 13 3 15 4 16 5 2 6 1 7 3 8 11 10 9 11 10 12 5 13
REMARK SMILES IDX 6 14 7 15 8 16 4 17
REMARK H PARENT
REMARK Flexibility Score: 60.00
ROOT
ATOM      1  C   UNL     1      -8.642   2.730 -18.447  1.00  0.00    -0.070 C 
ATOM      2  C   UNL     1      -8.336   3.684 -19.372  1.00  0.00    -0.027 C 
ATOM      3  C   UNL     1      -7.874   1.432 -18.533  1.00  0.00     0.039 C 
ENDROOT
BRANCH   2   4
ATOM      4  C   UNL     1      -8.926   5.067 -19.630  1.00  0.00     0.032 C 
BRANCH   4   5
ATOM      5  C   UNL     1     -10.227   5.423 -18.902  1.00  0.00     0.034 C 
BRANCH   5   6
ATOM      6  C   UNL     1     -11.559   5.121 -19.604  1.00  0.00    -0.077 C 
ATOM      7  C   UNL     1     -12.583   6.236 -19.561  1.00  0.00     0.039 C 
ATOM      8  C   UNL     1     -11.979   3.960 -20.189  1.00  0.00    -0.023 CG0
ATOM      9  G   UNL     1     -11.278   2.628 -20.369  1.00  0.00     0.000 G0
ENDBRANCH   5   6
ENDBRANCH   4   5
ENDBRANCH   2   4
BRANCH   1  10
ATOM     10  C   UNL     1      -9.667   2.840 -17.329  1.00  0.00     0.111 C 
BRANCH  10  11
ATOM     11  C   UNL     1     -11.055   2.550 -17.816  1.00  0.00     0.163 C 
ATOM     12  O   UNL     1     -12.037   2.921 -17.118  1.00  0.00    -0.294 OA
BRANCH  11  13
ATOM     13  C   UNL     1     -11.276   1.802 -19.079  1.00  0.00    -0.002 C 
ATOM     14  C   UNL     1     -11.456   0.449 -19.085  1.00  0.00    -0.069 C 
ATOM     15  C   UNL     1     -11.563  -0.330 -17.793  1.00  0.00     0.039 C 
ATOM     16  C   UNL     1     -11.574  -0.330 -20.376  1.00  0.00     0.039 C 
BRANCH  13  17
ATOM     17  C   UNL     1     -11.271   2.625 -20.350  1.00  0.00     0.066 CG0
ATOM     18  G   UNL     1     -11.975   3.955 -20.170  1.00  0.00     0.000 G0
ENDBRANCH  13  17
ENDBRANCH  11  13
ENDBRANCH  10  11
ENDBRANCH   1  10
TORSDOF 0
ENDMDL
MODEL 7
REMARK VINA RESULT:    -2.330      1.969      4.382
REMARK INTER + INTRA:          -3.106
REMARK INTER:                  -3.287
REMARK INTRA:                   0.181
REMARK UNBOUND:                 0.178
REMARK SMILES CC1=CCC(=C(C)C)C(=O)CC(C)=CCC1
REMARK SMILES IDX 12 1 14 2 13 3 15 4 16 5 2 6 1 7 3 8 11 10 9 11 10 12 5 13
REMARK SMILES IDX 6 14 7 15 8 16 4 17
REMARK H PARENT
REMARK Flexibility Score: 60.00
ROOT
ATOM      1  C   UNL     1     -11.468   4.530 -19.908  1.00  0.00    -0.070 C 
ATOM      2  C   UNL     1     -12.197   3.520 -19.353  1.00  0.00    -0.027 C 
ATOM      3  C   UNL     1     -11.823   4.924 -21.323  1.00  0.00     0.039 C 
ENDROOT
BRANCH   2   4
ATOM      4  C   UNL     1     -12.095   2.826 -17.999  1.00  0.00     0.032 C 
BRANCH   4   5
ATOM      5  C   UNL     1     -11.272   1.535 -17.932  1.00  0.00     0.034 C 
BRANCH   5   6
ATOM      6  C   UNL     1     -10.487   1.106 -19.180  1.00  0.00    -0.077 C 
ATOM      7  C   UNL     1     -11.213   0.159 -20.110  1.00  0.00     0.039 C 
ATOM      8  C   UNL     1      -9.197   1.395 -19.526  1.00  0.00    -0.023 CG0
ATOM      9  G   UNL     1      -8.147   2.241 -18.830  1.00  0.00     0.000 G0
ENDBRANCH   5   6
ENDBRANCH   4   5
ENDBRANCH   2   4
BRANCH   1  10
ATOM     10  C   UNL     1     -10.341   5.309 -19.248  1.00  0.00     0.111 C 
BRANCH  10  11
ATOM     11  C   UNL     1      -9.038   4.571 -19.318  1.00  0.00     0.163 C 
ATOM     12  O   UNL     1      -8.254   4.804 -20.277  1.00  0.00    -0.294 OA
BRANCH  11  13
ATOM     13  C   UNL     1      -8.689   3.548 -18.299  1.00  0.00    -0.002 C 
ATOM     14  C   UNL     1      -8.850   3.786 -16.965  1.00  0.00    -0.069 C 
ATOM     15  C   UNL     1      -9.508   5.055 -16.472  1.00  0.00     0.039 C 
ATOM     16  C   UNL     1      -8.396   2.791 -15.921  1.00  0.00     0.039 C 
BRANCH  13  17
ATOM     17  C   UNL     1      -8.131   2.244 -18.829  1.00  0.00     0.066 CG0
ATOM     18  G   UNL     1      -9.193   1.408 -19.516  1.00  0.00     0.000 G0
ENDBRANCH  13  17
ENDBRANCH  11  13
ENDBRANCH  10  11
ENDBRANCH   1  10
TORSDOF 0
ENDMDL
MODEL 8
REMARK VINA RESULT:    -1.967      1.576      4.656
REMARK INTER + INTRA:          -2.594
REMARK INTER:                  -4.473
REMARK INTRA:                   1.878
REMARK UNBOUND:                 0.178
REMARK SMILES CC1=CCC(=C(C)C)C(=O)CC(C)=CCC1
REMARK SMILES IDX 12 1 14 2 13 3 15 4 16 5 2 6 1 7 3 8 11 10 9 11 10 12 5 13
REMARK SMILES IDX 6 14 7 15 8 16 4 17
REMARK H PARENT
REMARK Flexibility Score: 60.00
ROOT
ATOM      1  C   UNL     1     -11.878  -0.010 -19.792  1.00  0.00    -0.070 C 
ATOM      2  C   UNL     1     -12.259   0.188 -18.497  1.00  0.00    -0.027 C 
ATOM      3  C   UNL     1     -12.611  -1.087 -20.557  1.00  0.00     0.039 C 
ENDROOT
BRANCH   2   4
ATOM      4  C   UNL     1     -11.724   1.124 -17.419  1.00  0.00     0.032 C 
BRANCH   4   5
ATOM      5  C   UNL     1     -12.517   2.408 -17.147  1.00  0.00     0.034 C 
BRANCH   5   6
ATOM      6  C   UNL     1     -11.796   3.755 -17.302  1.00  0.00    -0.077 C 
ATOM      7  C   UNL     1     -12.101   4.781 -16.233  1.00  0.00     0.039 C 
ATOM      8  C   UNL     1     -10.984   4.183 -18.314  1.00  0.00    -0.023 CG0
ATOM      9  G   UNL     1     -10.505   3.481 -19.570  1.00  0.00     0.000 G0
ENDBRANCH   5   6
ENDBRANCH   4   5
ENDBRANCH   2   4
BRANCH   1  10
ATOM     10  C   UNL     1     -10.798   0.747 -20.550  1.00  0.00     0.111 C 
BRANCH  10  11
ATOM     11  C   UNL     1      -9.634   1.088 -19.669  1.00  0.00     0.163 C 
ATOM     12  O   UNL     1      -8.890   0.160 -19.253  1.00  0.00    -0.294 OA
BRANCH  11  13
ATOM     13  C   UNL     1      -9.382   2.491 -19.253  1.00  0.00    -0.002 C 
ATOM     14  C   UNL     1      -8.230   2.850 -18.615  1.00  0.00    -0.069 C 
ATOM     15  C   UNL     1      -7.107   1.858 -18.414  1.00  0.00     0.039 C 
ATOM     16  C   UNL     1      -8.016   4.254 -18.095  1.00  0.00     0.039 C 
BRANCH  13  17
ATOM     17  C   UNL     1     -10.481   3.486 -19.564  1.00  0.00     0.066 CG0
ATOM     18  G   UNL     1     -10.982   4.188 -18.317  1.00  0.00     0.000 G0
ENDBRANCH  13  17
ENDBRANCH  11  13
ENDBRANCH  10  11
ENDBRANCH   1  10
TORSDOF 0
ENDMDL
MODEL 9
REMARK VINA RESULT:    -1.944      2.092      3.947
REMARK INTER + INTRA:          -2.562
REMARK INTER:                  -2.716
REMARK INTRA:                   0.154
REMARK UNBOUND:                 0.178
REMARK SMILES CC1=CCC(=C(C)C)C(=O)CC(C)=CCC1
REMARK SMILES IDX 12 1 14 2 13 3 15 4 16 5 2 6 1 7 3 8 11 10 9 11 10 12 5 13
REMARK SMILES IDX 6 14 7 15 8 16 4 17
REMARK H PARENT
REMARK Flexibility Score: 60.00
ROOT
ATOM      1  C   UNL     1      -9.135   0.988 -19.393  1.00  0.00    -0.070 C 
ATOM      2  C   UNL     1      -8.180   1.833 -18.907  1.00  0.00    -0.027 C 
ATOM      3  C   UNL     1      -8.763   0.172 -20.609  1.00  0.00     0.039 C 
ENDROOT
BRANCH   2   4
ATOM      4  C   UNL     1      -8.206   2.833 -17.757  1.00  0.00     0.032 C 
BRANCH   4   5
ATOM      5  C   UNL     1      -8.696   4.252 -18.070  1.00  0.00     0.034 C 
BRANCH   5   6
ATOM      6  C   UNL     1      -9.089   4.583 -19.517  1.00  0.00    -0.077 C 
ATOM      7  C   UNL     1      -7.951   5.011 -20.418  1.00  0.00     0.039 C 
ATOM      8  C   UNL     1     -10.333   4.623 -20.082  1.00  0.00    -0.023 CG0
ATOM      9  G   UNL     1     -11.701   4.329 -19.497  1.00  0.00     0.000 G0
ENDBRANCH   5   6
ENDBRANCH   4   5
ENDBRANCH   2   4
BRANCH   1  10
ATOM     10  C   UNL     1     -10.532   0.774 -18.832  1.00  0.00     0.111 C 
BRANCH  10  11
ATOM     11  C   UNL     1     -11.502   1.794 -19.348  1.00  0.00     0.163 C 
ATOM     12  O   UNL     1     -12.126   1.557 -20.417  1.00  0.00    -0.294 OA
BRANCH  11  13
ATOM     13  C   UNL     1     -11.697   3.084 -18.638  1.00  0.00    -0.002 C 
ATOM     14  C   UNL     1     -11.873   3.134 -17.285  1.00  0.00    -0.069 C 
ATOM     15  C   UNL     1     -11.751   1.890 -16.435  1.00  0.00     0.039 C 
ATOM     16  C   UNL     1     -12.179   4.433 -16.573  1.00  0.00     0.039 C 
BRANCH  13  17
ATOM     17  C   UNL     1     -11.708   4.325 -19.505  1.00  0.00     0.066 CG0
ATOM     18  G   UNL     1     -10.341   4.625 -20.087  1.00  0.00     0.000 G0
ENDBRANCH  13  17
ENDBRANCH  11  13
ENDBRANCH  10  11
ENDBRANCH   1  10
TORSDOF 0
ENDMDL
