MODEL 1
REMARK VINA RESULT:    -3.532      0.000      0.000
REMARK INTER + INTRA:          -4.834
REMARK INTER:                  -4.565
REMARK INTRA:                  -0.269
REMARK UNBOUND:                -0.269
REMARK SMILES C=CC(=O)CCCCC
REMARK SMILES IDX 6 1 7 2 8 3 9 4 5 5 3 6 4 7 2 8 1 9
REMARK H PARENT
REMARK Flexibility Score: inf
ROOT
ATOM      1  C   UNL     1      67.380 -15.181  14.663  1.00  0.00     0.008 C 
ENDROOT
BRANCH   1   2
ATOM      2  C   UNL     1      68.464 -16.247  14.462  1.00  0.00     0.000 C 
BRANCH   2   3
ATOM      3  C   UNL     1      69.352 -16.370  15.706  1.00  0.00    -0.003 C 
ATOM      4  C   UNL     1      68.618 -17.079  16.840  1.00  0.00     0.004 C 
ENDBRANCH   2   3
ENDBRANCH   1   2
BRANCH   1   5
ATOM      5  C   UNL     1      65.980 -15.797  14.576  1.00  0.00     0.080 C 
BRANCH   5   6
ATOM      6  C   UNL     1      65.358 -15.504  13.242  1.00  0.00     0.155 C 
ATOM      7  O   UNL     1      64.522 -16.316  12.759  1.00  0.00    -0.295 OA
BRANCH   6   8
ATOM      8  C   UNL     1      65.759 -14.299  12.488  1.00  0.00     0.039 C 
ATOM      9  C   UNL     1      65.885 -14.295  11.163  1.00  0.00     0.012 C 
ENDBRANCH   6   8
ENDBRANCH   5   6
ENDBRANCH   1   5
TORSDOF 5
ENDMDL
MODEL 2
REMARK VINA RESULT:    -3.493      1.450      1.705
REMARK INTER + INTRA:          -4.784
REMARK INTER:                  -4.481
REMARK INTRA:                  -0.303
REMARK UNBOUND:                -0.269
REMARK SMILES C=CC(=O)CCCCC
REMARK SMILES IDX 6 1 7 2 8 3 9 4 5 5 3 6 4 7 2 8 1 9
REMARK H PARENT
REMARK Flexibility Score: inf
ROOT
ATOM      1  C   UNL     1      67.001 -14.841  14.276  1.00  0.00     0.008 C 
ENDROOT
BRANCH   1   2
ATOM      2  C   UNL     1      68.188 -15.807  14.190  1.00  0.00     0.000 C 
BRANCH   2   3
ATOM      3  C   UNL     1      68.826 -16.020  15.568  1.00  0.00    -0.003 C 
ATOM      4  C   UNL     1      67.865 -16.727  16.518  1.00  0.00     0.004 C 
ENDBRANCH   2   3
ENDBRANCH   1   2
BRANCH   1   5
ATOM      5  C   UNL     1      65.905 -15.225  13.277  1.00  0.00     0.080 C 
BRANCH   5   6
ATOM      6  C   UNL     1      65.993 -14.372  12.046  1.00  0.00     0.155 C 
ATOM      7  O   UNL     1      65.349 -13.288  11.998  1.00  0.00    -0.295 OA
BRANCH   6   8
ATOM      8  C   UNL     1      66.791 -14.823  10.889  1.00  0.00     0.039 C 
ATOM      9  C   UNL     1      66.928 -16.110  10.573  1.00  0.00     0.012 C 
ENDBRANCH   6   8
ENDBRANCH   5   6
ENDBRANCH   1   5
TORSDOF 5
ENDMDL
MODEL 3
REMARK VINA RESULT:    -3.301      2.182      4.467
REMARK INTER + INTRA:          -4.535
REMARK INTER:                  -4.133
REMARK INTRA:                  -0.402
REMARK UNBOUND:                -0.269
REMARK SMILES C=CC(=O)CCCCC
REMARK SMILES IDX 6 1 7 2 8 3 9 4 5 5 3 6 4 7 2 8 1 9
REMARK H PARENT
REMARK Flexibility Score: inf
ROOT
ATOM      1  C   UNL     1      65.868 -14.735  10.933  1.00  0.00     0.008 C 
ENDROOT
BRANCH   1   2
ATOM      2  C   UNL     1      65.578 -16.232  11.094  1.00  0.00     0.000 C 
BRANCH   2   3
ATOM      3  C   UNL     1      66.701 -17.080  10.485  1.00  0.00    -0.003 C 
ATOM      4  C   UNL     1      67.722 -16.205   9.762  1.00  0.00     0.004 C 
ENDBRANCH   2   3
ENDBRANCH   1   2
BRANCH   1   5
ATOM      5  C   UNL     1      65.888 -14.030  12.293  1.00  0.00     0.080 C 
BRANCH   5   6
ATOM      6  C   UNL     1      67.083 -14.462  13.092  1.00  0.00     0.155 C 
ATOM      7  O   UNL     1      68.234 -14.351  12.589  1.00  0.00    -0.295 OA
BRANCH   6   8
ATOM      8  C   UNL     1      66.902 -15.050  14.434  1.00  0.00     0.039 C 
ATOM      9  C   UNL     1      67.892 -15.651  15.090  1.00  0.00     0.012 C 
ENDBRANCH   6   8
ENDBRANCH   5   6
ENDBRANCH   1   5
TORSDOF 5
ENDMDL
MODEL 4
REMARK VINA RESULT:    -3.269     19.682     20.861
REMARK INTER + INTRA:          -4.494
REMARK INTER:                  -4.370
REMARK INTRA:                  -0.124
REMARK UNBOUND:                -0.269
REMARK SMILES C=CC(=O)CCCCC
REMARK SMILES IDX 6 1 7 2 8 3 9 4 5 5 3 6 4 7 2 8 1 9
REMARK H PARENT
REMARK Flexibility Score: inf
ROOT
ATOM      1  C   UNL     1      55.306   0.455  22.088  1.00  0.00     0.008 C 
ENDROOT
BRANCH   1   2
ATOM      2  C   UNL     1      53.834   0.030  22.017  1.00  0.00     0.000 C 
BRANCH   2   3
ATOM      3  C   UNL     1      53.129   0.687  20.825  1.00  0.00    -0.003 C 
ATOM      4  C   UNL     1      51.977  -0.178  20.320  1.00  0.00     0.004 C 
ENDBRANCH   2   3
ENDBRANCH   1   2
BRANCH   1   5
ATOM      5  C   UNL     1      56.161  -0.634  22.743  1.00  0.00     0.080 C 
BRANCH   5   6
ATOM      6  C   UNL     1      57.407  -0.877  21.943  1.00  0.00     0.155 C 
ATOM      7  O   UNL     1      57.608  -0.205  20.895  1.00  0.00    -0.295 OA
BRANCH   6   8
ATOM      8  C   UNL     1      58.361  -1.924  22.359  1.00  0.00     0.039 C 
ATOM      9  C   UNL     1      58.758  -2.068  23.622  1.00  0.00     0.012 C 
ENDBRANCH   6   8
ENDBRANCH   5   6
ENDBRANCH   1   5
TORSDOF 5
ENDMDL
MODEL 5
REMARK VINA RESULT:    -3.221      2.331      3.685
REMARK INTER + INTRA:          -4.432
REMARK INTER:                  -4.097
REMARK INTRA:                  -0.335
REMARK UNBOUND:                -0.269
REMARK SMILES C=CC(=O)CCCCC
REMARK SMILES IDX 6 1 7 2 8 3 9 4 5 5 3 6 4 7 2 8 1 9
REMARK H PARENT
REMARK Flexibility Score: inf
ROOT
ATOM      1  C   UNL     1      65.809 -14.283  12.414  1.00  0.00     0.008 C 
ENDROOT
BRANCH   1   2
ATOM      2  C   UNL     1      65.197 -15.502  13.114  1.00  0.00     0.000 C 
BRANCH   2   3
ATOM      3  C   UNL     1      66.112 -16.011  14.234  1.00  0.00    -0.003 C 
ATOM      4  C   UNL     1      67.189 -14.986  14.575  1.00  0.00     0.004 C 
ENDBRANCH   2   3
ENDBRANCH   1   2
BRANCH   1   5
ATOM      5  C   UNL     1      66.064 -14.571  10.931  1.00  0.00     0.080 C 
BRANCH   5   6
ATOM      6  C   UNL     1      67.434 -15.152  10.736  1.00  0.00     0.155 C 
ATOM      7  O   UNL     1      68.410 -14.656  11.362  1.00  0.00    -0.295 OA
BRANCH   6   8
ATOM      8  C   UNL     1      67.638 -16.264   9.786  1.00  0.00     0.039 C 
ATOM      9  C   UNL     1      68.598 -16.249   8.864  1.00  0.00     0.012 C 
ENDBRANCH   6   8
ENDBRANCH   5   6
ENDBRANCH   1   5
TORSDOF 5
ENDMDL
MODEL 6
REMARK VINA RESULT:    -3.201     19.417     20.065
REMARK INTER + INTRA:          -4.406
REMARK INTER:                  -4.168
REMARK INTRA:                  -0.237
REMARK UNBOUND:                -0.269
REMARK SMILES C=CC(=O)CCCCC
REMARK SMILES IDX 6 1 7 2 8 3 9 4 5 5 3 6 4 7 2 8 1 9
REMARK H PARENT
REMARK Flexibility Score: inf
ROOT
ATOM      1  C   UNL     1      57.452  -1.576  21.953  1.00  0.00     0.008 C 
ENDROOT
BRANCH   1   2
ATOM      2  C   UNL     1      58.770  -1.853  22.686  1.00  0.00     0.000 C 
BRANCH   2   3
ATOM      3  C   UNL     1      58.525  -2.123  24.176  1.00  0.00    -0.003 C 
ATOM      4  C   UNL     1      59.783  -1.856  24.998  1.00  0.00     0.004 C 
ENDBRANCH   2   3
ENDBRANCH   1   2
BRANCH   1   5
ATOM      5  C   UNL     1      57.452  -0.174  21.336  1.00  0.00     0.080 C 
BRANCH   5   6
ATOM      6  C   UNL     1      56.421   0.693  21.998  1.00  0.00     0.155 C 
ATOM      7  O   UNL     1      56.715   1.882  22.298  1.00  0.00    -0.295 OA
BRANCH   6   8
ATOM      8  C   UNL     1      55.094   0.139  22.333  1.00  0.00     0.039 C 
ATOM      9  C   UNL     1      54.008   0.398  21.608  1.00  0.00     0.012 C 
ENDBRANCH   6   8
ENDBRANCH   5   6
ENDBRANCH   1   5
TORSDOF 5
ENDMDL
MODEL 7
REMARK VINA RESULT:    -3.190      8.696     10.290
REMARK INTER + INTRA:          -4.391
REMARK INTER:                  -4.219
REMARK INTRA:                  -0.172
REMARK UNBOUND:                -0.269
REMARK SMILES C=CC(=O)CCCCC
REMARK SMILES IDX 6 1 7 2 8 3 9 4 5 5 3 6 4 7 2 8 1 9
REMARK H PARENT
REMARK Flexibility Score: inf
ROOT
ATOM      1  C   UNL     1      56.928 -16.716  11.912  1.00  0.00     0.008 C 
ENDROOT
BRANCH   1   2
ATOM      2  C   UNL     1      56.576 -16.559  13.396  1.00  0.00     0.000 C 
BRANCH   2   3
ATOM      3  C   UNL     1      57.835 -16.620  14.270  1.00  0.00    -0.003 C 
ATOM      4  C   UNL     1      59.095 -16.400  13.438  1.00  0.00     0.004 C 
ENDBRANCH   2   3
ENDBRANCH   1   2
BRANCH   1   5
ATOM      5  C   UNL     1      55.879 -16.040  11.024  1.00  0.00     0.080 C 
BRANCH   5   6
ATOM      6  C   UNL     1      56.404 -15.865   9.629  1.00  0.00     0.155 C 
ATOM      7  O   UNL     1      56.817 -16.873   8.994  1.00  0.00    -0.295 OA
BRANCH   6   8
ATOM      8  C   UNL     1      56.474 -14.518   9.029  1.00  0.00     0.039 C 
ATOM      9  C   UNL     1      57.615 -13.838   8.931  1.00  0.00     0.012 C 
ENDBRANCH   6   8
ENDBRANCH   5   6
ENDBRANCH   1   5
TORSDOF 5
ENDMDL
MODEL 8
REMARK VINA RESULT:    -3.180      1.457      2.284
REMARK INTER + INTRA:          -4.379
REMARK INTER:                  -3.799
REMARK INTRA:                  -0.580
REMARK UNBOUND:                -0.269
REMARK SMILES C=CC(=O)CCCCC
REMARK SMILES IDX 6 1 7 2 8 3 9 4 5 5 3 6 4 7 2 8 1 9
REMARK H PARENT
REMARK Flexibility Score: inf
ROOT
ATOM      1  C   UNL     1      67.911 -16.773  12.761  1.00  0.00     0.008 C 
ENDROOT
BRANCH   1   2
ATOM      2  C   UNL     1      68.260 -15.543  13.607  1.00  0.00     0.000 C 
BRANCH   2   3
ATOM      3  C   UNL     1      67.641 -15.642  15.006  1.00  0.00    -0.003 C 
ATOM      4  C   UNL     1      66.135 -15.876  14.927  1.00  0.00     0.004 C 
ENDBRANCH   2   3
ENDBRANCH   1   2
BRANCH   1   5
ATOM      5  C   UNL     1      67.550 -16.371  11.328  1.00  0.00     0.080 C 
BRANCH   5   6
ATOM      6  C   UNL     1      66.132 -15.886  11.259  1.00  0.00     0.155 C 
ATOM      7  O   UNL     1      65.189 -16.716  11.377  1.00  0.00    -0.295 OA
BRANCH   6   8
ATOM      8  C   UNL     1      65.849 -14.459  11.008  1.00  0.00     0.039 C 
ATOM      9  C   UNL     1      65.490 -13.621  11.978  1.00  0.00     0.012 C 
ENDBRANCH   6   8
ENDBRANCH   5   6
ENDBRANCH   1   5
TORSDOF 5
ENDMDL
MODEL 9
REMARK VINA RESULT:    -3.162     14.801     16.080
REMARK INTER + INTRA:          -4.356
REMARK INTER:                  -3.853
REMARK INTRA:                  -0.503
REMARK UNBOUND:                -0.269
REMARK SMILES C=CC(=O)CCCCC
REMARK SMILES IDX 6 1 7 2 8 3 9 4 5 5 3 6 4 7 2 8 1 9
REMARK H PARENT
REMARK Flexibility Score: inf
ROOT
ATOM      1  C   UNL     1      69.500  -0.039  12.069  1.00  0.00     0.008 C 
ENDROOT
BRANCH   1   2
ATOM      2  C   UNL     1      69.334  -1.561  11.979  1.00  0.00     0.000 C 
BRANCH   2   3
ATOM      3  C   UNL     1      69.939  -2.106  10.680  1.00  0.00    -0.003 C 
ATOM      4  C   UNL     1      68.849  -2.527   9.699  1.00  0.00     0.004 C 
ENDBRANCH   2   3
ENDBRANCH   1   2
BRANCH   1   5
ATOM      5  C   UNL     1      68.152   0.671  11.919  1.00  0.00     0.080 C 
BRANCH   5   6
ATOM      6  C   UNL     1      67.900   1.027  10.483  1.00  0.00     0.155 C 
ATOM      7  O   UNL     1      68.700   1.801   9.890  1.00  0.00    -0.295 OA
BRANCH   6   8
ATOM      8  C   UNL     1      66.703   0.509   9.792  1.00  0.00     0.039 C 
ATOM      9  C   UNL     1      66.676   0.287   8.479  1.00  0.00     0.012 C 
ENDBRANCH   6   8
ENDBRANCH   5   6
ENDBRANCH   1   5
TORSDOF 5
ENDMDL
