MODEL 1
REMARK VINA RESULT:    -1.012      0.000      0.000
REMARK INTER + INTRA:          -2.466
REMARK INTER:                  -1.751
REMARK INTRA:                  -0.714
REMARK UNBOUND:                -0.714
REMARK SMILES OC[C@@H]1O[C@@H](O[C@@H]2[C@@H](O)[C@H](O)[C@@H](O[C@H]3[C@@H](O)[C@H](O)[C@H](O)O[C@@H]3CO)O[C@H]2CO)[C@@H](O)[C@H](O)[C@H]1O
REMARK SMILES IDX 7 1 26 2 25 3 12 4 10 5 8 6 6 7 5 8 3 9 33 10 4 11 31 12
REMARK SMILES IDX 29 13 2 14 1 15 34 17 32 19 30 21 27 23 28 24 9 26 11 28
REMARK SMILES IDX 13 30 14 31 22 32 15 33 21 34 17 35 19 36 23 37 24 38 16 40
REMARK SMILES IDX 18 42 20 44
REMARK H PARENT 1 16 34 18 32 20 30 22 28 25 9 27 11 29 24 39 16 41 18 43
REMARK H PARENT 20 45
REMARK Flexibility Score: inf
ROOT
ATOM      1  C   UNL     1    -129.455 111.734  41.182  1.00  0.00     0.184 C 
ATOM      2  C   UNL     1    -129.456 110.284  41.776  1.00  0.00     0.178 C 
ATOM      3  O   UNL     1    -129.124 109.315  40.792  1.00  0.00    -0.341 OA
ATOM      4  C   UNL     1    -130.168 109.171  39.848  1.00  0.00     0.282 C 
ATOM      5  C   UNL     1    -130.494 110.536  39.160  1.00  0.00     0.202 C 
ATOM      6  C   UNL     1    -129.550 111.666  39.628  1.00  0.00     0.180 C 
ENDROOT
BRANCH   1   7
ATOM      7  O   UNL     1    -130.509 112.443  41.825  1.00  0.00    -0.341 OA
BRANCH   7   8
ATOM      8  C   UNL     1    -130.188 113.501  42.729  1.00  0.00     0.282 C 
ATOM      9  C   UNL     1    -128.945 115.518  42.824  1.00  0.00     0.178 C 
ATOM     10  C   UNL     1    -129.686 115.730  44.185  1.00  0.00     0.177 C 
ATOM     11  O   UNL     1    -129.028 114.191  42.304  1.00  0.00    -0.341 OA
ATOM     12  C   UNL     1    -129.625 114.444  45.040  1.00  0.00     0.179 C 
ATOM     13  C   UNL     1    -130.148 113.202  44.261  1.00  0.00     0.202 C 
BRANCH   9  14
ATOM     14  C   UNL     1    -129.384 116.536  41.752  1.00  0.00     0.191 C 
BRANCH  14  15
ATOM     15  O   UNL     1    -129.018 117.837  42.128  1.00  0.00    -0.394 OA
ATOM     16  H   UNL     1    -129.513 118.459  41.530  1.00  0.00     0.210 HD
ENDBRANCH  14  15
ENDBRANCH   9  14
BRANCH  10  17
ATOM     17  O   UNL     1    -129.144 116.842  44.860  1.00  0.00    -0.387 OA
ATOM     18  H   UNL     1    -128.398 117.203  44.304  1.00  0.00     0.211 HD
ENDBRANCH  10  17
BRANCH  12  19
ATOM     19  O   UNL     1    -130.385 114.614  46.215  1.00  0.00    -0.387 OA
ATOM     20  H   UNL     1    -130.120 115.482  46.613  1.00  0.00     0.211 HD
ENDBRANCH  12  19
BRANCH  13  21
ATOM     21  O   UNL     1    -129.305 112.120  44.563  1.00  0.00    -0.385 OA
ATOM     22  H   UNL     1    -128.414 112.493  44.764  1.00  0.00     0.211 HD
ENDBRANCH  13  21
ENDBRANCH   7   8
ENDBRANCH   1   7
BRANCH   2  23
ATOM     23  C   UNL     1    -128.447 110.149  42.932  1.00  0.00     0.191 C 
BRANCH  23  24
ATOM     24  O   UNL     1    -127.899 108.861  42.992  1.00  0.00    -0.394 OA
ATOM     25  H   UNL     1    -127.696 108.597  42.056  1.00  0.00     0.210 HD
ENDBRANCH  23  24
ENDBRANCH   2  23
BRANCH   6  26
ATOM     26  O   UNL     1    -128.258 111.422  39.132  1.00  0.00    -0.387 OA
ATOM     27  H   UNL     1    -127.762 110.933  39.837  1.00  0.00     0.211 HD
ENDBRANCH   6  26
BRANCH   5  28
ATOM     28  O   UNL     1    -131.844 110.877  39.351  1.00  0.00    -0.385 OA
ATOM     29  H   UNL     1    -131.973 111.077  40.312  1.00  0.00     0.211 HD
ENDBRANCH   5  28
BRANCH   4  30
ATOM     30  O   UNL     1    -129.735 108.235  38.875  1.00  0.00    -0.341 OA
BRANCH  30  31
ATOM     31  C   UNL     1    -130.093 106.898  39.209  1.00  0.00     0.184 C 
ATOM     32  C   UNL     1    -129.303 106.442  40.480  1.00  0.00     0.178 C 
ATOM     33  C   UNL     1    -129.793 105.992  38.000  1.00  0.00     0.180 C 
ATOM     34  O   UNL     1    -128.213 105.582  40.168  1.00  0.00    -0.342 OA
ATOM     35  C   UNL     1    -129.685 104.516  38.438  1.00  0.00     0.201 C 
ATOM     36  C   UNL     1    -128.581 104.367  39.520  1.00  0.00     0.279 C 
BRANCH  32  37
ATOM     37  C   UNL     1    -130.209 105.859  41.587  1.00  0.00     0.191 C 
BRANCH  37  38
ATOM     38  O   UNL     1    -130.467 106.832  42.556  1.00  0.00    -0.394 OA
ATOM     39  H   UNL     1    -131.018 106.413  43.265  1.00  0.00     0.210 HD
ENDBRANCH  37  38
ENDBRANCH  32  37
BRANCH  33  40
ATOM     40  O   UNL     1    -128.585 106.385  37.394  1.00  0.00    -0.387 OA
ATOM     41  H   UNL     1    -127.849 105.913  37.867  1.00  0.00     0.211 HD
ENDBRANCH  33  40
BRANCH  35  42
ATOM     42  O   UNL     1    -130.907 103.975  38.898  1.00  0.00    -0.385 OA
ATOM     43  H   UNL     1    -131.611 104.674  38.933  1.00  0.00     0.211 HD
ENDBRANCH  35  42
BRANCH  36  44
ATOM     44  O   UNL     1    -128.928 103.389  40.472  1.00  0.00    -0.366 OA
ATOM     45  H   UNL     1    -129.888 103.185  40.326  1.00  0.00     0.213 HD
ENDBRANCH  36  44
ENDBRANCH  30  31
ENDBRANCH   4  30
TORSDOF 18
ENDMDL
MODEL 2
REMARK VINA RESULT:    -0.866      1.479      3.500
REMARK INTER + INTRA:          -2.213
REMARK INTER:                  -2.057
REMARK INTRA:                  -0.155
REMARK UNBOUND:                -0.714
REMARK SMILES OC[C@@H]1O[C@@H](O[C@@H]2[C@@H](O)[C@H](O)[C@@H](O[C@H]3[C@@H](O)[C@H](O)[C@H](O)O[C@@H]3CO)O[C@H]2CO)[C@@H](O)[C@H](O)[C@H]1O
REMARK SMILES IDX 7 1 26 2 25 3 12 4 10 5 8 6 6 7 5 8 3 9 33 10 4 11 31 12
REMARK SMILES IDX 29 13 2 14 1 15 34 17 32 19 30 21 27 23 28 24 9 26 11 28
REMARK SMILES IDX 13 30 14 31 22 32 15 33 21 34 17 35 19 36 23 37 24 38 16 40
REMARK SMILES IDX 18 42 20 44
REMARK H PARENT 1 16 34 18 32 20 30 22 28 25 9 27 11 29 24 39 16 41 18 43
REMARK H PARENT 20 45
REMARK Flexibility Score: inf
ROOT
ATOM      1  C   UNL     1    -129.909 110.624  42.710  1.00  0.00     0.184 C 
ATOM      2  C   UNL     1    -129.474 110.066  41.312  1.00  0.00     0.178 C 
ATOM      3  O   UNL     1    -129.813 108.694  41.168  1.00  0.00    -0.341 OA
ATOM      4  C   UNL     1    -129.004 107.880  41.997  1.00  0.00     0.282 C 
ATOM      5  C   UNL     1    -129.133 108.304  43.496  1.00  0.00     0.202 C 
ATOM      6  C   UNL     1    -130.158 109.443  43.694  1.00  0.00     0.180 C 
ENDROOT
BRANCH   1   7
ATOM      7  O   UNL     1    -128.906 111.551  43.115  1.00  0.00    -0.341 OA
BRANCH   7   8
ATOM      8  C   UNL     1    -129.258 112.923  43.298  1.00  0.00     0.282 C 
ATOM      9  C   UNL     1    -130.098 114.395  44.957  1.00  0.00     0.178 C 
ATOM     10  C   UNL     1    -129.716 115.516  43.936  1.00  0.00     0.177 C 
ATOM     11  O   UNL     1    -130.122 113.076  44.409  1.00  0.00    -0.341 OA
ATOM     12  C   UNL     1    -130.230 115.159  42.523  1.00  0.00     0.179 C 
ATOM     13  C   UNL     1    -129.753 113.749  42.069  1.00  0.00     0.202 C 
BRANCH   9  14
ATOM     14  C   UNL     1    -129.217 114.427  46.222  1.00  0.00     0.191 C 
BRANCH  14  15
ATOM     15  O   UNL     1    -127.967 114.998  45.938  1.00  0.00    -0.394 OA
ATOM     16  H   UNL     1    -128.121 115.969  45.793  1.00  0.00     0.210 HD
ENDBRANCH  14  15
ENDBRANCH   9  14
BRANCH  10  17
ATOM     17  O   UNL     1    -130.207 116.759  44.381  1.00  0.00    -0.387 OA
ATOM     18  H   UNL     1    -131.202 116.698  44.426  1.00  0.00     0.211 HD
ENDBRANCH  10  17
BRANCH  12  19
ATOM     19  O   UNL     1    -129.789 116.124  41.595  1.00  0.00    -0.387 OA
ATOM     20  H   UNL     1    -128.942 115.790  41.203  1.00  0.00     0.211 HD
ENDBRANCH  12  19
BRANCH  13  21
ATOM     21  O   UNL     1    -130.826 113.124  41.413  1.00  0.00    -0.385 OA
ATOM     22  H   UNL     1    -131.063 113.690  40.640  1.00  0.00     0.211 HD
ENDBRANCH  13  21
ENDBRANCH   7   8
ENDBRANCH   1   7
BRANCH   2  23
ATOM     23  C   UNL     1    -130.143 110.842  40.163  1.00  0.00     0.191 C 
BRANCH  23  24
ATOM     24  O   UNL     1    -129.195 111.423  39.311  1.00  0.00    -0.394 OA
ATOM     25  H   UNL     1    -129.302 112.406  39.398  1.00  0.00     0.210 HD
ENDBRANCH  23  24
ENDBRANCH   2  23
BRANCH   6  26
ATOM     26  O   UNL     1    -131.450 108.947  43.449  1.00  0.00    -0.387 OA
ATOM     27  H   UNL     1    -132.087 109.677  43.657  1.00  0.00     0.211 HD
ENDBRANCH   6  26
BRANCH   5  28
ATOM     28  O   UNL     1    -127.875 108.642  44.025  1.00  0.00    -0.385 OA
ATOM     29  H   UNL     1    -127.932 108.573  45.011  1.00  0.00     0.211 HD
ENDBRANCH   5  28
BRANCH   4  30
ATOM     30  O   UNL     1    -129.444 106.542  41.838  1.00  0.00    -0.341 OA
BRANCH  30  31
ATOM     31  C   UNL     1    -129.008 105.968  40.609  1.00  0.00     0.184 C 
ATOM     32  C   UNL     1    -129.679 106.716  39.411  1.00  0.00     0.178 C 
ATOM     33  C   UNL     1    -129.364 104.470  40.613  1.00  0.00     0.180 C 
ATOM     34  O   UNL     1    -130.755 105.981  38.838  1.00  0.00    -0.342 OA
ATOM     35  C   UNL     1    -129.378 103.909  39.175  1.00  0.00     0.201 C 
ATOM     36  C   UNL     1    -130.389 104.709  38.308  1.00  0.00     0.279 C 
BRANCH  32  37
ATOM     37  C   UNL     1    -128.668 107.196  38.345  1.00  0.00     0.191 C 
BRANCH  37  38
ATOM     38  O   UNL     1    -128.619 108.593  38.327  1.00  0.00    -0.394 OA
ATOM     39  H   UNL     1    -127.797 108.872  38.805  1.00  0.00     0.210 HD
ENDBRANCH  37  38
ENDBRANCH  32  37
BRANCH  33  40
ATOM     40  O   UNL     1    -130.630 104.278  41.198  1.00  0.00    -0.387 OA
ATOM     41  H   UNL     1    -130.810 103.301  41.199  1.00  0.00     0.211 HD
ENDBRANCH  33  40
BRANCH  35  42
ATOM     42  O   UNL     1    -128.104 103.894  38.564  1.00  0.00    -0.385 OA
ATOM     43  H   UNL     1    -128.187 103.925  37.575  1.00  0.00     0.211 HD
ENDBRANCH  35  42
BRANCH  36  44
ATOM     44  O   UNL     1    -129.931 104.843  36.983  1.00  0.00    -0.366 OA
ATOM     45  H   UNL     1    -130.732 105.024  36.427  1.00  0.00     0.213 HD
ENDBRANCH  36  44
ENDBRANCH  30  31
ENDBRANCH   4  30
TORSDOF 18
ENDMDL
MODEL 3
REMARK VINA RESULT:    -0.746      1.331      2.897
REMARK INTER + INTRA:          -2.006
REMARK INTER:                  -1.110
REMARK INTRA:                  -0.896
REMARK UNBOUND:                -0.714
REMARK SMILES OC[C@@H]1O[C@@H](O[C@@H]2[C@@H](O)[C@H](O)[C@@H](O[C@H]3[C@@H](O)[C@H](O)[C@H](O)O[C@@H]3CO)O[C@H]2CO)[C@@H](O)[C@H](O)[C@H]1O
REMARK SMILES IDX 7 1 26 2 25 3 12 4 10 5 8 6 6 7 5 8 3 9 33 10 4 11 31 12
REMARK SMILES IDX 29 13 2 14 1 15 34 17 32 19 30 21 27 23 28 24 9 26 11 28
REMARK SMILES IDX 13 30 14 31 22 32 15 33 21 34 17 35 19 36 23 37 24 38 16 40
REMARK SMILES IDX 18 42 20 44
REMARK H PARENT 1 16 34 18 32 20 30 22 28 25 9 27 11 29 24 39 16 41 18 43
REMARK H PARENT 20 45
REMARK Flexibility Score: inf
ROOT
ATOM      1  C   UNL     1    -129.247 111.511  41.615  1.00  0.00     0.184 C 
ATOM      2  C   UNL     1    -129.524 110.631  42.882  1.00  0.00     0.178 C 
ATOM      3  O   UNL     1    -129.316 109.252  42.616  1.00  0.00    -0.341 OA
ATOM      4  C   UNL     1    -130.324 108.741  41.763  1.00  0.00     0.282 C 
ATOM      5  C   UNL     1    -130.377 109.537  40.419  1.00  0.00     0.202 C 
ATOM      6  C   UNL     1    -129.278 110.619  40.338  1.00  0.00     0.180 C 
ENDROOT
BRANCH   1   7
ATOM      7  O   UNL     1    -130.194 112.575  41.636  1.00  0.00    -0.341 OA
BRANCH   7   8
ATOM      8  C   UNL     1    -129.853 113.798  42.288  1.00  0.00     0.282 C 
ATOM      9  C   UNL     1    -130.393 115.056  44.225  1.00  0.00     0.178 C 
ATOM     10  C   UNL     1    -129.155 115.922  43.819  1.00  0.00     0.177 C 
ATOM     11  O   UNL     1    -130.866 114.181  43.201  1.00  0.00    -0.341 OA
ATOM     12  C   UNL     1    -129.211 116.275  42.316  1.00  0.00     0.179 C 
ATOM     13  C   UNL     1    -129.373 115.009  41.426  1.00  0.00     0.202 C 
BRANCH   9  14
ATOM     14  C   UNL     1    -130.155 114.268  45.529  1.00  0.00     0.191 C 
BRANCH  14  15
ATOM     15  O   UNL     1    -128.830 114.418  45.962  1.00  0.00    -0.394 OA
ATOM     16  H   UNL     1    -128.318 114.793  45.196  1.00  0.00     0.210 HD
ENDBRANCH  14  15
ENDBRANCH   9  14
BRANCH  10  17
ATOM     17  O   UNL     1    -129.084 117.071  44.632  1.00  0.00    -0.387 OA
ATOM     18  H   UNL     1    -129.954 117.160  45.112  1.00  0.00     0.211 HD
ENDBRANCH  10  17
BRANCH  12  19
ATOM     19  O   UNL     1    -128.040 116.964  41.942  1.00  0.00    -0.387 OA
ATOM     20  H   UNL     1    -127.274 116.359  42.115  1.00  0.00     0.211 HD
ENDBRANCH  12  19
BRANCH  13  21
ATOM     21  O   UNL     1    -130.281 115.317  40.401  1.00  0.00    -0.385 OA
ATOM     22  H   UNL     1    -131.163 114.974  40.681  1.00  0.00     0.211 HD
ENDBRANCH  13  21
ENDBRANCH   7   8
ENDBRANCH   1   7
BRANCH   2  23
ATOM     23  C   UNL     1    -128.610 111.031  44.055  1.00  0.00     0.191 C 
BRANCH  23  24
ATOM     24  O   UNL     1    -128.207 112.369  43.963  1.00  0.00    -0.394 OA
ATOM     25  H   UNL     1    -128.257 112.613  43.002  1.00  0.00     0.210 HD
ENDBRANCH  23  24
ENDBRANCH   2  23
BRANCH   6  26
ATOM     26  O   UNL     1    -128.024 109.993  40.223  1.00  0.00    -0.387 OA
ATOM     27  H   UNL     1    -127.670 110.213  39.324  1.00  0.00     0.211 HD
ENDBRANCH   6  26
BRANCH   5  28
ATOM     28  O   UNL     1    -131.656 110.084  40.219  1.00  0.00    -0.385 OA
ATOM     29  H   UNL     1    -132.028 109.691  39.389  1.00  0.00     0.211 HD
ENDBRANCH   5  28
BRANCH   4  30
ATOM     30  O   UNL     1    -130.011 107.382  41.503  1.00  0.00    -0.341 OA
BRANCH  30  31
ATOM     31  C   UNL     1    -129.679 107.152  40.138  1.00  0.00     0.184 C 
ATOM     32  C   UNL     1    -130.895 106.502  39.401  1.00  0.00     0.178 C 
ATOM     33  C   UNL     1    -128.432 106.250  40.080  1.00  0.00     0.180 C 
ATOM     34  O   UNL     1    -130.728 105.103  39.196  1.00  0.00    -0.342 OA
ATOM     35  C   UNL     1    -128.313 105.571  38.699  1.00  0.00     0.201 C 
ATOM     36  C   UNL     1    -129.598 104.749  38.404  1.00  0.00     0.279 C 
BRANCH  32  37
ATOM     37  C   UNL     1    -131.289 107.239  38.101  1.00  0.00     0.191 C 
BRANCH  37  38
ATOM     38  O   UNL     1    -132.342 108.123  38.353  1.00  0.00    -0.394 OA
ATOM     39  H   UNL     1    -133.015 107.644  38.900  1.00  0.00     0.210 HD
ENDBRANCH  37  38
ENDBRANCH  32  37
BRANCH  33  40
ATOM     40  O   UNL     1    -128.511 105.259  41.078  1.00  0.00    -0.387 OA
ATOM     41  H   UNL     1    -127.873 105.512  41.797  1.00  0.00     0.211 HD
ENDBRANCH  33  40
BRANCH  35  42
ATOM     42  O   UNL     1    -128.051 106.478  37.648  1.00  0.00    -0.385 OA
ATOM     43  H   UNL     1    -128.423 106.141  36.791  1.00  0.00     0.211 HD
ENDBRANCH  35  42
BRANCH  36  44
ATOM     44  O   UNL     1    -129.926 104.791  37.035  1.00  0.00    -0.366 OA
ATOM     45  H   UNL     1    -130.826 105.204  36.976  1.00  0.00     0.213 HD
ENDBRANCH  36  44
ENDBRANCH  30  31
ENDBRANCH   4  30
TORSDOF 18
ENDMDL
MODEL 4
REMARK VINA RESULT:    -0.671      1.185      2.321
REMARK INTER + INTRA:          -1.876
REMARK INTER:                  -0.304
REMARK INTRA:                  -1.572
REMARK UNBOUND:                -0.714
REMARK SMILES OC[C@@H]1O[C@@H](O[C@@H]2[C@@H](O)[C@H](O)[C@@H](O[C@H]3[C@@H](O)[C@H](O)[C@H](O)O[C@@H]3CO)O[C@H]2CO)[C@@H](O)[C@H](O)[C@H]1O
REMARK SMILES IDX 7 1 26 2 25 3 12 4 10 5 8 6 6 7 5 8 3 9 33 10 4 11 31 12
REMARK SMILES IDX 29 13 2 14 1 15 34 17 32 19 30 21 27 23 28 24 9 26 11 28
REMARK SMILES IDX 13 30 14 31 22 32 15 33 21 34 17 35 19 36 23 37 24 38 16 40
REMARK SMILES IDX 18 42 20 44
REMARK H PARENT 1 16 34 18 32 20 30 22 28 25 9 27 11 29 24 39 16 41 18 43
REMARK H PARENT 20 45
REMARK Flexibility Score: inf
ROOT
ATOM      1  C   UNL     1    -129.423 111.736  41.006  1.00  0.00     0.184 C 
ATOM      2  C   UNL     1    -129.739 110.421  41.796  1.00  0.00     0.178 C 
ATOM      3  O   UNL     1    -129.477 109.265  41.014  1.00  0.00    -0.341 OA
ATOM      4  C   UNL     1    -130.424 109.132  39.970  1.00  0.00     0.282 C 
ATOM      5  C   UNL     1    -130.433 110.400  39.057  1.00  0.00     0.202 C 
ATOM      6  C   UNL     1    -129.363 111.431  39.479  1.00  0.00     0.180 C 
ENDROOT
BRANCH   1   7
ATOM      7  O   UNL     1    -130.402 112.696  41.395  1.00  0.00    -0.341 OA
BRANCH   7   8
ATOM      8  C   UNL     1    -129.993 113.845  42.137  1.00  0.00     0.282 C 
ATOM      9  C   UNL     1    -130.411 114.940  44.199  1.00  0.00     0.178 C 
ATOM     10  C   UNL     1    -129.162 115.801  43.818  1.00  0.00     0.177 C 
ATOM     11  O   UNL     1    -130.955 114.175  43.123  1.00  0.00    -0.341 OA
ATOM     12  C   UNL     1    -129.266 116.289  42.356  1.00  0.00     0.179 C 
ATOM     13  C   UNL     1    -129.507 115.113  41.366  1.00  0.00     0.202 C 
BRANCH   9  14
ATOM     14  C   UNL     1    -130.148 114.031  45.417  1.00  0.00     0.191 C 
BRANCH  14  15
ATOM     15  O   UNL     1    -128.855 114.239  45.918  1.00  0.00    -0.394 OA
ATOM     16  H   UNL     1    -128.891 115.060  46.477  1.00  0.00     0.210 HD
ENDBRANCH  14  15
ENDBRANCH   9  14
BRANCH  10  17
ATOM     17  O   UNL     1    -129.020 116.869  44.725  1.00  0.00    -0.387 OA
ATOM     18  H   UNL     1    -129.474 116.612  45.575  1.00  0.00     0.211 HD
ENDBRANCH  10  17
BRANCH  12  19
ATOM     19  O   UNL     1    -128.089 116.973  41.994  1.00  0.00    -0.387 OA
ATOM     20  H   UNL     1    -128.268 117.942  42.096  1.00  0.00     0.211 HD
ENDBRANCH  12  19
BRANCH  13  21
ATOM     21  O   UNL     1    -130.445 115.539  40.412  1.00  0.00    -0.385 OA
ATOM     22  H   UNL     1    -130.566 116.510  40.538  1.00  0.00     0.211 HD
ENDBRANCH  13  21
ENDBRANCH   7   8
ENDBRANCH   1   7
BRANCH   2  23
ATOM     23  C   UNL     1    -128.897 110.322  43.083  1.00  0.00     0.191 C 
BRANCH  23  24
ATOM     24  O   UNL     1    -128.648 111.585  43.634  1.00  0.00    -0.394 OA
ATOM     25  H   UNL     1    -128.887 111.525  44.596  1.00  0.00     0.210 HD
ENDBRANCH  23  24
ENDBRANCH   2  23
BRANCH   6  26
ATOM     26  O   UNL     1    -128.087 110.913  39.197  1.00  0.00    -0.387 OA
ATOM     27  H   UNL     1    -128.005 110.056  39.689  1.00  0.00     0.211 HD
ENDBRANCH   6  26
BRANCH   5  28
ATOM     28  O   UNL     1    -131.716 110.972  39.017  1.00  0.00    -0.385 OA
ATOM     29  H   UNL     1    -131.787 111.501  38.182  1.00  0.00     0.211 HD
ENDBRANCH   5  28
BRANCH   4  30
ATOM     30  O   UNL     1    -130.058 107.994  39.207  1.00  0.00    -0.341 OA
BRANCH  30  31
ATOM     31  C   UNL     1    -129.940 106.819  40.004  1.00  0.00     0.184 C 
ATOM     32  C   UNL     1    -128.460 106.315  39.984  1.00  0.00     0.178 C 
ATOM     33  C   UNL     1    -130.909 105.755  39.457  1.00  0.00     0.180 C 
ATOM     34  O   UNL     1    -128.274 105.194  39.127  1.00  0.00    -0.342 OA
ATOM     35  C   UNL     1    -130.495 104.345  39.931  1.00  0.00     0.201 C 
ATOM     36  C   UNL     1    -129.040 104.044  39.479  1.00  0.00     0.279 C 
BRANCH  32  37
ATOM     37  C   UNL     1    -127.875 106.075  41.394  1.00  0.00     0.191 C 
BRANCH  37  38
ATOM     38  O   UNL     1    -128.065 107.208  42.190  1.00  0.00    -0.394 OA
ATOM     39  H   UNL     1    -128.443 106.908  43.056  1.00  0.00     0.210 HD
ENDBRANCH  37  38
ENDBRANCH  32  37
BRANCH  33  40
ATOM     40  O   UNL     1    -130.914 105.787  38.050  1.00  0.00    -0.387 OA
ATOM     41  H   UNL     1    -131.677 105.229  37.744  1.00  0.00     0.211 HD
ENDBRANCH  33  40
BRANCH  35  42
ATOM     42  O   UNL     1    -130.630 104.158  41.325  1.00  0.00    -0.385 OA
ATOM     43  H   UNL     1    -130.081 104.818  41.824  1.00  0.00     0.211 HD
ENDBRANCH  35  42
BRANCH  36  44
ATOM     44  O   UNL     1    -128.356 103.274  40.440  1.00  0.00    -0.366 OA
ATOM     45  H   UNL     1    -127.398 103.294  40.183  1.00  0.00     0.213 HD
ENDBRANCH  36  44
ENDBRANCH  30  31
ENDBRANCH   4  30
TORSDOF 18
ENDMDL
MODEL 5
REMARK VINA RESULT:    -0.663      1.379      2.947
REMARK INTER + INTRA:          -1.863
REMARK INTER:                  -0.459
REMARK INTRA:                  -1.404
REMARK UNBOUND:                -0.714
REMARK SMILES OC[C@@H]1O[C@@H](O[C@@H]2[C@@H](O)[C@H](O)[C@@H](O[C@H]3[C@@H](O)[C@H](O)[C@H](O)O[C@@H]3CO)O[C@H]2CO)[C@@H](O)[C@H](O)[C@H]1O
REMARK SMILES IDX 7 1 26 2 25 3 12 4 10 5 8 6 6 7 5 8 3 9 33 10 4 11 31 12
REMARK SMILES IDX 29 13 2 14 1 15 34 17 32 19 30 21 27 23 28 24 9 26 11 28
REMARK SMILES IDX 13 30 14 31 22 32 15 33 21 34 17 35 19 36 23 37 24 38 16 40
REMARK SMILES IDX 18 42 20 44
REMARK H PARENT 1 16 34 18 32 20 30 22 28 25 9 27 11 29 24 39 16 41 18 43
REMARK H PARENT 20 45
REMARK Flexibility Score: inf
ROOT
ATOM      1  C   UNL     1    -129.750 112.103  40.793  1.00  0.00     0.184 C 
ATOM      2  C   UNL     1    -128.791 111.700  39.621  1.00  0.00     0.178 C 
ATOM      3  O   UNL     1    -129.254 110.542  38.942  1.00  0.00    -0.341 OA
ATOM      4  C   UNL     1    -129.115 109.389  39.750  1.00  0.00     0.282 C 
ATOM      5  C   UNL     1    -129.885 109.555  41.100  1.00  0.00     0.202 C 
ATOM      6  C   UNL     1    -130.655 110.892  41.172  1.00  0.00     0.180 C 
ENDROOT
BRANCH   1   7
ATOM      7  O   UNL     1    -128.928 112.600  41.846  1.00  0.00    -0.341 OA
BRANCH   7   8
ATOM      8  C   UNL     1    -129.230 113.869  42.425  1.00  0.00     0.282 C 
ATOM      9  C   UNL     1    -130.602 114.841  44.098  1.00  0.00     0.178 C 
ATOM     10  C   UNL     1    -129.741 116.122  43.842  1.00  0.00     0.177 C 
ATOM     11  O   UNL     1    -130.477 113.832  43.095  1.00  0.00    -0.341 OA
ATOM     12  C   UNL     1    -129.617 116.396  42.326  1.00  0.00     0.179 C 
ATOM     13  C   UNL     1    -129.088 115.155  41.551  1.00  0.00     0.202 C 
BRANCH   9  14
ATOM     14  C   UNL     1    -130.354 114.236  45.494  1.00  0.00     0.191 C 
BRANCH  14  15
ATOM     15  O   UNL     1    -130.959 115.021  46.487  1.00  0.00    -0.394 OA
ATOM     16  H   UNL     1    -130.266 115.191  47.181  1.00  0.00     0.210 HD
ENDBRANCH  14  15
ENDBRANCH   9  14
BRANCH  10  17
ATOM     17  O   UNL     1    -130.290 117.217  44.537  1.00  0.00    -0.387 OA
ATOM     18  H   UNL     1    -130.147 118.034  43.982  1.00  0.00     0.211 HD
ENDBRANCH  10  17
BRANCH  12  19
ATOM     19  O   UNL     1    -128.754 117.488  42.107  1.00  0.00    -0.387 OA
ATOM     20  H   UNL     1    -128.502 117.476  41.148  1.00  0.00     0.211 HD
ENDBRANCH  12  19
BRANCH  13  21
ATOM     21  O   UNL     1    -129.812 115.058  40.352  1.00  0.00    -0.385 OA
ATOM     22  H   UNL     1    -129.721 115.923  39.887  1.00  0.00     0.211 HD
ENDBRANCH  13  21
ENDBRANCH   7   8
ENDBRANCH   1   7
BRANCH   2  23
ATOM     23  C   UNL     1    -128.660 112.834  38.587  1.00  0.00     0.191 C 
BRANCH  23  24
ATOM     24  O   UNL     1    -128.365 112.338  37.311  1.00  0.00    -0.394 OA
ATOM     25  H   UNL     1    -129.188 111.888  36.985  1.00  0.00     0.210 HD
ENDBRANCH  23  24
ENDBRANCH   2  23
BRANCH   6  26
ATOM     26  O   UNL     1    -131.725 110.857  40.261  1.00  0.00    -0.387 OA
ATOM     27  H   UNL     1    -132.396 110.226  40.624  1.00  0.00     0.211 HD
ENDBRANCH   6  26
BRANCH   5  28
ATOM     28  O   UNL     1    -129.012 109.402  42.191  1.00  0.00    -0.385 OA
ATOM     29  H   UNL     1    -128.157 109.845  41.960  1.00  0.00     0.211 HD
ENDBRANCH   5  28
BRANCH   4  30
ATOM     30  O   UNL     1    -129.649 108.294  39.025  1.00  0.00    -0.341 OA
BRANCH  30  31
ATOM     31  C   UNL     1    -129.742 107.112  39.814  1.00  0.00     0.184 C 
ATOM     32  C   UNL     1    -128.352 106.395  39.856  1.00  0.00     0.178 C 
ATOM     33  C   UNL     1    -130.830 106.204  39.213  1.00  0.00     0.180 C 
ATOM     34  O   UNL     1    -128.293 105.262  38.996  1.00  0.00    -0.342 OA
ATOM     35  C   UNL     1    -130.650 104.747  39.690  1.00  0.00     0.201 C 
ATOM     36  C   UNL     1    -129.235 104.236  39.301  1.00  0.00     0.279 C 
BRANCH  32  37
ATOM     37  C   UNL     1    -127.875 106.067  41.288  1.00  0.00     0.191 C 
BRANCH  37  38
ATOM     38  O   UNL     1    -128.726 106.661  42.224  1.00  0.00    -0.394 OA
ATOM     39  H   UNL     1    -128.517 107.629  42.250  1.00  0.00     0.210 HD
ENDBRANCH  37  38
ENDBRANCH  32  37
BRANCH  33  40
ATOM     40  O   UNL     1    -130.765 106.242  37.807  1.00  0.00    -0.387 OA
ATOM     41  H   UNL     1    -130.811 105.303  37.483  1.00  0.00     0.211 HD
ENDBRANCH  33  40
BRANCH  35  42
ATOM     42  O   UNL     1    -130.876 104.576  41.074  1.00  0.00    -0.385 OA
ATOM     43  H   UNL     1    -130.743 105.431  41.561  1.00  0.00     0.211 HD
ENDBRANCH  35  42
BRANCH  36  44
ATOM     44  O   UNL     1    -128.717 103.371  40.284  1.00  0.00    -0.366 OA
ATOM     45  H   UNL     1    -129.409 102.677  40.438  1.00  0.00     0.213 HD
ENDBRANCH  36  44
ENDBRANCH  30  31
ENDBRANCH   4  30
TORSDOF 18
ENDMDL
MODEL 6
REMARK VINA RESULT:    -0.537      1.376      2.998
REMARK INTER + INTRA:          -1.643
REMARK INTER:                  -0.052
REMARK INTRA:                  -1.591
REMARK UNBOUND:                -0.714
REMARK SMILES OC[C@@H]1O[C@@H](O[C@@H]2[C@@H](O)[C@H](O)[C@@H](O[C@H]3[C@@H](O)[C@H](O)[C@H](O)O[C@@H]3CO)O[C@H]2CO)[C@@H](O)[C@H](O)[C@H]1O
REMARK SMILES IDX 7 1 26 2 25 3 12 4 10 5 8 6 6 7 5 8 3 9 33 10 4 11 31 12
REMARK SMILES IDX 29 13 2 14 1 15 34 17 32 19 30 21 27 23 28 24 9 26 11 28
REMARK SMILES IDX 13 30 14 31 22 32 15 33 21 34 17 35 19 36 23 37 24 38 16 40
REMARK SMILES IDX 18 42 20 44
REMARK H PARENT 1 16 34 18 32 20 30 22 28 25 9 27 11 29 24 39 16 41 18 43
REMARK H PARENT 20 45
REMARK Flexibility Score: inf
ROOT
ATOM      1  C   UNL     1    -129.978 110.663  43.097  1.00  0.00     0.184 C 
ATOM      2  C   UNL     1    -129.452 110.406  41.644  1.00  0.00     0.178 C 
ATOM      3  O   UNL     1    -129.697 109.071  41.227  1.00  0.00    -0.341 OA
ATOM      4  C   UNL     1    -128.871 108.160  41.928  1.00  0.00     0.282 C 
ATOM      5  C   UNL     1    -129.086 108.282  43.472  1.00  0.00     0.202 C 
ATOM      6  C   UNL     1    -130.190 109.303  43.828  1.00  0.00     0.180 C 
ENDROOT
BRANCH   1   7
ATOM      7  O   UNL     1    -129.054 111.550  43.720  1.00  0.00    -0.341 OA
BRANCH   7   8
ATOM      8  C   UNL     1    -129.456 112.891  44.001  1.00  0.00     0.282 C 
ATOM      9  C   UNL     1    -129.078 115.112  43.262  1.00  0.00     0.178 C 
ATOM     10  C   UNL     1    -130.291 115.462  44.185  1.00  0.00     0.177 C 
ATOM     11  O   UNL     1    -128.520 113.816  43.481  1.00  0.00    -0.341 OA
ATOM     12  C   UNL     1    -130.127 114.798  45.570  1.00  0.00     0.179 C 
ATOM     13  C   UNL     1    -129.885 113.265  45.455  1.00  0.00     0.202 C 
BRANCH   9  14
ATOM     14  C   UNL     1    -129.403 115.303  41.766  1.00  0.00     0.191 C 
BRANCH  14  15
ATOM     15  O   UNL     1    -130.232 116.420  41.580  1.00  0.00    -0.394 OA
ATOM     16  H   UNL     1    -131.166 116.112  41.729  1.00  0.00     0.210 HD
ENDBRANCH  14  15
ENDBRANCH   9  14
BRANCH  10  17
ATOM     17  O   UNL     1    -130.435 116.860  44.280  1.00  0.00    -0.387 OA
ATOM     18  H   UNL     1    -129.972 117.270  43.497  1.00  0.00     0.211 HD
ENDBRANCH  10  17
BRANCH  12  19
ATOM     19  O   UNL     1    -131.275 115.033  46.353  1.00  0.00    -0.387 OA
ATOM     20  H   UNL     1    -131.434 116.012  46.354  1.00  0.00     0.211 HD
ENDBRANCH  12  19
BRANCH  13  21
ATOM     21  O   UNL     1    -128.906 112.913  46.398  1.00  0.00    -0.385 OA
ATOM     22  H   UNL     1    -128.974 113.558  47.142  1.00  0.00     0.211 HD
ENDBRANCH  13  21
ENDBRANCH   7   8
ENDBRANCH   1   7
BRANCH   2  23
ATOM     23  C   UNL     1    -130.124 111.349  40.627  1.00  0.00     0.191 C 
BRANCH  23  24
ATOM     24  O   UNL     1    -129.252 111.692  39.587  1.00  0.00    -0.394 OA
ATOM     25  H   UNL     1    -128.375 111.893  40.008  1.00  0.00     0.210 HD
ENDBRANCH  23  24
ENDBRANCH   2  23
BRANCH   6  26
ATOM     26  O   UNL     1    -131.436 108.792  43.428  1.00  0.00    -0.387 OA
ATOM     27  H   UNL     1    -131.453 108.805  42.437  1.00  0.00     0.211 HD
ENDBRANCH   6  26
BRANCH   5  28
ATOM     28  O   UNL     1    -127.875 108.583  44.118  1.00  0.00    -0.385 OA
ATOM     29  H   UNL     1    -127.299 107.779  44.073  1.00  0.00     0.211 HD
ENDBRANCH   5  28
BRANCH   4  30
ATOM     30  O   UNL     1    -129.217 106.854  41.498  1.00  0.00    -0.341 OA
BRANCH  30  31
ATOM     31  C   UNL     1    -129.197 106.726  40.080  1.00  0.00     0.184 C 
ATOM     32  C   UNL     1    -130.635 106.398  39.560  1.00  0.00     0.178 C 
ATOM     33  C   UNL     1    -128.192 105.623  39.700  1.00  0.00     0.180 C 
ATOM     34  O   UNL     1    -130.796 105.025  39.220  1.00  0.00    -0.342 OA
ATOM     35  C   UNL     1    -128.471 105.097  38.276  1.00  0.00     0.201 C 
ATOM     36  C   UNL     1    -129.928 104.563  38.188  1.00  0.00     0.279 C 
BRANCH  32  37
ATOM     37  C   UNL     1    -131.108 107.338  38.429  1.00  0.00     0.191 C 
BRANCH  37  38
ATOM     38  O   UNL     1    -131.562 108.545  38.968  1.00  0.00    -0.394 OA
ATOM     39  H   UNL     1    -132.273 108.893  38.372  1.00  0.00     0.210 HD
ENDBRANCH  37  38
ENDBRANCH  32  37
BRANCH  33  40
ATOM     40  O   UNL     1    -128.282 104.555  40.614  1.00  0.00    -0.387 OA
ATOM     41  H   UNL     1    -128.443 103.728  40.087  1.00  0.00     0.211 HD
ENDBRANCH  33  40
BRANCH  35  42
ATOM     42  O   UNL     1    -128.232 106.055  37.265  1.00  0.00    -0.385 OA
ATOM     43  H   UNL     1    -127.768 105.642  36.491  1.00  0.00     0.211 HD
ENDBRANCH  35  42
BRANCH  36  44
ATOM     44  O   UNL     1    -130.490 104.821  36.923  1.00  0.00    -0.366 OA
ATOM     45  H   UNL     1    -130.229 105.749  36.685  1.00  0.00     0.213 HD
ENDBRANCH  36  44
ENDBRANCH  30  31
ENDBRANCH   4  30
TORSDOF 18
ENDMDL
MODEL 7
REMARK VINA RESULT:    -0.349      1.352      2.326
REMARK INTER + INTRA:          -1.318
REMARK INTER:                   0.671
REMARK INTRA:                  -1.989
REMARK UNBOUND:                -0.714
REMARK SMILES OC[C@@H]1O[C@@H](O[C@@H]2[C@@H](O)[C@H](O)[C@@H](O[C@H]3[C@@H](O)[C@H](O)[C@H](O)O[C@@H]3CO)O[C@H]2CO)[C@@H](O)[C@H](O)[C@H]1O
REMARK SMILES IDX 7 1 26 2 25 3 12 4 10 5 8 6 6 7 5 8 3 9 33 10 4 11 31 12
REMARK SMILES IDX 29 13 2 14 1 15 34 17 32 19 30 21 27 23 28 24 9 26 11 28
REMARK SMILES IDX 13 30 14 31 22 32 15 33 21 34 17 35 19 36 23 37 24 38 16 40
REMARK SMILES IDX 18 42 20 44
REMARK H PARENT 1 16 34 18 32 20 30 22 28 25 9 27 11 29 24 39 16 41 18 43
REMARK H PARENT 20 45
REMARK Flexibility Score: inf
ROOT
ATOM      1  C   UNL     1    -129.779 112.098  40.309  1.00  0.00     0.184 C 
ATOM      2  C   UNL     1    -128.988 111.565  39.066  1.00  0.00     0.178 C 
ATOM      3  O   UNL     1    -129.543 110.354  38.573  1.00  0.00    -0.341 OA
ATOM      4  C   UNL     1    -129.302 109.284  39.467  1.00  0.00     0.282 C 
ATOM      5  C   UNL     1    -129.884 109.596  40.884  1.00  0.00     0.202 C 
ATOM      6  C   UNL     1    -130.631 110.947  40.923  1.00  0.00     0.180 C 
ENDROOT
BRANCH   1   7
ATOM      7  O   UNL     1    -128.822 112.681  41.188  1.00  0.00    -0.341 OA
BRANCH   7   8
ATOM      8  C   UNL     1    -129.271 113.318  42.384  1.00  0.00     0.282 C 
ATOM      9  C   UNL     1    -129.408 115.467  43.378  1.00  0.00     0.178 C 
ATOM     10  C   UNL     1    -130.304 114.749  44.440  1.00  0.00     0.177 C 
ATOM     11  O   UNL     1    -128.660 114.585  42.540  1.00  0.00    -0.341 OA
ATOM     12  C   UNL     1    -129.637 113.438  44.914  1.00  0.00     0.179 C 
ATOM     13  C   UNL     1    -129.264 112.511  43.721  1.00  0.00     0.202 C 
BRANCH   9  14
ATOM     14  C   UNL     1    -130.205 116.468  42.518  1.00  0.00     0.191 C 
BRANCH  14  15
ATOM     15  O   UNL     1    -129.452 117.629  42.288  1.00  0.00    -0.394 OA
ATOM     16  H   UNL     1    -130.073 118.303  41.902  1.00  0.00     0.210 HD
ENDBRANCH  14  15
ENDBRANCH   9  14
BRANCH  10  17
ATOM     17  O   UNL     1    -130.574 115.624  45.511  1.00  0.00    -0.387 OA
ATOM     18  H   UNL     1    -129.820 115.556  46.160  1.00  0.00     0.211 HD
ENDBRANCH  10  17
BRANCH  12  19
ATOM     19  O   UNL     1    -130.501 112.750  45.789  1.00  0.00    -0.387 OA
ATOM     20  H   UNL     1    -131.375 112.661  45.330  1.00  0.00     0.211 HD
ENDBRANCH  12  19
BRANCH  13  21
ATOM     21  O   UNL     1    -128.004 111.951  43.990  1.00  0.00    -0.385 OA
ATOM     22  H   UNL     1    -127.625 111.663  43.126  1.00  0.00     0.211 HD
ENDBRANCH  13  21
ENDBRANCH   7   8
ENDBRANCH   1   7
BRANCH   2  23
ATOM     23  C   UNL     1    -128.992 112.590  37.915  1.00  0.00     0.191 C 
BRANCH  23  24
ATOM     24  O   UNL     1    -128.522 113.840  38.336  1.00  0.00    -0.394 OA
ATOM     25  H   UNL     1    -128.588 113.848  39.327  1.00  0.00     0.210 HD
ENDBRANCH  23  24
ENDBRANCH   2  23
BRANCH   6  26
ATOM     26  O   UNL     1    -131.813 110.842  40.171  1.00  0.00    -0.387 OA
ATOM     27  H   UNL     1    -132.406 110.206  40.647  1.00  0.00     0.211 HD
ENDBRANCH   6  26
BRANCH   5  28
ATOM     28  O   UNL     1    -128.873 109.535  41.859  1.00  0.00    -0.385 OA
ATOM     29  H   UNL     1    -128.000 109.544  41.391  1.00  0.00     0.211 HD
ENDBRANCH   5  28
BRANCH   4  30
ATOM     30  O   UNL     1    -129.934 108.133  38.932  1.00  0.00    -0.341 OA
BRANCH  30  31
ATOM     31  C   UNL     1    -129.877 107.020  39.819  1.00  0.00     0.184 C 
ATOM     32  C   UNL     1    -128.416 106.466  39.878  1.00  0.00     0.178 C 
ATOM     33  C   UNL     1    -130.869 105.949  39.328  1.00  0.00     0.180 C 
ATOM     34  O   UNL     1    -128.248 105.277  39.114  1.00  0.00    -0.342 OA
ATOM     35  C   UNL     1    -130.517 104.567  39.918  1.00  0.00     0.201 C 
ATOM     36  C   UNL     1    -129.063 104.184  39.530  1.00  0.00     0.279 C 
BRANCH  32  37
ATOM     37  C   UNL     1    -127.875 106.316  41.317  1.00  0.00     0.191 C 
BRANCH  37  38
ATOM     38  O   UNL     1    -128.834 106.750  42.237  1.00  0.00    -0.394 OA
ATOM     39  H   UNL     1    -129.277 107.551  41.856  1.00  0.00     0.210 HD
ENDBRANCH  37  38
ENDBRANCH  32  37
BRANCH  33  40
ATOM     40  O   UNL     1    -130.838 105.874  37.922  1.00  0.00    -0.387 OA
ATOM     41  H   UNL     1    -130.419 105.005  37.682  1.00  0.00     0.211 HD
ENDBRANCH  33  40
BRANCH  35  42
ATOM     42  O   UNL     1    -130.694 104.492  41.318  1.00  0.00    -0.385 OA
ATOM     43  H   UNL     1    -130.359 105.316  41.760  1.00  0.00     0.211 HD
ENDBRANCH  35  42
BRANCH  36  44
ATOM     44  O   UNL     1    -128.430 103.468  40.565  1.00  0.00    -0.366 OA
ATOM     45  H   UNL     1    -128.965 102.644  40.702  1.00  0.00     0.213 HD
ENDBRANCH  36  44
ENDBRANCH  30  31
ENDBRANCH   4  30
TORSDOF 18
ENDMDL
MODEL 8
REMARK VINA RESULT:    -0.028      1.471      3.090
REMARK INTER + INTRA:          -0.763
REMARK INTER:                   0.410
REMARK INTRA:                  -1.174
REMARK UNBOUND:                -0.714
REMARK SMILES OC[C@@H]1O[C@@H](O[C@@H]2[C@@H](O)[C@H](O)[C@@H](O[C@H]3[C@@H](O)[C@H](O)[C@H](O)O[C@@H]3CO)O[C@H]2CO)[C@@H](O)[C@H](O)[C@H]1O
REMARK SMILES IDX 7 1 26 2 25 3 12 4 10 5 8 6 6 7 5 8 3 9 33 10 4 11 31 12
REMARK SMILES IDX 29 13 2 14 1 15 34 17 32 19 30 21 27 23 28 24 9 26 11 28
REMARK SMILES IDX 13 30 14 31 22 32 15 33 21 34 17 35 19 36 23 37 24 38 16 40
REMARK SMILES IDX 18 42 20 44
REMARK H PARENT 1 16 34 18 32 20 30 22 28 25 9 27 11 29 24 39 16 41 18 43
REMARK H PARENT 20 45
REMARK Flexibility Score: inf
ROOT
ATOM      1  C   UNL     1    -129.784 113.471  41.047  1.00  0.00     0.184 C 
ATOM      2  C   UNL     1    -128.968 112.762  39.913  1.00  0.00     0.178 C 
ATOM      3  O   UNL     1    -129.605 111.570  39.477  1.00  0.00    -0.341 OA
ATOM      4  C   UNL     1    -129.532 110.563  40.468  1.00  0.00     0.282 C 
ATOM      5  C   UNL     1    -130.174 111.048  41.808  1.00  0.00     0.202 C 
ATOM      6  C   UNL     1    -130.785 112.461  41.685  1.00  0.00     0.180 C 
ENDROOT
BRANCH   1   7
ATOM      7  O   UNL     1    -128.835 114.036  41.947  1.00  0.00    -0.341 OA
BRANCH   7   8
ATOM      8  C   UNL     1    -129.298 114.825  43.043  1.00  0.00     0.282 C 
ATOM      9  C   UNL     1    -129.057 116.994  43.972  1.00  0.00     0.178 C 
ATOM     10  C   UNL     1    -130.260 116.571  44.878  1.00  0.00     0.177 C 
ATOM     11  O   UNL     1    -128.426 115.914  43.282  1.00  0.00    -0.341 OA
ATOM     12  C   UNL     1    -130.021 115.165  45.474  1.00  0.00     0.179 C 
ATOM     13  C   UNL     1    -129.703 114.113  44.372  1.00  0.00     0.202 C 
BRANCH   9  14
ATOM     14  C   UNL     1    -129.435 118.110  42.978  1.00  0.00     0.191 C 
BRANCH  14  15
ATOM     15  O   UNL     1    -128.396 118.327  42.061  1.00  0.00    -0.394 OA
ATOM     16  H   UNL     1    -127.847 117.498  42.048  1.00  0.00     0.210 HD
ENDBRANCH  14  15
ENDBRANCH   9  14
BRANCH  10  17
ATOM     17  O   UNL     1    -130.473 117.541  45.877  1.00  0.00    -0.387 OA
ATOM     18  H   UNL     1    -129.799 117.393  46.597  1.00  0.00     0.211 HD
ENDBRANCH  10  17
BRANCH  12  19
ATOM     19  O   UNL     1    -131.156 114.754  46.201  1.00  0.00    -0.387 OA
ATOM     20  H   UNL     1    -131.613 115.573  46.521  1.00  0.00     0.211 HD
ENDBRANCH  12  19
BRANCH  13  21
ATOM     21  O   UNL     1    -128.680 113.282  44.855  1.00  0.00    -0.385 OA
ATOM     22  H   UNL     1    -128.819 113.185  45.827  1.00  0.00     0.211 HD
ENDBRANCH  13  21
ENDBRANCH   7   8
ENDBRANCH   1   7
BRANCH   2  23
ATOM     23  C   UNL     1    -128.793 113.680  38.688  1.00  0.00     0.191 C 
BRANCH  23  24
ATOM     24  O   UNL     1    -128.753 112.947  37.495  1.00  0.00    -0.394 OA
ATOM     25  H   UNL     1    -128.033 113.348  36.942  1.00  0.00     0.210 HD
ENDBRANCH  23  24
ENDBRANCH   2  23
BRANCH   6  26
ATOM     26  O   UNL     1    -131.919 112.402  40.856  1.00  0.00    -0.387 OA
ATOM     27  H   UNL     1    -131.900 113.207  40.278  1.00  0.00     0.211 HD
ENDBRANCH   6  26
BRANCH   5  28
ATOM     28  O   UNL     1    -129.242 110.977  42.858  1.00  0.00    -0.385 OA
ATOM     29  H   UNL     1    -128.342 111.131  42.475  1.00  0.00     0.211 HD
ENDBRANCH   5  28
BRANCH   4  30
ATOM     30  O   UNL     1    -130.237 109.434  39.980  1.00  0.00    -0.341 OA
BRANCH  30  31
ATOM     31  C   UNL     1    -129.486 108.230  40.099  1.00  0.00     0.184 C 
ATOM     32  C   UNL     1    -130.029 107.167  39.089  1.00  0.00     0.178 C 
ATOM     33  C   UNL     1    -129.582 107.732  41.553  1.00  0.00     0.180 C 
ATOM     34  O   UNL     1    -130.839 106.178  39.716  1.00  0.00    -0.342 OA
ATOM     35  C   UNL     1    -129.229 106.232  41.640  1.00  0.00     0.201 C 
ATOM     36  C   UNL     1    -130.174 105.413  40.718  1.00  0.00     0.279 C 
BRANCH  32  37
ATOM     37  C   UNL     1    -128.928 106.543  38.204  1.00  0.00     0.191 C 
BRANCH  37  38
ATOM     38  O   UNL     1    -129.497 105.661  37.281  1.00  0.00    -0.394 OA
ATOM     39  H   UNL     1    -130.283 106.112  36.878  1.00  0.00     0.210 HD
ENDBRANCH  37  38
ENDBRANCH  32  37
BRANCH  33  40
ATOM     40  O   UNL     1    -130.887 107.929  42.043  1.00  0.00    -0.387 OA
ATOM     41  H   UNL     1    -131.472 107.254  41.607  1.00  0.00     0.211 HD
ENDBRANCH  33  40
BRANCH  35  42
ATOM     42  O   UNL     1    -127.876 105.953  41.337  1.00  0.00    -0.385 OA
ATOM     43  H   UNL     1    -127.477 105.359  42.024  1.00  0.00     0.211 HD
ENDBRANCH  35  42
BRANCH  36  44
ATOM     44  O   UNL     1    -129.500 104.323  40.135  1.00  0.00    -0.366 OA
ATOM     45  H   UNL     1    -129.697 103.535  40.705  1.00  0.00     0.213 HD
ENDBRANCH  36  44
ENDBRANCH  30  31
ENDBRANCH   4  30
TORSDOF 18
ENDMDL
MODEL 9
REMARK VINA RESULT:     0.099      1.475      8.950
REMARK INTER + INTRA:          -0.543
REMARK INTER:                   0.446
REMARK INTRA:                  -0.989
REMARK UNBOUND:                -0.714
REMARK SMILES OC[C@@H]1O[C@@H](O[C@@H]2[C@@H](O)[C@H](O)[C@@H](O[C@H]3[C@@H](O)[C@H](O)[C@H](O)O[C@@H]3CO)O[C@H]2CO)[C@@H](O)[C@H](O)[C@H]1O
REMARK SMILES IDX 7 1 26 2 25 3 12 4 10 5 8 6 6 7 5 8 3 9 33 10 4 11 31 12
REMARK SMILES IDX 29 13 2 14 1 15 34 17 32 19 30 21 27 23 28 24 9 26 11 28
REMARK SMILES IDX 13 30 14 31 22 32 15 33 21 34 17 35 19 36 23 37 24 38 16 40
REMARK SMILES IDX 18 42 20 44
REMARK H PARENT 1 16 34 18 32 20 30 22 28 25 9 27 11 29 24 39 16 41 18 43
REMARK H PARENT 20 45
REMARK Flexibility Score: inf
ROOT
ATOM      1  C   UNL     1    -129.887 110.158  41.454  1.00  0.00     0.184 C 
ATOM      2  C   UNL     1    -129.280 110.979  42.643  1.00  0.00     0.178 C 
ATOM      3  O   UNL     1    -129.846 112.279  42.723  1.00  0.00    -0.341 OA
ATOM      4  C   UNL     1    -129.412 113.090  41.646  1.00  0.00     0.282 C 
ATOM      5  C   UNL     1    -129.774 112.438  40.273  1.00  0.00     0.202 C 
ATOM      6  C   UNL     1    -130.571 111.126  40.442  1.00  0.00     0.180 C 
ENDROOT
BRANCH   1   7
ATOM      7  O   UNL     1    -128.832 109.366  40.918  1.00  0.00    -0.341 OA
BRANCH   7   8
ATOM      8  C   UNL     1    -129.149 108.159  40.224  1.00  0.00     0.282 C 
ATOM      9  C   UNL     1    -130.997 107.035  39.251  1.00  0.00     0.178 C 
ATOM     10  C   UNL     1    -129.908 106.079  38.662  1.00  0.00     0.177 C 
ATOM     11  O   UNL     1    -130.536 107.883  40.303  1.00  0.00    -0.341 OA
ATOM     12  C   UNL     1    -128.909 105.654  39.761  1.00  0.00     0.179 C 
ATOM     13  C   UNL     1    -128.295 106.881  40.495  1.00  0.00     0.202 C 
BRANCH   9  14
ATOM     14  C   UNL     1    -131.694 107.874  38.161  1.00  0.00     0.191 C 
BRANCH  14  15
ATOM     15  O   UNL     1    -132.265 109.029  38.717  1.00  0.00    -0.394 OA
ATOM     16  H   UNL     1    -131.960 109.074  39.662  1.00  0.00     0.210 HD
ENDBRANCH  14  15
ENDBRANCH   9  14
BRANCH  10  17
ATOM     17  O   UNL     1    -130.523 104.972  38.046  1.00  0.00    -0.387 OA
ATOM     18  H   UNL     1    -129.834 104.503  37.498  1.00  0.00     0.211 HD
ENDBRANCH  10  17
BRANCH  12  19
ATOM     19  O   UNL     1    -127.876 104.881  39.196  1.00  0.00    -0.387 OA
ATOM     20  H   UNL     1    -127.204 105.510  38.827  1.00  0.00     0.211 HD
ENDBRANCH  12  19
BRANCH  13  21
ATOM     21  O   UNL     1    -128.229 106.574  41.864  1.00  0.00    -0.385 OA
ATOM     22  H   UNL     1    -129.143 106.343  42.154  1.00  0.00     0.211 HD
ENDBRANCH  13  21
ENDBRANCH   7   8
ENDBRANCH   1   7
BRANCH   2  23
ATOM     23  C   UNL     1    -129.519 110.275  43.992  1.00  0.00     0.191 C 
BRANCH  23  24
ATOM     24  O   UNL     1    -130.242 109.086  43.833  1.00  0.00    -0.394 OA
ATOM     25  H   UNL     1    -130.271 108.902  42.857  1.00  0.00     0.210 HD
ENDBRANCH  23  24
ENDBRANCH   2  23
BRANCH   6  26
ATOM     26  O   UNL     1    -131.852 111.426  40.936  1.00  0.00    -0.387 OA
ATOM     27  H   UNL     1    -132.036 112.374  40.713  1.00  0.00     0.211 HD
ENDBRANCH   6  26
BRANCH   5  28
ATOM     28  O   UNL     1    -128.618 112.244  39.496  1.00  0.00    -0.385 OA
ATOM     29  H   UNL     1    -128.137 113.108  39.448  1.00  0.00     0.211 HD
ENDBRANCH   5  28
BRANCH   4  30
ATOM     30  O   UNL     1    -130.063 114.343  41.768  1.00  0.00    -0.341 OA
BRANCH  30  31
ATOM     31  C   UNL     1    -129.459 115.177  42.753  1.00  0.00     0.184 C 
ATOM     32  C   UNL     1    -129.914 114.723  44.179  1.00  0.00     0.178 C 
ATOM     33  C   UNL     1    -129.854 116.637  42.469  1.00  0.00     0.180 C 
ATOM     34  O   UNL     1    -130.910 115.576  44.734  1.00  0.00    -0.342 OA
ATOM     35  C   UNL     1    -129.663 117.509  43.729  1.00  0.00     0.201 C 
ATOM     36  C   UNL     1    -130.504 116.932  44.901  1.00  0.00     0.279 C 
BRANCH  32  37
ATOM     37  C   UNL     1    -128.738 114.490  45.152  1.00  0.00     0.191 C 
BRANCH  37  38
ATOM     38  O   UNL     1    -129.200 114.487  46.471  1.00  0.00    -0.394 OA
ATOM     39  H   UNL     1    -128.675 113.812  46.973  1.00  0.00     0.210 HD
ENDBRANCH  37  38
ENDBRANCH  32  37
BRANCH  33  40
ATOM     40  O   UNL     1    -131.201 116.701  42.063  1.00  0.00    -0.387 OA
ATOM     41  H   UNL     1    -131.532 115.766  41.988  1.00  0.00     0.211 HD
ENDBRANCH  33  40
BRANCH  35  42
ATOM     42  O   UNL     1    -128.311 117.654  44.113  1.00  0.00    -0.385 OA
ATOM     43  H   UNL     1    -128.240 117.866  45.080  1.00  0.00     0.211 HD
ENDBRANCH  35  42
BRANCH  36  44
ATOM     44  O   UNL     1    -129.843 117.098  46.133  1.00  0.00    -0.366 OA
ATOM     45  H   UNL     1    -130.331 117.812  46.619  1.00  0.00     0.213 HD
ENDBRANCH  36  44
ENDBRANCH  30  31
ENDBRANCH   4  30
TORSDOF 18
ENDMDL
