MODEL 1
REMARK VINA RESULT:    62.814      0.000      0.000
REMARK INTER + INTRA:         103.193
REMARK INTER:                  99.535
REMARK INTRA:                   3.658
REMARK UNBOUND:                 3.658
REMARK SMILES C[C@@H]1O[C@H](O[C@H]2[C@@H](Oc3cc(O)c4c(c3)O[C@H](c3ccc(O)cc3)CC4=O)O[C@H](CO)[C@H](O)[C@@H]2O)[C@@H](O)[C@H](O)[C@H]1O
REMARK SMILES IDX 6 1 34 2 32 3 29 4 28 5 7 6 5 7 4 8 1 9 2 10 40 11 3 12
REMARK SMILES IDX 38 13 36 14 41 15 39 17 37 19 35 21 8 23 9 24 10 25 15 26
REMARK SMILES IDX 11 27 14 28 13 29 16 30 26 31 17 32 27 33 25 34 12 35 18 37
REMARK SMILES IDX 19 38 24 39 20 40 23 41 21 42 22 43 33 45 30 47 31 48
REMARK H PARENT 41 16 39 18 37 20 35 22 12 36 22 44 33 46 31 49
REMARK Flexibility Score: inf
ROOT
ATOM      1  C   UNL     1      12.245  11.476  25.044  1.00  0.00     0.221 C 
ATOM      2  C   UNL     1      11.320  12.353  25.944  1.00  0.00     0.181 C 
ATOM      3  C   UNL     1      10.726  13.494  25.089  1.00  0.00     0.177 C 
ATOM      4  C   UNL     1      10.031  12.827  23.856  1.00  0.00     0.179 C 
ATOM      5  O   UNL     1      10.960  12.130  23.054  1.00  0.00    -0.332 OA
ATOM      6  C   UNL     1      11.554  11.049  23.733  1.00  0.00     0.339 C 
ENDROOT
BRANCH   1   7
ATOM      7  O   UNL     1      12.962  10.360  25.565  1.00  0.00    -0.337 OA
BRANCH   7   8
ATOM      8  C   UNL     1      13.585  10.475  26.844  1.00  0.00     0.282 C 
ATOM      9  C   UNL     1      14.766  13.406  28.180  1.00  0.00     0.041 C 
ATOM     10  C   UNL     1      15.063  11.896  28.101  1.00  0.00     0.150 C 
ATOM     11  C   UNL     1      14.506  11.150  29.352  1.00  0.00     0.174 C 
ATOM     12  O   UNL     1      14.641  11.428  26.824  1.00  0.00    -0.344 OA
ATOM     13  C   UNL     1      12.944  11.006  29.266  1.00  0.00     0.179 C 
ATOM     14  C   UNL     1      12.456  10.874  27.810  1.00  0.00     0.202 C 
BRANCH  11  15
ATOM     15  O   UNL     1      15.121   9.876  29.399  1.00  0.00    -0.388 OA
ATOM     16  H   UNL     1      14.378   9.211  29.347  1.00  0.00     0.211 HD
ENDBRANCH  11  15
BRANCH  13  17
ATOM     17  O   UNL     1      12.352  12.132  29.875  1.00  0.00    -0.387 OA
ATOM     18  H   UNL     1      13.071  12.803  29.982  1.00  0.00     0.211 HD
ENDBRANCH  13  17
BRANCH  14  19
ATOM     19  O   UNL     1      11.444   9.890  27.738  1.00  0.00    -0.385 OA
ATOM     20  H   UNL     1      10.899   9.969  28.568  1.00  0.00     0.211 HD
ENDBRANCH  14  19
ENDBRANCH   7   8
ENDBRANCH   1   7
BRANCH   2  21
ATOM     21  O   UNL     1      12.065  12.894  27.016  1.00  0.00    -0.387 OA
ATOM     22  H   UNL     1      11.936  13.881  26.989  1.00  0.00     0.211 HD
ENDBRANCH   2  21
BRANCH   6  23
ATOM     23  O   UNL     1      10.612   9.991  23.941  1.00  0.00    -0.462 OA
BRANCH  23  24
ATOM     24  C   UNL     1       9.214  10.090  23.891  1.00  0.00     0.130 A 
ATOM     25  C   UNL     1       8.394   9.879  25.009  1.00  0.00     0.093 A 
ATOM     26  C   UNL     1       8.622  10.367  22.662  1.00  0.00     0.094 A 
ATOM     27  C   UNL     1       7.036  10.213  24.963  1.00  0.00     0.133 A 
ATOM     28  C   UNL     1       7.271  10.584  22.571  1.00  0.00     0.138 A 
ATOM     29  C   UNL     1       6.457  10.603  23.718  1.00  0.00     0.102 A 
ATOM     30  O   UNL     1       6.694  10.830  21.310  1.00  0.00    -0.484 OA
ATOM     31  C   UNL     1       5.035  11.006  23.534  1.00  0.00     0.174 C 
ATOM     32  C   UNL     1       5.275  10.796  21.132  1.00  0.00     0.211 C 
ATOM     33  O   UNL     1       4.172  10.863  24.437  1.00  0.00    -0.294 OA
ATOM     34  C   UNL     1       4.625  11.614  22.235  1.00  0.00     0.131 C 
BRANCH  27  35
ATOM     35  O   UNL     1       6.301  10.173  26.152  1.00  0.00    -0.507 OA
ATOM     36  H   UNL     1       6.627  10.689  26.963  1.00  0.00     0.293 HD
ENDBRANCH  27  35
BRANCH  32  37
ATOM     37  C   UNL     1       4.949  11.243  19.730  1.00  0.00    -0.007 A 
ATOM     38  C   UNL     1       5.842  11.997  18.940  1.00  0.00     0.011 A 
ATOM     39  C   UNL     1       3.669  10.958  19.216  1.00  0.00     0.011 A 
ATOM     40  C   UNL     1       5.457  12.448  17.675  1.00  0.00     0.046 A 
ATOM     41  C   UNL     1       3.293  11.409  17.945  1.00  0.00     0.046 A 
ATOM     42  C   UNL     1       4.174  12.194  17.192  1.00  0.00     0.115 A 
BRANCH  42  43
ATOM     43  O   UNL     1       3.781  12.678  15.951  1.00  0.00    -0.508 OA
ATOM     44  H   UNL     1       2.880  13.113  15.810  1.00  0.00     0.293 HD
ENDBRANCH  42  43
ENDBRANCH  32  37
ENDBRANCH  23  24
ENDBRANCH   6  23
BRANCH   3  45
ATOM     45  O   UNL     1      11.736  14.379  24.666  1.00  0.00    -0.387 OA
ATOM     46  H   UNL     1      12.354  13.874  24.071  1.00  0.00     0.211 HD
ENDBRANCH   3  45
BRANCH   4  47
ATOM     47  C   UNL     1       9.305  13.846  22.967  1.00  0.00     0.191 C 
BRANCH  47  48
ATOM     48  O   UNL     1       8.105  13.311  22.511  1.00  0.00    -0.394 OA
ATOM     49  H   UNL     1       7.512  14.067  22.287  1.00  0.00     0.210 HD
ENDBRANCH  47  48
ENDBRANCH   4  47
TORSDOF 14
ENDMDL
