MODEL 1
REMARK VINA RESULT:    -6.443      0.000      0.000
REMARK INTER + INTRA:          -9.364
REMARK INTER:                  -8.703
REMARK INTRA:                  -0.661
REMARK UNBOUND:                -0.661
REMARK SMILES C[C@H]1O[C@H](Oc2cc(O)c3c(=O)c(O)c(-c4ccc(O)cc4)oc3c2)[C@H](O)[C@H](O)[C@@H]1O
REMARK SMILES IDX 6 1 7 2 8 3 10 4 24 5 25 6 23 7 15 8 13 9 11 10 12 11 5 12
REMARK SMILES IDX 4 13 1 14 2 15 30 16 3 17 28 18 26 19 31 20 29 22 27 24 9 26
REMARK SMILES IDX 16 28 17 29 22 30 18 31 21 32 19 33 20 34 14 36
REMARK H PARENT 31 21 29 23 27 25 9 27 20 35 14 37
REMARK Flexibility Score: inf
ROOT
ATOM      1  C   UNL     1      -5.213  -5.774  23.712  1.00  0.00     0.130 A 
ATOM      2  C   UNL     1      -6.182  -6.702  24.153  1.00  0.00     0.093 A 
ATOM      3  C   UNL     1      -5.985  -7.469  25.315  1.00  0.00     0.134 A 
ATOM      4  C   UNL     1      -4.739  -7.396  25.999  1.00  0.00     0.111 A 
ATOM      5  C   UNL     1      -3.761  -6.477  25.540  1.00  0.00     0.146 A 
ATOM      6  C   UNL     1      -4.006  -5.684  24.409  1.00  0.00     0.094 A 
ATOM      7  O   UNL     1      -2.592  -6.357  26.164  1.00  0.00    -0.452 OA
ATOM      8  C   UNL     1      -2.259  -7.070  27.233  1.00  0.00     0.180 A 
ATOM      9  C   UNL     1      -3.145  -8.038  27.732  1.00  0.00     0.208 A 
ATOM     10  C   UNL     1      -4.384  -8.216  27.102  1.00  0.00     0.238 A 
ATOM     11  O   UNL     1      -5.141  -9.132  27.509  1.00  0.00    -0.285 OA
ENDROOT
BRANCH   1  12
ATOM     12  O   UNL     1      -5.395  -4.921  22.599  1.00  0.00    -0.462 OA
BRANCH  12  13
ATOM     13  C   UNL     1      -6.419  -4.999  21.595  1.00  0.00     0.339 C 
ATOM     14  C   UNL     1      -9.125  -3.924  20.696  1.00  0.00     0.042 C 
ATOM     15  C   UNL     1      -7.719  -3.687  20.103  1.00  0.00     0.151 C 
ATOM     16  C   UNL     1      -7.413  -4.612  18.904  1.00  0.00     0.174 C 
ATOM     17  O   UNL     1      -6.696  -3.702  21.091  1.00  0.00    -0.335 OA
ATOM     18  C   UNL     1      -7.050  -6.037  19.351  1.00  0.00     0.180 C 
ATOM     19  C   UNL     1      -6.035  -6.028  20.504  1.00  0.00     0.214 C 
BRANCH  16  20
ATOM     20  O   UNL     1      -6.356  -4.064  18.155  1.00  0.00    -0.388 OA
ATOM     21  H   UNL     1      -5.864  -3.443  18.756  1.00  0.00     0.211 HD
ENDBRANCH  16  20
BRANCH  18  22
ATOM     22  O   UNL     1      -6.499  -6.749  18.272  1.00  0.00    -0.387 OA
ATOM     23  H   UNL     1      -7.241  -7.088  17.705  1.00  0.00     0.211 HD
ENDBRANCH  18  22
BRANCH  19  24
ATOM     24  O   UNL     1      -4.746  -5.778  20.000  1.00  0.00    -0.384 OA
ATOM     25  H   UNL     1      -4.786  -4.960  19.442  1.00  0.00     0.211 HD
ENDBRANCH  19  24
ENDBRANCH  12  13
ENDBRANCH   1  12
BRANCH   3  26
ATOM     26  O   UNL     1      -7.063  -8.255  25.735  1.00  0.00    -0.507 OA
ATOM     27  H   UNL     1      -7.320  -9.143  25.328  1.00  0.00     0.293 HD
ENDBRANCH   3  26
BRANCH   8  28
ATOM     28  C   UNL     1      -0.930  -6.856  27.845  1.00  0.00     0.021 A 
ATOM     29  C   UNL     1       0.193  -7.500  27.302  1.00  0.00     0.016 A 
ATOM     30  C   UNL     1      -0.762  -6.000  28.948  1.00  0.00     0.016 A 
ATOM     31  C   UNL     1       1.454  -7.325  27.877  1.00  0.00     0.047 A 
ATOM     32  C   UNL     1       0.506  -5.810  29.508  1.00  0.00     0.047 A 
ATOM     33  C   UNL     1       1.618  -6.474  28.974  1.00  0.00     0.115 A 
BRANCH  33  34
ATOM     34  O   UNL     1       2.885  -6.298  29.527  1.00  0.00    -0.508 OA
ATOM     35  H   UNL     1       3.680  -6.026  28.961  1.00  0.00     0.293 HD
ENDBRANCH  33  34
ENDBRANCH   8  28
BRANCH   9  36
ATOM     36  O   UNL     1      -2.772  -8.833  28.818  1.00  0.00    -0.502 OA
ATOM     37  H   UNL     1      -1.804  -9.017  29.050  1.00  0.00     0.293 HD
ENDBRANCH   9  36
TORSDOF 9
ENDMDL
MODEL 2
REMARK VINA RESULT:    -6.201      2.023      9.541
REMARK INTER + INTRA:          -9.036
REMARK INTER:                  -8.416
REMARK INTRA:                  -0.620
REMARK UNBOUND:                -0.661
REMARK SMILES C[C@H]1O[C@H](Oc2cc(O)c3c(=O)c(O)c(-c4ccc(O)cc4)oc3c2)[C@H](O)[C@H](O)[C@@H]1O
REMARK SMILES IDX 6 1 7 2 8 3 10 4 24 5 25 6 23 7 15 8 13 9 11 10 12 11 5 12
REMARK SMILES IDX 4 13 1 14 2 15 30 16 3 17 28 18 26 19 31 20 29 22 27 24 9 26
REMARK SMILES IDX 16 28 17 29 22 30 18 31 21 32 19 33 20 34 14 36
REMARK H PARENT 31 21 29 23 27 25 9 27 20 35 14 37
REMARK Flexibility Score: inf
ROOT
ATOM      1  C   UNL     1      -4.037  -6.844  24.430  1.00  0.00     0.130 A 
ATOM      2  C   UNL     1      -4.571  -8.144  24.294  1.00  0.00     0.093 A 
ATOM      3  C   UNL     1      -5.472  -8.460  23.262  1.00  0.00     0.134 A 
ATOM      4  C   UNL     1      -5.947  -7.427  22.405  1.00  0.00     0.111 A 
ATOM      5  C   UNL     1      -5.422  -6.118  22.559  1.00  0.00     0.146 A 
ATOM      6  C   UNL     1      -4.482  -5.843  23.563  1.00  0.00     0.094 A 
ATOM      7  O   UNL     1      -5.818  -5.127  21.765  1.00  0.00    -0.452 OA
ATOM      8  C   UNL     1      -6.711  -5.282  20.795  1.00  0.00     0.180 A 
ATOM      9  C   UNL     1      -7.320  -6.532  20.597  1.00  0.00     0.208 A 
ATOM     10  C   UNL     1      -6.950  -7.605  21.418  1.00  0.00     0.238 A 
ATOM     11  O   UNL     1      -7.551  -8.701  21.283  1.00  0.00    -0.285 OA
ENDROOT
BRANCH   1  12
ATOM     12  O   UNL     1      -3.067  -6.493  25.397  1.00  0.00    -0.462 OA
BRANCH  12  13
ATOM     13  C   UNL     1      -2.636  -7.269  26.525  1.00  0.00     0.339 C 
ATOM     14  C   UNL     1      -1.564  -9.972  27.437  1.00  0.00     0.042 C 
ATOM     15  C   UNL     1      -0.850  -8.606  27.340  1.00  0.00     0.151 C 
ATOM     16  C   UNL     1      -0.808  -7.858  28.691  1.00  0.00     0.174 C 
ATOM     17  O   UNL     1      -1.345  -7.802  26.276  1.00  0.00    -0.335 OA
ATOM     18  C   UNL     1      -2.154  -7.199  29.030  1.00  0.00     0.180 C 
ATOM     19  C   UNL     1      -2.731  -6.437  27.828  1.00  0.00     0.214 C 
BRANCH  16  20
ATOM     20  O   UNL     1       0.204  -6.881  28.647  1.00  0.00    -0.388 OA
ATOM     21  H   UNL     1       1.030  -7.332  28.328  1.00  0.00     0.211 HD
ENDBRANCH  16  20
BRANCH  18  22
ATOM     22  O   UNL     1      -1.987  -6.298  30.096  1.00  0.00    -0.387 OA
ATOM     23  H   UNL     1      -1.901  -6.818  30.938  1.00  0.00     0.211 HD
ENDBRANCH  18  22
BRANCH  19  24
ATOM     24  O   UNL     1      -2.075  -5.200  27.690  1.00  0.00    -0.384 OA
ATOM     25  H   UNL     1      -2.375  -4.784  26.842  1.00  0.00     0.211 HD
ENDBRANCH  19  24
ENDBRANCH  12  13
ENDBRANCH   1  12
BRANCH   3  26
ATOM     26  O   UNL     1      -5.833  -9.806  23.138  1.00  0.00    -0.507 OA
ATOM     27  H   UNL     1      -5.320 -10.491  22.602  1.00  0.00     0.293 HD
ENDBRANCH   3  26
BRANCH   8  28
ATOM     28  C   UNL     1      -7.080  -4.109  19.973  1.00  0.00     0.021 A 
ATOM     29  C   UNL     1      -7.964  -3.151  20.493  1.00  0.00     0.016 A 
ATOM     30  C   UNL     1      -6.543  -3.920  18.687  1.00  0.00     0.016 A 
ATOM     31  C   UNL     1      -8.338  -2.045  19.725  1.00  0.00     0.047 A 
ATOM     32  C   UNL     1      -6.903  -2.799  17.929  1.00  0.00     0.047 A 
ATOM     33  C   UNL     1      -7.804  -1.860  18.447  1.00  0.00     0.115 A 
BRANCH  33  34
ATOM     34  O   UNL     1      -8.175  -0.744  17.699  1.00  0.00    -0.508 OA
ATOM     35  H   UNL     1      -7.512  -0.013  17.468  1.00  0.00     0.293 HD
ENDBRANCH  33  34
ENDBRANCH   8  28
BRANCH   9  36
ATOM     36  O   UNL     1      -8.306  -6.682  19.620  1.00  0.00    -0.502 OA
ATOM     37  H   UNL     1      -8.937  -5.933  19.364  1.00  0.00     0.293 HD
ENDBRANCH   9  36
TORSDOF 9
ENDMDL
MODEL 3
REMARK VINA RESULT:    -6.025      1.908      2.376
REMARK INTER + INTRA:          -8.799
REMARK INTER:                  -8.191
REMARK INTRA:                  -0.608
REMARK UNBOUND:                -0.661
REMARK SMILES C[C@H]1O[C@H](Oc2cc(O)c3c(=O)c(O)c(-c4ccc(O)cc4)oc3c2)[C@H](O)[C@H](O)[C@@H]1O
REMARK SMILES IDX 6 1 7 2 8 3 10 4 24 5 25 6 23 7 15 8 13 9 11 10 12 11 5 12
REMARK SMILES IDX 4 13 1 14 2 15 30 16 3 17 28 18 26 19 31 20 29 22 27 24 9 26
REMARK SMILES IDX 16 28 17 29 22 30 18 31 21 32 19 33 20 34 14 36
REMARK H PARENT 31 21 29 23 27 25 9 27 20 35 14 37
REMARK Flexibility Score: inf
ROOT
ATOM      1  C   UNL     1      -4.789  -8.293  23.593  1.00  0.00     0.130 A 
ATOM      2  C   UNL     1      -5.755  -8.327  24.622  1.00  0.00     0.093 A 
ATOM      3  C   UNL     1      -5.382  -8.292  25.977  1.00  0.00     0.134 A 
ATOM      4  C   UNL     1      -4.003  -8.339  26.325  1.00  0.00     0.111 A 
ATOM      5  C   UNL     1      -3.036  -8.325  25.288  1.00  0.00     0.146 A 
ATOM      6  C   UNL     1      -3.437  -8.304  23.943  1.00  0.00     0.094 A 
ATOM      7  O   UNL     1      -1.736  -8.342  25.566  1.00  0.00    -0.452 OA
ATOM      8  C   UNL     1      -1.255  -8.375  26.803  1.00  0.00     0.180 A 
ATOM      9  C   UNL     1      -2.137  -8.437  27.895  1.00  0.00     0.208 A 
ATOM     10  C   UNL     1      -3.517  -8.438  27.655  1.00  0.00     0.238 A 
ATOM     11  O   UNL     1      -4.298  -8.567  28.631  1.00  0.00    -0.285 OA
ENDROOT
BRANCH   1  12
ATOM     12  O   UNL     1      -5.112  -8.244  22.217  1.00  0.00    -0.462 OA
BRANCH  12  13
ATOM     13  C   UNL     1      -5.918  -7.266  21.542  1.00  0.00     0.339 C 
ATOM     14  C   UNL     1      -6.192  -4.318  20.821  1.00  0.00     0.042 C 
ATOM     15  C   UNL     1      -5.841  -5.527  19.927  1.00  0.00     0.151 C 
ATOM     16  C   UNL     1      -7.065  -6.080  19.164  1.00  0.00     0.174 C 
ATOM     17  O   UNL     1      -5.121  -6.536  20.624  1.00  0.00    -0.335 OA
ATOM     18  C   UNL     1      -7.972  -6.933  20.065  1.00  0.00     0.180 C 
ATOM     19  C   UNL     1      -7.161  -7.933  20.902  1.00  0.00     0.214 C 
BRANCH  16  20
ATOM     20  O   UNL     1      -6.621  -6.848  18.072  1.00  0.00    -0.388 OA
ATOM     21  H   UNL     1      -7.110  -6.523  17.269  1.00  0.00     0.211 HD
ENDBRANCH  16  20
BRANCH  18  22
ATOM     22  O   UNL     1      -8.890  -7.647  19.276  1.00  0.00    -0.387 OA
ATOM     23  H   UNL     1      -8.385  -8.222  18.644  1.00  0.00     0.211 HD
ENDBRANCH  18  22
BRANCH  19  24
ATOM     24  O   UNL     1      -6.794  -9.032  20.105  1.00  0.00    -0.384 OA
ATOM     25  H   UNL     1      -6.581  -9.792  20.705  1.00  0.00     0.211 HD
ENDBRANCH  19  24
ENDBRANCH  12  13
ENDBRANCH   1  12
BRANCH   3  26
ATOM     26  O   UNL     1      -6.421  -8.193  26.909  1.00  0.00    -0.507 OA
ATOM     27  H   UNL     1      -7.260  -7.647  26.779  1.00  0.00     0.293 HD
ENDBRANCH   3  26
BRANCH   8  28
ATOM     28  C   UNL     1       0.210  -8.394  26.998  1.00  0.00     0.021 A 
ATOM     29  C   UNL     1       0.918  -9.591  26.805  1.00  0.00     0.016 A 
ATOM     30  C   UNL     1       0.917  -7.231  27.349  1.00  0.00     0.016 A 
ATOM     31  C   UNL     1       2.301  -9.634  27.000  1.00  0.00     0.047 A 
ATOM     32  C   UNL     1       2.305  -7.272  27.523  1.00  0.00     0.047 A 
ATOM     33  C   UNL     1       3.000  -8.476  27.351  1.00  0.00     0.115 A 
BRANCH  33  34
ATOM     34  O   UNL     1       4.381  -8.531  27.527  1.00  0.00    -0.508 OA
ATOM     35  H   UNL     1       5.020  -8.100  26.870  1.00  0.00     0.293 HD
ENDBRANCH  33  34
ENDBRANCH   8  28
BRANCH   9  36
ATOM     36  O   UNL     1      -1.635  -8.536  29.194  1.00  0.00    -0.502 OA
ATOM     37  H   UNL     1      -1.644  -9.403  29.717  1.00  0.00     0.293 HD
ENDBRANCH   9  36
TORSDOF 9
ENDMDL
MODEL 4
REMARK VINA RESULT:    -5.846      1.500      2.329
REMARK INTER + INTRA:          -8.557
REMARK INTER:                  -7.873
REMARK INTRA:                  -0.684
REMARK UNBOUND:                -0.661
REMARK SMILES C[C@H]1O[C@H](Oc2cc(O)c3c(=O)c(O)c(-c4ccc(O)cc4)oc3c2)[C@H](O)[C@H](O)[C@@H]1O
REMARK SMILES IDX 6 1 7 2 8 3 10 4 24 5 25 6 23 7 15 8 13 9 11 10 12 11 5 12
REMARK SMILES IDX 4 13 1 14 2 15 30 16 3 17 28 18 26 19 31 20 29 22 27 24 9 26
REMARK SMILES IDX 16 28 17 29 22 30 18 31 21 32 19 33 20 34 14 36
REMARK H PARENT 31 21 29 23 27 25 9 27 20 35 14 37
REMARK Flexibility Score: inf
ROOT
ATOM      1  C   UNL     1      -5.709  -6.677  24.693  1.00  0.00     0.130 A 
ATOM      2  C   UNL     1      -6.421  -7.644  25.436  1.00  0.00     0.093 A 
ATOM      3  C   UNL     1      -5.788  -8.420  26.422  1.00  0.00     0.134 A 
ATOM      4  C   UNL     1      -4.380  -8.313  26.601  1.00  0.00     0.111 A 
ATOM      5  C   UNL     1      -3.666  -7.354  25.838  1.00  0.00     0.146 A 
ATOM      6  C   UNL     1      -4.333  -6.553  24.898  1.00  0.00     0.094 A 
ATOM      7  O   UNL     1      -2.353  -7.202  25.990  1.00  0.00    -0.452 OA
ATOM      8  C   UNL     1      -1.630  -7.917  26.842  1.00  0.00     0.180 A 
ATOM      9  C   UNL     1      -2.242  -8.923  27.607  1.00  0.00     0.208 A 
ATOM     10  C   UNL     1      -3.620  -9.136  27.473  1.00  0.00     0.238 A 
ATOM     11  O   UNL     1      -4.148 -10.084  28.107  1.00  0.00    -0.285 OA
ENDROOT
BRANCH   1  12
ATOM     12  O   UNL     1      -6.312  -5.814  23.749  1.00  0.00    -0.462 OA
BRANCH  12  13
ATOM     13  C   UNL     1      -5.722  -5.269  22.559  1.00  0.00     0.339 C 
ATOM     14  C   UNL     1      -3.302  -5.347  20.707  1.00  0.00     0.042 C 
ATOM     15  C   UNL     1      -4.739  -5.865  20.481  1.00  0.00     0.151 C 
ATOM     16  C   UNL     1      -5.617  -4.866  19.694  1.00  0.00     0.174 C 
ATOM     17  O   UNL     1      -5.355  -6.320  21.679  1.00  0.00    -0.335 OA
ATOM     18  C   UNL     1      -6.109  -3.709  20.577  1.00  0.00     0.180 C 
ATOM     19  C   UNL     1      -6.658  -4.214  21.920  1.00  0.00     0.214 C 
BRANCH  16  20
ATOM     20  O   UNL     1      -6.718  -5.550  19.147  1.00  0.00    -0.388 OA
ATOM     21  H   UNL     1      -7.450  -5.507  19.818  1.00  0.00     0.211 HD
ENDBRANCH  16  20
BRANCH  18  22
ATOM     22  O   UNL     1      -7.126  -3.003  19.912  1.00  0.00    -0.387 OA
ATOM     23  H   UNL     1      -7.938  -3.002  20.485  1.00  0.00     0.211 HD
ENDBRANCH  18  22
BRANCH  19  24
ATOM     24  O   UNL     1      -7.955  -4.727  21.740  1.00  0.00    -0.384 OA
ATOM     25  H   UNL     1      -8.260  -5.104  22.604  1.00  0.00     0.211 HD
ENDBRANCH  19  24
ENDBRANCH  12  13
ENDBRANCH   1  12
BRANCH   3  26
ATOM     26  O   UNL     1      -6.613  -9.250  27.189  1.00  0.00    -0.507 OA
ATOM     27  H   UNL     1      -6.335 -10.143  27.570  1.00  0.00     0.293 HD
ENDBRANCH   3  26
BRANCH   8  28
ATOM     28  C   UNL     1      -0.175  -7.666  26.927  1.00  0.00     0.021 A 
ATOM     29  C   UNL     1       0.678  -8.201  25.948  1.00  0.00     0.016 A 
ATOM     30  C   UNL     1       0.373  -6.881  27.956  1.00  0.00     0.016 A 
ATOM     31  C   UNL     1       2.057  -7.989  26.021  1.00  0.00     0.047 A 
ATOM     32  C   UNL     1       1.752  -6.652  28.014  1.00  0.00     0.047 A 
ATOM     33  C   UNL     1       2.598  -7.208  27.046  1.00  0.00     0.115 A 
BRANCH  33  34
ATOM     34  O   UNL     1       3.974  -6.994  27.096  1.00  0.00    -0.508 OA
ATOM     35  H   UNL     1       4.631  -7.648  26.687  1.00  0.00     0.293 HD
ENDBRANCH  33  34
ENDBRANCH   8  28
BRANCH   9  36
ATOM     36  O   UNL     1      -1.473  -9.721  28.457  1.00  0.00    -0.502 OA
ATOM     37  H   UNL     1      -1.295 -10.700  28.272  1.00  0.00     0.293 HD
ENDBRANCH   9  36
TORSDOF 9
ENDMDL
MODEL 5
REMARK VINA RESULT:    -5.826      1.772      2.202
REMARK INTER + INTRA:          -8.530
REMARK INTER:                  -7.834
REMARK INTRA:                  -0.696
REMARK UNBOUND:                -0.661
REMARK SMILES C[C@H]1O[C@H](Oc2cc(O)c3c(=O)c(O)c(-c4ccc(O)cc4)oc3c2)[C@H](O)[C@H](O)[C@@H]1O
REMARK SMILES IDX 6 1 7 2 8 3 10 4 24 5 25 6 23 7 15 8 13 9 11 10 12 11 5 12
REMARK SMILES IDX 4 13 1 14 2 15 30 16 3 17 28 18 26 19 31 20 29 22 27 24 9 26
REMARK SMILES IDX 16 28 17 29 22 30 18 31 21 32 19 33 20 34 14 36
REMARK H PARENT 31 21 29 23 27 25 9 27 20 35 14 37
REMARK Flexibility Score: inf
ROOT
ATOM      1  C   UNL     1      -4.984  -8.533  23.997  1.00  0.00     0.130 A 
ATOM      2  C   UNL     1      -5.901  -8.578  25.070  1.00  0.00     0.093 A 
ATOM      3  C   UNL     1      -5.470  -8.491  26.405  1.00  0.00     0.134 A 
ATOM      4  C   UNL     1      -4.076  -8.472  26.691  1.00  0.00     0.111 A 
ATOM      5  C   UNL     1      -3.158  -8.446  25.610  1.00  0.00     0.146 A 
ATOM      6  C   UNL     1      -3.618  -8.479  24.285  1.00  0.00     0.094 A 
ATOM      7  O   UNL     1      -1.847  -8.403  25.830  1.00  0.00    -0.452 OA
ATOM      8  C   UNL     1      -1.311  -8.382  27.044  1.00  0.00     0.180 A 
ATOM      9  C   UNL     1      -2.139  -8.451  28.176  1.00  0.00     0.208 A 
ATOM     10  C   UNL     1      -3.528  -8.515  27.999  1.00  0.00     0.238 A 
ATOM     11  O   UNL     1      -4.258  -8.648  29.013  1.00  0.00    -0.285 OA
ENDROOT
BRANCH   1  12
ATOM     12  O   UNL     1      -5.369  -8.534  22.637  1.00  0.00    -0.462 OA
BRANCH  12  13
ATOM     13  C   UNL     1      -6.193  -7.572  21.960  1.00  0.00     0.339 C 
ATOM     14  C   UNL     1      -8.054  -5.185  22.313  1.00  0.00     0.042 C 
ATOM     15  C   UNL     1      -6.617  -5.245  21.752  1.00  0.00     0.151 C 
ATOM     16  C   UNL     1      -6.581  -5.301  20.209  1.00  0.00     0.174 C 
ATOM     17  O   UNL     1      -5.830  -6.261  22.362  1.00  0.00    -0.335 OA
ATOM     18  C   UNL     1      -6.914  -6.702  19.672  1.00  0.00     0.180 C 
ATOM     19  C   UNL     1      -6.145  -7.796  20.428  1.00  0.00     0.214 C 
BRANCH  16  20
ATOM     20  O   UNL     1      -5.306  -4.909  19.761  1.00  0.00    -0.388 OA
ATOM     21  H   UNL     1      -4.659  -5.156  20.475  1.00  0.00     0.211 HD
ENDBRANCH  16  20
BRANCH  18  22
ATOM     22  O   UNL     1      -6.583  -6.780  18.309  1.00  0.00    -0.387 OA
ATOM     23  H   UNL     1      -5.702  -6.342  18.171  1.00  0.00     0.211 HD
ENDBRANCH  18  22
BRANCH  19  24
ATOM     24  O   UNL     1      -4.819  -7.851  19.964  1.00  0.00    -0.384 OA
ATOM     25  H   UNL     1      -4.822  -8.280  19.070  1.00  0.00     0.211 HD
ENDBRANCH  19  24
ENDBRANCH  12  13
ENDBRANCH   1  12
BRANCH   3  26
ATOM     26  O   UNL     1      -6.469  -8.409  27.381  1.00  0.00    -0.507 OA
ATOM     27  H   UNL     1      -6.620  -9.094  28.107  1.00  0.00     0.293 HD
ENDBRANCH   3  26
BRANCH   8  28
ATOM     28  C   UNL     1       0.162  -8.336  27.172  1.00  0.00     0.021 A 
ATOM     29  C   UNL     1       0.910  -9.509  26.981  1.00  0.00     0.016 A 
ATOM     30  C   UNL     1       0.834  -7.135  27.457  1.00  0.00     0.016 A 
ATOM     31  C   UNL     1       2.300  -9.490  27.115  1.00  0.00     0.047 A 
ATOM     32  C   UNL     1       2.229  -7.114  27.568  1.00  0.00     0.047 A 
ATOM     33  C   UNL     1       2.965  -8.294  27.399  1.00  0.00     0.115 A 
BRANCH  33  34
ATOM     34  O   UNL     1       4.354  -8.288  27.514  1.00  0.00    -0.508 OA
ATOM     35  H   UNL     1       4.817  -8.512  28.387  1.00  0.00     0.293 HD
ENDBRANCH  33  34
ENDBRANCH   8  28
BRANCH   9  36
ATOM     36  O   UNL     1      -1.576  -8.493  29.453  1.00  0.00    -0.502 OA
ATOM     37  H   UNL     1      -0.639  -8.838  29.623  1.00  0.00     0.293 HD
ENDBRANCH   9  36
TORSDOF 9
ENDMDL
MODEL 6
REMARK VINA RESULT:    -5.818      2.447      9.211
REMARK INTER + INTRA:          -8.519
REMARK INTER:                  -8.319
REMARK INTRA:                  -0.200
REMARK UNBOUND:                -0.661
REMARK SMILES C[C@H]1O[C@H](Oc2cc(O)c3c(=O)c(O)c(-c4ccc(O)cc4)oc3c2)[C@H](O)[C@H](O)[C@@H]1O
REMARK SMILES IDX 6 1 7 2 8 3 10 4 24 5 25 6 23 7 15 8 13 9 11 10 12 11 5 12
REMARK SMILES IDX 4 13 1 14 2 15 30 16 3 17 28 18 26 19 31 20 29 22 27 24 9 26
REMARK SMILES IDX 16 28 17 29 22 30 18 31 21 32 19 33 20 34 14 36
REMARK H PARENT 31 21 29 23 27 25 9 27 20 35 14 37
REMARK Flexibility Score: inf
ROOT
ATOM      1  C   UNL     1      -5.874  -8.677  23.143  1.00  0.00     0.130 A 
ATOM      2  C   UNL     1      -5.692  -9.435  21.966  1.00  0.00     0.093 A 
ATOM      3  C   UNL     1      -5.884  -8.869  20.694  1.00  0.00     0.134 A 
ATOM      4  C   UNL     1      -6.380  -7.539  20.586  1.00  0.00     0.111 A 
ATOM      5  C   UNL     1      -6.580  -6.788  21.772  1.00  0.00     0.146 A 
ATOM      6  C   UNL     1      -6.329  -7.361  23.028  1.00  0.00     0.094 A 
ATOM      7  O   UNL     1      -7.019  -5.533  21.719  1.00  0.00    -0.452 OA
ATOM      8  C   UNL     1      -7.298  -4.906  20.583  1.00  0.00     0.180 A 
ATOM      9  C   UNL     1      -7.175  -5.585  19.360  1.00  0.00     0.208 A 
ATOM     10  C   UNL     1      -6.732  -6.914  19.362  1.00  0.00     0.238 A 
ATOM     11  O   UNL     1      -6.692  -7.537  18.271  1.00  0.00    -0.285 OA
ENDROOT
BRANCH   1  12
ATOM     12  O   UNL     1      -5.616  -9.172  24.442  1.00  0.00    -0.462 OA
BRANCH  12  13
ATOM     13  C   UNL     1      -4.400  -9.059  25.196  1.00  0.00     0.339 C 
ATOM     14  C   UNL     1      -1.367  -9.343  25.107  1.00  0.00     0.042 C 
ATOM     15  C   UNL     1      -2.240  -8.072  25.181  1.00  0.00     0.151 C 
ATOM     16  C   UNL     1      -2.394  -7.536  26.622  1.00  0.00     0.174 C 
ATOM     17  O   UNL     1      -3.485  -8.219  24.510  1.00  0.00    -0.335 OA
ATOM     18  C   UNL     1      -3.408  -8.353  27.439  1.00  0.00     0.180 C 
ATOM     19  C   UNL     1      -4.699  -8.608  26.647  1.00  0.00     0.214 C 
BRANCH  16  20
ATOM     20  O   UNL     1      -2.796  -6.189  26.575  1.00  0.00    -0.388 OA
ATOM     21  H   UNL     1      -1.968  -5.638  26.562  1.00  0.00     0.211 HD
ENDBRANCH  16  20
BRANCH  18  22
ATOM     22  O   UNL     1      -3.732  -7.665  28.620  1.00  0.00    -0.387 OA
ATOM     23  H   UNL     1      -3.306  -6.768  28.591  1.00  0.00     0.211 HD
ENDBRANCH  18  22
BRANCH  19  24
ATOM     24  O   UNL     1      -5.502  -7.453  26.665  1.00  0.00    -0.384 OA
ATOM     25  H   UNL     1      -6.087  -7.471  25.866  1.00  0.00     0.211 HD
ENDBRANCH  19  24
ENDBRANCH  12  13
ENDBRANCH   1  12
BRANCH   3  26
ATOM     26  O   UNL     1      -5.546  -9.668  19.596  1.00  0.00    -0.507 OA
ATOM     27  H   UNL     1      -6.182  -9.926  18.855  1.00  0.00     0.293 HD
ENDBRANCH   3  26
BRANCH   8  28
ATOM     28  C   UNL     1      -7.783  -3.510  20.641  1.00  0.00     0.021 A 
ATOM     29  C   UNL     1      -7.371  -2.593  19.661  1.00  0.00     0.016 A 
ATOM     30  C   UNL     1      -8.671  -3.086  21.645  1.00  0.00     0.016 A 
ATOM     31  C   UNL     1      -7.805  -1.266  19.709  1.00  0.00     0.047 A 
ATOM     32  C   UNL     1      -9.121  -1.761  21.677  1.00  0.00     0.047 A 
ATOM     33  C   UNL     1      -8.686  -0.847  20.709  1.00  0.00     0.115 A 
BRANCH  33  34
ATOM     34  O   UNL     1      -9.122   0.477  20.734  1.00  0.00    -0.508 OA
ATOM     35  H   UNL     1      -9.408   0.927  21.595  1.00  0.00     0.293 HD
ENDBRANCH  33  34
ENDBRANCH   8  28
BRANCH   9  36
ATOM     36  O   UNL     1      -7.528  -4.948  18.168  1.00  0.00    -0.502 OA
ATOM     37  H   UNL     1      -8.158  -4.156  18.141  1.00  0.00     0.293 HD
ENDBRANCH   9  36
TORSDOF 9
ENDMDL
MODEL 7
REMARK VINA RESULT:    -5.771      2.268      9.262
REMARK INTER + INTRA:          -8.456
REMARK INTER:                  -8.058
REMARK INTRA:                  -0.399
REMARK UNBOUND:                -0.661
REMARK SMILES C[C@H]1O[C@H](Oc2cc(O)c3c(=O)c(O)c(-c4ccc(O)cc4)oc3c2)[C@H](O)[C@H](O)[C@@H]1O
REMARK SMILES IDX 6 1 7 2 8 3 10 4 24 5 25 6 23 7 15 8 13 9 11 10 12 11 5 12
REMARK SMILES IDX 4 13 1 14 2 15 30 16 3 17 28 18 26 19 31 20 29 22 27 24 9 26
REMARK SMILES IDX 16 28 17 29 22 30 18 31 21 32 19 33 20 34 14 36
REMARK H PARENT 31 21 29 23 27 25 9 27 20 35 14 37
REMARK Flexibility Score: inf
ROOT
ATOM      1  C   UNL     1      -4.998  -8.192  23.718  1.00  0.00     0.130 A 
ATOM      2  C   UNL     1      -4.924  -9.127  22.663  1.00  0.00     0.093 A 
ATOM      3  C   UNL     1      -5.320  -8.790  21.357  1.00  0.00     0.134 A 
ATOM      4  C   UNL     1      -5.914  -7.521  21.111  1.00  0.00     0.111 A 
ATOM      5  C   UNL     1      -6.005  -6.591  22.178  1.00  0.00     0.146 A 
ATOM      6  C   UNL     1      -5.551  -6.935  23.461  1.00  0.00     0.094 A 
ATOM      7  O   UNL     1      -6.530  -5.384  21.989  1.00  0.00    -0.452 OA
ATOM      8  C   UNL     1      -6.999  -4.968  20.819  1.00  0.00     0.180 A 
ATOM      9  C   UNL     1      -6.993  -5.835  19.714  1.00  0.00     0.208 A 
ATOM     10  C   UNL     1      -6.466  -7.125  19.865  1.00  0.00     0.238 A 
ATOM     11  O   UNL     1      -6.530  -7.919  18.893  1.00  0.00    -0.285 OA
ENDROOT
BRANCH   1  12
ATOM     12  O   UNL     1      -4.538  -8.452  25.029  1.00  0.00    -0.462 OA
BRANCH  12  13
ATOM     13  C   UNL     1      -3.355  -7.937  25.660  1.00  0.00     0.339 C 
ATOM     14  C   UNL     1      -2.266  -5.895  27.643  1.00  0.00     0.042 C 
ATOM     15  C   UNL     1      -2.396  -7.428  27.772  1.00  0.00     0.151 C 
ATOM     16  C   UNL     1      -1.082  -8.169  27.436  1.00  0.00     0.174 C 
ATOM     17  O   UNL     1      -3.519  -7.946  27.069  1.00  0.00    -0.335 OA
ATOM     18  C   UNL     1      -0.837  -8.257  25.922  1.00  0.00     0.180 C 
ATOM     19  C   UNL     1      -2.100  -8.699  25.168  1.00  0.00     0.214 C 
BRANCH  16  20
ATOM     20  O   UNL     1      -1.127  -9.463  27.987  1.00  0.00    -0.388 OA
ATOM     21  H   UNL     1      -1.163  -9.357  28.975  1.00  0.00     0.211 HD
ENDBRANCH  16  20
BRANCH  18  22
ATOM     22  O   UNL     1       0.191  -9.178  25.658  1.00  0.00    -0.387 OA
ATOM     23  H   UNL     1       0.666  -8.894  24.833  1.00  0.00     0.211 HD
ENDBRANCH  18  22
BRANCH  19  24
ATOM     24  O   UNL     1      -2.267 -10.089  25.296  1.00  0.00    -0.384 OA
ATOM     25  H   UNL     1      -1.968 -10.354  26.204  1.00  0.00     0.211 HD
ENDBRANCH  19  24
ENDBRANCH  12  13
ENDBRANCH   1  12
BRANCH   3  26
ATOM     26  O   UNL     1      -5.078  -9.746  20.364  1.00  0.00    -0.507 OA
ATOM     27  H   UNL     1      -5.470 -10.676  20.354  1.00  0.00     0.293 HD
ENDBRANCH   3  26
BRANCH   8  28
ATOM     28  C   UNL     1      -7.564  -3.605  20.722  1.00  0.00     0.021 A 
ATOM     29  C   UNL     1      -7.100  -2.733  19.725  1.00  0.00     0.016 A 
ATOM     30  C   UNL     1      -8.578  -3.170  21.594  1.00  0.00     0.016 A 
ATOM     31  C   UNL     1      -7.609  -1.435  19.628  1.00  0.00     0.047 A 
ATOM     32  C   UNL     1      -9.102  -1.877  21.480  1.00  0.00     0.047 A 
ATOM     33  C   UNL     1      -8.616  -1.006  20.497  1.00  0.00     0.115 A 
BRANCH  33  34
ATOM     34  O   UNL     1      -9.125   0.286  20.378  1.00  0.00    -0.508 OA
ATOM     35  H   UNL     1      -8.706   1.070  20.864  1.00  0.00     0.293 HD
ENDBRANCH  33  34
ENDBRANCH   8  28
BRANCH   9  36
ATOM     36  O   UNL     1      -7.543  -5.423  18.499  1.00  0.00    -0.502 OA
ATOM     37  H   UNL     1      -8.509  -5.598  18.251  1.00  0.00     0.293 HD
ENDBRANCH   9  36
TORSDOF 9
ENDMDL
MODEL 8
REMARK VINA RESULT:    -5.606      2.015      3.055
REMARK INTER + INTRA:          -8.232
REMARK INTER:                  -7.775
REMARK INTRA:                  -0.457
REMARK UNBOUND:                -0.661
REMARK SMILES C[C@H]1O[C@H](Oc2cc(O)c3c(=O)c(O)c(-c4ccc(O)cc4)oc3c2)[C@H](O)[C@H](O)[C@@H]1O
REMARK SMILES IDX 6 1 7 2 8 3 10 4 24 5 25 6 23 7 15 8 13 9 11 10 12 11 5 12
REMARK SMILES IDX 4 13 1 14 2 15 30 16 3 17 28 18 26 19 31 20 29 22 27 24 9 26
REMARK SMILES IDX 16 28 17 29 22 30 18 31 21 32 19 33 20 34 14 36
REMARK H PARENT 31 21 29 23 27 25 9 27 20 35 14 37
REMARK Flexibility Score: inf
ROOT
ATOM      1  C   UNL     1      -5.237  -5.398  21.305  1.00  0.00     0.130 A 
ATOM      2  C   UNL     1      -5.955  -6.597  21.100  1.00  0.00     0.093 A 
ATOM      3  C   UNL     1      -5.936  -7.631  22.052  1.00  0.00     0.134 A 
ATOM      4  C   UNL     1      -5.091  -7.521  23.191  1.00  0.00     0.111 A 
ATOM      5  C   UNL     1      -4.357  -6.322  23.382  1.00  0.00     0.146 A 
ATOM      6  C   UNL     1      -4.436  -5.283  22.443  1.00  0.00     0.094 A 
ATOM      7  O   UNL     1      -3.573  -6.165  24.445  1.00  0.00    -0.452 OA
ATOM      8  C   UNL     1      -3.420  -7.092  25.382  1.00  0.00     0.180 A 
ATOM      9  C   UNL     1      -4.071  -8.330  25.255  1.00  0.00     0.208 A 
ATOM     10  C   UNL     1      -4.896  -8.553  24.145  1.00  0.00     0.238 A 
ATOM     11  O   UNL     1      -5.418  -9.687  24.001  1.00  0.00    -0.285 OA
ENDROOT
BRANCH   1  12
ATOM     12  O   UNL     1      -5.286  -4.295  20.421  1.00  0.00    -0.462 OA
BRANCH  12  13
ATOM     13  C   UNL     1      -6.325  -3.969  19.485  1.00  0.00     0.339 C 
ATOM     14  C   UNL     1      -9.092  -4.728  18.456  1.00  0.00     0.042 C 
ATOM     15  C   UNL     1      -8.650  -3.519  19.308  1.00  0.00     0.151 C 
ATOM     16  C   UNL     1      -8.415  -2.247  18.462  1.00  0.00     0.174 C 
ATOM     17  O   UNL     1      -7.559  -3.821  20.169  1.00  0.00    -0.335 OA
ATOM     18  C   UNL     1      -7.072  -2.288  17.716  1.00  0.00     0.180 C 
ATOM     19  C   UNL     1      -5.926  -2.738  18.635  1.00  0.00     0.214 C 
BRANCH  16  20
ATOM     20  O   UNL     1      -8.459  -1.119  19.302  1.00  0.00    -0.388 OA
ATOM     21  H   UNL     1      -7.631  -0.596  19.130  1.00  0.00     0.211 HD
ENDBRANCH  16  20
BRANCH  18  22
ATOM     22  O   UNL     1      -6.770  -1.013  17.210  1.00  0.00    -0.387 OA
ATOM     23  H   UNL     1      -7.502  -0.391  17.462  1.00  0.00     0.211 HD
ENDBRANCH  18  22
BRANCH  19  24
ATOM     24  O   UNL     1      -5.524  -1.665  19.451  1.00  0.00    -0.384 OA
ATOM     25  H   UNL     1      -5.889  -0.829  19.065  1.00  0.00     0.211 HD
ENDBRANCH  19  24
ENDBRANCH  12  13
ENDBRANCH   1  12
BRANCH   3  26
ATOM     26  O   UNL     1      -6.788  -8.716  21.812  1.00  0.00    -0.507 OA
ATOM     27  H   UNL     1      -7.322  -8.851  20.966  1.00  0.00     0.293 HD
ENDBRANCH   3  26
BRANCH   8  28
ATOM     28  C   UNL     1      -2.520  -6.811  26.522  1.00  0.00     0.021 A 
ATOM     29  C   UNL     1      -2.886  -5.844  27.471  1.00  0.00     0.016 A 
ATOM     30  C   UNL     1      -1.313  -7.512  26.690  1.00  0.00     0.016 A 
ATOM     31  C   UNL     1      -2.042  -5.552  28.545  1.00  0.00     0.047 A 
ATOM     32  C   UNL     1      -0.479  -7.233  27.779  1.00  0.00     0.047 A 
ATOM     33  C   UNL     1      -0.842  -6.250  28.708  1.00  0.00     0.115 A 
BRANCH  33  34
ATOM     34  O   UNL     1      -0.017  -5.958  29.793  1.00  0.00    -0.508 OA
ATOM     35  H   UNL     1      -0.396  -5.748  30.709  1.00  0.00     0.293 HD
ENDBRANCH  33  34
ENDBRANCH   8  28
BRANCH   9  36
ATOM     36  O   UNL     1      -3.863  -9.330  26.207  1.00  0.00    -0.502 OA
ATOM     37  H   UNL     1      -3.232 -10.107  26.050  1.00  0.00     0.293 HD
ENDBRANCH   9  36
TORSDOF 9
ENDMDL
MODEL 9
REMARK VINA RESULT:    -5.453      2.090      3.583
REMARK INTER + INTRA:          -8.026
REMARK INTER:                  -7.413
REMARK INTRA:                  -0.613
REMARK UNBOUND:                -0.661
REMARK SMILES C[C@H]1O[C@H](Oc2cc(O)c3c(=O)c(O)c(-c4ccc(O)cc4)oc3c2)[C@H](O)[C@H](O)[C@@H]1O
REMARK SMILES IDX 6 1 7 2 8 3 10 4 24 5 25 6 23 7 15 8 13 9 11 10 12 11 5 12
REMARK SMILES IDX 4 13 1 14 2 15 30 16 3 17 28 18 26 19 31 20 29 22 27 24 9 26
REMARK SMILES IDX 16 28 17 29 22 30 18 31 21 32 19 33 20 34 14 36
REMARK H PARENT 31 21 29 23 27 25 9 27 20 35 14 37
REMARK Flexibility Score: inf
ROOT
ATOM      1  C   UNL     1      -3.785  -7.331  25.882  1.00  0.00     0.130 A 
ATOM      2  C   UNL     1      -4.158  -8.506  26.571  1.00  0.00     0.093 A 
ATOM      3  C   UNL     1      -3.359  -9.038  27.598  1.00  0.00     0.134 A 
ATOM      4  C   UNL     1      -2.093  -8.449  27.876  1.00  0.00     0.111 A 
ATOM      5  C   UNL     1      -1.714  -7.280  27.168  1.00  0.00     0.146 A 
ATOM      6  C   UNL     1      -2.557  -6.739  26.185  1.00  0.00     0.094 A 
ATOM      7  O   UNL     1      -0.552  -6.682  27.413  1.00  0.00    -0.452 OA
ATOM      8  C   UNL     1       0.320  -7.121  28.312  1.00  0.00     0.180 A 
ATOM      9  C   UNL     1       0.052  -8.298  29.030  1.00  0.00     0.208 A 
ATOM     10  C   UNL     1      -1.152  -8.977  28.798  1.00  0.00     0.238 A 
ATOM     11  O   UNL     1      -1.353 -10.067  29.391  1.00  0.00    -0.285 OA
ENDROOT
BRANCH   1  12
ATOM     12  O   UNL     1      -4.589  -6.710  24.900  1.00  0.00    -0.462 OA
BRANCH  12  13
ATOM     13  C   UNL     1      -4.369  -6.677  23.481  1.00  0.00     0.339 C 
ATOM     14  C   UNL     1      -3.695  -8.338  21.017  1.00  0.00     0.042 C 
ATOM     15  C   UNL     1      -5.029  -7.681  21.433  1.00  0.00     0.151 C 
ATOM     16  C   UNL     1      -5.259  -6.314  20.751  1.00  0.00     0.174 C 
ATOM     17  O   UNL     1      -5.202  -7.633  22.844  1.00  0.00    -0.335 OA
ATOM     18  C   UNL     1      -4.434  -5.195  21.405  1.00  0.00     0.180 C 
ATOM     19  C   UNL     1      -4.536  -5.237  22.937  1.00  0.00     0.214 C 
BRANCH  16  20
ATOM     20  O   UNL     1      -6.628  -5.993  20.808  1.00  0.00    -0.388 OA
ATOM     21  H   UNL     1      -6.836  -5.777  21.756  1.00  0.00     0.211 HD
ENDBRANCH  16  20
BRANCH  18  22
ATOM     22  O   UNL     1      -4.890  -3.943  20.958  1.00  0.00    -0.387 OA
ATOM     23  H   UNL     1      -4.102  -3.372  20.758  1.00  0.00     0.211 HD
ENDBRANCH  18  22
BRANCH  19  24
ATOM     24  O   UNL     1      -5.759  -4.676  23.347  1.00  0.00    -0.384 OA
ATOM     25  H   UNL     1      -6.492  -5.227  22.971  1.00  0.00     0.211 HD
ENDBRANCH  19  24
ENDBRANCH  12  13
ENDBRANCH   1  12
BRANCH   3  26
ATOM     26  O   UNL     1      -3.888 -10.124  28.303  1.00  0.00    -0.507 OA
ATOM     27  H   UNL     1      -3.752 -11.093  28.052  1.00  0.00     0.293 HD
ENDBRANCH   3  26
BRANCH   8  28
ATOM     28  C   UNL     1       1.585  -6.379  28.501  1.00  0.00     0.021 A 
ATOM     29  C   UNL     1       2.614  -6.514  27.556  1.00  0.00     0.016 A 
ATOM     30  C   UNL     1       1.771  -5.517  29.596  1.00  0.00     0.016 A 
ATOM     31  C   UNL     1       3.823  -5.835  27.725  1.00  0.00     0.047 A 
ATOM     32  C   UNL     1       2.975  -4.820  29.751  1.00  0.00     0.047 A 
ATOM     33  C   UNL     1       4.005  -4.980  28.816  1.00  0.00     0.115 A 
BRANCH  33  34
ATOM     34  O   UNL     1       5.211  -4.297  28.963  1.00  0.00    -0.508 OA
ATOM     35  H   UNL     1       5.355  -3.378  28.561  1.00  0.00     0.293 HD
ENDBRANCH  33  34
ENDBRANCH   8  28
BRANCH   9  36
ATOM     36  O   UNL     1       0.995  -8.798  29.931  1.00  0.00    -0.502 OA
ATOM     37  H   UNL     1       1.000  -9.765  30.232  1.00  0.00     0.293 HD
ENDBRANCH   9  36
TORSDOF 9
ENDMDL
