MODEL 1
REMARK VINA RESULT:    -0.934      0.000      0.000
REMARK INTER + INTRA:          -2.647
REMARK INTER:                  -1.590
REMARK INTRA:                  -1.057
REMARK UNBOUND:                -1.057
REMARK SMILES CCCCCCCCCCCCCC(=O)[O-]
REMARK SMILES IDX 8 1 9 2 10 3 11 4 12 5 13 6 14 7 15 8 16 9 7 10 6 11 5 12
REMARK SMILES IDX 4 13 3 14 2 15 1 16
REMARK H PARENT
REMARK Flexibility Score: inf
ROOT
ATOM      1  C   UNL     1      -5.841  34.497  24.302  1.00  0.00     0.000 C 
ENDROOT
BRANCH   1   2
ATOM      2  C   UNL     1      -5.001  34.434  23.013  1.00  0.00     0.000 C 
BRANCH   2   3
ATOM      3  C   UNL     1      -5.829  34.704  21.747  1.00  0.00     0.000 C 
BRANCH   3   4
ATOM      4  C   UNL     1      -5.781  36.177  21.312  1.00  0.00     0.000 C 
BRANCH   4   5
ATOM      5  C   UNL     1      -5.325  36.349  19.856  1.00  0.00     0.006 C 
BRANCH   5   6
ATOM      6  C   UNL     1      -4.349  35.241  19.452  1.00  0.00     0.053 C 
BRANCH   6   7
ATOM      7  C   UNL     1      -4.793  34.589  18.180  1.00  0.00     0.041 C 
ATOM      8  O   UNL     1      -4.311  34.958  17.077  1.00  0.00    -0.550 OA
ATOM      9  O   UNL     1      -5.776  33.608  18.208  1.00  0.00    -0.550 OA
ENDBRANCH   6   7
ENDBRANCH   5   6
ENDBRANCH   4   5
ENDBRANCH   3   4
ENDBRANCH   2   3
ENDBRANCH   1   2
BRANCH   1  10
ATOM     10  C   UNL     1      -6.124  35.937  24.780  1.00  0.00     0.000 C 
BRANCH  10  11
ATOM     11  C   UNL     1      -4.902  36.572  25.469  1.00  0.00    -0.000 C 
BRANCH  11  12
ATOM     12  C   UNL     1      -4.875  38.103  25.342  1.00  0.00    -0.000 C 
BRANCH  12  13
ATOM     13  C   UNL     1      -5.843  38.625  24.266  1.00  0.00    -0.000 C 
BRANCH  13  14
ATOM     14  C   UNL     1      -5.126  39.371  23.126  1.00  0.00    -0.000 C 
BRANCH  14  15
ATOM     15  C   UNL     1      -6.049  40.155  22.178  1.00  0.00    -0.003 C 
ATOM     16  C   UNL     1      -6.025  39.626  20.744  1.00  0.00     0.004 C 
ENDBRANCH  14  15
ENDBRANCH  13  14
ENDBRANCH  12  13
ENDBRANCH  11  12
ENDBRANCH  10  11
ENDBRANCH   1  10
TORSDOF 12
ENDMDL
MODEL 2
REMARK VINA RESULT:    -0.310      0.819      3.699
REMARK INTER + INTRA:          -1.584
REMARK INTER:                  -0.931
REMARK INTRA:                  -0.653
REMARK UNBOUND:                -1.057
REMARK SMILES CCCCCCCCCCCCCC(=O)[O-]
REMARK SMILES IDX 8 1 9 2 10 3 11 4 12 5 13 6 14 7 15 8 16 9 7 10 6 11 5 12
REMARK SMILES IDX 4 13 3 14 2 15 1 16
REMARK H PARENT
REMARK Flexibility Score: inf
ROOT
ATOM      1  C   UNL     1      -6.101  39.461  21.503  1.00  0.00     0.000 C 
ENDROOT
BRANCH   1   2
ATOM      2  C   UNL     1      -5.506  39.224  20.104  1.00  0.00     0.000 C 
BRANCH   2   3
ATOM      3  C   UNL     1      -5.570  37.751  19.670  1.00  0.00     0.000 C 
BRANCH   3   4
ATOM      4  C   UNL     1      -5.459  36.780  20.855  1.00  0.00     0.000 C 
BRANCH   4   5
ATOM      5  C   UNL     1      -5.723  35.321  20.453  1.00  0.00     0.006 C 
BRANCH   5   6
ATOM      6  C   UNL     1      -4.519  34.730  19.716  1.00  0.00     0.053 C 
BRANCH   6   7
ATOM      7  C   UNL     1      -4.851  34.488  18.276  1.00  0.00     0.041 C 
ATOM      8  O   UNL     1      -5.643  33.563  17.956  1.00  0.00    -0.550 OA
ATOM      9  O   UNL     1      -4.248  35.252  17.286  1.00  0.00    -0.550 OA
ENDBRANCH   6   7
ENDBRANCH   5   6
ENDBRANCH   4   5
ENDBRANCH   3   4
ENDBRANCH   2   3
ENDBRANCH   1   2
BRANCH   1  10
ATOM     10  C   UNL     1      -5.038  39.777  22.578  1.00  0.00     0.000 C 
BRANCH  10  11
ATOM     11  C   UNL     1      -5.465  39.294  23.976  1.00  0.00    -0.000 C 
BRANCH  11  12
ATOM     12  C   UNL     1      -6.124  37.907  23.952  1.00  0.00    -0.000 C 
BRANCH  12  13
ATOM     13  C   UNL     1      -5.307  36.850  24.715  1.00  0.00    -0.000 C 
BRANCH  13  14
ATOM     14  C   UNL     1      -6.125  35.589  25.050  1.00  0.00    -0.000 C 
BRANCH  14  15
ATOM     15  C   UNL     1      -6.119  34.501  23.962  1.00  0.00    -0.003 C 
ATOM     16  C   UNL     1      -4.760  34.341  23.282  1.00  0.00     0.004 C 
ENDBRANCH  14  15
ENDBRANCH  13  14
ENDBRANCH  12  13
ENDBRANCH  11  12
ENDBRANCH  10  11
ENDBRANCH   1  10
TORSDOF 12
ENDMDL
MODEL 3
REMARK VINA RESULT:    -0.259      1.947      3.179
REMARK INTER + INTRA:          -1.497
REMARK INTER:                  -0.682
REMARK INTRA:                  -0.815
REMARK UNBOUND:                -1.057
REMARK SMILES CCCCCCCCCCCCCC(=O)[O-]
REMARK SMILES IDX 8 1 9 2 10 3 11 4 12 5 13 6 14 7 15 8 16 9 7 10 6 11 5 12
REMARK SMILES IDX 4 13 3 14 2 15 1 16
REMARK H PARENT
REMARK Flexibility Score: inf
ROOT
ATOM      1  C   UNL     1      -4.552  35.262  21.001  1.00  0.00     0.000 C 
ENDROOT
BRANCH   1   2
ATOM      2  C   UNL     1      -5.554  35.693  19.915  1.00  0.00     0.000 C 
BRANCH   2   3
ATOM      3  C   UNL     1      -5.835  34.584  18.889  1.00  0.00     0.000 C 
BRANCH   3   4
ATOM      4  C   UNL     1      -4.636  34.314  17.967  1.00  0.00     0.000 C 
BRANCH   4   5
ATOM      5  C   UNL     1      -4.271  35.527  17.100  1.00  0.00     0.006 C 
BRANCH   5   6
ATOM      6  C   UNL     1      -3.135  35.187  16.132  1.00  0.00     0.053 C 
BRANCH   6   7
ATOM      7  C   UNL     1      -3.141  36.125  14.965  1.00  0.00     0.041 C 
ATOM      8  O   UNL     1      -2.135  36.206  14.212  1.00  0.00    -0.550 OA
ATOM      9  O   UNL     1      -4.238  36.947  14.740  1.00  0.00    -0.550 OA
ENDBRANCH   6   7
ENDBRANCH   5   6
ENDBRANCH   4   5
ENDBRANCH   3   4
ENDBRANCH   2   3
ENDBRANCH   1   2
BRANCH   1  10
ATOM     10  C   UNL     1      -5.222  34.622  22.236  1.00  0.00     0.000 C 
BRANCH  10  11
ATOM     11  C   UNL     1      -6.125  35.616  22.988  1.00  0.00    -0.000 C 
BRANCH  11  12
ATOM     12  C   UNL     1      -5.797  35.703  24.487  1.00  0.00    -0.000 C 
BRANCH  12  13
ATOM     13  C   UNL     1      -5.833  37.146  25.018  1.00  0.00    -0.000 C 
BRANCH  13  14
ATOM     14  C   UNL     1      -5.002  38.119  24.161  1.00  0.00    -0.000 C 
BRANCH  14  15
ATOM     15  C   UNL     1      -5.781  39.320  23.597  1.00  0.00    -0.003 C 
ATOM     16  C   UNL     1      -5.390  39.667  22.161  1.00  0.00     0.004 C 
ENDBRANCH  14  15
ENDBRANCH  13  14
ENDBRANCH  12  13
ENDBRANCH  11  12
ENDBRANCH  10  11
ENDBRANCH   1  10
TORSDOF 12
ENDMDL
MODEL 4
REMARK VINA RESULT:    -0.101      3.898      7.037
REMARK INTER + INTRA:          -1.228
REMARK INTER:                  -0.693
REMARK INTRA:                  -0.535
REMARK UNBOUND:                -1.057
REMARK SMILES CCCCCCCCCCCCCC(=O)[O-]
REMARK SMILES IDX 8 1 9 2 10 3 11 4 12 5 13 6 14 7 15 8 16 9 7 10 6 11 5 12
REMARK SMILES IDX 4 13 3 14 2 15 1 16
REMARK H PARENT
REMARK Flexibility Score: inf
ROOT
ATOM      1  C   UNL     1      -4.633  35.459  20.190  1.00  0.00     0.000 C 
ENDROOT
BRANCH   1   2
ATOM      2  C   UNL     1      -5.274  36.745  20.742  1.00  0.00     0.000 C 
BRANCH   2   3
ATOM      3  C   UNL     1      -6.125  36.496  21.998  1.00  0.00     0.000 C 
BRANCH   3   4
ATOM      4  C   UNL     1      -5.761  35.183  22.707  1.00  0.00     0.000 C 
BRANCH   4   5
ATOM      5  C   UNL     1      -5.770  35.315  24.237  1.00  0.00     0.006 C 
BRANCH   5   6
ATOM      6  C   UNL     1      -5.891  36.781  24.660  1.00  0.00     0.053 C 
BRANCH   6   7
ATOM      7  C   UNL     1      -4.914  37.096  25.749  1.00  0.00     0.041 C 
ATOM      8  O   UNL     1      -4.168  36.193  26.212  1.00  0.00    -0.550 OA
ATOM      9  O   UNL     1      -4.863  38.375  26.288  1.00  0.00    -0.550 OA
ENDBRANCH   6   7
ENDBRANCH   5   6
ENDBRANCH   4   5
ENDBRANCH   3   4
ENDBRANCH   2   3
ENDBRANCH   1   2
BRANCH   1  10
ATOM     10  C   UNL     1      -5.594  34.615  19.326  1.00  0.00     0.000 C 
BRANCH  10  11
ATOM     11  C   UNL     1      -4.969  34.225  17.974  1.00  0.00    -0.000 C 
BRANCH  11  12
ATOM     12  C   UNL     1      -4.188  35.377  17.324  1.00  0.00    -0.000 C 
BRANCH  12  13
ATOM     13  C   UNL     1      -3.513  34.965  16.005  1.00  0.00    -0.000 C 
BRANCH  13  14
ATOM     14  C   UNL     1      -2.683  36.100  15.377  1.00  0.00    -0.000 C 
BRANCH  14  15
ATOM     15  C   UNL     1      -3.207  36.619  14.027  1.00  0.00    -0.003 C 
ATOM     16  C   UNL     1      -4.158  37.807  14.170  1.00  0.00     0.004 C 
ENDBRANCH  14  15
ENDBRANCH  13  14
ENDBRANCH  12  13
ENDBRANCH  11  12
ENDBRANCH  10  11
ENDBRANCH   1  10
TORSDOF 12
ENDMDL
MODEL 5
REMARK VINA RESULT:     0.026      2.400      5.096
REMARK INTER + INTRA:          -1.013
REMARK INTER:                  -0.463
REMARK INTRA:                  -0.550
REMARK UNBOUND:                -1.057
REMARK SMILES CCCCCCCCCCCCCC(=O)[O-]
REMARK SMILES IDX 8 1 9 2 10 3 11 4 12 5 13 6 14 7 15 8 16 9 7 10 6 11 5 12
REMARK SMILES IDX 4 13 3 14 2 15 1 16
REMARK H PARENT
REMARK Flexibility Score: inf
ROOT
ATOM      1  C   UNL     1      -5.797  35.942  24.569  1.00  0.00     0.000 C 
ENDROOT
BRANCH   1   2
ATOM      2  C   UNL     1      -5.049  36.330  25.857  1.00  0.00     0.000 C 
BRANCH   2   3
ATOM      3  C   UNL     1      -4.440  37.740  25.791  1.00  0.00     0.000 C 
BRANCH   3   4
ATOM      4  C   UNL     1      -5.408  38.776  25.199  1.00  0.00     0.000 C 
BRANCH   4   5
ATOM      5  C   UNL     1      -5.041  39.175  23.762  1.00  0.00     0.006 C 
BRANCH   5   6
ATOM      6  C   UNL     1      -6.088  38.667  22.768  1.00  0.00     0.053 C 
BRANCH   6   7
ATOM      7  C   UNL     1      -5.927  39.344  21.443  1.00  0.00     0.041 C 
ATOM      8  O   UNL     1      -5.751  38.663  20.400  1.00  0.00    -0.550 OA
ATOM      9  O   UNL     1      -5.921  40.732  21.369  1.00  0.00    -0.550 OA
ENDBRANCH   6   7
ENDBRANCH   5   6
ENDBRANCH   4   5
ENDBRANCH   3   4
ENDBRANCH   2   3
ENDBRANCH   1   2
BRANCH   1  10
ATOM     10  C   UNL     1      -5.496  34.504  24.093  1.00  0.00     0.000 C 
BRANCH  10  11
ATOM     11  C   UNL     1      -6.125  34.203  22.721  1.00  0.00    -0.000 C 
BRANCH  11  12
ATOM     12  C   UNL     1      -6.015  35.383  21.743  1.00  0.00    -0.000 C 
BRANCH  12  13
ATOM     13  C   UNL     1      -4.834  35.234  20.768  1.00  0.00    -0.000 C 
BRANCH  13  14
ATOM     14  C   UNL     1      -5.222  35.537  19.309  1.00  0.00    -0.000 C 
BRANCH  14  15
ATOM     15  C   UNL     1      -4.807  34.463  18.288  1.00  0.00    -0.003 C 
ATOM     16  C   UNL     1      -3.878  34.999  17.198  1.00  0.00     0.004 C 
ENDBRANCH  14  15
ENDBRANCH  13  14
ENDBRANCH  12  13
ENDBRANCH  11  12
ENDBRANCH  10  11
ENDBRANCH   1  10
TORSDOF 12
ENDMDL
MODEL 6
REMARK VINA RESULT:     0.049      3.512      6.675
REMARK INTER + INTRA:          -0.973
REMARK INTER:                  -0.259
REMARK INTRA:                  -0.714
REMARK UNBOUND:                -1.057
REMARK SMILES CCCCCCCCCCCCCC(=O)[O-]
REMARK SMILES IDX 8 1 9 2 10 3 11 4 12 5 13 6 14 7 15 8 16 9 7 10 6 11 5 12
REMARK SMILES IDX 4 13 3 14 2 15 1 16
REMARK H PARENT
REMARK Flexibility Score: inf
ROOT
ATOM      1  C   UNL     1      -5.031  35.457  21.313  1.00  0.00     0.000 C 
ENDROOT
BRANCH   1   2
ATOM      2  C   UNL     1      -6.042  36.613  21.217  1.00  0.00     0.000 C 
BRANCH   2   3
ATOM      3  C   UNL     1      -5.443  37.878  20.581  1.00  0.00     0.000 C 
BRANCH   3   4
ATOM      4  C   UNL     1      -5.452  39.081  21.536  1.00  0.00     0.000 C 
BRANCH   4   5
ATOM      5  C   UNL     1      -6.125  38.766  22.880  1.00  0.00     0.006 C 
BRANCH   5   6
ATOM      6  C   UNL     1      -5.112  38.821  24.026  1.00  0.00     0.053 C 
BRANCH   6   7
ATOM      7  C   UNL     1      -5.338  37.691  24.981  1.00  0.00     0.041 C 
ATOM      8  O   UNL     1      -4.836  37.726  26.135  1.00  0.00    -0.550 OA
ATOM      9  O   UNL     1      -6.060  36.575  24.578  1.00  0.00    -0.550 OA
ENDBRANCH   6   7
ENDBRANCH   5   6
ENDBRANCH   4   5
ENDBRANCH   3   4
ENDBRANCH   2   3
ENDBRANCH   1   2
BRANCH   1  10
ATOM     10  C   UNL     1      -4.248  35.214  20.005  1.00  0.00     0.000 C 
BRANCH  10  11
ATOM     11  C   UNL     1      -5.170  34.786  18.848  1.00  0.00    -0.000 C 
BRANCH  11  12
ATOM     12  C   UNL     1      -4.394  34.428  17.571  1.00  0.00    -0.000 C 
BRANCH  12  13
ATOM     13  C   UNL     1      -3.963  35.670  16.772  1.00  0.00    -0.000 C 
BRANCH  13  14
ATOM     14  C   UNL     1      -3.076  35.325  15.562  1.00  0.00    -0.000 C 
BRANCH  14  15
ATOM     15  C   UNL     1      -2.840  36.482  14.576  1.00  0.00    -0.003 C 
ATOM     16  C   UNL     1      -4.118  37.249  14.235  1.00  0.00     0.004 C 
ENDBRANCH  14  15
ENDBRANCH  13  14
ENDBRANCH  12  13
ENDBRANCH  11  12
ENDBRANCH  10  11
ENDBRANCH   1  10
TORSDOF 12
ENDMDL
MODEL 7
REMARK VINA RESULT:     0.186      2.226      4.046
REMARK INTER + INTRA:          -0.739
REMARK INTER:                  -0.248
REMARK INTRA:                  -0.492
REMARK UNBOUND:                -1.057
REMARK SMILES CCCCCCCCCCCCCC(=O)[O-]
REMARK SMILES IDX 8 1 9 2 10 3 11 4 12 5 13 6 14 7 15 8 16 9 7 10 6 11 5 12
REMARK SMILES IDX 4 13 3 14 2 15 1 16
REMARK H PARENT
REMARK Flexibility Score: inf
ROOT
ATOM      1  C   UNL     1      -5.750  36.488  20.920  1.00  0.00     0.000 C 
ENDROOT
BRANCH   1   2
ATOM      2  C   UNL     1      -5.042  36.397  19.556  1.00  0.00     0.000 C 
BRANCH   2   3
ATOM      3  C   UNL     1      -4.422  35.015  19.297  1.00  0.00     0.000 C 
BRANCH   3   4
ATOM      4  C   UNL     1      -4.783  34.456  17.912  1.00  0.00     0.000 C 
BRANCH   4   5
ATOM      5  C   UNL     1      -4.563  35.477  16.786  1.00  0.00     0.006 C 
BRANCH   5   6
ATOM      6  C   UNL     1      -3.157  35.347  16.194  1.00  0.00     0.053 C 
BRANCH   6   7
ATOM      7  C   UNL     1      -3.057  36.104  14.907  1.00  0.00     0.041 C 
ATOM      8  O   UNL     1      -4.082  36.632  14.401  1.00  0.00    -0.550 OA
ATOM      9  O   UNL     1      -1.841  36.184  14.241  1.00  0.00    -0.550 OA
ENDBRANCH   6   7
ENDBRANCH   5   6
ENDBRANCH   4   5
ENDBRANCH   3   4
ENDBRANCH   2   3
ENDBRANCH   1   2
BRANCH   1  10
ATOM     10  C   UNL     1      -6.114  35.112  21.517  1.00  0.00     0.000 C 
BRANCH  10  11
ATOM     11  C   UNL     1      -5.249  34.763  22.742  1.00  0.00    -0.000 C 
BRANCH  11  12
ATOM     12  C   UNL     1      -5.951  35.070  24.074  1.00  0.00    -0.000 C 
BRANCH  12  13
ATOM     13  C   UNL     1      -6.125  36.579  24.317  1.00  0.00    -0.000 C 
BRANCH  13  14
ATOM     14  C   UNL     1      -5.691  37.010  25.730  1.00  0.00    -0.000 C 
BRANCH  14  15
ATOM     15  C   UNL     1      -4.405  37.854  25.787  1.00  0.00    -0.003 C 
ATOM     16  C   UNL     1      -3.331  37.248  26.691  1.00  0.00     0.004 C 
ENDBRANCH  14  15
ENDBRANCH  13  14
ENDBRANCH  12  13
ENDBRANCH  11  12
ENDBRANCH  10  11
ENDBRANCH   1  10
TORSDOF 12
ENDMDL
