MODEL 1
REMARK VINA RESULT:    -3.700      0.000      0.000
REMARK INTER + INTRA:         -11.931
REMARK INTER:                  -8.026
REMARK INTRA:                  -3.905
REMARK UNBOUND:                -3.905
REMARK SMILES CCCCCCCCCCCCCCCCCCCCCC(=O)[O-]
REMARK SMILES IDX 12 1 11 2 10 3 9 4 8 5 7 6 6 7 5 8 4 9 3 10 2 11 1 12 13 13
REMARK SMILES IDX 14 14 15 15 16 16 17 17 18 18 19 19 20 20 21 21 22 22 23 23
REMARK SMILES IDX 24 24
REMARK H PARENT
REMARK Flexibility Score: inf
ROOT
ATOM      1  C   UNL     1      11.946 -17.581 -24.048  1.00  0.00     0.000 C 
ENDROOT
BRANCH   1   2
ATOM      2  C   UNL     1      11.246 -18.658 -23.205  1.00  0.00     0.000 C 
BRANCH   2   3
ATOM      3  C   UNL     1       9.927 -18.161 -22.587  1.00  0.00     0.000 C 
BRANCH   3   4
ATOM      4  C   UNL     1       8.758 -19.127 -22.841  1.00  0.00    -0.000 C 
BRANCH   4   5
ATOM      5  C   UNL     1       8.973 -20.006 -24.086  1.00  0.00    -0.000 C 
BRANCH   5   6
ATOM      6  C   UNL     1       8.297 -19.430 -25.340  1.00  0.00    -0.000 C 
BRANCH   6   7
ATOM      7  C   UNL     1       8.985 -19.875 -26.640  1.00  0.00    -0.000 C 
BRANCH   7   8
ATOM      8  C   UNL     1      10.421 -20.346 -26.367  1.00  0.00    -0.000 C 
BRANCH   8   9
ATOM      9  C   UNL     1      11.434 -19.780 -27.375  1.00  0.00    -0.000 C 
BRANCH   9  10
ATOM     10  C   UNL     1      10.800 -19.484 -28.746  1.00  0.00    -0.000 C 
BRANCH  10  11
ATOM     11  C   UNL     1      11.006 -18.027 -29.188  1.00  0.00    -0.003 C 
ATOM     12  C   UNL     1       9.734 -17.390 -29.747  1.00  0.00     0.004 C 
ENDBRANCH  10  11
ENDBRANCH   9  10
ENDBRANCH   8   9
ENDBRANCH   7   8
ENDBRANCH   6   7
ENDBRANCH   5   6
ENDBRANCH   4   5
ENDBRANCH   3   4
ENDBRANCH   2   3
ENDBRANCH   1   2
BRANCH   1  13
ATOM     13  C   UNL     1      10.993 -16.457 -24.487  1.00  0.00     0.000 C 
BRANCH  13  14
ATOM     14  C   UNL     1      10.649 -16.579 -25.977  1.00  0.00     0.000 C 
BRANCH  14  15
ATOM     15  C   UNL     1       9.234 -16.053 -26.260  1.00  0.00     0.000 C 
BRANCH  15  16
ATOM     16  C   UNL     1       8.602 -15.372 -25.036  1.00  0.00     0.000 C 
BRANCH  16  17
ATOM     17  C   UNL     1       8.558 -13.840 -25.168  1.00  0.00     0.000 C 
BRANCH  17  18
ATOM     18  C   UNL     1       9.578 -13.137 -24.257  1.00  0.00     0.000 C 
BRANCH  18  19
ATOM     19  C   UNL     1       9.282 -13.354 -22.764  1.00  0.00     0.000 C 
BRANCH  19  20
ATOM     20  C   UNL     1      10.518 -13.808 -21.965  1.00  0.00     0.006 C 
BRANCH  20  21
ATOM     21  C   UNL     1      10.224 -14.903 -20.924  1.00  0.00     0.053 C 
BRANCH  21  22
ATOM     22  C   UNL     1      10.729 -14.555 -19.558  1.00  0.00     0.041 C 
ATOM     23  O   UNL     1      11.154 -15.457 -18.789  1.00  0.00    -0.550 OA
ATOM     24  O   UNL     1      10.762 -13.229 -19.145  1.00  0.00    -0.550 OA
ENDBRANCH  21  22
ENDBRANCH  20  21
ENDBRANCH  19  20
ENDBRANCH  18  19
ENDBRANCH  17  18
ENDBRANCH  16  17
ENDBRANCH  15  16
ENDBRANCH  14  15
ENDBRANCH  13  14
ENDBRANCH   1  13
TORSDOF 20
ENDMDL
MODEL 2
REMARK VINA RESULT:    -3.606      2.327      3.394
REMARK INTER + INTRA:         -11.728
REMARK INTER:                  -8.986
REMARK INTRA:                  -2.742
REMARK UNBOUND:                -3.905
REMARK SMILES CCCCCCCCCCCCCCCCCCCCCC(=O)[O-]
REMARK SMILES IDX 12 1 11 2 10 3 9 4 8 5 7 6 6 7 5 8 4 9 3 10 2 11 1 12 13 13
REMARK SMILES IDX 14 14 15 15 16 16 17 17 18 18 19 19 20 20 21 21 22 22 23 23
REMARK SMILES IDX 24 24
REMARK H PARENT
REMARK Flexibility Score: inf
ROOT
ATOM      1  C   UNL     1      10.571 -17.806 -22.468  1.00  0.00     0.000 C 
ENDROOT
BRANCH   1   2
ATOM      2  C   UNL     1      11.562 -18.300 -23.534  1.00  0.00     0.000 C 
BRANCH   2   3
ATOM      3  C   UNL     1      10.966 -19.400 -24.431  1.00  0.00     0.000 C 
BRANCH   3   4
ATOM      4  C   UNL     1      11.035 -19.043 -25.925  1.00  0.00    -0.000 C 
BRANCH   4   5
ATOM      5  C   UNL     1      11.450 -17.581 -26.168  1.00  0.00    -0.000 C 
BRANCH   5   6
ATOM      6  C   UNL     1      12.035 -17.359 -27.572  1.00  0.00    -0.000 C 
BRANCH   6   7
ATOM      7  C   UNL     1      12.391 -18.675 -28.280  1.00  0.00    -0.000 C 
BRANCH   7   8
ATOM      8  C   UNL     1      13.316 -18.420 -29.480  1.00  0.00    -0.000 C 
BRANCH   8   9
ATOM      9  C   UNL     1      14.020 -17.056 -29.408  1.00  0.00    -0.000 C 
BRANCH   9  10
ATOM     10  C   UNL     1      15.509 -17.140 -29.788  1.00  0.00    -0.000 C 
BRANCH  10  11
ATOM     11  C   UNL     1      16.422 -16.488 -28.738  1.00  0.00    -0.003 C 
ATOM     12  C   UNL     1      15.724 -16.276 -27.395  1.00  0.00     0.004 C 
ENDBRANCH  10  11
ENDBRANCH   9  10
ENDBRANCH   8   9
ENDBRANCH   7   8
ENDBRANCH   6   7
ENDBRANCH   5   6
ENDBRANCH   4   5
ENDBRANCH   3   4
ENDBRANCH   2   3
ENDBRANCH   1   2
BRANCH   1  13
ATOM     13  C   UNL     1       9.226 -18.547 -22.518  1.00  0.00     0.000 C 
BRANCH  13  14
ATOM     14  C   UNL     1       8.221 -17.801 -23.406  1.00  0.00     0.000 C 
BRANCH  14  15
ATOM     15  C   UNL     1       8.412 -16.281 -23.297  1.00  0.00     0.000 C 
BRANCH  15  16
ATOM     16  C   UNL     1       8.123 -15.553 -24.619  1.00  0.00     0.000 C 
BRANCH  16  17
ATOM     17  C   UNL     1       9.327 -14.735 -25.120  1.00  0.00     0.000 C 
BRANCH  17  18
ATOM     18  C   UNL     1      10.444 -14.623 -24.069  1.00  0.00     0.000 C 
BRANCH  18  19
ATOM     19  C   UNL     1      10.464 -13.251 -23.375  1.00  0.00     0.000 C 
BRANCH  19  20
ATOM     20  C   UNL     1      10.273 -13.345 -21.850  1.00  0.00     0.006 C 
BRANCH  20  21
ATOM     21  C   UNL     1      10.959 -14.564 -21.207  1.00  0.00     0.053 C 
BRANCH  21  22
ATOM     22  C   UNL     1      10.336 -14.959 -19.904  1.00  0.00     0.041 C 
ATOM     23  O   UNL     1       9.093 -15.139 -19.822  1.00  0.00    -0.550 OA
ATOM     24  O   UNL     1      11.134 -15.162 -18.785  1.00  0.00    -0.550 OA
ENDBRANCH  21  22
ENDBRANCH  20  21
ENDBRANCH  19  20
ENDBRANCH  18  19
ENDBRANCH  17  18
ENDBRANCH  16  17
ENDBRANCH  15  16
ENDBRANCH  14  15
ENDBRANCH  13  14
ENDBRANCH   1  13
TORSDOF 20
ENDMDL
MODEL 3
REMARK VINA RESULT:    -3.514      1.487      2.146
REMARK INTER + INTRA:         -11.527
REMARK INTER:                  -8.053
REMARK INTRA:                  -3.474
REMARK UNBOUND:                -3.905
REMARK SMILES CCCCCCCCCCCCCCCCCCCCCC(=O)[O-]
REMARK SMILES IDX 12 1 11 2 10 3 9 4 8 5 7 6 6 7 5 8 4 9 3 10 2 11 1 12 13 13
REMARK SMILES IDX 14 14 15 15 16 16 17 17 18 18 19 19 20 20 21 21 22 22 23 23
REMARK SMILES IDX 24 24
REMARK H PARENT
REMARK Flexibility Score: inf
ROOT
ATOM      1  C   UNL     1      10.677 -18.187 -24.023  1.00  0.00     0.000 C 
ENDROOT
BRANCH   1   2
ATOM      2  C   UNL     1      11.259 -19.544 -23.600  1.00  0.00     0.000 C 
BRANCH   2   3
ATOM      3  C   UNL     1      10.268 -20.703 -23.805  1.00  0.00     0.000 C 
BRANCH   3   4
ATOM      4  C   UNL     1       9.210 -20.391 -24.875  1.00  0.00    -0.000 C 
BRANCH   4   5
ATOM      5  C   UNL     1       9.611 -20.899 -26.272  1.00  0.00    -0.000 C 
BRANCH   5   6
ATOM      6  C   UNL     1       9.214 -19.924 -27.392  1.00  0.00    -0.000 C 
BRANCH   6   7
ATOM      7  C   UNL     1      10.425 -19.205 -28.006  1.00  0.00    -0.000 C 
BRANCH   7   8
ATOM      8  C   UNL     1      11.715 -20.003 -27.769  1.00  0.00    -0.000 C 
BRANCH   8   9
ATOM      9  C   UNL     1      12.925 -19.410 -28.508  1.00  0.00    -0.000 C 
BRANCH   9  10
ATOM     10  C   UNL     1      13.146 -17.922 -28.180  1.00  0.00    -0.000 C 
BRANCH  10  11
ATOM     11  C   UNL     1      13.849 -17.166 -29.319  1.00  0.00    -0.003 C 
ATOM     12  C   UNL     1      14.801 -16.083 -28.813  1.00  0.00     0.004 C 
ENDBRANCH  10  11
ENDBRANCH   9  10
ENDBRANCH   8   9
ENDBRANCH   7   8
ENDBRANCH   6   7
ENDBRANCH   5   6
ENDBRANCH   4   5
ENDBRANCH   3   4
ENDBRANCH   2   3
ENDBRANCH   1   2
BRANCH   1  13
ATOM     13  C   UNL     1      11.630 -17.386 -24.924  1.00  0.00     0.000 C 
BRANCH  13  14
ATOM     14  C   UNL     1      10.857 -16.377 -25.783  1.00  0.00     0.000 C 
BRANCH  14  15
ATOM     15  C   UNL     1       9.344 -16.498 -25.545  1.00  0.00     0.000 C 
BRANCH  15  16
ATOM     16  C   UNL     1       8.710 -15.172 -25.094  1.00  0.00     0.000 C 
BRANCH  16  17
ATOM     17  C   UNL     1       8.113 -15.253 -23.678  1.00  0.00     0.000 C 
BRANCH  17  18
ATOM     18  C   UNL     1       8.755 -14.248 -22.706  1.00  0.00     0.000 C 
BRANCH  18  19
ATOM     19  C   UNL     1      10.247 -14.020 -22.996  1.00  0.00     0.000 C 
BRANCH  19  20
ATOM     20  C   UNL     1      11.170 -14.900 -22.133  1.00  0.00     0.006 C 
BRANCH  20  21
ATOM     21  C   UNL     1      10.470 -15.540 -20.921  1.00  0.00     0.053 C 
BRANCH  21  22
ATOM     22  C   UNL     1      10.810 -14.862 -19.630  1.00  0.00     0.041 C 
ATOM     23  O   UNL     1      10.613 -13.626 -19.489  1.00  0.00    -0.550 OA
ATOM     24  O   UNL     1      11.315 -15.602 -18.567  1.00  0.00    -0.550 OA
ENDBRANCH  21  22
ENDBRANCH  20  21
ENDBRANCH  19  20
ENDBRANCH  18  19
ENDBRANCH  17  18
ENDBRANCH  16  17
ENDBRANCH  15  16
ENDBRANCH  14  15
ENDBRANCH  13  14
ENDBRANCH   1  13
TORSDOF 20
ENDMDL
MODEL 4
REMARK VINA RESULT:    -3.513      3.679      7.342
REMARK INTER + INTRA:         -11.526
REMARK INTER:                  -8.668
REMARK INTRA:                  -2.858
REMARK UNBOUND:                -3.905
REMARK SMILES CCCCCCCCCCCCCCCCCCCCCC(=O)[O-]
REMARK SMILES IDX 12 1 11 2 10 3 9 4 8 5 7 6 6 7 5 8 4 9 3 10 2 11 1 12 13 13
REMARK SMILES IDX 14 14 15 15 16 16 17 17 18 18 19 19 20 20 21 21 22 22 23 23
REMARK SMILES IDX 24 24
REMARK H PARENT
REMARK Flexibility Score: inf
ROOT
ATOM      1  C   UNL     1      10.390 -17.677 -22.627  1.00  0.00     0.000 C 
ENDROOT
BRANCH   1   2
ATOM      2  C   UNL     1      11.435 -17.228 -23.660  1.00  0.00     0.000 C 
BRANCH   2   3
ATOM      3  C   UNL     1      10.947 -16.051 -24.523  1.00  0.00     0.000 C 
BRANCH   3   4
ATOM      4  C   UNL     1       9.540 -16.285 -25.097  1.00  0.00    -0.000 C 
BRANCH   4   5
ATOM      5  C   UNL     1       8.856 -14.981 -25.543  1.00  0.00    -0.000 C 
BRANCH   5   6
ATOM      6  C   UNL     1       8.547 -14.043 -24.365  1.00  0.00    -0.000 C 
BRANCH   6   7
ATOM      7  C   UNL     1       9.004 -12.599 -24.623  1.00  0.00    -0.000 C 
BRANCH   7   8
ATOM      8  C   UNL     1       9.786 -12.048 -23.421  1.00  0.00    -0.000 C 
BRANCH   8   9
ATOM      9  C   UNL     1      10.491 -13.151 -22.616  1.00  0.00    -0.000 C 
BRANCH   9  10
ATOM     10  C   UNL     1      10.115 -13.123 -21.123  1.00  0.00    -0.000 C 
BRANCH  10  11
ATOM     11  C   UNL     1       9.800 -14.522 -20.570  1.00  0.00    -0.003 C 
ATOM     12  C   UNL     1      10.924 -15.084 -19.701  1.00  0.00     0.004 C 
ENDBRANCH  10  11
ENDBRANCH   9  10
ENDBRANCH   8   9
ENDBRANCH   7   8
ENDBRANCH   6   7
ENDBRANCH   5   6
ENDBRANCH   4   5
ENDBRANCH   3   4
ENDBRANCH   2   3
ENDBRANCH   1   2
BRANCH   1  13
ATOM     13  C   UNL     1       9.880 -19.105 -22.879  1.00  0.00     0.000 C 
BRANCH  13  14
ATOM     14  C   UNL     1      10.913 -19.926 -23.663  1.00  0.00     0.000 C 
BRANCH  14  15
ATOM     15  C   UNL     1      10.247 -20.685 -24.822  1.00  0.00     0.000 C 
BRANCH  15  16
ATOM     16  C   UNL     1      10.057 -19.808 -26.069  1.00  0.00     0.000 C 
BRANCH  16  17
ATOM     17  C   UNL     1      11.390 -19.451 -26.751  1.00  0.00     0.000 C 
BRANCH  17  18
ATOM     18  C   UNL     1      11.240 -18.334 -27.797  1.00  0.00     0.000 C 
BRANCH  18  19
ATOM     19  C   UNL     1      12.253 -17.196 -27.592  1.00  0.00     0.000 C 
BRANCH  19  20
ATOM     20  C   UNL     1      13.674 -17.564 -28.058  1.00  0.00     0.006 C 
BRANCH  20  21
ATOM     21  C   UNL     1      14.676 -16.397 -27.994  1.00  0.00     0.053 C 
BRANCH  21  22
ATOM     22  C   UNL     1      16.094 -16.839 -28.186  1.00  0.00     0.041 C 
ATOM     23  O   UNL     1      16.807 -16.317 -29.083  1.00  0.00    -0.550 OA
ATOM     24  O   UNL     1      16.641 -17.806 -27.351  1.00  0.00    -0.550 OA
ENDBRANCH  21  22
ENDBRANCH  20  21
ENDBRANCH  19  20
ENDBRANCH  18  19
ENDBRANCH  17  18
ENDBRANCH  16  17
ENDBRANCH  15  16
ENDBRANCH  14  15
ENDBRANCH  13  14
ENDBRANCH   1  13
TORSDOF 20
ENDMDL
MODEL 5
REMARK VINA RESULT:    -3.440     18.190     20.157
REMARK INTER + INTRA:         -11.368
REMARK INTER:                  -7.427
REMARK INTRA:                  -3.941
REMARK UNBOUND:                -3.905
REMARK SMILES CCCCCCCCCCCCCCCCCCCCCC(=O)[O-]
REMARK SMILES IDX 12 1 11 2 10 3 9 4 8 5 7 6 6 7 5 8 4 9 3 10 2 11 1 12 13 13
REMARK SMILES IDX 14 14 15 15 16 16 17 17 18 18 19 19 20 20 21 21 22 22 23 23
REMARK SMILES IDX 24 24
REMARK H PARENT
REMARK Flexibility Score: inf
ROOT
ATOM      1  C   UNL     1      24.372  -1.959 -27.363  1.00  0.00     0.000 C 
ENDROOT
BRANCH   1   2
ATOM      2  C   UNL     1      23.718  -1.228 -28.545  1.00  0.00     0.000 C 
BRANCH   2   3
ATOM      3  C   UNL     1      22.821  -2.150 -29.388  1.00  0.00     0.000 C 
BRANCH   3   4
ATOM      4  C   UNL     1      22.398  -1.506 -30.719  1.00  0.00    -0.000 C 
BRANCH   4   5
ATOM      5  C   UNL     1      23.478  -1.629 -31.808  1.00  0.00    -0.000 C 
BRANCH   5   6
ATOM      6  C   UNL     1      22.907  -1.479 -33.227  1.00  0.00    -0.000 C 
BRANCH   6   7
ATOM      7  C   UNL     1      22.727  -2.829 -33.938  1.00  0.00    -0.000 C 
BRANCH   7   8
ATOM      8  C   UNL     1      23.724  -3.868 -33.403  1.00  0.00    -0.000 C 
BRANCH   8   9
ATOM      9  C   UNL     1      23.244  -5.313 -33.610  1.00  0.00    -0.000 C 
BRANCH   9  10
ATOM     10  C   UNL     1      21.717  -5.453 -33.476  1.00  0.00    -0.000 C 
BRANCH  10  11
ATOM     11  C   UNL     1      21.282  -5.809 -32.046  1.00  0.00    -0.003 C 
ATOM     12  C   UNL     1      20.480  -4.694 -31.375  1.00  0.00     0.004 C 
ENDBRANCH  10  11
ENDBRANCH   9  10
ENDBRANCH   8   9
ENDBRANCH   7   8
ENDBRANCH   6   7
ENDBRANCH   5   6
ENDBRANCH   4   5
ENDBRANCH   3   4
ENDBRANCH   2   3
ENDBRANCH   1   2
BRANCH   1  13
ATOM     13  C   UNL     1      25.659  -2.699 -27.759  1.00  0.00     0.000 C 
BRANCH  13  14
ATOM     14  C   UNL     1      26.477  -1.878 -28.765  1.00  0.00     0.000 C 
BRANCH  14  15
ATOM     15  C   UNL     1      27.250  -2.795 -29.724  1.00  0.00     0.000 C 
BRANCH  15  16
ATOM     16  C   UNL     1      26.321  -3.631 -30.619  1.00  0.00     0.000 C 
BRANCH  16  17
ATOM     17  C   UNL     1      26.510  -5.144 -30.418  1.00  0.00     0.000 C 
BRANCH  17  18
ATOM     18  C   UNL     1      25.199  -5.932 -30.584  1.00  0.00     0.000 C 
BRANCH  18  19
ATOM     19  C   UNL     1      24.031  -5.302 -29.808  1.00  0.00     0.000 C 
BRANCH  19  20
ATOM     20  C   UNL     1      23.366  -6.280 -28.822  1.00  0.00     0.006 C 
BRANCH  20  21
ATOM     21  C   UNL     1      23.240  -5.735 -27.388  1.00  0.00     0.053 C 
BRANCH  21  22
ATOM     22  C   UNL     1      23.397  -6.800 -26.347  1.00  0.00     0.041 C 
ATOM     23  O   UNL     1      23.195  -8.009 -26.638  1.00  0.00    -0.550 OA
ATOM     24  O   UNL     1      23.801  -6.462 -25.061  1.00  0.00    -0.550 OA
ENDBRANCH  21  22
ENDBRANCH  20  21
ENDBRANCH  19  20
ENDBRANCH  18  19
ENDBRANCH  17  18
ENDBRANCH  16  17
ENDBRANCH  15  16
ENDBRANCH  14  15
ENDBRANCH  13  14
ENDBRANCH   1  13
TORSDOF 20
ENDMDL
MODEL 6
REMARK VINA RESULT:    -3.383      3.237      5.283
REMARK INTER + INTRA:         -11.243
REMARK INTER:                  -9.051
REMARK INTRA:                  -2.193
REMARK UNBOUND:                -3.905
REMARK SMILES CCCCCCCCCCCCCCCCCCCCCC(=O)[O-]
REMARK SMILES IDX 12 1 11 2 10 3 9 4 8 5 7 6 6 7 5 8 4 9 3 10 2 11 1 12 13 13
REMARK SMILES IDX 14 14 15 15 16 16 17 17 18 18 19 19 20 20 21 21 22 22 23 23
REMARK SMILES IDX 24 24
REMARK H PARENT
REMARK Flexibility Score: inf
ROOT
ATOM      1  C   UNL     1       8.566 -14.096 -24.501  1.00  0.00     0.000 C 
ENDROOT
BRANCH   1   2
ATOM      2  C   UNL     1       8.322 -14.787 -25.852  1.00  0.00     0.000 C 
BRANCH   2   3
ATOM      3  C   UNL     1       8.620 -16.296 -25.808  1.00  0.00     0.000 C 
BRANCH   3   4
ATOM      4  C   UNL     1       9.564 -16.743 -26.935  1.00  0.00    -0.000 C 
BRANCH   4   5
ATOM      5  C   UNL     1      11.028 -16.858 -26.474  1.00  0.00    -0.000 C 
BRANCH   5   6
ATOM      6  C   UNL     1      11.770 -18.025 -27.146  1.00  0.00    -0.000 C 
BRANCH   6   7
ATOM      7  C   UNL     1      12.691 -17.562 -28.285  1.00  0.00    -0.000 C 
BRANCH   7   8
ATOM      8  C   UNL     1      13.943 -16.866 -27.731  1.00  0.00    -0.000 C 
BRANCH   8   9
ATOM      9  C   UNL     1      14.797 -16.215 -28.830  1.00  0.00    -0.000 C 
BRANCH   9  10
ATOM     10  C   UNL     1      16.306 -16.393 -28.588  1.00  0.00    -0.000 C 
BRANCH  10  11
ATOM     11  C   UNL     1      16.728 -17.871 -28.564  1.00  0.00    -0.003 C 
ATOM     12  C   UNL     1      18.090 -18.089 -27.906  1.00  0.00     0.004 C 
ENDBRANCH  10  11
ENDBRANCH   9  10
ENDBRANCH   8   9
ENDBRANCH   7   8
ENDBRANCH   6   7
ENDBRANCH   5   6
ENDBRANCH   4   5
ENDBRANCH   3   4
ENDBRANCH   2   3
ENDBRANCH   1   2
BRANCH   1  13
ATOM     13  C   UNL     1       8.644 -12.567 -24.621  1.00  0.00     0.000 C 
BRANCH  13  14
ATOM     14  C   UNL     1       9.800 -12.008 -23.779  1.00  0.00     0.000 C 
BRANCH  14  15
ATOM     15  C   UNL     1      10.390 -13.093 -22.867  1.00  0.00     0.000 C 
BRANCH  15  16
ATOM     16  C   UNL     1      10.177 -12.790 -21.375  1.00  0.00     0.000 C 
BRANCH  16  17
ATOM     17  C   UNL     1      10.252 -14.052 -20.498  1.00  0.00     0.000 C 
BRANCH  17  18
ATOM     18  C   UNL     1       9.524 -15.253 -21.125  1.00  0.00     0.000 C 
BRANCH  18  19
ATOM     19  C   UNL     1      10.463 -16.443 -21.379  1.00  0.00     0.000 C 
BRANCH  19  20
ATOM     20  C   UNL     1      10.461 -16.909 -22.847  1.00  0.00     0.006 C 
BRANCH  20  21
ATOM     21  C   UNL     1      10.135 -18.402 -23.030  1.00  0.00     0.053 C 
BRANCH  21  22
ATOM     22  C   UNL     1      11.306 -19.196 -23.522  1.00  0.00     0.041 C 
ATOM     23  O   UNL     1      12.447 -18.669 -23.590  1.00  0.00    -0.550 OA
ATOM     24  O   UNL     1      11.143 -20.530 -23.874  1.00  0.00    -0.550 OA
ENDBRANCH  21  22
ENDBRANCH  20  21
ENDBRANCH  19  20
ENDBRANCH  18  19
ENDBRANCH  17  18
ENDBRANCH  16  17
ENDBRANCH  15  16
ENDBRANCH  14  15
ENDBRANCH  13  14
ENDBRANCH   1  13
TORSDOF 20
ENDMDL
MODEL 7
REMARK VINA RESULT:    -3.343      2.283      3.604
REMARK INTER + INTRA:         -11.157
REMARK INTER:                  -7.643
REMARK INTRA:                  -3.515
REMARK UNBOUND:                -3.905
REMARK SMILES CCCCCCCCCCCCCCCCCCCCCC(=O)[O-]
REMARK SMILES IDX 12 1 11 2 10 3 9 4 8 5 7 6 6 7 5 8 4 9 3 10 2 11 1 12 13 13
REMARK SMILES IDX 14 14 15 15 16 16 17 17 18 18 19 19 20 20 21 21 22 22 23 23
REMARK SMILES IDX 24 24
REMARK H PARENT
REMARK Flexibility Score: inf
ROOT
ATOM      1  C   UNL     1       9.616 -15.846 -25.537  1.00  0.00     0.000 C 
ENDROOT
BRANCH   1   2
ATOM      2  C   UNL     1       8.432 -16.788 -25.803  1.00  0.00     0.000 C 
BRANCH   2   3
ATOM      3  C   UNL     1       8.113 -17.693 -24.600  1.00  0.00     0.000 C 
BRANCH   3   4
ATOM      4  C   UNL     1       8.131 -19.186 -24.964  1.00  0.00    -0.000 C 
BRANCH   4   5
ATOM      5  C   UNL     1       8.964 -20.028 -23.981  1.00  0.00    -0.000 C 
BRANCH   5   6
ATOM      6  C   UNL     1      10.353 -20.381 -24.535  1.00  0.00    -0.000 C 
BRANCH   6   7
ATOM      7  C   UNL     1      10.359 -20.536 -26.064  1.00  0.00    -0.000 C 
BRANCH   7   8
ATOM      8  C   UNL     1      11.307 -19.519 -26.715  1.00  0.00    -0.000 C 
BRANCH   8   9
ATOM      9  C   UNL     1      10.917 -19.184 -28.163  1.00  0.00    -0.000 C 
BRANCH   9  10
ATOM     10  C   UNL     1      11.261 -17.734 -28.548  1.00  0.00    -0.000 C 
BRANCH  10  11
ATOM     11  C   UNL     1      12.695 -17.346 -28.156  1.00  0.00    -0.003 C 
ATOM     12  C   UNL     1      13.752 -18.010 -29.038  1.00  0.00     0.004 C 
ENDBRANCH  10  11
ENDBRANCH   9  10
ENDBRANCH   8   9
ENDBRANCH   7   8
ENDBRANCH   6   7
ENDBRANCH   5   6
ENDBRANCH   4   5
ENDBRANCH   3   4
ENDBRANCH   2   3
ENDBRANCH   1   2
BRANCH   1  13
ATOM     13  C   UNL     1      10.878 -16.591 -25.076  1.00  0.00     0.000 C 
BRANCH  13  14
ATOM     14  C   UNL     1      11.302 -16.137 -23.673  1.00  0.00     0.000 C 
BRANCH  14  15
ATOM     15  C   UNL     1      11.142 -17.276 -22.654  1.00  0.00     0.000 C 
BRANCH  15  16
ATOM     16  C   UNL     1      10.230 -16.892 -21.478  1.00  0.00     0.000 C 
BRANCH  16  17
ATOM     17  C   UNL     1       9.509 -15.551 -21.702  1.00  0.00     0.000 C 
BRANCH  17  18
ATOM     18  C   UNL     1       9.922 -14.479 -20.679  1.00  0.00     0.000 C 
BRANCH  18  19
ATOM     19  C   UNL     1      10.017 -13.076 -21.303  1.00  0.00     0.000 C 
BRANCH  19  20
ATOM     20  C   UNL     1       9.517 -13.029 -22.758  1.00  0.00     0.006 C 
BRANCH  20  21
ATOM     21  C   UNL     1      10.402 -12.190 -23.697  1.00  0.00     0.053 C 
BRANCH  21  22
ATOM     22  C   UNL     1       9.631 -11.143 -24.440  1.00  0.00     0.041 C 
ATOM     23  O   UNL     1      10.153 -10.539 -25.414  1.00  0.00    -0.550 OA
ATOM     24  O   UNL     1       8.319 -10.858 -24.079  1.00  0.00    -0.550 OA
ENDBRANCH  21  22
ENDBRANCH  20  21
ENDBRANCH  19  20
ENDBRANCH  18  19
ENDBRANCH  17  18
ENDBRANCH  16  17
ENDBRANCH  15  16
ENDBRANCH  14  15
ENDBRANCH  13  14
ENDBRANCH   1  13
TORSDOF 20
ENDMDL
MODEL 8
REMARK VINA RESULT:    -3.336      4.073      7.024
REMARK INTER + INTRA:         -11.141
REMARK INTER:                  -8.134
REMARK INTRA:                  -3.008
REMARK UNBOUND:                -3.905
REMARK SMILES CCCCCCCCCCCCCCCCCCCCCC(=O)[O-]
REMARK SMILES IDX 12 1 11 2 10 3 9 4 8 5 7 6 6 7 5 8 4 9 3 10 2 11 1 12 13 13
REMARK SMILES IDX 14 14 15 15 16 16 17 17 18 18 19 19 20 20 21 21 22 22 23 23
REMARK SMILES IDX 24 24
REMARK H PARENT
REMARK Flexibility Score: inf
ROOT
ATOM      1  C   UNL     1      11.523 -17.391 -25.585  1.00  0.00     0.000 C 
ENDROOT
BRANCH   1   2
ATOM      2  C   UNL     1      11.020 -18.753 -25.082  1.00  0.00     0.000 C 
BRANCH   2   3
ATOM      3  C   UNL     1      11.345 -18.992 -23.597  1.00  0.00     0.000 C 
BRANCH   3   4
ATOM      4  C   UNL     1      11.534 -17.680 -22.817  1.00  0.00    -0.000 C 
BRANCH   4   5
ATOM      5  C   UNL     1      10.404 -17.424 -21.803  1.00  0.00    -0.000 C 
BRANCH   5   6
ATOM      6  C   UNL     1       9.772 -16.032 -21.963  1.00  0.00    -0.000 C 
BRANCH   6   7
ATOM      7  C   UNL     1       8.879 -15.928 -23.210  1.00  0.00    -0.000 C 
BRANCH   7   8
ATOM      8  C   UNL     1       9.253 -14.698 -24.051  1.00  0.00    -0.000 C 
BRANCH   8   9
ATOM      9  C   UNL     1      10.502 -13.975 -23.523  1.00  0.00    -0.000 C 
BRANCH   9  10
ATOM     10  C   UNL     1      10.200 -12.539 -23.058  1.00  0.00    -0.000 C 
BRANCH  10  11
ATOM     11  C   UNL     1       9.348 -11.759 -24.073  1.00  0.00    -0.003 C 
ATOM     12  C   UNL     1       9.896 -10.361 -24.358  1.00  0.00     0.004 C 
ENDBRANCH  10  11
ENDBRANCH   9  10
ENDBRANCH   8   9
ENDBRANCH   7   8
ENDBRANCH   6   7
ENDBRANCH   5   6
ENDBRANCH   4   5
ENDBRANCH   3   4
ENDBRANCH   2   3
ENDBRANCH   1   2
BRANCH   1  13
ATOM     13  C   UNL     1      10.627 -16.795 -26.682  1.00  0.00     0.000 C 
BRANCH  13  14
ATOM     14  C   UNL     1       9.718 -17.870 -27.294  1.00  0.00     0.000 C 
BRANCH  14  15
ATOM     15  C   UNL     1       9.629 -17.712 -28.819  1.00  0.00     0.000 C 
BRANCH  15  16
ATOM     16  C   UNL     1      11.010 -17.712 -29.494  1.00  0.00     0.000 C 
BRANCH  16  17
ATOM     17  C   UNL     1      11.795 -19.010 -29.235  1.00  0.00     0.000 C 
BRANCH  17  18
ATOM     18  C   UNL     1      13.186 -18.751 -28.633  1.00  0.00     0.000 C 
BRANCH  18  19
ATOM     19  C   UNL     1      13.740 -17.366 -29.007  1.00  0.00     0.000 C 
BRANCH  19  20
ATOM     20  C   UNL     1      14.366 -16.625 -27.811  1.00  0.00     0.006 C 
BRANCH  20  21
ATOM     21  C   UNL     1      15.788 -16.098 -28.075  1.00  0.00     0.053 C 
BRANCH  21  22
ATOM     22  C   UNL     1      16.794 -17.197 -28.230  1.00  0.00     0.041 C 
ATOM     23  O   UNL     1      16.919 -18.075 -27.337  1.00  0.00    -0.550 OA
ATOM     24  O   UNL     1      17.571 -17.271 -29.379  1.00  0.00    -0.550 OA
ENDBRANCH  21  22
ENDBRANCH  20  21
ENDBRANCH  19  20
ENDBRANCH  18  19
ENDBRANCH  17  18
ENDBRANCH  16  17
ENDBRANCH  15  16
ENDBRANCH  14  15
ENDBRANCH  13  14
ENDBRANCH   1  13
TORSDOF 20
ENDMDL
MODEL 9
REMARK VINA RESULT:    -3.328      3.158      5.658
REMARK INTER + INTRA:         -11.125
REMARK INTER:                  -8.007
REMARK INTRA:                  -3.118
REMARK UNBOUND:                -3.905
REMARK SMILES CCCCCCCCCCCCCCCCCCCCCC(=O)[O-]
REMARK SMILES IDX 12 1 11 2 10 3 9 4 8 5 7 6 6 7 5 8 4 9 3 10 2 11 1 12 13 13
REMARK SMILES IDX 14 14 15 15 16 16 17 17 18 18 19 19 20 20 21 21 22 22 23 23
REMARK SMILES IDX 24 24
REMARK H PARENT
REMARK Flexibility Score: inf
ROOT
ATOM      1  C   UNL     1      10.201 -13.162 -23.899  1.00  0.00     0.000 C 
ENDROOT
BRANCH   1   2
ATOM      2  C   UNL     1       8.943 -12.926 -24.748  1.00  0.00     0.000 C 
BRANCH   2   3
ATOM      3  C   UNL     1       8.484 -14.193 -25.491  1.00  0.00     0.000 C 
BRANCH   3   4
ATOM      4  C   UNL     1       8.524 -15.445 -24.600  1.00  0.00    -0.000 C 
BRANCH   4   5
ATOM      5  C   UNL     1       9.358 -16.584 -25.214  1.00  0.00    -0.000 C 
BRANCH   5   6
ATOM      6  C   UNL     1      10.852 -16.235 -25.313  1.00  0.00    -0.000 C 
BRANCH   6   7
ATOM      7  C   UNL     1      11.633 -17.222 -26.195  1.00  0.00    -0.000 C 
BRANCH   7   8
ATOM      8  C   UNL     1      11.002 -17.328 -27.592  1.00  0.00    -0.000 C 
BRANCH   8   9
ATOM      9  C   UNL     1      12.041 -17.577 -28.696  1.00  0.00    -0.000 C 
BRANCH   9  10
ATOM     10  C   UNL     1      13.478 -17.646 -28.149  1.00  0.00    -0.000 C 
BRANCH  10  11
ATOM     11  C   UNL     1      14.358 -16.494 -28.659  1.00  0.00    -0.003 C 
ATOM     12  C   UNL     1      15.851 -16.763 -28.478  1.00  0.00     0.004 C 
ENDBRANCH  10  11
ENDBRANCH   9  10
ENDBRANCH   8   9
ENDBRANCH   7   8
ENDBRANCH   6   7
ENDBRANCH   5   6
ENDBRANCH   4   5
ENDBRANCH   3   4
ENDBRANCH   2   3
ENDBRANCH   1   2
BRANCH   1  13
ATOM     13  C   UNL     1      10.122 -12.490 -22.519  1.00  0.00     0.000 C 
BRANCH  13  14
ATOM     14  C   UNL     1      10.147 -13.535 -21.396  1.00  0.00     0.000 C 
BRANCH  14  15
ATOM     15  C   UNL     1      10.852 -14.820 -21.857  1.00  0.00     0.000 C 
BRANCH  15  16
ATOM     16  C   UNL     1      10.457 -16.044 -21.015  1.00  0.00     0.000 C 
BRANCH  16  17
ATOM     17  C   UNL     1      10.540 -17.359 -21.810  1.00  0.00     0.000 C 
BRANCH  17  18
ATOM     18  C   UNL     1       9.235 -18.170 -21.751  1.00  0.00     0.000 C 
BRANCH  18  19
ATOM     19  C   UNL     1       9.262 -19.397 -22.677  1.00  0.00     0.000 C 
BRANCH  19  20
ATOM     20  C   UNL     1      10.586 -19.539 -23.450  1.00  0.00     0.006 C 
BRANCH  20  21
ATOM     21  C   UNL     1      10.676 -20.814 -24.309  1.00  0.00     0.053 C 
BRANCH  21  22
ATOM     22  C   UNL     1      10.326 -20.572 -25.744  1.00  0.00     0.041 C 
ATOM     23  O   UNL     1      11.184 -20.756 -26.648  1.00  0.00    -0.550 OA
ATOM     24  O   UNL     1       9.039 -20.176 -26.090  1.00  0.00    -0.550 OA
ENDBRANCH  21  22
ENDBRANCH  20  21
ENDBRANCH  19  20
ENDBRANCH  18  19
ENDBRANCH  17  18
ENDBRANCH  16  17
ENDBRANCH  15  16
ENDBRANCH  14  15
ENDBRANCH  13  14
ENDBRANCH   1  13
TORSDOF 20
ENDMDL
