MODEL 1
REMARK VINA RESULT:    -4.781      0.000      0.000
REMARK INTER + INTRA:          -5.342
REMARK INTER:                  -5.061
REMARK INTRA:                  -0.281
REMARK UNBOUND:                -0.281
REMARK SMILES C=C(C)[C@H]1CC[C@H](C)[C@@]12CC=C(C)CC2
REMARK SMILES IDX 8 1 7 2 6 3 5 4 4 5 9 6 15 7 14 8 12 9 11 10 10 11 13 12
REMARK SMILES IDX 2 13 1 14 3 15
REMARK H PARENT
REMARK Flexibility Score: inf
ROOT
ATOM      1  C   UNL     1       9.203  22.079  27.722  1.00  0.00     0.008 C 
ATOM      2  C   UNL     1      10.145  21.144  26.943  1.00  0.00    -0.007 C 
ATOM      3  C   UNL     1      10.767  20.079  27.850  1.00  0.00     0.004 C 
ATOM      4  C   UNL     1      11.042  18.854  26.977  1.00  0.00     0.009 C 
ATOM      5  C   UNL     1      10.509  19.166  25.567  1.00  0.00     0.021 C 
ATOM      6  C   UNL     1       9.528  20.375  25.742  1.00  0.00    -0.017 C 
ATOM      7  C   UNL     1       8.089  19.865  26.057  1.00  0.00     0.012 C 
ATOM      8  C   UNL     1       7.442  19.109  24.880  1.00  0.00     0.031 C 
ATOM      9  C   UNL     1       7.795  19.666  23.514  1.00  0.00    -0.077 C 
ATOM     10  C   UNL     1       8.734  20.617  23.343  1.00  0.00    -0.027 C 
ATOM     11  C   UNL     1       9.414  21.300  24.499  1.00  0.00     0.035 C 
ATOM     12  C   UNL     1       7.131  19.076  22.302  1.00  0.00     0.039 C 
ENDROOT
BRANCH   5  13
ATOM     13  C   UNL     1      11.646  19.393  24.564  1.00  0.00    -0.077 C 
ATOM     14  C   UNL     1      11.624  18.754  23.383  1.00  0.00     0.008 C 
ATOM     15  C   UNL     1      12.780  20.355  24.826  1.00  0.00     0.039 C 
ENDBRANCH   5  13
TORSDOF 1
ENDMDL
MODEL 2
REMARK VINA RESULT:    -4.761     10.955     13.619
REMARK INTER + INTRA:          -5.320
REMARK INTER:                  -5.032
REMARK INTRA:                  -0.288
REMARK UNBOUND:                -0.281
REMARK SMILES C=C(C)[C@H]1CC[C@H](C)[C@@]12CC=C(C)CC2
REMARK SMILES IDX 8 1 7 2 6 3 5 4 4 5 9 6 15 7 14 8 12 9 11 10 10 11 13 12
REMARK SMILES IDX 2 13 1 14 3 15
REMARK H PARENT
REMARK Flexibility Score: inf
ROOT
ATOM      1  C   UNL     1      15.718  15.937  36.864  1.00  0.00     0.008 C 
ATOM      2  C   UNL     1      14.461  16.809  36.692  1.00  0.00    -0.007 C 
ATOM      3  C   UNL     1      14.153  17.077  35.217  1.00  0.00     0.004 C 
ATOM      4  C   UNL     1      12.640  17.264  35.104  1.00  0.00     0.009 C 
ATOM      5  C   UNL     1      12.041  17.027  36.502  1.00  0.00     0.021 C 
ATOM      6  C   UNL     1      13.145  16.264  37.312  1.00  0.00    -0.017 C 
ATOM      7  C   UNL     1      13.000  14.725  37.107  1.00  0.00     0.012 C 
ATOM      8  C   UNL     1      11.710  14.150  37.723  1.00  0.00     0.031 C 
ATOM      9  C   UNL     1      11.293  14.810  39.023  1.00  0.00    -0.077 C 
ATOM     10  C   UNL     1      11.896  15.920  39.495  1.00  0.00    -0.027 C 
ATOM     11  C   UNL     1      13.114  16.517  38.844  1.00  0.00     0.035 C 
ATOM     12  C   UNL     1      10.113  14.253  39.768  1.00  0.00     0.039 C 
ENDROOT
BRANCH   5  13
ATOM     13  C   UNL     1      11.554  18.332  37.143  1.00  0.00    -0.077 C 
ATOM     14  C   UNL     1      10.319  18.390  37.669  1.00  0.00     0.008 C 
ATOM     15  C   UNL     1      12.429  19.558  37.257  1.00  0.00     0.039 C 
ENDBRANCH   5  13
TORSDOF 1
ENDMDL
MODEL 3
REMARK VINA RESULT:    -4.660      1.441      3.390
REMARK INTER + INTRA:          -5.214
REMARK INTER:                  -4.925
REMARK INTRA:                  -0.289
REMARK UNBOUND:                -0.281
REMARK SMILES C=C(C)[C@H]1CC[C@H](C)[C@@]12CC=C(C)CC2
REMARK SMILES IDX 8 1 7 2 6 3 5 4 4 5 9 6 15 7 14 8 12 9 11 10 10 11 13 12
REMARK SMILES IDX 2 13 1 14 3 15
REMARK H PARENT
REMARK Flexibility Score: inf
ROOT
ATOM      1  C   UNL     1      13.213  21.714  25.767  1.00  0.00     0.008 C 
ATOM      2  C   UNL     1      12.407  20.988  24.675  1.00  0.00    -0.007 C 
ATOM      3  C   UNL     1      13.285  20.033  23.861  1.00  0.00     0.004 C 
ATOM      4  C   UNL     1      12.380  18.902  23.372  1.00  0.00     0.009 C 
ATOM      5  C   UNL     1      10.980  19.146  23.964  1.00  0.00     0.021 C 
ATOM      6  C   UNL     1      11.188  20.150  25.148  1.00  0.00    -0.017 C 
ATOM      7  C   UNL     1      11.493  19.377  26.467  1.00  0.00     0.012 C 
ATOM      8  C   UNL     1      10.298  18.546  26.973  1.00  0.00     0.031 C 
ATOM      9  C   UNL     1       8.946  19.192  26.738  1.00  0.00    -0.077 C 
ATOM     10  C   UNL     1       8.799  20.304  25.990  1.00  0.00    -0.027 C 
ATOM     11  C   UNL     1       9.971  21.070  25.438  1.00  0.00     0.035 C 
ATOM     12  C   UNL     1       7.721  18.521  27.291  1.00  0.00     0.039 C 
ENDROOT
BRANCH   5  13
ATOM     13  C   UNL     1       9.980  19.604  22.894  1.00  0.00    -0.077 C 
ATOM     14  C   UNL     1       8.849  18.905  22.704  1.00  0.00     0.008 C 
ATOM     15  C   UNL     1      10.189  20.851  22.068  1.00  0.00     0.039 C 
ENDBRANCH   5  13
TORSDOF 1
ENDMDL
MODEL 4
REMARK VINA RESULT:    -4.646      1.544      4.130
REMARK INTER + INTRA:          -5.199
REMARK INTER:                  -4.906
REMARK INTRA:                  -0.292
REMARK UNBOUND:                -0.281
REMARK SMILES C=C(C)[C@H]1CC[C@H](C)[C@@]12CC=C(C)CC2
REMARK SMILES IDX 8 1 7 2 6 3 5 4 4 5 9 6 15 7 14 8 12 9 11 10 10 11 13 12
REMARK SMILES IDX 2 13 1 14 3 15
REMARK H PARENT
REMARK Flexibility Score: inf
ROOT
ATOM      1  C   UNL     1       6.991  18.023  22.765  1.00  0.00     0.008 C 
ATOM      2  C   UNL     1       8.170  18.812  23.362  1.00  0.00    -0.007 C 
ATOM      3  C   UNL     1       8.942  19.580  22.285  1.00  0.00     0.004 C 
ATOM      4  C   UNL     1       9.543  20.813  22.961  1.00  0.00     0.009 C 
ATOM      5  C   UNL     1       9.060  20.817  24.423  1.00  0.00     0.021 C 
ATOM      6  C   UNL     1       7.828  19.850  24.465  1.00  0.00    -0.017 C 
ATOM      7  C   UNL     1       6.516  20.629  24.142  1.00  0.00     0.012 C 
ATOM      8  C   UNL     1       6.139  21.658  25.225  1.00  0.00     0.031 C 
ATOM      9  C   UNL     1       6.461  21.218  26.641  1.00  0.00    -0.077 C 
ATOM     10  C   UNL     1       7.179  20.109  26.905  1.00  0.00    -0.027 C 
ATOM     11  C   UNL     1       7.606  19.145  25.831  1.00  0.00     0.035 C 
ATOM     12  C   UNL     1       6.034  22.097  27.782  1.00  0.00     0.039 C 
ENDROOT
BRANCH   5  13
ATOM     13  C   UNL     1      10.190  20.469  25.399  1.00  0.00    -0.077 C 
ATOM     14  C   UNL     1      10.438  21.280  26.441  1.00  0.00     0.008 C 
ATOM     15  C   UNL     1      11.017  19.212  25.270  1.00  0.00     0.039 C 
ENDBRANCH   5  13
TORSDOF 1
ENDMDL
MODEL 5
REMARK VINA RESULT:    -4.599      1.578      3.711
REMARK INTER + INTRA:          -5.149
REMARK INTER:                  -4.860
REMARK INTRA:                  -0.289
REMARK UNBOUND:                -0.281
REMARK SMILES C=C(C)[C@H]1CC[C@H](C)[C@@]12CC=C(C)CC2
REMARK SMILES IDX 8 1 7 2 6 3 5 4 4 5 9 6 15 7 14 8 12 9 11 10 10 11 13 12
REMARK SMILES IDX 2 13 1 14 3 15
REMARK H PARENT
REMARK Flexibility Score: inf
ROOT
ATOM      1  C   UNL     1       8.122  20.873  24.931  1.00  0.00     0.008 C 
ATOM      2  C   UNL     1       9.157  20.442  25.986  1.00  0.00    -0.007 C 
ATOM      3  C   UNL     1       8.677  19.230  26.790  1.00  0.00     0.004 C 
ATOM      4  C   UNL     1       9.925  18.464  27.229  1.00  0.00     0.009 C 
ATOM      5  C   UNL     1      11.143  19.179  26.617  1.00  0.00     0.021 C 
ATOM      6  C   UNL     1      10.574  20.076  25.466  1.00  0.00    -0.017 C 
ATOM      7  C   UNL     1      10.511  19.271  24.132  1.00  0.00     0.012 C 
ATOM      8  C   UNL     1      11.903  18.904  23.580  1.00  0.00     0.031 C 
ATOM      9  C   UNL     1      12.962  19.966  23.806  1.00  0.00    -0.077 C 
ATOM     10  C   UNL     1      12.746  21.047  24.581  1.00  0.00    -0.027 C 
ATOM     11  C   UNL     1      11.400  21.359  25.177  1.00  0.00     0.035 C 
ATOM     12  C   UNL     1      14.326  19.760  23.210  1.00  0.00     0.039 C 
ENDROOT
BRANCH   5  13
ATOM     13  C   UNL     1      11.958  19.928  27.679  1.00  0.00    -0.077 C 
ATOM     14  C   UNL     1      13.264  19.650  27.828  1.00  0.00     0.008 C 
ATOM     15  C   UNL     1      11.364  21.015  28.543  1.00  0.00     0.039 C 
ENDBRANCH   5  13
TORSDOF 1
ENDMDL
MODEL 6
REMARK VINA RESULT:    -4.528      1.274      4.332
REMARK INTER + INTRA:          -5.074
REMARK INTER:                  -4.793
REMARK INTRA:                  -0.281
REMARK UNBOUND:                -0.281
REMARK SMILES C=C(C)[C@H]1CC[C@H](C)[C@@]12CC=C(C)CC2
REMARK SMILES IDX 8 1 7 2 6 3 5 4 4 5 9 6 15 7 14 8 12 9 11 10 10 11 13 12
REMARK SMILES IDX 2 13 1 14 3 15
REMARK H PARENT
REMARK Flexibility Score: inf
ROOT
ATOM      1  C   UNL     1       7.560  18.907  26.783  1.00  0.00     0.008 C 
ATOM      2  C   UNL     1       8.706  19.305  25.837  1.00  0.00    -0.007 C 
ATOM      3  C   UNL     1       8.258  20.348  24.809  1.00  0.00     0.004 C 
ATOM      4  C   UNL     1       9.491  21.178  24.450  1.00  0.00     0.009 C 
ATOM      5  C   UNL     1      10.654  20.678  25.325  1.00  0.00     0.021 C 
ATOM      6  C   UNL     1       9.989  19.880  26.498  1.00  0.00    -0.017 C 
ATOM      7  C   UNL     1       9.652  20.838  27.682  1.00  0.00     0.012 C 
ATOM      8  C   UNL     1      10.904  21.414  28.371  1.00  0.00     0.031 C 
ATOM      9  C   UNL     1      12.071  20.449  28.451  1.00  0.00    -0.077 C 
ATOM     10  C   UNL     1      12.070  19.261  27.814  1.00  0.00    -0.027 C 
ATOM     11  C   UNL     1      10.864  18.737  27.081  1.00  0.00     0.035 C 
ATOM     12  C   UNL     1      13.303  20.869  29.201  1.00  0.00     0.039 C 
ENDROOT
BRANCH   5  13
ATOM     13  C   UNL     1      11.685  19.889  24.508  1.00  0.00    -0.077 C 
ATOM     14  C   UNL     1      12.990  20.184  24.629  1.00  0.00     0.008 C 
ATOM     15  C   UNL     1      11.299  18.746  23.600  1.00  0.00     0.039 C 
ENDBRANCH   5  13
TORSDOF 1
ENDMDL
MODEL 7
REMARK VINA RESULT:    -4.454      1.260      4.704
REMARK INTER + INTRA:          -4.995
REMARK INTER:                  -4.718
REMARK INTRA:                  -0.277
REMARK UNBOUND:                -0.281
REMARK SMILES C=C(C)[C@H]1CC[C@H](C)[C@@]12CC=C(C)CC2
REMARK SMILES IDX 8 1 7 2 6 3 5 4 4 5 9 6 15 7 14 8 12 9 11 10 10 11 13 12
REMARK SMILES IDX 2 13 1 14 3 15
REMARK H PARENT
REMARK Flexibility Score: inf
ROOT
ATOM      1  C   UNL     1      10.582  21.071  21.890  1.00  0.00     0.008 C 
ATOM      2  C   UNL     1       9.399  20.599  22.754  1.00  0.00    -0.007 C 
ATOM      3  C   UNL     1       8.642  19.442  22.096  1.00  0.00     0.004 C 
ATOM      4  C   UNL     1       8.037  18.606  23.224  1.00  0.00     0.009 C 
ATOM      5  C   UNL     1       8.504  19.223  24.555  1.00  0.00     0.021 C 
ATOM      6  C   UNL     1       9.732  20.127  24.196  1.00  0.00    -0.017 C 
ATOM      7  C   UNL     1      11.050  19.294  24.244  1.00  0.00     0.012 C 
ATOM      8  C   UNL     1      11.417  18.822  25.664  1.00  0.00     0.031 C 
ATOM      9  C   UNL     1      11.078  19.817  26.758  1.00  0.00    -0.077 C 
ATOM     10  C   UNL     1      10.354  20.929  26.522  1.00  0.00    -0.027 C 
ATOM     11  C   UNL     1       9.936  21.344  25.138  1.00  0.00     0.035 C 
ATOM     12  C   UNL     1      11.495  19.506  28.168  1.00  0.00     0.039 C 
ENDROOT
BRANCH   5  13
ATOM     13  C   UNL     1       7.361  19.943  25.282  1.00  0.00    -0.077 C 
ATOM     14  C   UNL     1       7.158  19.708  26.589  1.00  0.00     0.008 C 
ATOM     15  C   UNL     1       6.473  20.955  24.599  1.00  0.00     0.039 C 
ENDBRANCH   5  13
TORSDOF 1
ENDMDL
MODEL 8
REMARK VINA RESULT:    -4.340      1.729      3.786
REMARK INTER + INTRA:          -4.875
REMARK INTER:                  -4.581
REMARK INTRA:                  -0.294
REMARK UNBOUND:                -0.281
REMARK SMILES C=C(C)[C@H]1CC[C@H](C)[C@@]12CC=C(C)CC2
REMARK SMILES IDX 8 1 7 2 6 3 5 4 4 5 9 6 15 7 14 8 12 9 11 10 10 11 13 12
REMARK SMILES IDX 2 13 1 14 3 15
REMARK H PARENT
REMARK Flexibility Score: inf
ROOT
ATOM      1  C   UNL     1      11.627  19.398  25.050  1.00  0.00     0.008 C 
ATOM      2  C   UNL     1      10.713  20.550  24.599  1.00  0.00    -0.007 C 
ATOM      3  C   UNL     1      11.444  21.527  23.674  1.00  0.00     0.004 C 
ATOM      4  C   UNL     1      10.392  22.139  22.748  1.00  0.00     0.009 C 
ATOM      5  C   UNL     1       9.047  21.463  23.071  1.00  0.00     0.021 C 
ATOM      6  C   UNL     1       9.407  20.155  23.855  1.00  0.00    -0.017 C 
ATOM      7  C   UNL     1       9.639  18.975  22.863  1.00  0.00     0.012 C 
ATOM      8  C   UNL     1       8.359  18.547  22.119  1.00  0.00     0.031 C 
ATOM      9  C   UNL     1       7.096  18.633  22.954  1.00  0.00    -0.077 C 
ATOM     10  C   UNL     1       7.075  19.206  24.174  1.00  0.00    -0.027 C 
ATOM     11  C   UNL     1       8.323  19.687  24.863  1.00  0.00     0.035 C 
ATOM     12  C   UNL     1       5.807  18.134  22.363  1.00  0.00     0.039 C 
ENDROOT
BRANCH   5  13
ATOM     13  C   UNL     1       8.092  22.414  23.802  1.00  0.00    -0.077 C 
ATOM     14  C   UNL     1       6.841  22.579  23.340  1.00  0.00     0.008 C 
ATOM     15  C   UNL     1       8.481  23.146  25.064  1.00  0.00     0.039 C 
ENDBRANCH   5  13
TORSDOF 1
ENDMDL
MODEL 9
REMARK VINA RESULT:    -4.237      1.241      3.281
REMARK INTER + INTRA:          -4.766
REMARK INTER:                  -4.472
REMARK INTRA:                  -0.294
REMARK UNBOUND:                -0.281
REMARK SMILES C=C(C)[C@H]1CC[C@H](C)[C@@]12CC=C(C)CC2
REMARK SMILES IDX 8 1 7 2 6 3 5 4 4 5 9 6 15 7 14 8 12 9 11 10 10 11 13 12
REMARK SMILES IDX 2 13 1 14 3 15
REMARK H PARENT
REMARK Flexibility Score: inf
ROOT
ATOM      1  C   UNL     1      11.013  18.515  27.386  1.00  0.00     0.008 C 
ATOM      2  C   UNL     1      10.299  19.851  27.116  1.00  0.00    -0.007 C 
ATOM      3  C   UNL     1      11.281  21.026  27.094  1.00  0.00     0.004 C 
ATOM      4  C   UNL     1      10.693  22.082  26.158  1.00  0.00     0.009 C 
ATOM      5  C   UNL     1       9.398  21.499  25.564  1.00  0.00     0.021 C 
ATOM      6  C   UNL     1       9.481  19.953  25.800  1.00  0.00    -0.017 C 
ATOM      7  C   UNL     1      10.212  19.262  24.608  1.00  0.00     0.012 C 
ATOM      8  C   UNL     1       9.420  19.331  23.288  1.00  0.00     0.031 C 
ATOM      9  C   UNL     1       7.917  19.219  23.457  1.00  0.00    -0.077 C 
ATOM     10  C   UNL     1       7.324  19.242  24.667  1.00  0.00    -0.027 C 
ATOM     11  C   UNL     1       8.106  19.247  25.952  1.00  0.00     0.035 C 
ATOM     12  C   UNL     1       7.056  19.163  22.227  1.00  0.00     0.039 C 
ENDROOT
BRANCH   5  13
ATOM     13  C   UNL     1       8.149  22.176  26.142  1.00  0.00    -0.077 C 
ATOM     14  C   UNL     1       7.232  22.695  25.308  1.00  0.00     0.008 C 
ATOM     15  C   UNL     1       7.874  22.244  27.625  1.00  0.00     0.039 C 
ENDBRANCH   5  13
TORSDOF 1
ENDMDL
