MODEL 1
REMARK VINA RESULT:    -4.844      0.000      0.000
REMARK INTER + INTRA:         -15.491
REMARK INTER:                 -12.773
REMARK INTRA:                  -2.718
REMARK UNBOUND:                -2.718
REMARK SMILES CCCCCCCCCCCCCCCCCCCCCCCCCCCCCC(=O)[O-]
REMARK SMILES IDX 16 1 17 2 18 3 19 4 20 5 21 6 22 7 23 8 24 9 25 10 26 11
REMARK SMILES IDX 27 12 28 13 29 14 30 15 31 16 32 17 15 18 14 19 13 20 12 21
REMARK SMILES IDX 11 22 10 23 9 24 8 25 7 26 6 27 5 28 4 29 3 30 2 31 1 32
REMARK H PARENT
REMARK Flexibility Score: inf
ROOT
ATOM      1  C   UNL     1      -2.346  38.688  18.070  1.00  0.00     0.000 C 
ENDROOT
BRANCH   1   2
ATOM      2  C   UNL     1      -3.788  39.001  18.510  1.00  0.00     0.000 C 
BRANCH   2   3
ATOM      3  C   UNL     1      -4.719  37.785  18.382  1.00  0.00     0.000 C 
BRANCH   3   4
ATOM      4  C   UNL     1      -6.210  38.168  18.430  1.00  0.00     0.000 C 
BRANCH   4   5
ATOM      5  C   UNL     1      -6.937  37.603  19.662  1.00  0.00     0.000 C 
BRANCH   5   6
ATOM      6  C   UNL     1      -7.352  38.652  20.716  1.00  0.00     0.000 C 
BRANCH   6   7
ATOM      7  C   UNL     1      -6.792  40.069  20.477  1.00  0.00     0.000 C 
BRANCH   7   8
ATOM      8  C   UNL     1      -6.049  40.682  21.682  1.00  0.00     0.000 C 
BRANCH   8   9
ATOM      9  C   UNL     1      -6.361  40.025  23.038  1.00  0.00     0.000 C 
BRANCH   9  10
ATOM     10  C   UNL     1      -5.542  40.625  24.192  1.00  0.00     0.000 C 
BRANCH  10  11
ATOM     11  C   UNL     1      -4.451  39.658  24.673  1.00  0.00     0.000 C 
BRANCH  11  12
ATOM     12  C   UNL     1      -3.280  39.520  23.682  1.00  0.00     0.000 C 
BRANCH  12  13
ATOM     13  C   UNL     1      -2.997  38.086  23.192  1.00  0.00     0.006 C 
BRANCH  13  14
ATOM     14  C   UNL     1      -3.912  37.621  22.046  1.00  0.00     0.053 C 
BRANCH  14  15
ATOM     15  C   UNL     1      -4.647  36.342  22.340  1.00  0.00     0.041 C 
ATOM     16  O   UNL     1      -4.029  35.248  22.431  1.00  0.00    -0.550 OA
ATOM     17  O   UNL     1      -5.990  36.398  22.688  1.00  0.00    -0.550 OA
ENDBRANCH  14  15
ENDBRANCH  13  14
ENDBRANCH  12  13
ENDBRANCH  11  12
ENDBRANCH  10  11
ENDBRANCH   9  10
ENDBRANCH   8   9
ENDBRANCH   7   8
ENDBRANCH   6   7
ENDBRANCH   5   6
ENDBRANCH   4   5
ENDBRANCH   3   4
ENDBRANCH   2   3
ENDBRANCH   1   2
BRANCH   1  18
ATOM     18  C   UNL     1      -1.951  37.221  18.310  1.00  0.00     0.000 C 
BRANCH  18  19
ATOM     19  C   UNL     1      -1.324  36.534  17.078  1.00  0.00     0.000 C 
BRANCH  19  20
ATOM     20  C   UNL     1      -1.732  35.055  16.955  1.00  0.00     0.000 C 
BRANCH  20  21
ATOM     21  C   UNL     1      -0.589  34.089  17.322  1.00  0.00     0.000 C 
BRANCH  21  22
ATOM     22  C   UNL     1      -0.813  32.619  16.915  1.00  0.00     0.000 C 
BRANCH  22  23
ATOM     23  C   UNL     1       0.070  31.595  17.650  1.00  0.00     0.000 C 
BRANCH  23  24
ATOM     24  C   UNL     1      -0.302  30.125  17.388  1.00  0.00    -0.000 C 
BRANCH  24  25
ATOM     25  C   UNL     1       0.775  29.351  16.598  1.00  0.00    -0.000 C 
BRANCH  25  26
ATOM     26  C   UNL     1       0.674  27.831  16.808  1.00  0.00    -0.000 C 
BRANCH  26  27
ATOM     27  C   UNL     1      -0.672  27.255  16.337  1.00  0.00    -0.000 C 
BRANCH  27  28
ATOM     28  C   UNL     1      -0.634  25.723  16.179  1.00  0.00    -0.000 C 
BRANCH  28  29
ATOM     29  C   UNL     1       0.180  25.036  17.293  1.00  0.00    -0.000 C 
BRANCH  29  30
ATOM     30  C   UNL     1      -0.582  24.877  18.624  1.00  0.00    -0.000 C 
BRANCH  30  31
ATOM     31  C   UNL     1       0.156  25.459  19.845  1.00  0.00    -0.003 C 
ATOM     32  C   UNL     1      -0.754  26.314  20.729  1.00  0.00     0.004 C 
ENDBRANCH  30  31
ENDBRANCH  29  30
ENDBRANCH  28  29
ENDBRANCH  27  28
ENDBRANCH  26  27
ENDBRANCH  25  26
ENDBRANCH  24  25
ENDBRANCH  23  24
ENDBRANCH  22  23
ENDBRANCH  21  22
ENDBRANCH  20  21
ENDBRANCH  19  20
ENDBRANCH  18  19
ENDBRANCH   1  18
TORSDOF 28
ENDMDL
MODEL 2
REMARK VINA RESULT:    -4.806      2.768     11.758
REMARK INTER + INTRA:         -15.392
REMARK INTER:                 -12.632
REMARK INTRA:                  -2.760
REMARK UNBOUND:                -2.718
REMARK SMILES CCCCCCCCCCCCCCCCCCCCCCCCCCCCCC(=O)[O-]
REMARK SMILES IDX 16 1 17 2 18 3 19 4 20 5 21 6 22 7 23 8 24 9 25 10 26 11
REMARK SMILES IDX 27 12 28 13 29 14 30 15 31 16 32 17 15 18 14 19 13 20 12 21
REMARK SMILES IDX 11 22 10 23 9 24 8 25 7 26 6 27 5 28 4 29 3 30 2 31 1 32
REMARK H PARENT
REMARK Flexibility Score: inf
ROOT
ATOM      1  C   UNL     1      -1.720  35.589  17.325  1.00  0.00     0.000 C 
ENDROOT
BRANCH   1   2
ATOM      2  C   UNL     1      -0.829  35.177  16.139  1.00  0.00     0.000 C 
BRANCH   2   3
ATOM      3  C   UNL     1      -0.349  33.721  16.241  1.00  0.00     0.000 C 
BRANCH   3   4
ATOM      4  C   UNL     1      -1.023  32.950  17.391  1.00  0.00     0.000 C 
BRANCH   4   5
ATOM      5  C   UNL     1      -0.470  31.525  17.565  1.00  0.00     0.000 C 
BRANCH   5   6
ATOM      6  C   UNL     1       0.666  31.141  16.592  1.00  0.00     0.000 C 
BRANCH   6   7
ATOM      7  C   UNL     1       1.059  29.649  16.608  1.00  0.00     0.000 C 
BRANCH   7   8
ATOM      8  C   UNL     1      -0.001  28.707  17.214  1.00  0.00     0.000 C 
BRANCH   8   9
ATOM      9  C   UNL     1      -0.675  27.758  16.207  1.00  0.00     0.000 C 
BRANCH   9  10
ATOM     10  C   UNL     1      -0.043  26.356  16.199  1.00  0.00     0.000 C 
BRANCH  10  11
ATOM     11  C   UNL     1      -0.416  25.562  17.459  1.00  0.00     0.000 C 
BRANCH  11  12
ATOM     12  C   UNL     1       0.810  25.054  18.243  1.00  0.00     0.000 C 
BRANCH  12  13
ATOM     13  C   UNL     1       0.857  25.463  19.728  1.00  0.00     0.006 C 
BRANCH  13  14
ATOM     14  C   UNL     1      -0.163  24.728  20.616  1.00  0.00     0.053 C 
BRANCH  14  15
ATOM     15  C   UNL     1      -1.037  25.650  21.421  1.00  0.00     0.041 C 
ATOM     16  O   UNL     1      -1.383  26.773  20.967  1.00  0.00    -0.550 OA
ATOM     17  O   UNL     1      -1.609  25.184  22.597  1.00  0.00    -0.550 OA
ENDBRANCH  14  15
ENDBRANCH  13  14
ENDBRANCH  12  13
ENDBRANCH  11  12
ENDBRANCH  10  11
ENDBRANCH   9  10
ENDBRANCH   8   9
ENDBRANCH   7   8
ENDBRANCH   6   7
ENDBRANCH   5   6
ENDBRANCH   4   5
ENDBRANCH   3   4
ENDBRANCH   2   3
ENDBRANCH   1   2
BRANCH   1  18
ATOM     18  C   UNL     1      -2.628  36.790  17.005  1.00  0.00     0.000 C 
BRANCH  18  19
ATOM     19  C   UNL     1      -2.038  37.755  15.955  1.00  0.00     0.000 C 
BRANCH  19  20
ATOM     20  C   UNL     1      -2.213  39.233  16.348  1.00  0.00     0.000 C 
BRANCH  20  21
ATOM     21  C   UNL     1      -3.093  39.417  17.599  1.00  0.00     0.000 C 
BRANCH  21  22
ATOM     22  C   UNL     1      -2.688  40.582  18.523  1.00  0.00     0.000 C 
BRANCH  22  23
ATOM     23  C   UNL     1      -2.069  40.166  19.869  1.00  0.00     0.000 C 
BRANCH  23  24
ATOM     24  C   UNL     1      -1.899  38.647  20.052  1.00  0.00    -0.000 C 
BRANCH  24  25
ATOM     25  C   UNL     1      -3.096  37.977  20.760  1.00  0.00    -0.000 C 
BRANCH  25  26
ATOM     26  C   UNL     1      -3.704  38.873  21.853  1.00  0.00    -0.000 C 
BRANCH  26  27
ATOM     27  C   UNL     1      -4.761  38.142  22.699  1.00  0.00    -0.000 C 
BRANCH  27  28
ATOM     28  C   UNL     1      -5.804  39.105  23.297  1.00  0.00    -0.000 C 
BRANCH  28  29
ATOM     29  C   UNL     1      -7.010  39.320  22.362  1.00  0.00    -0.000 C 
BRANCH  29  30
ATOM     30  C   UNL     1      -7.139  38.264  21.246  1.00  0.00    -0.000 C 
BRANCH  30  31
ATOM     31  C   UNL     1      -7.085  38.846  19.820  1.00  0.00    -0.003 C 
ATOM     32  C   UNL     1      -6.320  37.947  18.847  1.00  0.00     0.004 C 
ENDBRANCH  30  31
ENDBRANCH  29  30
ENDBRANCH  28  29
ENDBRANCH  27  28
ENDBRANCH  26  27
ENDBRANCH  25  26
ENDBRANCH  24  25
ENDBRANCH  23  24
ENDBRANCH  22  23
ENDBRANCH  21  22
ENDBRANCH  20  21
ENDBRANCH  19  20
ENDBRANCH  18  19
ENDBRANCH   1  18
TORSDOF 28
ENDMDL
MODEL 3
REMARK VINA RESULT:    -4.793      3.449     12.562
REMARK INTER + INTRA:         -15.358
REMARK INTER:                 -12.614
REMARK INTRA:                  -2.744
REMARK UNBOUND:                -2.718
REMARK SMILES CCCCCCCCCCCCCCCCCCCCCCCCCCCCCC(=O)[O-]
REMARK SMILES IDX 16 1 17 2 18 3 19 4 20 5 21 6 22 7 23 8 24 9 25 10 26 11
REMARK SMILES IDX 27 12 28 13 29 14 30 15 31 16 32 17 15 18 14 19 13 20 12 21
REMARK SMILES IDX 11 22 10 23 9 24 8 25 7 26 6 27 5 28 4 29 3 30 2 31 1 32
REMARK H PARENT
REMARK Flexibility Score: inf
ROOT
ATOM      1  C   UNL     1      -0.754  30.912  17.672  1.00  0.00     0.000 C 
ENDROOT
BRANCH   1   2
ATOM      2  C   UNL     1       0.117  30.045  16.744  1.00  0.00     0.000 C 
BRANCH   2   3
ATOM      3  C   UNL     1       0.128  28.566  17.161  1.00  0.00     0.000 C 
BRANCH   3   4
ATOM      4  C   UNL     1      -0.223  27.617  16.000  1.00  0.00     0.000 C 
BRANCH   4   5
ATOM      5  C   UNL     1       0.372  26.209  16.173  1.00  0.00     0.000 C 
BRANCH   5   6
ATOM      6  C   UNL     1      -0.356  25.312  17.198  1.00  0.00     0.000 C 
BRANCH   6   7
ATOM      7  C   UNL     1      -0.737  23.910  16.680  1.00  0.00     0.000 C 
BRANCH   7   8
ATOM      8  C   UNL     1      -1.850  23.205  17.482  1.00  0.00     0.000 C 
BRANCH   8   9
ATOM      9  C   UNL     1      -2.208  23.877  18.820  1.00  0.00     0.000 C 
BRANCH   9  10
ATOM     10  C   UNL     1      -1.823  23.019  20.036  1.00  0.00     0.000 C 
BRANCH  10  11
ATOM     11  C   UNL     1      -1.247  23.877  21.172  1.00  0.00     0.000 C 
BRANCH  11  12
ATOM     12  C   UNL     1      -1.421  25.390  20.940  1.00  0.00     0.000 C 
BRANCH  12  13
ATOM     13  C   UNL     1      -0.110  26.192  20.820  1.00  0.00     0.006 C 
BRANCH  13  14
ATOM     14  C   UNL     1       1.120  25.338  20.466  1.00  0.00     0.053 C 
BRANCH  14  15
ATOM     15  C   UNL     1       2.182  25.338  21.531  1.00  0.00     0.041 C 
ATOM     16  O   UNL     1       2.335  26.331  22.291  1.00  0.00    -0.550 OA
ATOM     17  O   UNL     1       2.879  24.166  21.791  1.00  0.00    -0.550 OA
ENDBRANCH  14  15
ENDBRANCH  13  14
ENDBRANCH  12  13
ENDBRANCH  11  12
ENDBRANCH  10  11
ENDBRANCH   9  10
ENDBRANCH   8   9
ENDBRANCH   7   8
ENDBRANCH   6   7
ENDBRANCH   5   6
ENDBRANCH   4   5
ENDBRANCH   3   4
ENDBRANCH   2   3
ENDBRANCH   1   2
BRANCH   1  18
ATOM     18  C   UNL     1      -0.240  32.357  17.798  1.00  0.00     0.000 C 
BRANCH  18  19
ATOM     19  C   UNL     1      -1.248  33.422  17.318  1.00  0.00     0.000 C 
BRANCH  19  20
ATOM     20  C   UNL     1      -0.581  34.779  17.028  1.00  0.00     0.000 C 
BRANCH  20  21
ATOM     21  C   UNL     1      -1.505  35.974  17.330  1.00  0.00     0.000 C 
BRANCH  21  22
ATOM     22  C   UNL     1      -2.746  36.092  16.423  1.00  0.00     0.000 C 
BRANCH  22  23
ATOM     23  C   UNL     1      -3.511  37.423  16.532  1.00  0.00     0.000 C 
BRANCH  23  24
ATOM     24  C   UNL     1      -2.695  38.583  17.129  1.00  0.00    -0.000 C 
BRANCH  24  25
ATOM     25  C   UNL     1      -3.261  39.107  18.467  1.00  0.00    -0.000 C 
BRANCH  25  26
ATOM     26  C   UNL     1      -2.340  38.784  19.656  1.00  0.00    -0.000 C 
BRANCH  26  27
ATOM     27  C   UNL     1      -3.056  37.994  20.764  1.00  0.00    -0.000 C 
BRANCH  27  28
ATOM     28  C   UNL     1      -4.059  36.969  20.201  1.00  0.00    -0.000 C 
BRANCH  28  29
ATOM     29  C   UNL     1      -5.483  37.173  20.756  1.00  0.00    -0.000 C 
BRANCH  29  30
ATOM     30  C   UNL     1      -6.522  37.578  19.691  1.00  0.00    -0.000 C 
BRANCH  30  31
ATOM     31  C   UNL     1      -7.199  38.936  19.958  1.00  0.00    -0.003 C 
ATOM     32  C   UNL     1      -7.460  39.181  21.445  1.00  0.00     0.004 C 
ENDBRANCH  30  31
ENDBRANCH  29  30
ENDBRANCH  28  29
ENDBRANCH  27  28
ENDBRANCH  26  27
ENDBRANCH  25  26
ENDBRANCH  24  25
ENDBRANCH  23  24
ENDBRANCH  22  23
ENDBRANCH  21  22
ENDBRANCH  20  21
ENDBRANCH  19  20
ENDBRANCH  18  19
ENDBRANCH   1  18
TORSDOF 28
ENDMDL
MODEL 4
REMARK VINA RESULT:    -4.776      1.422      4.643
REMARK INTER + INTRA:         -15.312
REMARK INTER:                 -12.708
REMARK INTRA:                  -2.604
REMARK UNBOUND:                -2.718
REMARK SMILES CCCCCCCCCCCCCCCCCCCCCCCCCCCCCC(=O)[O-]
REMARK SMILES IDX 16 1 17 2 18 3 19 4 20 5 21 6 22 7 23 8 24 9 25 10 26 11
REMARK SMILES IDX 27 12 28 13 29 14 30 15 31 16 32 17 15 18 14 19 13 20 12 21
REMARK SMILES IDX 11 22 10 23 9 24 8 25 7 26 6 27 5 28 4 29 3 30 2 31 1 32
REMARK H PARENT
REMARK Flexibility Score: inf
ROOT
ATOM      1  C   UNL     1      -1.085  33.260  17.484  1.00  0.00     0.000 C 
ENDROOT
BRANCH   1   2
ATOM      2  C   UNL     1      -0.426  34.140  16.406  1.00  0.00     0.000 C 
BRANCH   2   3
ATOM      3  C   UNL     1      -0.762  35.630  16.576  1.00  0.00     0.000 C 
BRANCH   3   4
ATOM      4  C   UNL     1      -2.112  35.860  17.280  1.00  0.00     0.000 C 
BRANCH   4   5
ATOM      5  C   UNL     1      -3.006  36.877  16.549  1.00  0.00     0.000 C 
BRANCH   5   6
ATOM      6  C   UNL     1      -2.389  38.282  16.373  1.00  0.00     0.000 C 
BRANCH   6   7
ATOM      7  C   UNL     1      -3.029  39.386  17.240  1.00  0.00     0.000 C 
BRANCH   7   8
ATOM      8  C   UNL     1      -3.196  39.024  18.729  1.00  0.00     0.000 C 
BRANCH   8   9
ATOM      9  C   UNL     1      -4.571  39.369  19.330  1.00  0.00     0.000 C 
BRANCH   9  10
ATOM     10  C   UNL     1      -5.566  38.200  19.243  1.00  0.00     0.000 C 
BRANCH  10  11
ATOM     11  C   UNL     1      -7.004  38.662  19.521  1.00  0.00     0.000 C 
BRANCH  11  12
ATOM     12  C   UNL     1      -7.264  38.979  21.006  1.00  0.00     0.000 C 
BRANCH  12  13
ATOM     13  C   UNL     1      -6.699  37.953  22.007  1.00  0.00     0.006 C 
BRANCH  13  14
ATOM     14  C   UNL     1      -5.532  38.482  22.859  1.00  0.00     0.053 C 
BRANCH  14  15
ATOM     15  C   UNL     1      -4.248  37.725  22.661  1.00  0.00     0.041 C 
ATOM     16  O   UNL     1      -4.250  36.565  22.169  1.00  0.00    -0.550 OA
ATOM     17  O   UNL     1      -3.039  38.380  22.859  1.00  0.00    -0.550 OA
ENDBRANCH  14  15
ENDBRANCH  13  14
ENDBRANCH  12  13
ENDBRANCH  11  12
ENDBRANCH  10  11
ENDBRANCH   9  10
ENDBRANCH   8   9
ENDBRANCH   7   8
ENDBRANCH   6   7
ENDBRANCH   5   6
ENDBRANCH   4   5
ENDBRANCH   3   4
ENDBRANCH   2   3
ENDBRANCH   1   2
BRANCH   1  18
ATOM     18  C   UNL     1      -0.640  31.789  17.411  1.00  0.00     0.000 C 
BRANCH  18  19
ATOM     19  C   UNL     1       0.574  31.549  16.490  1.00  0.00     0.000 C 
BRANCH  19  20
ATOM     20  C   UNL     1       1.151  30.128  16.630  1.00  0.00     0.000 C 
BRANCH  20  21
ATOM     21  C   UNL     1       0.065  29.070  16.905  1.00  0.00     0.000 C 
BRANCH  21  22
ATOM     22  C   UNL     1       0.458  27.620  16.559  1.00  0.00     0.000 C 
BRANCH  22  23
ATOM     23  C   UNL     1      -0.713  26.703  16.160  1.00  0.00     0.000 C 
BRANCH  23  24
ATOM     24  C   UNL     1      -0.359  25.207  16.092  1.00  0.00    -0.000 C 
BRANCH  24  25
ATOM     25  C   UNL     1      -1.594  24.282  16.142  1.00  0.00    -0.000 C 
BRANCH  25  26
ATOM     26  C   UNL     1      -1.537  23.295  17.321  1.00  0.00    -0.000 C 
BRANCH  26  27
ATOM     27  C   UNL     1      -2.464  23.700  18.479  1.00  0.00    -0.000 C 
BRANCH  27  28
ATOM     28  C   UNL     1      -1.742  23.700  19.839  1.00  0.00    -0.000 C 
BRANCH  28  29
ATOM     29  C   UNL     1      -1.536  25.122  20.396  1.00  0.00    -0.000 C 
BRANCH  29  30
ATOM     30  C   UNL     1      -0.373  25.894  19.741  1.00  0.00    -0.000 C 
BRANCH  30  31
ATOM     31  C   UNL     1       1.016  25.283  20.010  1.00  0.00    -0.003 C 
ATOM     32  C   UNL     1       1.562  25.649  21.391  1.00  0.00     0.004 C 
ENDBRANCH  30  31
ENDBRANCH  29  30
ENDBRANCH  28  29
ENDBRANCH  27  28
ENDBRANCH  26  27
ENDBRANCH  25  26
ENDBRANCH  24  25
ENDBRANCH  23  24
ENDBRANCH  22  23
ENDBRANCH  21  22
ENDBRANCH  20  21
ENDBRANCH  19  20
ENDBRANCH  18  19
ENDBRANCH   1  18
TORSDOF 28
ENDMDL
MODEL 5
REMARK VINA RESULT:    -4.726      1.833      4.729
REMARK INTER + INTRA:         -15.180
REMARK INTER:                 -12.225
REMARK INTRA:                  -2.955
REMARK UNBOUND:                -2.718
REMARK SMILES CCCCCCCCCCCCCCCCCCCCCCCCCCCCCC(=O)[O-]
REMARK SMILES IDX 16 1 17 2 18 3 19 4 20 5 21 6 22 7 23 8 24 9 25 10 26 11
REMARK SMILES IDX 27 12 28 13 29 14 30 15 31 16 32 17 15 18 14 19 13 20 12 21
REMARK SMILES IDX 11 22 10 23 9 24 8 25 7 26 6 27 5 28 4 29 3 30 2 31 1 32
REMARK H PARENT
REMARK Flexibility Score: inf
ROOT
ATOM      1  C   UNL     1      -0.831  33.089  17.448  1.00  0.00     0.000 C 
ENDROOT
BRANCH   1   2
ATOM      2  C   UNL     1      -0.323  33.962  16.286  1.00  0.00     0.000 C 
BRANCH   2   3
ATOM      3  C   UNL     1      -0.835  35.409  16.370  1.00  0.00     0.000 C 
BRANCH   3   4
ATOM      4  C   UNL     1      -1.992  35.575  17.372  1.00  0.00     0.000 C 
BRANCH   4   5
ATOM      5  C   UNL     1      -2.312  37.047  17.684  1.00  0.00     0.000 C 
BRANCH   5   6
ATOM      6  C   UNL     1      -3.298  37.724  16.707  1.00  0.00     0.000 C 
BRANCH   6   7
ATOM      7  C   UNL     1      -3.319  39.265  16.767  1.00  0.00     0.000 C 
BRANCH   7   8
ATOM      8  C   UNL     1      -1.938  39.923  16.961  1.00  0.00     0.000 C 
BRANCH   8   9
ATOM      9  C   UNL     1      -1.842  40.885  18.159  1.00  0.00     0.000 C 
BRANCH   9  10
ATOM     10  C   UNL     1      -3.171  41.021  18.919  1.00  0.00     0.000 C 
BRANCH  10  11
ATOM     11  C   UNL     1      -3.167  40.199  20.216  1.00  0.00     0.000 C 
BRANCH  11  12
ATOM     12  C   UNL     1      -4.574  39.993  20.810  1.00  0.00     0.000 C 
BRANCH  12  13
ATOM     13  C   UNL     1      -5.565  39.231  19.907  1.00  0.00     0.006 C 
BRANCH  13  14
ATOM     14  C   UNL     1      -5.236  37.738  19.732  1.00  0.00     0.053 C 
BRANCH  14  15
ATOM     15  C   UNL     1      -5.078  36.999  21.032  1.00  0.00     0.041 C 
ATOM     16  O   UNL     1      -3.989  36.439  21.329  1.00  0.00    -0.550 OA
ATOM     17  O   UNL     1      -6.083  37.085  21.986  1.00  0.00    -0.550 OA
ENDBRANCH  14  15
ENDBRANCH  13  14
ENDBRANCH  12  13
ENDBRANCH  11  12
ENDBRANCH  10  11
ENDBRANCH   9  10
ENDBRANCH   8   9
ENDBRANCH   7   8
ENDBRANCH   6   7
ENDBRANCH   5   6
ENDBRANCH   4   5
ENDBRANCH   3   4
ENDBRANCH   2   3
ENDBRANCH   1   2
BRANCH   1  18
ATOM     18  C   UNL     1      -0.656  31.582  17.186  1.00  0.00     0.000 C 
BRANCH  18  19
ATOM     19  C   UNL     1       0.612  31.233  16.379  1.00  0.00     0.000 C 
BRANCH  19  20
ATOM     20  C   UNL     1       1.147  29.826  16.700  1.00  0.00     0.000 C 
BRANCH  20  21
ATOM     21  C   UNL     1       0.026  28.823  17.030  1.00  0.00     0.000 C 
BRANCH  21  22
ATOM     22  C   UNL     1       0.265  27.383  16.536  1.00  0.00     0.000 C 
BRANCH  22  23
ATOM     23  C   UNL     1       0.162  26.294  17.619  1.00  0.00     0.000 C 
BRANCH  23  24
ATOM     24  C   UNL     1       0.845  24.963  17.255  1.00  0.00    -0.000 C 
BRANCH  24  25
ATOM     25  C   UNL     1       0.041  24.117  16.244  1.00  0.00    -0.000 C 
BRANCH  25  26
ATOM     26  C   UNL     1      -1.464  24.103  16.560  1.00  0.00    -0.000 C 
BRANCH  26  27
ATOM     27  C   UNL     1      -1.808  23.216  17.768  1.00  0.00    -0.000 C 
BRANCH  27  28
ATOM     28  C   UNL     1      -2.405  24.021  18.938  1.00  0.00    -0.000 C 
BRANCH  28  29
ATOM     29  C   UNL     1      -1.493  24.020  20.180  1.00  0.00    -0.000 C 
BRANCH  29  30
ATOM     30  C   UNL     1      -1.498  25.345  20.968  1.00  0.00    -0.000 C 
BRANCH  30  31
ATOM     31  C   UNL     1      -0.103  25.970  21.157  1.00  0.00    -0.003 C 
ATOM     32  C   UNL     1       1.026  24.958  20.957  1.00  0.00     0.004 C 
ENDBRANCH  30  31
ENDBRANCH  29  30
ENDBRANCH  28  29
ENDBRANCH  27  28
ENDBRANCH  26  27
ENDBRANCH  25  26
ENDBRANCH  24  25
ENDBRANCH  23  24
ENDBRANCH  22  23
ENDBRANCH  21  22
ENDBRANCH  20  21
ENDBRANCH  19  20
ENDBRANCH  18  19
ENDBRANCH   1  18
TORSDOF 28
ENDMDL
MODEL 6
REMARK VINA RESULT:    -4.654      2.887     12.308
REMARK INTER + INTRA:         -14.991
REMARK INTER:                 -12.768
REMARK INTRA:                  -2.223
REMARK UNBOUND:                -2.718
REMARK SMILES CCCCCCCCCCCCCCCCCCCCCCCCCCCCCC(=O)[O-]
REMARK SMILES IDX 16 1 17 2 18 3 19 4 20 5 21 6 22 7 23 8 24 9 25 10 26 11
REMARK SMILES IDX 27 12 28 13 29 14 30 15 31 16 32 17 15 18 14 19 13 20 12 21
REMARK SMILES IDX 11 22 10 23 9 24 8 25 7 26 6 27 5 28 4 29 3 30 2 31 1 32
REMARK H PARENT
REMARK Flexibility Score: inf
ROOT
ATOM      1  C   UNL     1      -0.743  32.441  17.327  1.00  0.00     0.000 C 
ENDROOT
BRANCH   1   2
ATOM      2  C   UNL     1       0.150  31.851  16.219  1.00  0.00     0.000 C 
BRANCH   2   3
ATOM      3  C   UNL     1       0.943  30.623  16.694  1.00  0.00     0.000 C 
BRANCH   3   4
ATOM      4  C   UNL     1       0.034  29.471  17.161  1.00  0.00     0.000 C 
BRANCH   4   5
ATOM      5  C   UNL     1       0.608  28.082  16.831  1.00  0.00     0.000 C 
BRANCH   5   6
ATOM      6  C   UNL     1      -0.228  26.890  17.344  1.00  0.00     0.000 C 
BRANCH   6   7
ATOM      7  C   UNL     1       0.572  25.595  17.597  1.00  0.00     0.000 C 
BRANCH   7   8
ATOM      8  C   UNL     1       0.206  24.418  16.671  1.00  0.00     0.000 C 
BRANCH   8   9
ATOM      9  C   UNL     1      -1.302  24.135  16.549  1.00  0.00     0.000 C 
BRANCH   9  10
ATOM     10  C   UNL     1      -1.814  23.163  17.625  1.00  0.00     0.000 C 
BRANCH  10  11
ATOM     11  C   UNL     1      -2.098  23.886  18.949  1.00  0.00     0.000 C 
BRANCH  11  12
ATOM     12  C   UNL     1      -1.801  23.022  20.189  1.00  0.00     0.000 C 
BRANCH  12  13
ATOM     13  C   UNL     1      -1.049  23.740  21.328  1.00  0.00     0.006 C 
BRANCH  13  14
ATOM     14  C   UNL     1      -1.408  25.229  21.477  1.00  0.00     0.053 C 
BRANCH  14  15
ATOM     15  C   UNL     1      -0.272  26.159  21.152  1.00  0.00     0.041 C 
ATOM     16  O   UNL     1       0.914  25.739  21.105  1.00  0.00    -0.550 OA
ATOM     17  O   UNL     1      -0.556  27.451  20.727  1.00  0.00    -0.550 OA
ENDBRANCH  14  15
ENDBRANCH  13  14
ENDBRANCH  12  13
ENDBRANCH  11  12
ENDBRANCH  10  11
ENDBRANCH   9  10
ENDBRANCH   8   9
ENDBRANCH   7   8
ENDBRANCH   6   7
ENDBRANCH   5   6
ENDBRANCH   4   5
ENDBRANCH   3   4
ENDBRANCH   2   3
ENDBRANCH   1   2
BRANCH   1  18
ATOM     18  C   UNL     1      -0.716  33.979  17.363  1.00  0.00     0.000 C 
BRANCH  18  19
ATOM     19  C   UNL     1      -0.801  34.637  15.969  1.00  0.00     0.000 C 
BRANCH  19  20
ATOM     20  C   UNL     1      -0.157  36.035  15.936  1.00  0.00     0.000 C 
BRANCH  20  21
ATOM     21  C   UNL     1       0.095  36.609  17.343  1.00  0.00     0.000 C 
BRANCH  21  22
ATOM     22  C   UNL     1      -0.991  37.570  17.866  1.00  0.00     0.000 C 
BRANCH  22  23
ATOM     23  C   UNL     1      -1.909  38.169  16.785  1.00  0.00     0.000 C 
BRANCH  23  24
ATOM     24  C   UNL     1      -3.280  38.643  17.301  1.00  0.00    -0.000 C 
BRANCH  24  25
ATOM     25  C   UNL     1      -4.121  37.512  17.933  1.00  0.00    -0.000 C 
BRANCH  25  26
ATOM     26  C   UNL     1      -4.597  37.864  19.352  1.00  0.00    -0.000 C 
BRANCH  26  27
ATOM     27  C   UNL     1      -3.631  37.368  20.442  1.00  0.00    -0.000 C 
BRANCH  27  28
ATOM     28  C   UNL     1      -4.363  36.675  21.606  1.00  0.00    -0.000 C 
BRANCH  28  29
ATOM     29  C   UNL     1      -5.859  37.038  21.661  1.00  0.00    -0.000 C 
BRANCH  29  30
ATOM     30  C   UNL     1      -6.190  38.207  22.612  1.00  0.00    -0.000 C 
BRANCH  30  31
ATOM     31  C   UNL     1      -7.452  38.999  22.220  1.00  0.00    -0.003 C 
ATOM     32  C   UNL     1      -7.443  39.428  20.751  1.00  0.00     0.004 C 
ENDBRANCH  30  31
ENDBRANCH  29  30
ENDBRANCH  28  29
ENDBRANCH  27  28
ENDBRANCH  26  27
ENDBRANCH  25  26
ENDBRANCH  24  25
ENDBRANCH  23  24
ENDBRANCH  22  23
ENDBRANCH  21  22
ENDBRANCH  20  21
ENDBRANCH  19  20
ENDBRANCH  18  19
ENDBRANCH   1  18
TORSDOF 28
ENDMDL
MODEL 7
REMARK VINA RESULT:    -4.590      2.932     11.543
REMARK INTER + INTRA:         -14.821
REMARK INTER:                 -12.319
REMARK INTRA:                  -2.502
REMARK UNBOUND:                -2.718
REMARK SMILES CCCCCCCCCCCCCCCCCCCCCCCCCCCCCC(=O)[O-]
REMARK SMILES IDX 16 1 17 2 18 3 19 4 20 5 21 6 22 7 23 8 24 9 25 10 26 11
REMARK SMILES IDX 27 12 28 13 29 14 30 15 31 16 32 17 15 18 14 19 13 20 12 21
REMARK SMILES IDX 11 22 10 23 9 24 8 25 7 26 6 27 5 28 4 29 3 30 2 31 1 32
REMARK H PARENT
REMARK Flexibility Score: inf
ROOT
ATOM      1  C   UNL     1      -1.587  35.420  16.895  1.00  0.00     0.000 C 
ENDROOT
BRANCH   1   2
ATOM      2  C   UNL     1      -1.724  33.920  17.215  1.00  0.00     0.000 C 
BRANCH   2   3
ATOM      3  C   UNL     1      -0.365  33.241  17.447  1.00  0.00     0.000 C 
BRANCH   3   4
ATOM      4  C   UNL     1      -0.005  32.233  16.340  1.00  0.00     0.000 C 
BRANCH   4   5
ATOM      5  C   UNL     1       0.727  30.990  16.875  1.00  0.00     0.000 C 
BRANCH   5   6
ATOM      6  C   UNL     1      -0.147  29.725  17.014  1.00  0.00     0.000 C 
BRANCH   6   7
ATOM      7  C   UNL     1       0.548  28.407  16.617  1.00  0.00     0.000 C 
BRANCH   7   8
ATOM      8  C   UNL     1      -0.402  27.207  16.422  1.00  0.00     0.000 C 
BRANCH   8   9
ATOM      9  C   UNL     1       0.287  25.900  15.990  1.00  0.00     0.000 C 
BRANCH   9  10
ATOM     10  C   UNL     1      -0.239  24.673  16.753  1.00  0.00     0.000 C 
BRANCH  10  11
ATOM     11  C   UNL     1      -0.542  25.007  18.220  1.00  0.00     0.000 C 
BRANCH  11  12
ATOM     12  C   UNL     1       0.721  25.310  19.049  1.00  0.00     0.000 C 
BRANCH  12  13
ATOM     13  C   UNL     1       0.594  25.048  20.563  1.00  0.00     0.006 C 
BRANCH  13  14
ATOM     14  C   UNL     1      -0.850  24.820  21.043  1.00  0.00     0.053 C 
BRANCH  14  15
ATOM     15  C   UNL     1      -1.536  26.075  21.507  1.00  0.00     0.041 C 
ATOM     16  O   UNL     1      -2.389  26.041  22.434  1.00  0.00    -0.550 OA
ATOM     17  O   UNL     1      -1.096  27.303  21.030  1.00  0.00    -0.550 OA
ENDBRANCH  14  15
ENDBRANCH  13  14
ENDBRANCH  12  13
ENDBRANCH  11  12
ENDBRANCH  10  11
ENDBRANCH   9  10
ENDBRANCH   8   9
ENDBRANCH   7   8
ENDBRANCH   6   7
ENDBRANCH   5   6
ENDBRANCH   4   5
ENDBRANCH   3   4
ENDBRANCH   2   3
ENDBRANCH   1   2
BRANCH   1  18
ATOM     18  C   UNL     1      -0.146  35.829  16.544  1.00  0.00     0.000 C 
BRANCH  18  19
ATOM     19  C   UNL     1       0.384  37.019  17.371  1.00  0.00     0.000 C 
BRANCH  19  20
ATOM     20  C   UNL     1       1.074  38.083  16.499  1.00  0.00     0.000 C 
BRANCH  20  21
ATOM     21  C   UNL     1       0.338  39.437  16.517  1.00  0.00     0.000 C 
BRANCH  21  22
ATOM     22  C   UNL     1      -1.186  39.360  16.299  1.00  0.00     0.000 C 
BRANCH  22  23
ATOM     23  C   UNL     1      -2.000  40.477  16.976  1.00  0.00     0.000 C 
BRANCH  23  24
ATOM     24  C   UNL     1      -3.018  39.984  18.021  1.00  0.00    -0.000 C 
BRANCH  24  25
ATOM     25  C   UNL     1      -3.211  38.452  18.013  1.00  0.00    -0.000 C 
BRANCH  25  26
ATOM     26  C   UNL     1      -2.823  37.809  19.355  1.00  0.00    -0.000 C 
BRANCH  26  27
ATOM     27  C   UNL     1      -1.756  38.616  20.114  1.00  0.00    -0.000 C 
BRANCH  27  28
ATOM     28  C   UNL     1      -2.343  39.393  21.307  1.00  0.00    -0.000 C 
BRANCH  28  29
ATOM     29  C   UNL     1      -3.071  38.474  22.307  1.00  0.00    -0.000 C 
BRANCH  29  30
ATOM     30  C   UNL     1      -4.606  38.471  22.158  1.00  0.00    -0.000 C 
BRANCH  30  31
ATOM     31  C   UNL     1      -5.245  37.072  22.260  1.00  0.00    -0.003 C 
ATOM     32  C   UNL     1      -4.203  35.953  22.303  1.00  0.00     0.004 C 
ENDBRANCH  30  31
ENDBRANCH  29  30
ENDBRANCH  28  29
ENDBRANCH  27  28
ENDBRANCH  26  27
ENDBRANCH  25  26
ENDBRANCH  24  25
ENDBRANCH  23  24
ENDBRANCH  22  23
ENDBRANCH  21  22
ENDBRANCH  20  21
ENDBRANCH  19  20
ENDBRANCH  18  19
ENDBRANCH   1  18
TORSDOF 28
ENDMDL
MODEL 8
REMARK VINA RESULT:    -4.580      1.661      3.203
REMARK INTER + INTRA:         -14.797
REMARK INTER:                 -12.191
REMARK INTRA:                  -2.606
REMARK UNBOUND:                -2.718
REMARK SMILES CCCCCCCCCCCCCCCCCCCCCCCCCCCCCC(=O)[O-]
REMARK SMILES IDX 16 1 17 2 18 3 19 4 20 5 21 6 22 7 23 8 24 9 25 10 26 11
REMARK SMILES IDX 27 12 28 13 29 14 30 15 31 16 32 17 15 18 14 19 13 20 12 21
REMARK SMILES IDX 11 22 10 23 9 24 8 25 7 26 6 27 5 28 4 29 3 30 2 31 1 32
REMARK H PARENT
REMARK Flexibility Score: inf
ROOT
ATOM      1  C   UNL     1      -1.973  38.028  15.939  1.00  0.00     0.000 C 
ENDROOT
BRANCH   1   2
ATOM      2  C   UNL     1      -2.936  38.489  17.049  1.00  0.00     0.000 C 
BRANCH   2   3
ATOM      3  C   UNL     1      -2.973  40.018  17.198  1.00  0.00     0.000 C 
BRANCH   3   4
ATOM      4  C   UNL     1      -2.657  40.486  18.631  1.00  0.00     0.000 C 
BRANCH   4   5
ATOM      5  C   UNL     1      -1.840  39.457  19.432  1.00  0.00     0.000 C 
BRANCH   5   6
ATOM      6  C   UNL     1      -1.202  39.997  20.730  1.00  0.00     0.000 C 
BRANCH   6   7
ATOM      7  C   UNL     1      -1.689  39.317  22.026  1.00  0.00     0.000 C 
BRANCH   7   8
ATOM      8  C   UNL     1      -2.965  39.930  22.637  1.00  0.00     0.000 C 
BRANCH   8   9
ATOM      9  C   UNL     1      -4.016  38.905  23.103  1.00  0.00     0.000 C 
BRANCH   9  10
ATOM     10  C   UNL     1      -3.683  37.471  22.663  1.00  0.00     0.000 C 
BRANCH  10  11
ATOM     11  C   UNL     1      -4.859  36.821  21.920  1.00  0.00     0.000 C 
BRANCH  11  12
ATOM     12  C   UNL     1      -4.824  37.060  20.399  1.00  0.00     0.000 C 
BRANCH  12  13
ATOM     13  C   UNL     1      -5.374  38.424  19.935  1.00  0.00     0.006 C 
BRANCH  13  14
ATOM     14  C   UNL     1      -6.878  38.618  20.197  1.00  0.00     0.053 C 
BRANCH  14  15
ATOM     15  C   UNL     1      -7.177  39.599  21.297  1.00  0.00     0.041 C 
ATOM     16  O   UNL     1      -6.976  40.832  21.137  1.00  0.00    -0.550 OA
ATOM     17  O   UNL     1      -7.845  39.158  22.433  1.00  0.00    -0.550 OA
ENDBRANCH  14  15
ENDBRANCH  13  14
ENDBRANCH  12  13
ENDBRANCH  11  12
ENDBRANCH  10  11
ENDBRANCH   9  10
ENDBRANCH   8   9
ENDBRANCH   7   8
ENDBRANCH   6   7
ENDBRANCH   5   6
ENDBRANCH   4   5
ENDBRANCH   3   4
ENDBRANCH   2   3
ENDBRANCH   1   2
BRANCH   1  18
ATOM     18  C   UNL     1      -1.300  36.680  16.251  1.00  0.00     0.000 C 
BRANCH  18  19
ATOM     19  C   UNL     1      -2.291  35.561  16.634  1.00  0.00     0.000 C 
BRANCH  19  20
ATOM     20  C   UNL     1      -1.663  34.510  17.568  1.00  0.00     0.000 C 
BRANCH  20  21
ATOM     21  C   UNL     1      -0.571  33.673  16.874  1.00  0.00     0.000 C 
BRANCH  21  22
ATOM     22  C   UNL     1      -0.222  32.342  17.567  1.00  0.00     0.000 C 
BRANCH  22  23
ATOM     23  C   UNL     1      -0.033  31.142  16.622  1.00  0.00     0.000 C 
BRANCH  23  24
ATOM     24  C   UNL     1      -0.184  29.767  17.296  1.00  0.00    -0.000 C 
BRANCH  24  25
ATOM     25  C   UNL     1       0.054  28.583  16.334  1.00  0.00    -0.000 C 
BRANCH  25  26
ATOM     26  C   UNL     1       0.484  27.306  17.076  1.00  0.00    -0.000 C 
BRANCH  26  27
ATOM     27  C   UNL     1      -0.216  26.045  16.541  1.00  0.00    -0.000 C 
BRANCH  27  28
ATOM     28  C   UNL     1       0.054  24.806  17.416  1.00  0.00    -0.000 C 
BRANCH  28  29
ATOM     29  C   UNL     1      -1.240  24.200  17.993  1.00  0.00    -0.000 C 
BRANCH  29  30
ATOM     30  C   UNL     1      -1.468  24.505  19.487  1.00  0.00    -0.000 C 
BRANCH  30  31
ATOM     31  C   UNL     1      -0.504  25.558  20.068  1.00  0.00    -0.003 C 
ATOM     32  C   UNL     1       0.571  24.940  20.963  1.00  0.00     0.004 C 
ENDBRANCH  30  31
ENDBRANCH  29  30
ENDBRANCH  28  29
ENDBRANCH  27  28
ENDBRANCH  26  27
ENDBRANCH  25  26
ENDBRANCH  24  25
ENDBRANCH  23  24
ENDBRANCH  22  23
ENDBRANCH  21  22
ENDBRANCH  20  21
ENDBRANCH  19  20
ENDBRANCH  18  19
ENDBRANCH   1  18
TORSDOF 28
ENDMDL
MODEL 9
REMARK VINA RESULT:    -4.566      7.230     11.452
REMARK INTER + INTRA:         -14.760
REMARK INTER:                 -11.454
REMARK INTRA:                  -3.306
REMARK UNBOUND:                -2.718
REMARK SMILES CCCCCCCCCCCCCCCCCCCCCCCCCCCCCC(=O)[O-]
REMARK SMILES IDX 16 1 17 2 18 3 19 4 20 5 21 6 22 7 23 8 24 9 25 10 26 11
REMARK SMILES IDX 27 12 28 13 29 14 30 15 31 16 32 17 15 18 14 19 13 20 12 21
REMARK SMILES IDX 11 22 10 23 9 24 8 25 7 26 6 27 5 28 4 29 3 30 2 31 1 32
REMARK H PARENT
REMARK Flexibility Score: inf
ROOT
ATOM      1  C   UNL     1      -3.597  39.886  28.225  1.00  0.00     0.000 C 
ENDROOT
BRANCH   1   2
ATOM      2  C   UNL     1      -2.475  40.906  28.494  1.00  0.00     0.000 C 
BRANCH   2   3
ATOM      3  C   UNL     1      -1.665  40.572  29.757  1.00  0.00     0.000 C 
BRANCH   3   4
ATOM      4  C   UNL     1      -0.952  39.210  29.665  1.00  0.00     0.000 C 
BRANCH   4   5
ATOM      5  C   UNL     1       0.581  39.330  29.714  1.00  0.00     0.000 C 
BRANCH   5   6
ATOM      6  C   UNL     1       1.116  40.595  30.419  1.00  0.00     0.000 C 
BRANCH   6   7
ATOM      7  C   UNL     1       2.044  40.326  31.621  1.00  0.00     0.000 C 
BRANCH   7   8
ATOM      8  C   UNL     1       1.336  39.768  32.873  1.00  0.00     0.000 C 
BRANCH   8   9
ATOM      9  C   UNL     1      -0.091  40.299  33.100  1.00  0.00     0.000 C 
BRANCH   9  10
ATOM     10  C   UNL     1      -0.626  39.982  34.506  1.00  0.00     0.000 C 
BRANCH  10  11
ATOM     11  C   UNL     1      -2.116  39.614  34.474  1.00  0.00     0.000 C 
BRANCH  11  12
ATOM     12  C   UNL     1      -2.620  39.242  33.067  1.00  0.00     0.000 C 
BRANCH  12  13
ATOM     13  C   UNL     1      -3.464  37.954  32.989  1.00  0.00     0.006 C 
BRANCH  13  14
ATOM     14  C   UNL     1      -3.888  37.565  31.562  1.00  0.00     0.053 C 
BRANCH  14  15
ATOM     15  C   UNL     1      -3.364  36.227  31.121  1.00  0.00     0.041 C 
ATOM     16  O   UNL     1      -2.395  36.143  30.321  1.00  0.00    -0.550 OA
ATOM     17  O   UNL     1      -3.840  35.077  31.738  1.00  0.00    -0.550 OA
ENDBRANCH  14  15
ENDBRANCH  13  14
ENDBRANCH  12  13
ENDBRANCH  11  12
ENDBRANCH  10  11
ENDBRANCH   9  10
ENDBRANCH   8   9
ENDBRANCH   7   8
ENDBRANCH   6   7
ENDBRANCH   5   6
ENDBRANCH   4   5
ENDBRANCH   3   4
ENDBRANCH   2   3
ENDBRANCH   1   2
BRANCH   1  18
ATOM     18  C   UNL     1      -4.167  39.983  26.799  1.00  0.00     0.000 C 
BRANCH  18  19
ATOM     19  C   UNL     1      -3.293  40.812  25.834  1.00  0.00     0.000 C 
BRANCH  19  20
ATOM     20  C   UNL     1      -3.637  40.552  24.356  1.00  0.00     0.000 C 
BRANCH  20  21
ATOM     21  C   UNL     1      -3.236  39.139  23.891  1.00  0.00     0.000 C 
BRANCH  21  22
ATOM     22  C   UNL     1      -2.135  39.089  22.813  1.00  0.00     0.000 C 
BRANCH  22  23
ATOM     23  C   UNL     1      -2.631  38.795  21.386  1.00  0.00     0.000 C 
BRANCH  23  24
ATOM     24  C   UNL     1      -2.323  39.901  20.361  1.00  0.00    -0.000 C 
BRANCH  24  25
ATOM     25  C   UNL     1      -3.342  39.966  19.203  1.00  0.00    -0.000 C 
BRANCH  25  26
ATOM     26  C   UNL     1      -3.157  38.815  18.199  1.00  0.00    -0.000 C 
BRANCH  26  27
ATOM     27  C   UNL     1      -4.476  38.094  17.873  1.00  0.00    -0.000 C 
BRANCH  27  28
ATOM     28  C   UNL     1      -5.271  37.721  19.138  1.00  0.00    -0.000 C 
BRANCH  28  29
ATOM     29  C   UNL     1      -6.749  38.152  19.052  1.00  0.00    -0.000 C 
BRANCH  29  30
ATOM     30  C   UNL     1      -7.297  38.785  20.347  1.00  0.00    -0.000 C 
BRANCH  30  31
ATOM     31  C   UNL     1      -6.241  38.962  21.456  1.00  0.00    -0.003 C 
ATOM     32  C   UNL     1      -6.866  39.268  22.818  1.00  0.00     0.004 C 
ENDBRANCH  30  31
ENDBRANCH  29  30
ENDBRANCH  28  29
ENDBRANCH  27  28
ENDBRANCH  26  27
ENDBRANCH  25  26
ENDBRANCH  24  25
ENDBRANCH  23  24
ENDBRANCH  22  23
ENDBRANCH  21  22
ENDBRANCH  20  21
ENDBRANCH  19  20
ENDBRANCH  18  19
ENDBRANCH   1  18
TORSDOF 28
ENDMDL
