MODEL 1
REMARK VINA RESULT:    -4.800      0.000      0.000
REMARK INTER + INTRA:          -4.940
REMARK INTER:                  -4.940
REMARK INTRA:                   0.000
REMARK UNBOUND:                 0.000
REMARK SMILES Nc1ncnc2nc[nH]c12
REMARK SMILES IDX 8 1 7 2 6 3 5 4 4 5 3 6 2 7 10 8 9 9 1 11
REMARK H PARENT 9 10 1 12 1 13
REMARK Flexibility Score: inf
ROOT
ATOM      1  C   UNL     1     179.705 -22.737  25.485  1.00  0.00     0.199 A 
ATOM      2  N   UNL     1     180.144 -21.529  25.932  1.00  0.00    -0.217 NA
ATOM      3  C   UNL     1     180.892 -21.097  24.904  1.00  0.00     0.182 A 
ATOM      4  N   UNL     1     181.569 -19.927  24.831  1.00  0.00    -0.215 NA
ATOM      5  C   UNL     1     182.280 -19.662  23.694  1.00  0.00     0.226 A 
ATOM      6  N   UNL     1     182.301 -20.563  22.660  1.00  0.00    -0.217 NA
ATOM      7  C   UNL     1     181.619 -21.745  22.731  1.00  0.00     0.152 A 
ATOM      8  C   UNL     1     180.899 -22.000  23.895  1.00  0.00     0.127 A 
ATOM      9  N   UNL     1     180.150 -23.053  24.242  1.00  0.00    -0.340 N 
ATOM     10  H   UNL     1     179.947 -23.919  23.696  1.00  0.00     0.168 HD
ENDROOT
BRANCH   7  11
ATOM     11  N   UNL     1     181.655 -22.668  21.641  1.00  0.00    -0.382 N 
ATOM     12  H   UNL     1     181.692 -23.698  21.803  1.00  0.00     0.158 HD
ATOM     13  H   UNL     1     181.644 -22.316  20.659  1.00  0.00     0.158 HD
ENDBRANCH   7  11
TORSDOF 1
ENDMDL
MODEL 2
REMARK VINA RESULT:    -4.442      1.265      3.090
REMARK INTER + INTRA:          -4.572
REMARK INTER:                  -4.572
REMARK INTRA:                   0.000
REMARK UNBOUND:                 0.000
REMARK SMILES Nc1ncnc2nc[nH]c12
REMARK SMILES IDX 8 1 7 2 6 3 5 4 4 5 3 6 2 7 10 8 9 9 1 11
REMARK H PARENT 9 10 1 12 1 13
REMARK Flexibility Score: inf
ROOT
ATOM      1  C   UNL     1     181.721 -22.440  22.686  1.00  0.00     0.199 A 
ATOM      2  N   UNL     1     181.737 -21.079  22.714  1.00  0.00    -0.217 NA
ATOM      3  C   UNL     1     180.893 -20.804  23.721  1.00  0.00     0.182 A 
ATOM      4  N   UNL     1     180.547 -19.575  24.174  1.00  0.00    -0.215 NA
ATOM      5  C   UNL     1     179.666 -19.495  25.216  1.00  0.00     0.226 A 
ATOM      6  N   UNL     1     179.154 -20.635  25.783  1.00  0.00    -0.217 NA
ATOM      7  C   UNL     1     179.502 -21.875  25.329  1.00  0.00     0.152 A 
ATOM      8  C   UNL     1     180.399 -21.940  24.267  1.00  0.00     0.127 A 
ATOM      9  N   UNL     1     180.912 -22.996  23.623  1.00  0.00    -0.340 N 
ATOM     10  H   UNL     1     180.740 -24.011  23.792  1.00  0.00     0.168 HD
ENDROOT
BRANCH   7  11
ATOM     11  N   UNL     1     178.955 -23.048  25.935  1.00  0.00    -0.382 N 
ATOM     12  H   UNL     1     178.528 -23.807  25.361  1.00  0.00     0.158 HD
ATOM     13  H   UNL     1     178.979 -23.158  26.973  1.00  0.00     0.158 HD
ENDBRANCH   7  11
TORSDOF 1
ENDMDL
MODEL 3
REMARK VINA RESULT:    -4.409      1.633      3.259
REMARK INTER + INTRA:          -4.537
REMARK INTER:                  -4.537
REMARK INTRA:                   0.000
REMARK UNBOUND:                 0.000
REMARK SMILES Nc1ncnc2nc[nH]c12
REMARK SMILES IDX 8 1 7 2 6 3 5 4 4 5 3 6 2 7 10 8 9 9 1 11
REMARK H PARENT 9 10 1 12 1 13
REMARK Flexibility Score: inf
ROOT
ATOM      1  C   UNL     1     181.891 -20.704  22.738  1.00  0.00     0.199 A 
ATOM      2  N   UNL     1     181.970 -19.566  23.480  1.00  0.00    -0.217 NA
ATOM      3  C   UNL     1     180.978 -19.734  24.369  1.00  0.00     0.182 A 
ATOM      4  N   UNL     1     180.620 -18.876  25.354  1.00  0.00    -0.215 NA
ATOM      5  C   UNL     1     179.576 -19.222  26.165  1.00  0.00     0.226 A 
ATOM      6  N   UNL     1     178.915 -20.411  25.979  1.00  0.00    -0.217 NA
ATOM      7  C   UNL     1     179.274 -21.278  24.987  1.00  0.00     0.152 A 
ATOM      8  C   UNL     1     180.339 -20.910  24.169  1.00  0.00     0.127 A 
ATOM      9  N   UNL     1     180.903 -21.546  23.135  1.00  0.00    -0.340 N 
ATOM     10  H   UNL     1     180.652 -22.472  22.722  1.00  0.00     0.168 HD
ENDROOT
BRANCH   7  11
ATOM     11  N   UNL     1     178.571 -22.509  24.812  1.00  0.00    -0.382 N 
ATOM     12  H   UNL     1     177.691 -22.558  24.253  1.00  0.00     0.158 HD
ATOM     13  H   UNL     1     178.936 -23.384  25.249  1.00  0.00     0.158 HD
ENDBRANCH   7  11
TORSDOF 1
ENDMDL
MODEL 4
REMARK VINA RESULT:    -4.401      0.757      2.780
REMARK INTER + INTRA:          -4.529
REMARK INTER:                  -4.529
REMARK INTRA:                   0.000
REMARK UNBOUND:                 0.000
REMARK SMILES Nc1ncnc2nc[nH]c12
REMARK SMILES IDX 8 1 7 2 6 3 5 4 4 5 3 6 2 7 10 8 9 9 1 11
REMARK H PARENT 9 10 1 12 1 13
REMARK Flexibility Score: inf
ROOT
ATOM      1  C   UNL     1     182.072 -19.034  23.949  1.00  0.00     0.199 A 
ATOM      2  N   UNL     1     181.652 -19.522  25.148  1.00  0.00    -0.217 NA
ATOM      3  C   UNL     1     181.367 -20.801  24.853  1.00  0.00     0.182 A 
ATOM      4  N   UNL     1     180.904 -21.743  25.707  1.00  0.00    -0.215 NA
ATOM      5  C   UNL     1     180.671 -22.999  25.219  1.00  0.00     0.226 A 
ATOM      6  N   UNL     1     180.905 -23.286  23.898  1.00  0.00    -0.217 NA
ATOM      7  C   UNL     1     181.373 -22.337  23.035  1.00  0.00     0.152 A 
ATOM      8  C   UNL     1     181.605 -21.064  23.547  1.00  0.00     0.127 A 
ATOM      9  N   UNL     1     182.054 -19.953  22.950  1.00  0.00    -0.340 N 
ATOM     10  H   UNL     1     182.330 -19.813  21.953  1.00  0.00     0.168 HD
ENDROOT
BRANCH   7  11
ATOM     11  N   UNL     1     181.610 -22.659  21.663  1.00  0.00    -0.382 N 
ATOM     12  H   UNL     1     181.440 -23.621  21.295  1.00  0.00     0.158 HD
ATOM     13  H   UNL     1     181.958 -21.926  21.007  1.00  0.00     0.158 HD
ENDBRANCH   7  11
TORSDOF 1
ENDMDL
MODEL 5
REMARK VINA RESULT:    -4.358      1.962      2.912
REMARK INTER + INTRA:          -4.485
REMARK INTER:                  -4.485
REMARK INTRA:                   0.000
REMARK UNBOUND:                 0.000
REMARK SMILES Nc1ncnc2nc[nH]c12
REMARK SMILES IDX 8 1 7 2 6 3 5 4 4 5 3 6 2 7 10 8 9 9 1 11
REMARK H PARENT 9 10 1 12 1 13
REMARK Flexibility Score: inf
ROOT
ATOM      1  C   UNL     1     180.491 -23.338  28.242  1.00  0.00     0.199 A 
ATOM      2  N   UNL     1     181.672 -22.813  27.816  1.00  0.00    -0.217 NA
ATOM      3  C   UNL     1     181.361 -22.372  26.586  1.00  0.00     0.182 A 
ATOM      4  N   UNL     1     182.193 -21.755  25.714  1.00  0.00    -0.215 NA
ATOM      5  C   UNL     1     181.692 -21.377  24.500  1.00  0.00     0.226 A 
ATOM      6  N   UNL     1     180.379 -21.618  24.184  1.00  0.00    -0.217 NA
ATOM      7  C   UNL     1     179.537 -22.240  25.062  1.00  0.00     0.152 A 
ATOM      8  C   UNL     1     180.063 -22.619  26.293  1.00  0.00     0.127 A 
ATOM      9  N   UNL     1     179.488 -23.235  27.334  1.00  0.00    -0.340 N 
ATOM     10  H   UNL     1     178.502 -23.563  27.436  1.00  0.00     0.168 HD
ENDROOT
BRANCH   7  11
ATOM     11  N   UNL     1     178.174 -22.482  24.710  1.00  0.00    -0.382 N 
ATOM     12  H   UNL     1     177.921 -23.061  23.879  1.00  0.00     0.158 HD
ATOM     13  H   UNL     1     177.406 -22.076  25.290  1.00  0.00     0.158 HD
ENDBRANCH   7  11
TORSDOF 1
ENDMDL
MODEL 6
REMARK VINA RESULT:    -4.325     14.377     16.123
REMARK INTER + INTRA:          -4.451
REMARK INTER:                  -4.451
REMARK INTRA:                   0.000
REMARK UNBOUND:                 0.000
REMARK SMILES Nc1ncnc2nc[nH]c12
REMARK SMILES IDX 8 1 7 2 6 3 5 4 4 5 3 6 2 7 10 8 9 9 1 11
REMARK H PARENT 9 10 1 12 1 13
REMARK Flexibility Score: inf
ROOT
ATOM      1  C   UNL     1     183.590 -25.956  36.949  1.00  0.00     0.199 A 
ATOM      2  N   UNL     1     183.564 -24.713  37.502  1.00  0.00    -0.217 NA
ATOM      3  C   UNL     1     183.033 -24.950  38.713  1.00  0.00     0.182 A 
ATOM      4  N   UNL     1     182.787 -24.036  39.681  1.00  0.00    -0.215 NA
ATOM      5  C   UNL     1     182.238 -24.471  40.855  1.00  0.00     0.226 A 
ATOM      6  N   UNL     1     181.951 -25.800  41.039  1.00  0.00    -0.217 NA
ATOM      7  C   UNL     1     182.199 -26.724  40.064  1.00  0.00     0.152 A 
ATOM      8  C   UNL     1     182.758 -26.265  38.874  1.00  0.00     0.127 A 
ATOM      9  N   UNL     1     183.103 -26.927  37.763  1.00  0.00    -0.340 N 
ATOM     10  H   UNL     1     183.023 -27.947  37.558  1.00  0.00     0.168 HD
ENDROOT
BRANCH   7  11
ATOM     11  N   UNL     1     181.891 -28.103  40.278  1.00  0.00    -0.382 N 
ATOM     12  H   UNL     1     181.819 -28.773  39.481  1.00  0.00     0.158 HD
ATOM     13  H   UNL     1     181.734 -28.458  41.247  1.00  0.00     0.158 HD
ENDBRANCH   7  11
TORSDOF 1
ENDMDL
MODEL 7
REMARK VINA RESULT:    -4.282      1.584      3.407
REMARK INTER + INTRA:          -4.408
REMARK INTER:                  -4.408
REMARK INTRA:                   0.000
REMARK UNBOUND:                 0.000
REMARK SMILES Nc1ncnc2nc[nH]c12
REMARK SMILES IDX 8 1 7 2 6 3 5 4 4 5 3 6 2 7 10 8 9 9 1 11
REMARK H PARENT 9 10 1 12 1 13
REMARK Flexibility Score: inf
ROOT
ATOM      1  C   UNL     1     182.148 -21.274  22.931  1.00  0.00     0.199 A 
ATOM      2  N   UNL     1     182.936 -21.477  24.022  1.00  0.00    -0.217 NA
ATOM      3  C   UNL     1     182.054 -21.919  24.933  1.00  0.00     0.182 A 
ATOM      4  N   UNL     1     182.321 -22.273  26.212  1.00  0.00    -0.215 NA
ATOM      5  C   UNL     1     181.284 -22.700  26.995  1.00  0.00     0.226 A 
ATOM      6  N   UNL     1     180.011 -22.766  26.487  1.00  0.00    -0.217 NA
ATOM      7  C   UNL     1     179.739 -22.408  25.197  1.00  0.00     0.152 A 
ATOM      8  C   UNL     1     180.805 -21.976  24.414  1.00  0.00     0.127 A 
ATOM      9  N   UNL     1     180.840 -21.569  23.139  1.00  0.00    -0.340 N 
ATOM     10  H   UNL     1     180.055 -21.494  22.455  1.00  0.00     0.168 HD
ENDROOT
BRANCH   7  11
ATOM     11  N   UNL     1     178.405 -22.485  24.691  1.00  0.00    -0.382 N 
ATOM     12  H   UNL     1     178.185 -22.240  23.701  1.00  0.00     0.158 HD
ATOM     13  H   UNL     1     177.627 -22.791  25.316  1.00  0.00     0.158 HD
ENDBRANCH   7  11
TORSDOF 1
ENDMDL
MODEL 8
REMARK VINA RESULT:    -4.206      1.399      2.603
REMARK INTER + INTRA:          -4.329
REMARK INTER:                  -4.329
REMARK INTRA:                   0.000
REMARK UNBOUND:                 0.000
REMARK SMILES Nc1ncnc2nc[nH]c12
REMARK SMILES IDX 8 1 7 2 6 3 5 4 4 5 3 6 2 7 10 8 9 9 1 11
REMARK H PARENT 9 10 1 12 1 13
REMARK Flexibility Score: inf
ROOT
ATOM      1  C   UNL     1     179.363 -19.645  26.166  1.00  0.00     0.199 A 
ATOM      2  N   UNL     1     179.345 -20.978  26.438  1.00  0.00    -0.217 NA
ATOM      3  C   UNL     1     179.993 -21.494  25.381  1.00  0.00     0.182 A 
ATOM      4  N   UNL     1     180.255 -22.803  25.153  1.00  0.00    -0.215 NA
ATOM      5  C   UNL     1     180.930 -23.137  24.012  1.00  0.00     0.226 A 
ATOM      6  N   UNL     1     181.330 -22.166  23.130  1.00  0.00    -0.217 NA
ATOM      7  C   UNL     1     181.067 -20.845  23.358  1.00  0.00     0.152 A 
ATOM      8  C   UNL     1     180.378 -20.521  24.523  1.00  0.00     0.127 A 
ATOM      9  N   UNL     1     179.987 -19.333  25.002  1.00  0.00    -0.340 N 
ATOM     10  H   UNL     1     180.125 -18.384  24.588  1.00  0.00     0.168 HD
ENDROOT
BRANCH   7  11
ATOM     11  N   UNL     1     181.492 -19.851  22.424  1.00  0.00    -0.382 N 
ATOM     12  H   UNL     1     180.981 -19.693  21.528  1.00  0.00     0.158 HD
ATOM     13  H   UNL     1     182.330 -19.264  22.632  1.00  0.00     0.158 HD
ENDBRANCH   7  11
TORSDOF 1
ENDMDL
MODEL 9
REMARK VINA RESULT:    -4.172      1.398      3.819
REMARK INTER + INTRA:          -4.294
REMARK INTER:                  -4.294
REMARK INTRA:                   0.000
REMARK UNBOUND:                 0.000
REMARK SMILES Nc1ncnc2nc[nH]c12
REMARK SMILES IDX 8 1 7 2 6 3 5 4 4 5 3 6 2 7 10 8 9 9 1 11
REMARK H PARENT 9 10 1 12 1 13
REMARK Flexibility Score: inf
ROOT
ATOM      1  C   UNL     1     182.154 -20.365  22.773  1.00  0.00     0.199 A 
ATOM      2  N   UNL     1     181.995 -21.691  23.032  1.00  0.00    -0.217 NA
ATOM      3  C   UNL     1     180.955 -21.694  23.882  1.00  0.00     0.182 A 
ATOM      4  N   UNL     1     180.382 -22.779  24.455  1.00  0.00    -0.215 NA
ATOM      5  C   UNL     1     179.326 -22.580  25.300  1.00  0.00     0.226 A 
ATOM      6  N   UNL     1     178.865 -21.313  25.553  1.00  0.00    -0.217 NA
ATOM      7  C   UNL     1     179.442 -20.217  24.976  1.00  0.00     0.152 A 
ATOM      8  C   UNL     1     180.516 -20.436  24.118  1.00  0.00     0.127 A 
ATOM      9  N   UNL     1     181.265 -19.571  23.422  1.00  0.00    -0.340 N 
ATOM     10  H   UNL     1     181.193 -18.531  23.380  1.00  0.00     0.168 HD
ENDROOT
BRANCH   7  11
ATOM     11  N   UNL     1     178.946 -18.907  25.254  1.00  0.00    -0.382 N 
ATOM     12  H   UNL     1     178.487 -18.682  26.165  1.00  0.00     0.158 HD
ATOM     13  H   UNL     1     179.038 -18.151  24.541  1.00  0.00     0.158 HD
ENDBRANCH   7  11
TORSDOF 1
ENDMDL
