MODEL 1
REMARK VINA RESULT:    -6.185      0.000      0.000
REMARK INTER + INTRA:         -10.557
REMARK INTER:                  -9.620
REMARK INTRA:                  -0.937
REMARK UNBOUND:                -0.937
REMARK SMILES COc1cc(CNC(=O)CCCCC=CC(C)C)ccc1O
REMARK SMILES IDX 11 1 12 2 13 3 14 4 15 5 16 6 17 7 18 8 10 9 8 10 9 11 7 12
REMARK SMILES IDX 6 14 5 15 4 16 19 17 3 18 20 19 21 20 2 21 1 22 22 23
REMARK H PARENT 7 13 22 24
REMARK Flexibility Score: inf
ROOT
ATOM      1  C   UNL     1      24.644 -27.810  30.386  1.00  0.00     0.010 C 
ENDROOT
BRANCH   1   2
ATOM      2  C   UNL     1      23.747 -27.552  31.601  1.00  0.00     0.005 C 
BRANCH   2   3
ATOM      3  C   UNL     1      23.838 -28.706  32.608  1.00  0.00     0.027 C 
BRANCH   3   4
ATOM      4  C   UNL     1      25.197 -29.354  32.564  1.00  0.00    -0.031 C 
ATOM      5  C   UNL     1      26.261 -28.956  33.287  1.00  0.00    -0.028 C 
BRANCH   5   6
ATOM      6  C   UNL     1      26.236 -27.850  34.324  1.00  0.00     0.005 C 
ATOM      7  C   UNL     1      26.752 -28.383  35.663  1.00  0.00     0.012 C 
ATOM      8  C   UNL     1      27.088 -26.670  33.850  1.00  0.00     0.012 C 
ENDBRANCH   5   6
ENDBRANCH   3   4
ENDBRANCH   2   3
ENDBRANCH   1   2
BRANCH   1   9
ATOM      9  C   UNL     1      25.065 -26.495  29.724  1.00  0.00     0.100 C 
BRANCH   9  10
ATOM     10  C   UNL     1      23.875 -25.800  29.135  1.00  0.00     0.220 C 
ATOM     11  O   UNL     1      23.417 -24.769  29.699  1.00  0.00    -0.275 OA
ATOM     12  N   UNL     1      23.235 -26.334  27.967  1.00  0.00    -0.352 N 
ATOM     13  H   UNL     1      23.596 -27.223  27.552  1.00  0.00     0.163 HD
BRANCH  12  14
ATOM     14  C   UNL     1      22.085 -25.689  27.339  1.00  0.00     0.151 C 
BRANCH  14  15
ATOM     15  C   UNL     1      22.485 -25.080  26.022  1.00  0.00    -0.025 A 
ATOM     16  C   UNL     1      23.796 -25.233  25.548  1.00  0.00     0.056 A 
ATOM     17  C   UNL     1      21.564 -24.335  25.272  1.00  0.00     0.009 A 
ATOM     18  C   UNL     1      24.191 -24.653  24.325  1.00  0.00     0.160 A 
ATOM     19  C   UNL     1      21.947 -23.760  24.059  1.00  0.00     0.050 A 
ATOM     20  C   UNL     1      23.252 -23.915  23.582  1.00  0.00     0.157 A 
BRANCH  18  21
ATOM     21  O   UNL     1      25.495 -24.787  23.825  1.00  0.00    -0.493 OA
ATOM     22  C   UNL     1      26.583 -23.932  24.164  1.00  0.00     0.278 C 
ENDBRANCH  18  21
BRANCH  20  23
ATOM     23  O   UNL     1      23.598 -23.327  22.366  1.00  0.00    -0.504 OA
ATOM     24  H   UNL     1      24.475 -23.527  21.900  1.00  0.00     0.293 HD
ENDBRANCH  20  23
ENDBRANCH  14  15
ENDBRANCH  12  14
ENDBRANCH   9  10
ENDBRANCH   1   9
TORSDOF 10
ENDMDL
MODEL 2
REMARK VINA RESULT:    -6.183      4.611      8.013
REMARK INTER + INTRA:         -10.554
REMARK INTER:                  -9.422
REMARK INTRA:                  -1.133
REMARK UNBOUND:                -0.937
REMARK SMILES COc1cc(CNC(=O)CCCCC=CC(C)C)ccc1O
REMARK SMILES IDX 11 1 12 2 13 3 14 4 15 5 16 6 17 7 18 8 10 9 8 10 9 11 7 12
REMARK SMILES IDX 6 14 5 15 4 16 19 17 3 18 20 19 21 20 2 21 1 22 22 23
REMARK H PARENT 7 13 22 24
REMARK Flexibility Score: inf
ROOT
ATOM      1  C   UNL     1      25.878 -23.136  27.142  1.00  0.00     0.010 C 
ENDROOT
BRANCH   1   2
ATOM      2  C   UNL     1      25.091 -24.147  27.983  1.00  0.00     0.005 C 
BRANCH   2   3
ATOM      3  C   UNL     1      24.770 -25.408  27.170  1.00  0.00     0.027 C 
BRANCH   3   4
ATOM      4  C   UNL     1      23.300 -25.731  27.234  1.00  0.00    -0.031 C 
ATOM      5  C   UNL     1      22.432 -25.562  26.218  1.00  0.00    -0.028 C 
BRANCH   5   6
ATOM      6  C   UNL     1      22.812 -25.104  24.825  1.00  0.00     0.005 C 
ATOM      7  C   UNL     1      22.803 -26.297  23.866  1.00  0.00     0.012 C 
ATOM      8  C   UNL     1      21.839 -24.023  24.347  1.00  0.00     0.012 C 
ENDBRANCH   5   6
ENDBRANCH   3   4
ENDBRANCH   2   3
ENDBRANCH   1   2
BRANCH   1   9
ATOM      9  C   UNL     1      25.093 -22.731  25.891  1.00  0.00     0.100 C 
BRANCH   9  10
ATOM     10  C   UNL     1      25.940 -22.897  24.666  1.00  0.00     0.220 C 
ATOM     11  O   UNL     1      25.411 -23.300  23.595  1.00  0.00    -0.275 OA
ATOM     12  N   UNL     1      27.352 -22.643  24.728  1.00  0.00    -0.352 N 
ATOM     13  H   UNL     1      27.778 -22.368  25.641  1.00  0.00     0.163 HD
BRANCH  12  14
ATOM     14  C   UNL     1      28.223 -22.769  23.562  1.00  0.00     0.151 C 
BRANCH  14  15
ATOM     15  C   UNL     1      28.799 -21.427  23.196  1.00  0.00    -0.025 A 
ATOM     16  C   UNL     1      28.911 -20.423  24.170  1.00  0.00     0.056 A 
ATOM     17  C   UNL     1      29.202 -21.159  21.880  1.00  0.00     0.009 A 
ATOM     18  C   UNL     1      29.432 -19.156  23.838  1.00  0.00     0.160 A 
ATOM     19  C   UNL     1      29.721 -19.907  21.546  1.00  0.00     0.050 A 
ATOM     20  C   UNL     1      29.839 -18.906  22.515  1.00  0.00     0.157 A 
BRANCH  18  21
ATOM     21  O   UNL     1      29.556 -18.131  24.789  1.00  0.00    -0.493 OA
ATOM     22  C   UNL     1      28.483 -17.308  25.236  1.00  0.00     0.278 C 
ENDBRANCH  18  21
BRANCH  20  23
ATOM     23  O   UNL     1      30.363 -17.668  22.144  1.00  0.00    -0.504 OA
ATOM     24  H   UNL     1      30.521 -16.926  22.815  1.00  0.00     0.293 HD
ENDBRANCH  20  23
ENDBRANCH  14  15
ENDBRANCH  12  14
ENDBRANCH   9  10
ENDBRANCH   1   9
TORSDOF 10
ENDMDL
MODEL 3
REMARK VINA RESULT:    -6.180      1.954      2.900
REMARK INTER + INTRA:         -10.549
REMARK INTER:                  -9.846
REMARK INTRA:                  -0.703
REMARK UNBOUND:                -0.937
REMARK SMILES COc1cc(CNC(=O)CCCCC=CC(C)C)ccc1O
REMARK SMILES IDX 11 1 12 2 13 3 14 4 15 5 16 6 17 7 18 8 10 9 8 10 9 11 7 12
REMARK SMILES IDX 6 14 5 15 4 16 19 17 3 18 20 19 21 20 2 21 1 22 22 23
REMARK H PARENT 7 13 22 24
REMARK Flexibility Score: inf
ROOT
ATOM      1  C   UNL     1      24.684 -27.356  31.754  1.00  0.00     0.010 C 
ENDROOT
BRANCH   1   2
ATOM      2  C   UNL     1      25.941 -27.530  32.613  1.00  0.00     0.005 C 
BRANCH   2   3
ATOM      3  C   UNL     1      26.291 -26.230  33.348  1.00  0.00     0.027 C 
BRANCH   3   4
ATOM      4  C   UNL     1      27.450 -26.437  34.289  1.00  0.00    -0.031 C 
ATOM      5  C   UNL     1      27.333 -26.719  35.600  1.00  0.00    -0.028 C 
BRANCH   5   6
ATOM      6  C   UNL     1      26.021 -26.958  36.319  1.00  0.00     0.005 C 
ATOM      7  C   UNL     1      25.948 -28.410  36.796  1.00  0.00     0.012 C 
ATOM      8  C   UNL     1      25.891 -25.995  37.503  1.00  0.00     0.012 C 
ENDBRANCH   5   6
ENDBRANCH   3   4
ENDBRANCH   2   3
ENDBRANCH   1   2
BRANCH   1   9
ATOM      9  C   UNL     1      24.437 -28.590  30.882  1.00  0.00     0.100 C 
BRANCH   9  10
ATOM     10  C   UNL     1      24.783 -28.299  29.454  1.00  0.00     0.220 C 
ATOM     11  O   UNL     1      25.730 -28.924  28.904  1.00  0.00    -0.275 OA
ATOM     12  N   UNL     1      24.071 -27.281  28.734  1.00  0.00    -0.352 N 
ATOM     13  H   UNL     1      23.330 -26.735  29.228  1.00  0.00     0.163 HD
BRANCH  12  14
ATOM     14  C   UNL     1      24.350 -26.968  27.335  1.00  0.00     0.151 C 
BRANCH  14  15
ATOM     15  C   UNL     1      23.419 -25.891  26.847  1.00  0.00    -0.025 A 
ATOM     16  C   UNL     1      23.417 -25.528  25.492  1.00  0.00     0.056 A 
ATOM     17  C   UNL     1      22.569 -25.224  27.741  1.00  0.00     0.009 A 
ATOM     18  C   UNL     1      22.563 -24.508  25.023  1.00  0.00     0.160 A 
ATOM     19  C   UNL     1      21.720 -24.216  27.283  1.00  0.00     0.050 A 
ATOM     20  C   UNL     1      21.712 -23.855  25.932  1.00  0.00     0.157 A 
BRANCH  18  21
ATOM     21  O   UNL     1      22.539 -24.122  23.674  1.00  0.00    -0.493 OA
ATOM     22  C   UNL     1      23.692 -23.802  22.903  1.00  0.00     0.278 C 
ENDBRANCH  18  21
BRANCH  20  23
ATOM     23  O   UNL     1      20.849 -22.843  25.510  1.00  0.00    -0.504 OA
ATOM     24  H   UNL     1      20.142 -22.997  24.801  1.00  0.00     0.293 HD
ENDBRANCH  20  23
ENDBRANCH  14  15
ENDBRANCH  12  14
ENDBRANCH   9  10
ENDBRANCH   1   9
TORSDOF 10
ENDMDL
MODEL 4
REMARK VINA RESULT:    -6.159      3.757      4.825
REMARK INTER + INTRA:         -10.517
REMARK INTER:                  -8.310
REMARK INTRA:                  -2.207
REMARK UNBOUND:                -0.937
REMARK SMILES COc1cc(CNC(=O)CCCCC=CC(C)C)ccc1O
REMARK SMILES IDX 11 1 12 2 13 3 14 4 15 5 16 6 17 7 18 8 10 9 8 10 9 11 7 12
REMARK SMILES IDX 6 14 5 15 4 16 19 17 3 18 20 19 21 20 2 21 1 22 22 23
REMARK H PARENT 7 13 22 24
REMARK Flexibility Score: inf
ROOT
ATOM      1  C   UNL     1      21.398 -22.457  30.380  1.00  0.00     0.010 C 
ENDROOT
BRANCH   1   2
ATOM      2  C   UNL     1      22.554 -23.088  31.164  1.00  0.00     0.005 C 
BRANCH   2   3
ATOM      3  C   UNL     1      22.613 -24.604  30.935  1.00  0.00     0.027 C 
BRANCH   3   4
ATOM      4  C   UNL     1      22.153 -24.957  29.545  1.00  0.00    -0.031 C 
ATOM      5  C   UNL     1      22.958 -25.045  28.469  1.00  0.00    -0.028 C 
BRANCH   5   6
ATOM      6  C   UNL     1      24.465 -24.889  28.502  1.00  0.00     0.005 C 
ATOM      7  C   UNL     1      25.105 -25.810  27.460  1.00  0.00     0.012 C 
ATOM      8  C   UNL     1      24.845 -23.430  28.238  1.00  0.00     0.012 C 
ENDBRANCH   5   6
ENDBRANCH   3   4
ENDBRANCH   2   3
ENDBRANCH   1   2
BRANCH   1   9
ATOM      9  C   UNL     1      21.652 -20.969  30.126  1.00  0.00     0.100 C 
BRANCH   9  10
ATOM     10  C   UNL     1      22.101 -20.748  28.714  1.00  0.00     0.220 C 
ATOM     11  O   UNL     1      22.790 -19.729  28.433  1.00  0.00    -0.275 OA
ATOM     12  N   UNL     1      21.709 -21.665  27.682  1.00  0.00    -0.352 N 
ATOM     13  H   UNL     1      21.088 -22.469  27.927  1.00  0.00     0.163 HD
BRANCH  12  14
ATOM     14  C   UNL     1      22.133 -21.512  26.293  1.00  0.00     0.151 C 
BRANCH  14  15
ATOM     15  C   UNL     1      22.267 -22.860  25.638  1.00  0.00    -0.025 A 
ATOM     16  C   UNL     1      23.425 -23.174  24.911  1.00  0.00     0.056 A 
ATOM     17  C   UNL     1      21.231 -23.801  25.723  1.00  0.00     0.009 A 
ATOM     18  C   UNL     1      23.558 -24.426  24.276  1.00  0.00     0.160 A 
ATOM     19  C   UNL     1      21.356 -25.043  25.100  1.00  0.00     0.050 A 
ATOM     20  C   UNL     1      22.512 -25.361  24.379  1.00  0.00     0.157 A 
BRANCH  18  21
ATOM     21  O   UNL     1      24.703 -24.770  23.542  1.00  0.00    -0.493 OA
ATOM     22  C   UNL     1      26.040 -24.557  23.983  1.00  0.00     0.278 C 
ENDBRANCH  18  21
BRANCH  20  23
ATOM     23  O   UNL     1      22.602 -26.612  23.769  1.00  0.00    -0.504 OA
ATOM     24  H   UNL     1      23.428 -27.194  23.850  1.00  0.00     0.293 HD
ENDBRANCH  20  23
ENDBRANCH  14  15
ENDBRANCH  12  14
ENDBRANCH   9  10
ENDBRANCH   1   9
TORSDOF 10
ENDMDL
MODEL 5
REMARK VINA RESULT:    -6.066      1.649      2.483
REMARK INTER + INTRA:         -10.373
REMARK INTER:                  -9.481
REMARK INTRA:                  -0.892
REMARK UNBOUND:                -0.937
REMARK SMILES COc1cc(CNC(=O)CCCCC=CC(C)C)ccc1O
REMARK SMILES IDX 11 1 12 2 13 3 14 4 15 5 16 6 17 7 18 8 10 9 8 10 9 11 7 12
REMARK SMILES IDX 6 14 5 15 4 16 19 17 3 18 20 19 21 20 2 21 1 22 22 23
REMARK H PARENT 7 13 22 24
REMARK Flexibility Score: inf
ROOT
ATOM      1  C   UNL     1      24.316 -26.678  31.129  1.00  0.00     0.010 C 
ENDROOT
BRANCH   1   2
ATOM      2  C   UNL     1      24.889 -28.095  31.238  1.00  0.00     0.005 C 
BRANCH   2   3
ATOM      3  C   UNL     1      24.389 -28.795  32.508  1.00  0.00     0.027 C 
BRANCH   3   4
ATOM      4  C   UNL     1      25.504 -29.554  33.180  1.00  0.00    -0.031 C 
ATOM      5  C   UNL     1      26.362 -29.026  34.073  1.00  0.00    -0.028 C 
BRANCH   5   6
ATOM      6  C   UNL     1      26.289 -27.610  34.609  1.00  0.00     0.005 C 
ATOM      7  C   UNL     1      26.662 -27.598  36.094  1.00  0.00     0.012 C 
ATOM      8  C   UNL     1      27.227 -26.701  33.811  1.00  0.00     0.012 C 
ENDBRANCH   5   6
ENDBRANCH   3   4
ENDBRANCH   2   3
ENDBRANCH   1   2
BRANCH   1   9
ATOM      9  C   UNL     1      23.745 -26.421  29.731  1.00  0.00     0.100 C 
BRANCH   9  10
ATOM     10  C   UNL     1      24.673 -25.551  28.939  1.00  0.00     0.220 C 
ATOM     11  O   UNL     1      25.739 -26.041  28.475  1.00  0.00    -0.275 OA
ATOM     12  N   UNL     1      24.373 -24.160  28.752  1.00  0.00    -0.352 N 
ATOM     13  H   UNL     1      23.514 -23.763  29.197  1.00  0.00     0.163 HD
BRANCH  12  14
ATOM     14  C   UNL     1      25.229 -23.270  27.974  1.00  0.00     0.151 C 
BRANCH  14  15
ATOM     15  C   UNL     1      24.760 -23.215  26.544  1.00  0.00    -0.025 A 
ATOM     16  C   UNL     1      23.434 -23.547  26.229  1.00  0.00     0.056 A 
ATOM     17  C   UNL     1      25.645 -22.861  25.516  1.00  0.00     0.009 A 
ATOM     18  C   UNL     1      22.985 -23.518  24.892  1.00  0.00     0.160 A 
ATOM     19  C   UNL     1      25.206 -22.828  24.192  1.00  0.00     0.050 A 
ATOM     20  C   UNL     1      23.884 -23.153  23.874  1.00  0.00     0.157 A 
BRANCH  18  21
ATOM     21  O   UNL     1      21.665 -23.845  24.545  1.00  0.00    -0.493 OA
ATOM     22  C   UNL     1      21.027 -25.078  24.861  1.00  0.00     0.278 C 
ENDBRANCH  18  21
BRANCH  20  23
ATOM     23  O   UNL     1      23.481 -23.108  22.540  1.00  0.00    -0.504 OA
ATOM     24  H   UNL     1      23.873 -23.723  21.837  1.00  0.00     0.293 HD
ENDBRANCH  20  23
ENDBRANCH  14  15
ENDBRANCH  12  14
ENDBRANCH   9  10
ENDBRANCH   1   9
TORSDOF 10
ENDMDL
MODEL 6
REMARK VINA RESULT:    -6.034      2.728      5.002
REMARK INTER + INTRA:         -10.322
REMARK INTER:                  -9.195
REMARK INTRA:                  -1.127
REMARK UNBOUND:                -0.937
REMARK SMILES COc1cc(CNC(=O)CCCCC=CC(C)C)ccc1O
REMARK SMILES IDX 11 1 12 2 13 3 14 4 15 5 16 6 17 7 18 8 10 9 8 10 9 11 7 12
REMARK SMILES IDX 6 14 5 15 4 16 19 17 3 18 20 19 21 20 2 21 1 22 22 23
REMARK H PARENT 7 13 22 24
REMARK Flexibility Score: inf
ROOT
ATOM      1  C   UNL     1      26.949 -26.578  33.443  1.00  0.00     0.010 C 
ENDROOT
BRANCH   1   2
ATOM      2  C   UNL     1      27.795 -25.891  34.520  1.00  0.00     0.005 C 
BRANCH   2   3
ATOM      3  C   UNL     1      27.687 -26.630  35.861  1.00  0.00     0.027 C 
BRANCH   3   4
ATOM      4  C   UNL     1      26.651 -25.989  36.747  1.00  0.00    -0.031 C 
ATOM      5  C   UNL     1      25.576 -26.621  37.252  1.00  0.00    -0.028 C 
BRANCH   5   6
ATOM      6  C   UNL     1      25.283 -28.099  37.081  1.00  0.00     0.005 C 
ATOM      7  C   UNL     1      25.118 -28.757  38.453  1.00  0.00     0.012 C 
ATOM      8  C   UNL     1      24.019 -28.286  36.238  1.00  0.00     0.012 C 
ENDBRANCH   5   6
ENDBRANCH   3   4
ENDBRANCH   2   3
ENDBRANCH   1   2
BRANCH   1   9
ATOM      9  C   UNL     1      26.746 -28.061  33.764  1.00  0.00     0.100 C 
BRANCH   9  10
ATOM     10  C   UNL     1      25.844 -28.697  32.752  1.00  0.00     0.220 C 
ATOM     11  O   UNL     1      25.315 -29.814  33.006  1.00  0.00    -0.275 OA
ATOM     12  N   UNL     1      25.623 -28.061  31.484  1.00  0.00    -0.352 N 
ATOM     13  H   UNL     1      26.119 -27.166  31.273  1.00  0.00     0.163 HD
BRANCH  12  14
ATOM     14  C   UNL     1      24.739 -28.624  30.468  1.00  0.00     0.151 C 
BRANCH  14  15
ATOM     15  C   UNL     1      24.379 -27.573  29.451  1.00  0.00    -0.025 A 
ATOM     16  C   UNL     1      23.673 -26.428  29.847  1.00  0.00     0.056 A 
ATOM     17  C   UNL     1      24.720 -27.741  28.101  1.00  0.00     0.009 A 
ATOM     18  C   UNL     1      23.313 -25.444  28.903  1.00  0.00     0.160 A 
ATOM     19  C   UNL     1      24.369 -26.770  27.162  1.00  0.00     0.050 A 
ATOM     20  C   UNL     1      23.670 -25.624  27.555  1.00  0.00     0.157 A 
BRANCH  18  21
ATOM     21  O   UNL     1      22.606 -24.288  29.268  1.00  0.00    -0.493 OA
ATOM     22  C   UNL     1      21.246 -24.271  29.690  1.00  0.00     0.278 C 
ENDBRANCH  18  21
BRANCH  20  23
ATOM     23  O   UNL     1      23.336 -24.675  26.589  1.00  0.00    -0.504 OA
ATOM     24  H   UNL     1      22.865 -24.924  25.727  1.00  0.00     0.293 HD
ENDBRANCH  20  23
ENDBRANCH  14  15
ENDBRANCH  12  14
ENDBRANCH   9  10
ENDBRANCH   1   9
TORSDOF 10
ENDMDL
MODEL 7
REMARK VINA RESULT:    -5.991      3.036      7.571
REMARK INTER + INTRA:         -10.255
REMARK INTER:                  -8.598
REMARK INTRA:                  -1.657
REMARK UNBOUND:                -0.937
REMARK SMILES COc1cc(CNC(=O)CCCCC=CC(C)C)ccc1O
REMARK SMILES IDX 11 1 12 2 13 3 14 4 15 5 16 6 17 7 18 8 10 9 8 10 9 11 7 12
REMARK SMILES IDX 6 14 5 15 4 16 19 17 3 18 20 19 21 20 2 21 1 22 22 23
REMARK H PARENT 7 13 22 24
REMARK Flexibility Score: inf
ROOT
ATOM      1  C   UNL     1      21.793 -21.940  25.881  1.00  0.00     0.010 C 
ENDROOT
BRANCH   1   2
ATOM      2  C   UNL     1      21.777 -23.449  25.618  1.00  0.00     0.005 C 
BRANCH   2   3
ATOM      3  C   UNL     1      22.681 -23.813  24.433  1.00  0.00     0.027 C 
BRANCH   3   4
ATOM      4  C   UNL     1      23.609 -24.945  24.791  1.00  0.00    -0.031 C 
ATOM      5  C   UNL     1      24.941 -24.825  24.948  1.00  0.00    -0.028 C 
BRANCH   5   6
ATOM      6  C   UNL     1      25.705 -23.518  24.877  1.00  0.00     0.005 C 
ATOM      7  C   UNL     1      26.137 -23.094  26.283  1.00  0.00     0.012 C 
ATOM      8  C   UNL     1      26.924 -23.675  23.964  1.00  0.00     0.012 C 
ENDBRANCH   5   6
ENDBRANCH   3   4
ENDBRANCH   2   3
ENDBRANCH   1   2
BRANCH   1   9
ATOM      9  C   UNL     1      22.876 -21.569  26.898  1.00  0.00     0.100 C 
BRANCH   9  10
ATOM     10  C   UNL     1      22.671 -22.322  28.178  1.00  0.00     0.220 C 
ATOM     11  O   UNL     1      21.721 -22.000  28.942  1.00  0.00    -0.275 OA
ATOM     12  N   UNL     1      23.579 -23.369  28.551  1.00  0.00    -0.352 N 
ATOM     13  H   UNL     1      24.394 -23.578  27.931  1.00  0.00     0.163 HD
BRANCH  12  14
ATOM     14  C   UNL     1      23.417 -24.149  29.774  1.00  0.00     0.151 C 
BRANCH  14  15
ATOM     15  C   UNL     1      23.943 -25.545  29.575  1.00  0.00    -0.025 A 
ATOM     16  C   UNL     1      23.878 -26.475  30.623  1.00  0.00     0.056 A 
ATOM     17  C   UNL     1      24.524 -25.921  28.355  1.00  0.00     0.009 A 
ATOM     18  C   UNL     1      24.382 -27.781  30.457  1.00  0.00     0.160 A 
ATOM     19  C   UNL     1      25.023 -27.213  28.184  1.00  0.00     0.050 A 
ATOM     20  C   UNL     1      24.955 -28.144  29.225  1.00  0.00     0.157 A 
BRANCH  18  21
ATOM     21  O   UNL     1      24.333 -28.733  31.487  1.00  0.00    -0.493 OA
ATOM     22  C   UNL     1      23.346 -28.763  32.514  1.00  0.00     0.278 C 
ENDBRANCH  18  21
BRANCH  20  23
ATOM     23  O   UNL     1      25.464 -29.426  29.017  1.00  0.00    -0.504 OA
ATOM     24  H   UNL     1      25.753 -29.750  28.102  1.00  0.00     0.293 HD
ENDBRANCH  20  23
ENDBRANCH  14  15
ENDBRANCH  12  14
ENDBRANCH   9  10
ENDBRANCH   1   9
TORSDOF 10
ENDMDL
MODEL 8
REMARK VINA RESULT:    -5.931      1.823      2.692
REMARK INTER + INTRA:         -10.163
REMARK INTER:                  -9.117
REMARK INTRA:                  -1.046
REMARK UNBOUND:                -0.937
REMARK SMILES COc1cc(CNC(=O)CCCCC=CC(C)C)ccc1O
REMARK SMILES IDX 11 1 12 2 13 3 14 4 15 5 16 6 17 7 18 8 10 9 8 10 9 11 7 12
REMARK SMILES IDX 6 14 5 15 4 16 19 17 3 18 20 19 21 20 2 21 1 22 22 23
REMARK H PARENT 7 13 22 24
REMARK Flexibility Score: inf
ROOT
ATOM      1  C   UNL     1      25.566 -28.038  31.925  1.00  0.00     0.010 C 
ENDROOT
BRANCH   1   2
ATOM      2  C   UNL     1      25.113 -29.201  32.814  1.00  0.00     0.005 C 
BRANCH   2   3
ATOM      3  C   UNL     1      24.947 -28.750  34.271  1.00  0.00     0.027 C 
BRANCH   3   4
ATOM      4  C   UNL     1      26.238 -28.902  35.032  1.00  0.00    -0.031 C 
ATOM      5  C   UNL     1      27.009 -27.880  35.448  1.00  0.00    -0.028 C 
BRANCH   5   6
ATOM      6  C   UNL     1      26.658 -26.414  35.293  1.00  0.00     0.005 C 
ATOM      7  C   UNL     1      26.474 -25.776  36.672  1.00  0.00     0.012 C 
ATOM      8  C   UNL     1      27.757 -25.694  34.508  1.00  0.00     0.012 C 
ENDBRANCH   5   6
ENDBRANCH   3   4
ENDBRANCH   2   3
ENDBRANCH   1   2
BRANCH   1   9
ATOM      9  C   UNL     1      24.405 -27.084  31.632  1.00  0.00     0.100 C 
BRANCH   9  10
ATOM     10  C   UNL     1      24.103 -27.063  30.164  1.00  0.00     0.220 C 
ATOM     11  O   UNL     1      24.471 -28.028  29.441  1.00  0.00    -0.275 OA
ATOM     12  N   UNL     1      23.441 -25.931  29.582  1.00  0.00    -0.352 N 
ATOM     13  H   UNL     1      23.198 -25.116  30.191  1.00  0.00     0.163 HD
BRANCH  12  14
ATOM     14  C   UNL     1      23.103 -25.864  28.163  1.00  0.00     0.151 C 
BRANCH  14  15
ATOM     15  C   UNL     1      24.103 -25.011  27.429  1.00  0.00    -0.025 A 
ATOM     16  C   UNL     1      24.182 -25.070  26.030  1.00  0.00     0.056 A 
ATOM     17  C   UNL     1      24.980 -24.174  28.134  1.00  0.00     0.009 A 
ATOM     18  C   UNL     1      25.126 -24.291  25.330  1.00  0.00     0.160 A 
ATOM     19  C   UNL     1      25.915 -23.398  27.447  1.00  0.00     0.050 A 
ATOM     20  C   UNL     1      25.992 -23.451  26.052  1.00  0.00     0.157 A 
BRANCH  18  21
ATOM     21  O   UNL     1      25.229 -24.329  23.931  1.00  0.00    -0.493 OA
ATOM     22  C   UNL     1      24.254 -23.809  23.033  1.00  0.00     0.278 C 
ENDBRANCH  18  21
BRANCH  20  23
ATOM     23  O   UNL     1      26.939 -22.661  25.399  1.00  0.00    -0.504 OA
ATOM     24  H   UNL     1      27.002 -22.618  24.389  1.00  0.00     0.293 HD
ENDBRANCH  20  23
ENDBRANCH  14  15
ENDBRANCH  12  14
ENDBRANCH   9  10
ENDBRANCH   1   9
TORSDOF 10
ENDMDL
MODEL 9
REMARK VINA RESULT:    -5.914      2.331      4.124
REMARK INTER + INTRA:         -10.136
REMARK INTER:                  -9.052
REMARK INTRA:                  -1.084
REMARK UNBOUND:                -0.937
REMARK SMILES COc1cc(CNC(=O)CCCCC=CC(C)C)ccc1O
REMARK SMILES IDX 11 1 12 2 13 3 14 4 15 5 16 6 17 7 18 8 10 9 8 10 9 11 7 12
REMARK SMILES IDX 6 14 5 15 4 16 19 17 3 18 20 19 21 20 2 21 1 22 22 23
REMARK H PARENT 7 13 22 24
REMARK Flexibility Score: inf
ROOT
ATOM      1  C   UNL     1      26.079 -26.831  33.161  1.00  0.00     0.010 C 
ENDROOT
BRANCH   1   2
ATOM      2  C   UNL     1      27.375 -26.504  33.910  1.00  0.00     0.005 C 
BRANCH   2   3
ATOM      3  C   UNL     1      27.151 -26.504  35.427  1.00  0.00     0.027 C 
BRANCH   3   4
ATOM      4  C   UNL     1      27.251 -27.899  35.987  1.00  0.00    -0.031 C 
ATOM      5  C   UNL     1      26.257 -28.541  36.630  1.00  0.00    -0.028 C 
BRANCH   5   6
ATOM      6  C   UNL     1      24.855 -27.997  36.815  1.00  0.00     0.005 C 
ATOM      7  C   UNL     1      23.930 -28.570  35.738  1.00  0.00     0.012 C 
ATOM      8  C   UNL     1      24.338 -28.350  38.212  1.00  0.00     0.012 C 
ENDBRANCH   5   6
ENDBRANCH   3   4
ENDBRANCH   2   3
ENDBRANCH   1   2
BRANCH   1   9
ATOM      9  C   UNL     1      26.064 -28.290  32.696  1.00  0.00     0.100 C 
BRANCH   9  10
ATOM     10  C   UNL     1      25.118 -28.464  31.548  1.00  0.00     0.220 C 
ATOM     11  O   UNL     1      24.018 -29.052  31.733  1.00  0.00    -0.275 OA
ATOM     12  N   UNL     1      25.484 -28.005  30.238  1.00  0.00    -0.352 N 
ATOM     13  H   UNL     1      26.425 -27.574  30.096  1.00  0.00     0.163 HD
BRANCH  12  14
ATOM     14  C   UNL     1      24.594 -28.129  29.087  1.00  0.00     0.151 C 
BRANCH  14  15
ATOM     15  C   UNL     1      24.355 -26.779  28.465  1.00  0.00    -0.025 A 
ATOM     16  C   UNL     1      23.145 -26.514  27.807  1.00  0.00     0.056 A 
ATOM     17  C   UNL     1      25.345 -25.786  28.514  1.00  0.00     0.009 A 
ATOM     18  C   UNL     1      22.915 -25.261  27.204  1.00  0.00     0.160 A 
ATOM     19  C   UNL     1      25.122 -24.542  27.923  1.00  0.00     0.050 A 
ATOM     20  C   UNL     1      23.915 -24.274  27.270  1.00  0.00     0.157 A 
BRANCH  18  21
ATOM     21  O   UNL     1      21.715 -24.966  26.538  1.00  0.00    -0.493 OA
ATOM     22  C   UNL     1      21.431 -25.322  25.188  1.00  0.00     0.278 C 
ENDBRANCH  18  21
BRANCH  20  23
ATOM     23  O   UNL     1      23.727 -23.019  26.690  1.00  0.00    -0.504 OA
ATOM     24  H   UNL     1      24.481 -22.349  26.596  1.00  0.00     0.293 HD
ENDBRANCH  20  23
ENDBRANCH  14  15
ENDBRANCH  12  14
ENDBRANCH   9  10
ENDBRANCH   1   9
TORSDOF 10
ENDMDL
