MODEL 1
REMARK VINA RESULT:    -4.853      0.000      0.000
REMARK INTER + INTRA:          -9.973
REMARK INTER:                  -7.407
REMARK INTRA:                  -2.566
REMARK UNBOUND:                -2.566
REMARK SMILES CC(=O)CCC=C(C)CCC=C(C)CCC=C(C)C
REMARK SMILES IDX 10 1 11 2 12 3 13 4 14 5 15 6 16 7 18 8 17 9 19 10 9 11 7 12
REMARK SMILES IDX 6 13 8 14 5 15 4 16 2 17 3 18 1 19
REMARK H PARENT
REMARK Flexibility Score: inf
ROOT
ATOM      1  C   UNL     1      61.387  69.268  31.012  1.00  0.00     0.032 C 
ENDROOT
BRANCH   1   2
ATOM      2  C   UNL     1      61.883  70.097  32.169  1.00  0.00    -0.028 C 
ATOM      3  C   UNL     1      61.380  71.304  32.513  1.00  0.00    -0.077 C 
ATOM      4  C   UNL     1      60.192  71.910  31.804  1.00  0.00     0.039 C 
BRANCH   3   5
ATOM      5  C   UNL     1      62.066  72.106  33.601  1.00  0.00     0.034 C 
BRANCH   5   6
ATOM      6  C   UNL     1      61.981  71.401  34.962  1.00  0.00     0.032 C 
BRANCH   6   7
ATOM      7  C   UNL     1      60.613  71.536  35.589  1.00  0.00    -0.028 C 
ATOM      8  C   UNL     1      58.440  70.800  36.466  1.00  0.00     0.039 C 
ATOM      9  C   UNL     1      59.740  70.519  35.756  1.00  0.00    -0.080 C 
ATOM     10  C   UNL     1      60.023  69.127  35.244  1.00  0.00     0.039 C 
ENDBRANCH   6   7
ENDBRANCH   5   6
ENDBRANCH   3   5
ENDBRANCH   1   2
BRANCH   1  11
ATOM     11  C   UNL     1      60.707  67.993  31.523  1.00  0.00     0.034 C 
BRANCH  11  12
ATOM     12  C   UNL     1      59.204  68.095  31.390  1.00  0.00    -0.077 C 
ATOM     13  C   UNL     1      58.684  68.779  30.346  1.00  0.00    -0.028 C 
ATOM     14  C   UNL     1      58.331  67.407  32.412  1.00  0.00     0.039 C 
BRANCH  13  15
ATOM     15  C   UNL     1      57.207  69.001  30.118  1.00  0.00     0.035 C 
BRANCH  15  16
ATOM     16  C   UNL     1      56.767  70.406  30.550  1.00  0.00     0.079 C 
BRANCH  16  17
ATOM     17  C   UNL     1      56.129  70.392  31.916  1.00  0.00     0.130 C 
ATOM     18  O   UNL     1      55.026  69.887  32.062  1.00  0.00    -0.300 OA
ATOM     19  C   UNL     1      56.845  70.950  33.109  1.00  0.00     0.087 C 
ENDBRANCH  16  17
ENDBRANCH  15  16
ENDBRANCH  13  15
ENDBRANCH  11  12
ENDBRANCH   1  11
TORSDOF 9
ENDMDL
MODEL 2
REMARK VINA RESULT:    -4.759     16.514     19.022
REMARK INTER + INTRA:          -9.829
REMARK INTER:                  -7.350
REMARK INTRA:                  -2.480
REMARK UNBOUND:                -2.566
REMARK SMILES CC(=O)CCC=C(C)CCC=C(C)CCC=C(C)C
REMARK SMILES IDX 10 1 11 2 12 3 13 4 14 5 15 6 16 7 18 8 17 9 19 10 9 11 7 12
REMARK SMILES IDX 6 13 8 14 5 15 4 16 2 17 3 18 1 19
REMARK H PARENT
REMARK Flexibility Score: inf
ROOT
ATOM      1  C   UNL     1      44.213  58.562  26.991  1.00  0.00     0.032 C 
ENDROOT
BRANCH   1   2
ATOM      2  C   UNL     1      44.643  57.132  27.197  1.00  0.00    -0.028 C 
ATOM      3  C   UNL     1      44.107  56.299  28.118  1.00  0.00    -0.077 C 
ATOM      4  C   UNL     1      42.943  56.709  28.989  1.00  0.00     0.039 C 
BRANCH   3   5
ATOM      5  C   UNL     1      44.730  54.934  28.329  1.00  0.00     0.034 C 
BRANCH   5   6
ATOM      6  C   UNL     1      46.258  55.023  28.457  1.00  0.00     0.032 C 
BRANCH   6   7
ATOM      7  C   UNL     1      46.686  55.557  29.803  1.00  0.00    -0.028 C 
ATOM      8  C   UNL     1      47.777  57.076  31.396  1.00  0.00     0.039 C 
ATOM      9  C   UNL     1      47.500  56.620  29.986  1.00  0.00    -0.080 C 
ATOM     10  C   UNL     1      48.142  57.346  28.828  1.00  0.00     0.039 C 
ENDBRANCH   6   7
ENDBRANCH   5   6
ENDBRANCH   3   5
ENDBRANCH   1   2
BRANCH   1  11
ATOM     11  C   UNL     1      45.215  59.518  27.646  1.00  0.00     0.034 C 
BRANCH  11  12
ATOM     12  C   UNL     1      44.724  59.966  29.004  1.00  0.00    -0.077 C 
ATOM     13  C   UNL     1      45.288  59.435  30.113  1.00  0.00    -0.028 C 
ATOM     14  C   UNL     1      43.637  61.012  29.082  1.00  0.00     0.039 C 
BRANCH  13  15
ATOM     15  C   UNL     1      44.863  59.753  31.527  1.00  0.00     0.035 C 
BRANCH  15  16
ATOM     16  C   UNL     1      45.704  60.882  32.137  1.00  0.00     0.079 C 
BRANCH  16  17
ATOM     17  C   UNL     1      44.837  61.951  32.751  1.00  0.00     0.130 C 
ATOM     18  O   UNL     1      44.327  61.761  33.844  1.00  0.00    -0.300 OA
ATOM     19  C   UNL     1      44.624  63.264  32.060  1.00  0.00     0.087 C 
ENDBRANCH  16  17
ENDBRANCH  15  16
ENDBRANCH  13  15
ENDBRANCH  11  12
ENDBRANCH   1  11
TORSDOF 9
ENDMDL
MODEL 3
REMARK VINA RESULT:    -4.730      1.811      4.754
REMARK INTER + INTRA:          -9.785
REMARK INTER:                  -6.906
REMARK INTRA:                  -2.878
REMARK UNBOUND:                -2.566
REMARK SMILES CC(=O)CCC=C(C)CCC=C(C)CCC=C(C)C
REMARK SMILES IDX 10 1 11 2 12 3 13 4 14 5 15 6 16 7 18 8 17 9 19 10 9 11 7 12
REMARK SMILES IDX 6 13 8 14 5 15 4 16 2 17 3 18 1 19
REMARK H PARENT
REMARK Flexibility Score: inf
ROOT
ATOM      1  C   UNL     1      56.973  69.079  30.936  1.00  0.00     0.032 C 
ENDROOT
BRANCH   1   2
ATOM      2  C   UNL     1      58.410  68.646  30.794  1.00  0.00    -0.028 C 
ATOM      3  C   UNL     1      59.061  67.858  31.679  1.00  0.00    -0.077 C 
ATOM      4  C   UNL     1      58.367  67.255  32.878  1.00  0.00     0.039 C 
BRANCH   3   5
ATOM      5  C   UNL     1      60.547  67.620  31.502  1.00  0.00     0.034 C 
BRANCH   5   6
ATOM      6  C   UNL     1      61.290  68.920  31.162  1.00  0.00     0.032 C 
BRANCH   6   7
ATOM      7  C   UNL     1      61.523  69.780  32.382  1.00  0.00    -0.028 C 
ATOM      8  C   UNL     1      61.376  71.771  33.812  1.00  0.00     0.039 C 
ATOM      9  C   UNL     1      61.135  71.068  32.501  1.00  0.00    -0.080 C 
ATOM     10  C   UNL     1      60.487  71.818  31.361  1.00  0.00     0.039 C 
ENDBRANCH   6   7
ENDBRANCH   5   6
ENDBRANCH   3   5
ENDBRANCH   1   2
BRANCH   1  11
ATOM     11  C   UNL     1      56.898  70.564  31.307  1.00  0.00     0.034 C 
BRANCH  11  12
ATOM     12  C   UNL     1      56.651  70.737  32.788  1.00  0.00    -0.077 C 
ATOM     13  C   UNL     1      57.705  70.958  33.607  1.00  0.00    -0.028 C 
ATOM     14  C   UNL     1      55.233  70.684  33.305  1.00  0.00     0.039 C 
BRANCH  13  15
ATOM     15  C   UNL     1      57.609  71.099  35.108  1.00  0.00     0.035 C 
BRANCH  15  16
ATOM     16  C   UNL     1      57.920  69.780  35.827  1.00  0.00     0.079 C 
BRANCH  16  17
ATOM     17  C   UNL     1      59.351  69.726  36.296  1.00  0.00     0.130 C 
ATOM     18  O   UNL     1      59.729  70.486  37.174  1.00  0.00    -0.300 OA
ATOM     19  C   UNL     1      60.312  68.722  35.731  1.00  0.00     0.087 C 
ENDBRANCH  16  17
ENDBRANCH  15  16
ENDBRANCH  13  15
ENDBRANCH  11  12
ENDBRANCH   1  11
TORSDOF 9
ENDMDL
MODEL 4
REMARK VINA RESULT:    -4.722     17.142     19.953
REMARK INTER + INTRA:          -9.773
REMARK INTER:                  -8.079
REMARK INTRA:                  -1.694
REMARK UNBOUND:                -2.566
REMARK SMILES CC(=O)CCC=C(C)CCC=C(C)CCC=C(C)C
REMARK SMILES IDX 10 1 11 2 12 3 13 4 14 5 15 6 16 7 18 8 17 9 19 10 9 11 7 12
REMARK SMILES IDX 6 13 8 14 5 15 4 16 2 17 3 18 1 19
REMARK H PARENT
REMARK Flexibility Score: inf
ROOT
ATOM      1  C   UNL     1      41.960  58.018  28.139  1.00  0.00     0.032 C 
ENDROOT
BRANCH   1   2
ATOM      2  C   UNL     1      42.738  56.910  28.800  1.00  0.00    -0.028 C 
ATOM      3  C   UNL     1      42.838  56.740  30.138  1.00  0.00    -0.077 C 
ATOM      4  C   UNL     1      42.093  57.618  31.115  1.00  0.00     0.039 C 
BRANCH   3   5
ATOM      5  C   UNL     1      43.774  55.678  30.679  1.00  0.00     0.034 C 
BRANCH   5   6
ATOM      6  C   UNL     1      43.294  55.138  32.034  1.00  0.00     0.032 C 
BRANCH   6   7
ATOM      7  C   UNL     1      44.439  54.901  32.990  1.00  0.00    -0.028 C 
ATOM      8  C   UNL     1      45.935  55.343  34.887  1.00  0.00     0.039 C 
ATOM      9  C   UNL     1      44.817  55.756  33.965  1.00  0.00    -0.080 C 
ATOM     10  C   UNL     1      44.163  57.106  34.144  1.00  0.00     0.039 C 
ENDBRANCH   6   7
ENDBRANCH   5   6
ENDBRANCH   3   5
ENDBRANCH   1   2
BRANCH   1  11
ATOM     11  C   UNL     1      42.887  58.873  27.268  1.00  0.00     0.034 C 
BRANCH  11  12
ATOM     12  C   UNL     1      43.835  59.682  28.123  1.00  0.00    -0.077 C 
ATOM     13  C   UNL     1      43.327  60.474  29.095  1.00  0.00    -0.028 C 
ATOM     14  C   UNL     1      45.322  59.561  27.885  1.00  0.00     0.039 C 
BRANCH  13  15
ATOM     15  C   UNL     1      44.152  61.371  29.988  1.00  0.00     0.035 C 
BRANCH  15  16
ATOM     16  C   UNL     1      44.438  60.719  31.347  1.00  0.00     0.079 C 
BRANCH  16  17
ATOM     17  C   UNL     1      44.376  61.722  32.469  1.00  0.00     0.130 C 
ATOM     18  O   UNL     1      44.141  61.343  33.606  1.00  0.00    -0.300 OA
ATOM     19  C   UNL     1      44.640  63.177  32.220  1.00  0.00     0.087 C 
ENDBRANCH  16  17
ENDBRANCH  15  16
ENDBRANCH  13  15
ENDBRANCH  11  12
ENDBRANCH   1  11
TORSDOF 9
ENDMDL
MODEL 5
REMARK VINA RESULT:    -4.642      1.312      3.019
REMARK INTER + INTRA:          -9.651
REMARK INTER:                  -7.023
REMARK INTRA:                  -2.628
REMARK UNBOUND:                -2.566
REMARK SMILES CC(=O)CCC=C(C)CCC=C(C)CCC=C(C)C
REMARK SMILES IDX 10 1 11 2 12 3 13 4 14 5 15 6 16 7 18 8 17 9 19 10 9 11 7 12
REMARK SMILES IDX 6 13 8 14 5 15 4 16 2 17 3 18 1 19
REMARK H PARENT
REMARK Flexibility Score: inf
ROOT
ATOM      1  C   UNL     1      60.593  67.772  31.391  1.00  0.00     0.032 C 
ENDROOT
BRANCH   1   2
ATOM      2  C   UNL     1      60.625  67.572  32.884  1.00  0.00    -0.028 C 
ATOM      3  C   UNL     1      59.544  67.266  33.636  1.00  0.00    -0.077 C 
ATOM      4  C   UNL     1      58.187  67.010  33.024  1.00  0.00     0.039 C 
BRANCH   3   5
ATOM      5  C   UNL     1      59.678  67.241  35.146  1.00  0.00     0.034 C 
BRANCH   5   6
ATOM      6  C   UNL     1      60.183  68.586  35.691  1.00  0.00     0.032 C 
BRANCH   6   7
ATOM      7  C   UNL     1      59.343  69.746  35.210  1.00  0.00    -0.028 C 
ATOM      8  C   UNL     1      58.847  71.863  34.068  1.00  0.00     0.039 C 
ATOM      9  C   UNL     1      59.824  70.820  34.546  1.00  0.00    -0.080 C 
ATOM     10  C   UNL     1      61.300  71.007  34.287  1.00  0.00     0.039 C 
ENDBRANCH   6   7
ENDBRANCH   5   6
ENDBRANCH   3   5
ENDBRANCH   1   2
BRANCH   1  11
ATOM     11  C   UNL     1      61.171  69.143  31.025  1.00  0.00     0.034 C 
BRANCH  11  12
ATOM     12  C   UNL     1      60.069  70.163  30.849  1.00  0.00    -0.077 C 
ATOM     13  C   UNL     1      58.782  69.748  30.876  1.00  0.00    -0.028 C 
ATOM     14  C   UNL     1      60.437  71.618  30.676  1.00  0.00     0.039 C 
BRANCH  13  15
ATOM     15  C   UNL     1      57.586  70.647  30.665  1.00  0.00     0.035 C 
BRANCH  15  16
ATOM     16  C   UNL     1      56.265  69.876  30.774  1.00  0.00     0.079 C 
BRANCH  16  17
ATOM     17  C   UNL     1      55.655  70.012  32.146  1.00  0.00     0.130 C 
ATOM     18  O   UNL     1      55.726  71.079  32.736  1.00  0.00    -0.300 OA
ATOM     19  C   UNL     1      54.921  68.869  32.782  1.00  0.00     0.087 C 
ENDBRANCH  16  17
ENDBRANCH  15  16
ENDBRANCH  13  15
ENDBRANCH  11  12
ENDBRANCH   1  11
TORSDOF 9
ENDMDL
MODEL 6
REMARK VINA RESULT:    -4.641      2.225      4.000
REMARK INTER + INTRA:          -9.649
REMARK INTER:                  -6.788
REMARK INTRA:                  -2.860
REMARK UNBOUND:                -2.566
REMARK SMILES CC(=O)CCC=C(C)CCC=C(C)CCC=C(C)C
REMARK SMILES IDX 10 1 11 2 12 3 13 4 14 5 15 6 16 7 18 8 17 9 19 10 9 11 7 12
REMARK SMILES IDX 6 13 8 14 5 15 4 16 2 17 3 18 1 19
REMARK H PARENT
REMARK Flexibility Score: inf
ROOT
ATOM      1  C   UNL     1      58.226  68.762  30.367  1.00  0.00     0.032 C 
ENDROOT
BRANCH   1   2
ATOM      2  C   UNL     1      59.315  69.763  30.652  1.00  0.00    -0.028 C 
ATOM      3  C   UNL     1      60.527  69.448  31.164  1.00  0.00    -0.077 C 
ATOM      4  C   UNL     1      60.940  68.019  31.425  1.00  0.00     0.039 C 
BRANCH   3   5
ATOM      5  C   UNL     1      61.478  70.563  31.548  1.00  0.00     0.034 C 
BRANCH   5   6
ATOM      6  C   UNL     1      60.808  71.581  32.483  1.00  0.00     0.032 C 
BRANCH   6   7
ATOM      7  C   UNL     1      60.240  70.929  33.721  1.00  0.00    -0.028 C 
ATOM      8  C   UNL     1      58.528  70.290  35.363  1.00  0.00     0.039 C 
ATOM      9  C   UNL     1      58.964  71.064  34.145  1.00  0.00    -0.080 C 
ATOM     10  C   UNL     1      57.980  71.971  33.446  1.00  0.00     0.039 C 
ENDBRANCH   6   7
ENDBRANCH   5   6
ENDBRANCH   3   5
ENDBRANCH   1   2
BRANCH   1  11
ATOM     11  C   UNL     1      56.923  69.182  31.055  1.00  0.00     0.034 C 
BRANCH  11  12
ATOM     12  C   UNL     1      56.789  68.516  32.406  1.00  0.00    -0.077 C 
ATOM     13  C   UNL     1      57.672  67.552  32.752  1.00  0.00    -0.028 C 
ATOM     14  C   UNL     1      55.690  68.967  33.339  1.00  0.00     0.039 C 
BRANCH  13  15
ATOM     15  C   UNL     1      57.627  66.771  34.044  1.00  0.00     0.035 C 
BRANCH  15  16
ATOM     16  C   UNL     1      58.939  66.020  34.305  1.00  0.00     0.079 C 
BRANCH  16  17
ATOM     17  C   UNL     1      59.729  66.653  35.421  1.00  0.00     0.130 C 
ATOM     18  O   UNL     1      59.406  66.450  36.581  1.00  0.00    -0.300 OA
ATOM     19  C   UNL     1      60.936  67.496  35.132  1.00  0.00     0.087 C 
ENDBRANCH  16  17
ENDBRANCH  15  16
ENDBRANCH  13  15
ENDBRANCH  11  12
ENDBRANCH   1  11
TORSDOF 9
ENDMDL
MODEL 7
REMARK VINA RESULT:    -4.625      2.660      4.697
REMARK INTER + INTRA:          -9.624
REMARK INTER:                  -7.240
REMARK INTRA:                  -2.384
REMARK UNBOUND:                -2.566
REMARK SMILES CC(=O)CCC=C(C)CCC=C(C)CCC=C(C)C
REMARK SMILES IDX 10 1 11 2 12 3 13 4 14 5 15 6 16 7 18 8 17 9 19 10 9 11 7 12
REMARK SMILES IDX 6 13 8 14 5 15 4 16 2 17 3 18 1 19
REMARK H PARENT
REMARK Flexibility Score: inf
ROOT
ATOM      1  C   UNL     1      60.606  67.062  31.575  1.00  0.00     0.032 C 
ENDROOT
BRANCH   1   2
ATOM      2  C   UNL     1      60.086  68.362  31.018  1.00  0.00    -0.028 C 
ATOM      3  C   UNL     1      60.723  69.550  31.132  1.00  0.00    -0.077 C 
ATOM      4  C   UNL     1      62.086  69.670  31.771  1.00  0.00     0.039 C 
BRANCH   3   5
ATOM      5  C   UNL     1      60.024  70.809  30.662  1.00  0.00     0.034 C 
BRANCH   5   6
ATOM      6  C   UNL     1      58.615  70.931  31.262  1.00  0.00     0.032 C 
BRANCH   6   7
ATOM      7  C   UNL     1      58.650  71.291  32.729  1.00  0.00    -0.028 C 
ATOM      8  C   UNL     1      58.318  70.990  35.144  1.00  0.00     0.039 C 
ATOM      9  C   UNL     1      58.140  70.528  33.721  1.00  0.00    -0.080 C 
ATOM     10  C   UNL     1      57.390  69.247  33.441  1.00  0.00     0.039 C 
ENDBRANCH   6   7
ENDBRANCH   5   6
ENDBRANCH   3   5
ENDBRANCH   1   2
BRANCH   1  11
ATOM     11  C   UNL     1      59.605  66.473  32.574  1.00  0.00     0.034 C 
BRANCH  11  12
ATOM     12  C   UNL     1      60.196  66.428  33.965  1.00  0.00    -0.077 C 
ATOM     13  C   UNL     1      60.674  67.569  34.511  1.00  0.00    -0.028 C 
ATOM     14  C   UNL     1      60.210  65.115  34.713  1.00  0.00     0.039 C 
BRANCH  13  15
ATOM     15  C   UNL     1      61.334  67.660  35.867  1.00  0.00     0.035 C 
BRANCH  15  16
ATOM     16  C   UNL     1      60.889  68.910  36.637  1.00  0.00     0.079 C 
BRANCH  16  17
ATOM     17  C   UNL     1      59.984  68.559  37.790  1.00  0.00     0.130 C 
ATOM     18  O   UNL     1      59.540  69.447  38.502  1.00  0.00    -0.300 OA
ATOM     19  C   UNL     1      59.584  67.138  38.053  1.00  0.00     0.087 C 
ENDBRANCH  16  17
ENDBRANCH  15  16
ENDBRANCH  13  15
ENDBRANCH  11  12
ENDBRANCH   1  11
TORSDOF 9
ENDMDL
MODEL 8
REMARK VINA RESULT:    -4.613      2.203      5.833
REMARK INTER + INTRA:          -9.607
REMARK INTER:                  -7.087
REMARK INTRA:                  -2.520
REMARK UNBOUND:                -2.566
REMARK SMILES CC(=O)CCC=C(C)CCC=C(C)CCC=C(C)C
REMARK SMILES IDX 10 1 11 2 12 3 13 4 14 5 15 6 16 7 18 8 17 9 19 10 9 11 7 12
REMARK SMILES IDX 6 13 8 14 5 15 4 16 2 17 3 18 1 19
REMARK H PARENT
REMARK Flexibility Score: inf
ROOT
ATOM      1  C   UNL     1      57.108  70.228  34.701  1.00  0.00     0.032 C 
ENDROOT
BRANCH   1   2
ATOM      2  C   UNL     1      56.823  70.124  33.225  1.00  0.00    -0.028 C 
ATOM      3  C   UNL     1      56.921  68.982  32.507  1.00  0.00    -0.077 C 
ATOM      4  C   UNL     1      57.254  67.657  33.150  1.00  0.00     0.039 C 
BRANCH   3   5
ATOM      5  C   UNL     1      56.757  69.041  31.001  1.00  0.00     0.034 C 
BRANCH   5   6
ATOM      6  C   UNL     1      58.025  68.571  30.275  1.00  0.00     0.032 C 
BRANCH   6   7
ATOM      7  C   UNL     1      59.220  69.439  30.595  1.00  0.00    -0.028 C 
ATOM      8  C   UNL     1      61.519  69.966  31.280  1.00  0.00     0.039 C 
ATOM      9  C   UNL     1      60.395  68.982  31.079  1.00  0.00    -0.080 C 
ATOM     10  C   UNL     1      60.605  67.529  31.434  1.00  0.00     0.039 C 
ENDBRANCH   6   7
ENDBRANCH   5   6
ENDBRANCH   3   5
ENDBRANCH   1   2
BRANCH   1  11
ATOM     11  C   UNL     1      58.127  71.340  34.969  1.00  0.00     0.034 C 
BRANCH  11  12
ATOM     12  C   UNL     1      59.538  70.838  34.759  1.00  0.00    -0.077 C 
ATOM     13  C   UNL     1      59.808  69.530  34.972  1.00  0.00    -0.028 C 
ATOM     14  C   UNL     1      60.598  71.808  34.291  1.00  0.00     0.039 C 
BRANCH  13  15
ATOM     15  C   UNL     1      61.177  68.906  34.849  1.00  0.00     0.035 C 
BRANCH  15  16
ATOM     16  C   UNL     1      61.379  67.767  35.856  1.00  0.00     0.079 C 
BRANCH  16  17
ATOM     17  C   UNL     1      60.401  66.643  35.628  1.00  0.00     0.130 C 
ATOM     18  O   UNL     1      60.461  65.989  34.598  1.00  0.00    -0.300 OA
ATOM     19  C   UNL     1      59.379  66.286  36.666  1.00  0.00     0.087 C 
ENDBRANCH  16  17
ENDBRANCH  15  16
ENDBRANCH  13  15
ENDBRANCH  11  12
ENDBRANCH   1  11
TORSDOF 9
ENDMDL
MODEL 9
REMARK VINA RESULT:    -4.596     17.853     19.949
REMARK INTER + INTRA:          -9.580
REMARK INTER:                  -7.241
REMARK INTRA:                  -2.339
REMARK UNBOUND:                -2.566
REMARK SMILES CC(=O)CCC=C(C)CCC=C(C)CCC=C(C)C
REMARK SMILES IDX 10 1 11 2 12 3 13 4 14 5 15 6 16 7 18 8 17 9 19 10 9 11 7 12
REMARK SMILES IDX 6 13 8 14 5 15 4 16 2 17 3 18 1 19
REMARK H PARENT
REMARK Flexibility Score: inf
ROOT
ATOM      1  C   UNL     1      44.530  55.042  28.738  1.00  0.00     0.032 C 
ENDROOT
BRANCH   1   2
ATOM      2  C   UNL     1      45.330  56.067  27.976  1.00  0.00    -0.028 C 
ATOM      3  C   UNL     1      46.360  56.772  28.497  1.00  0.00    -0.077 C 
ATOM      4  C   UNL     1      46.869  56.532  29.898  1.00  0.00     0.039 C 
BRANCH   3   5
ATOM      5  C   UNL     1      46.984  57.882  27.675  1.00  0.00     0.034 C 
BRANCH   5   6
ATOM      6  C   UNL     1      45.917  58.727  26.963  1.00  0.00     0.032 C 
BRANCH   6   7
ATOM      7  C   UNL     1      45.270  59.727  27.892  1.00  0.00    -0.028 C 
ATOM      8  C   UNL     1      43.455  60.818  29.138  1.00  0.00     0.039 C 
ATOM      9  C   UNL     1      43.942  59.812  28.127  1.00  0.00    -0.080 C 
ATOM     10  C   UNL     1      42.943  58.944  27.398  1.00  0.00     0.039 C 
ENDBRANCH   6   7
ENDBRANCH   5   6
ENDBRANCH   3   5
ENDBRANCH   1   2
BRANCH   1  11
ATOM     11  C   UNL     1      43.090  55.528  28.934  1.00  0.00     0.034 C 
BRANCH  11  12
ATOM     12  C   UNL     1      42.875  56.017  30.348  1.00  0.00    -0.077 C 
ATOM     13  C   UNL     1      43.161  57.305  30.647  1.00  0.00    -0.028 C 
ATOM     14  C   UNL     1      42.322  55.060  31.378  1.00  0.00     0.039 C 
BRANCH  13  15
ATOM     15  C   UNL     1      43.041  57.912  32.025  1.00  0.00     0.035 C 
BRANCH  15  16
ATOM     16  C   UNL     1      44.111  58.983  32.273  1.00  0.00     0.079 C 
BRANCH  16  17
ATOM     17  C   UNL     1      44.206  59.345  33.733  1.00  0.00     0.130 C 
ATOM     18  O   UNL     1      44.237  58.461  34.574  1.00  0.00    -0.300 OA
ATOM     19  C   UNL     1      44.307  60.777  34.168  1.00  0.00     0.087 C 
ENDBRANCH  16  17
ENDBRANCH  15  16
ENDBRANCH  13  15
ENDBRANCH  11  12
ENDBRANCH   1  11
TORSDOF 9
ENDMDL
