MODEL 1
REMARK VINA RESULT:    -3.385      0.000      0.000
REMARK INTER + INTRA:          -3.998
REMARK INTER:                  -3.979
REMARK INTRA:                  -0.019
REMARK UNBOUND:                -0.019
REMARK SMILES CCCCC(=O)[O-]
REMARK SMILES IDX 4 1 5 2 6 3 7 4 3 5 2 6 1 7
REMARK H PARENT
REMARK Flexibility Score: inf
ROOT
ATOM      1  C   UNL     1      26.575  29.856 -18.237  1.00  0.00     0.053 C 
ENDROOT
BRANCH   1   2
ATOM      2  C   UNL     1      26.596  30.962 -19.247  1.00  0.00     0.041 C 
ATOM      3  O   UNL     1      25.858  31.971 -19.097  1.00  0.00    -0.550 OA
ATOM      4  O   UNL     1      27.455  30.894 -20.337  1.00  0.00    -0.550 OA
ENDBRANCH   1   2
BRANCH   1   5
ATOM      5  C   UNL     1      27.951  29.651 -17.588  1.00  0.00     0.006 C 
BRANCH   5   6
ATOM      6  C   UNL     1      28.104  28.249 -16.982  1.00  0.00    -0.003 C 
ATOM      7  C   UNL     1      29.555  27.971 -16.600  1.00  0.00     0.004 C 
ENDBRANCH   5   6
ENDBRANCH   1   5
TORSDOF 3
ENDMDL
MODEL 2
REMARK VINA RESULT:    -3.054      4.938      5.718
REMARK INTER + INTRA:          -3.609
REMARK INTER:                  -3.570
REMARK INTRA:                  -0.038
REMARK UNBOUND:                -0.019
REMARK SMILES CCCCC(=O)[O-]
REMARK SMILES IDX 4 1 5 2 6 3 7 4 3 5 2 6 1 7
REMARK H PARENT
REMARK Flexibility Score: inf
ROOT
ATOM      1  C   UNL     1      27.240  24.931 -17.834  1.00  0.00     0.053 C 
ENDROOT
BRANCH   1   2
ATOM      2  C   UNL     1      27.306  25.955 -16.742  1.00  0.00     0.041 C 
ATOM      3  O   UNL     1      27.593  27.150 -17.012  1.00  0.00    -0.550 OA
ATOM      4  O   UNL     1      27.018  25.594 -15.432  1.00  0.00    -0.550 OA
ENDBRANCH   1   2
BRANCH   1   5
ATOM      5  C   UNL     1      25.894  24.971 -18.572  1.00  0.00     0.006 C 
BRANCH   5   6
ATOM      6  C   UNL     1      26.068  24.955 -20.097  1.00  0.00    -0.003 C 
ATOM      7  C   UNL     1      27.133  23.947 -20.519  1.00  0.00     0.004 C 
ENDBRANCH   5   6
ENDBRANCH   1   5
TORSDOF 3
ENDMDL
MODEL 3
REMARK VINA RESULT:    -2.999      4.590      5.359
REMARK INTER + INTRA:          -3.543
REMARK INTER:                  -3.516
REMARK INTRA:                  -0.028
REMARK UNBOUND:                -0.019
REMARK SMILES CCCCC(=O)[O-]
REMARK SMILES IDX 4 1 5 2 6 3 7 4 3 5 2 6 1 7
REMARK H PARENT
REMARK Flexibility Score: inf
ROOT
ATOM      1  C   UNL     1      27.328  24.336 -18.507  1.00  0.00     0.053 C 
ENDROOT
BRANCH   1   2
ATOM      2  C   UNL     1      26.652  24.409 -19.842  1.00  0.00     0.041 C 
ATOM      3  O   UNL     1      25.706  25.218 -20.029  1.00  0.00    -0.550 OA
ATOM      4  O   UNL     1      27.089  23.606 -20.889  1.00  0.00    -0.550 OA
ENDBRANCH   1   2
BRANCH   1   5
ATOM      5  C   UNL     1      26.847  25.447 -17.564  1.00  0.00     0.006 C 
BRANCH   5   6
ATOM      6  C   UNL     1      27.991  26.033 -16.724  1.00  0.00    -0.003 C 
ATOM      7  C   UNL     1      27.972  27.559 -16.759  1.00  0.00     0.004 C 
ENDBRANCH   5   6
ENDBRANCH   1   5
TORSDOF 3
ENDMDL
MODEL 4
REMARK VINA RESULT:    -2.980      4.626      5.532
REMARK INTER + INTRA:          -3.521
REMARK INTER:                  -3.496
REMARK INTRA:                  -0.026
REMARK UNBOUND:                -0.019
REMARK SMILES CCCCC(=O)[O-]
REMARK SMILES IDX 4 1 5 2 6 3 7 4 3 5 2 6 1 7
REMARK H PARENT
REMARK Flexibility Score: inf
ROOT
ATOM      1  C   UNL     1      27.405  24.250 -18.578  1.00  0.00     0.053 C 
ENDROOT
BRANCH   1   2
ATOM      2  C   UNL     1      26.743  24.353 -19.918  1.00  0.00     0.041 C 
ATOM      3  O   UNL     1      27.091  23.589 -20.857  1.00  0.00    -0.550 OA
ATOM      4  O   UNL     1      25.718  25.269 -20.120  1.00  0.00    -0.550 OA
ENDBRANCH   1   2
BRANCH   1   5
ATOM      5  C   UNL     1      26.895  25.324 -17.607  1.00  0.00     0.006 C 
BRANCH   5   6
ATOM      6  C   UNL     1      28.024  25.919 -16.754  1.00  0.00    -0.003 C 
ATOM      7  C   UNL     1      27.930  27.441 -16.700  1.00  0.00     0.004 C 
ENDBRANCH   5   6
ENDBRANCH   1   5
TORSDOF 3
ENDMDL
MODEL 5
REMARK VINA RESULT:    -2.933      4.951      5.698
REMARK INTER + INTRA:          -3.466
REMARK INTER:                  -3.422
REMARK INTRA:                  -0.045
REMARK UNBOUND:                -0.019
REMARK SMILES CCCCC(=O)[O-]
REMARK SMILES IDX 4 1 5 2 6 3 7 4 3 5 2 6 1 7
REMARK H PARENT
REMARK Flexibility Score: inf
ROOT
ATOM      1  C   UNL     1      27.165  24.787 -17.751  1.00  0.00     0.053 C 
ENDROOT
BRANCH   1   2
ATOM      2  C   UNL     1      27.308  25.827 -16.682  1.00  0.00     0.041 C 
ATOM      3  O   UNL     1      27.218  25.505 -15.469  1.00  0.00    -0.550 OA
ATOM      4  O   UNL     1      27.575  27.147 -17.026  1.00  0.00    -0.550 OA
ENDBRANCH   1   2
BRANCH   1   5
ATOM      5  C   UNL     1      26.070  25.156 -18.762  1.00  0.00     0.006 C 
BRANCH   5   6
ATOM      6  C   UNL     1      26.374  24.622 -20.168  1.00  0.00    -0.003 C 
ATOM      7  C   UNL     1      27.627  23.750 -20.166  1.00  0.00     0.004 C 
ENDBRANCH   5   6
ENDBRANCH   1   5
TORSDOF 3
ENDMDL
MODEL 6
REMARK VINA RESULT:    -2.932      3.692      4.600
REMARK INTER + INTRA:          -3.465
REMARK INTER:                  -3.415
REMARK INTRA:                  -0.050
REMARK UNBOUND:                -0.019
REMARK SMILES CCCCC(=O)[O-]
REMARK SMILES IDX 4 1 5 2 6 3 7 4 3 5 2 6 1 7
REMARK H PARENT
REMARK Flexibility Score: inf
ROOT
ATOM      1  C   UNL     1      27.764  27.105 -16.420  1.00  0.00     0.053 C 
ENDROOT
BRANCH   1   2
ATOM      2  C   UNL     1      27.678  25.824 -17.194  1.00  0.00     0.041 C 
ATOM      3  O   UNL     1      26.555  25.330 -17.477  1.00  0.00    -0.550 OA
ATOM      4  O   UNL     1      28.837  25.195 -17.629  1.00  0.00    -0.550 OA
ENDBRANCH   1   2
BRANCH   1   5
ATOM      5  C   UNL     1      29.040  27.889 -16.757  1.00  0.00     0.006 C 
BRANCH   5   6
ATOM      6  C   UNL     1      28.735  29.301 -17.276  1.00  0.00    -0.003 C 
ATOM      7  C   UNL     1      27.255  29.452 -17.618  1.00  0.00     0.004 C 
ENDBRANCH   5   6
ENDBRANCH   1   5
TORSDOF 3
ENDMDL
MODEL 7
REMARK VINA RESULT:    -2.808      4.301      5.252
REMARK INTER + INTRA:          -3.319
REMARK INTER:                  -3.302
REMARK INTRA:                  -0.017
REMARK UNBOUND:                -0.019
REMARK SMILES CCCCC(=O)[O-]
REMARK SMILES IDX 4 1 5 2 6 3 7 4 3 5 2 6 1 7
REMARK H PARENT
REMARK Flexibility Score: inf
ROOT
ATOM      1  C   UNL     1      27.635  24.868 -17.540  1.00  0.00     0.053 C 
ENDROOT
BRANCH   1   2
ATOM      2  C   UNL     1      26.792  24.514 -18.728  1.00  0.00     0.041 C 
ATOM      3  O   UNL     1      27.172  23.622 -19.531  1.00  0.00    -0.550 OA
ATOM      4  O   UNL     1      25.572  25.147 -18.929  1.00  0.00    -0.550 OA
ENDBRANCH   1   2
BRANCH   1   5
ATOM      5  C   UNL     1      27.433  26.328 -17.113  1.00  0.00     0.006 C 
BRANCH   5   6
ATOM      6  C   UNL     1      28.655  26.892 -16.376  1.00  0.00    -0.003 C 
ATOM      7  C   UNL     1      28.999  28.294 -16.873  1.00  0.00     0.004 C 
ENDBRANCH   5   6
ENDBRANCH   1   5
TORSDOF 3
ENDMDL
MODEL 8
REMARK VINA RESULT:    -2.698      5.480      6.563
REMARK INTER + INTRA:          -3.190
REMARK INTER:                  -3.130
REMARK INTRA:                  -0.060
REMARK UNBOUND:                -0.019
REMARK SMILES CCCCC(=O)[O-]
REMARK SMILES IDX 4 1 5 2 6 3 7 4 3 5 2 6 1 7
REMARK H PARENT
REMARK Flexibility Score: inf
ROOT
ATOM      1  C   UNL     1      28.010  23.941 -17.996  1.00  0.00     0.053 C 
ENDROOT
BRANCH   1   2
ATOM      2  C   UNL     1      29.272  24.713 -17.756  1.00  0.00     0.041 C 
ATOM      3  O   UNL     1      30.307  24.459 -18.426  1.00  0.00    -0.550 OA
ATOM      4  O   UNL     1      29.294  25.736 -16.816  1.00  0.00    -0.550 OA
ENDBRANCH   1   2
BRANCH   1   5
ATOM      5  C   UNL     1      27.860  23.540 -19.470  1.00  0.00     0.006 C 
BRANCH   5   6
ATOM      6  C   UNL     1      26.722  24.300 -20.166  1.00  0.00    -0.003 C 
ATOM      7  C   UNL     1      25.884  25.079 -19.156  1.00  0.00     0.004 C 
ENDBRANCH   5   6
ENDBRANCH   1   5
TORSDOF 3
ENDMDL
MODEL 9
REMARK VINA RESULT:    -2.695     11.795     12.823
REMARK INTER + INTRA:          -3.186
REMARK INTER:                  -3.085
REMARK INTRA:                  -0.101
REMARK UNBOUND:                -0.019
REMARK SMILES CCCCC(=O)[O-]
REMARK SMILES IDX 4 1 5 2 6 3 7 4 3 5 2 6 1 7
REMARK H PARENT
REMARK Flexibility Score: inf
ROOT
ATOM      1  C   UNL     1      39.174  29.274 -18.358  1.00  0.00     0.053 C 
ENDROOT
BRANCH   1   2
ATOM      2  C   UNL     1      38.942  28.272 -17.268  1.00  0.00     0.041 C 
ATOM      3  O   UNL     1      39.154  27.049 -17.476  1.00  0.00    -0.550 OA
ATOM      4  O   UNL     1      38.523  28.694 -16.012  1.00  0.00    -0.550 OA
ENDBRANCH   1   2
BRANCH   1   5
ATOM      5  C   UNL     1      40.651  29.681 -18.451  1.00  0.00     0.006 C 
BRANCH   5   6
ATOM      6  C   UNL     1      41.354  29.043 -19.658  1.00  0.00    -0.003 C 
ATOM      7  C   UNL     1      40.340  28.547 -20.685  1.00  0.00     0.004 C 
ENDBRANCH   5   6
ENDBRANCH   1   5
TORSDOF 3
ENDMDL
