MODEL 1
REMARK VINA RESULT:    -5.946      0.000      0.000
REMARK INTER + INTRA:          -5.946
REMARK INTER:                  -5.946
REMARK INTRA:                   0.000
REMARK UNBOUND:                 0.000
REMARK SMILES CC1=CC(=O)[C@@H]2C[C@H]1C2(C)C
REMARK SMILES IDX 1 1 2 2 3 3 4 4 5 5 6 6 7 7 8 8 9 9 10 10 11 11
REMARK H PARENT
REMARK Flexibility Score: inf
ROOT
ATOM      1  C   UNL     1      -6.902  34.124  20.100  1.00  0.00     0.040 C 
ATOM      2  C   UNL     1      -7.605  33.463  21.243  1.00  0.00    -0.066 C 
ATOM      3  C   UNL     1      -8.553  34.119  21.967  1.00  0.00     0.047 C 
ATOM      4  C   UNL     1      -9.206  33.338  23.066  1.00  0.00     0.159 C 
ATOM      5  O   UNL     1     -10.125  33.819  23.779  1.00  0.00    -0.295 OA
ATOM      6  C   UNL     1      -8.680  31.915  23.260  1.00  0.00     0.067 C 
ATOM      7  C   UNL     1      -7.145  32.069  23.209  1.00  0.00     0.021 C 
ATOM      8  C   UNL     1      -7.277  32.015  21.670  1.00  0.00     0.022 C 
ATOM      9  C   UNL     1      -8.601  31.223  21.869  1.00  0.00    -0.019 C 
ATOM     10  C   UNL     1      -8.363  29.695  21.983  1.00  0.00     0.012 C 
ATOM     11  C   UNL     1      -9.760  31.461  20.859  1.00  0.00     0.012 C 
ENDROOT
TORSDOF 0
ENDMDL
MODEL 2
REMARK VINA RESULT:    -5.848      1.760      2.944
REMARK INTER + INTRA:          -5.848
REMARK INTER:                  -5.848
REMARK INTRA:                   0.000
REMARK UNBOUND:                 0.000
REMARK SMILES CC1=CC(=O)[C@@H]2C[C@H]1C2(C)C
REMARK SMILES IDX 1 1 2 2 3 3 4 4 5 5 6 6 7 7 8 8 9 9 10 10 11 11
REMARK H PARENT
REMARK Flexibility Score: inf
ROOT
ATOM      1  C   UNL     1      -8.732  34.312  24.751  1.00  0.00     0.040 C 
ATOM      2  C   UNL     1      -8.555  33.721  23.389  1.00  0.00    -0.066 C 
ATOM      3  C   UNL     1      -7.824  34.355  22.431  1.00  0.00     0.047 C 
ATOM      4  C   UNL     1      -7.695  33.646  21.118  1.00  0.00     0.159 C 
ATOM      5  O   UNL     1      -7.012  34.110  20.167  1.00  0.00    -0.295 OA
ATOM      6  C   UNL     1      -8.448  32.319  21.013  1.00  0.00     0.067 C 
ATOM      7  C   UNL     1      -9.839  32.626  21.609  1.00  0.00     0.021 C 
ATOM      8  C   UNL     1      -9.205  32.377  22.996  1.00  0.00     0.022 C 
ATOM      9  C   UNL     1      -8.149  31.479  22.288  1.00  0.00    -0.019 C 
ATOM     10  C   UNL     1      -8.621  30.009  22.150  1.00  0.00     0.012 C 
ATOM     11  C   UNL     1      -6.696  31.473  22.845  1.00  0.00     0.012 C 
ENDROOT
TORSDOF 0
ENDMDL
MODEL 3
REMARK VINA RESULT:    -5.702      1.592      3.343
REMARK INTER + INTRA:          -5.702
REMARK INTER:                  -5.702
REMARK INTRA:                   0.000
REMARK UNBOUND:                 0.000
REMARK SMILES CC1=CC(=O)[C@@H]2C[C@H]1C2(C)C
REMARK SMILES IDX 1 1 2 2 3 3 4 4 5 5 6 6 7 7 8 8 9 9 10 10 11 11
REMARK H PARENT
REMARK Flexibility Score: inf
ROOT
ATOM      1  C   UNL     1      -6.370  30.520  23.501  1.00  0.00     0.040 C 
ATOM      2  C   UNL     1      -7.366  31.501  22.968  1.00  0.00    -0.066 C 
ATOM      3  C   UNL     1      -8.260  31.149  22.002  1.00  0.00     0.047 C 
ATOM      4  C   UNL     1      -9.225  32.212  21.574  1.00  0.00     0.159 C 
ATOM      5  O   UNL     1     -10.125  31.998  20.719  1.00  0.00    -0.295 OA
ATOM      6  C   UNL     1      -9.044  33.571  22.248  1.00  0.00     0.067 C 
ATOM      7  C   UNL     1      -7.521  33.822  22.190  1.00  0.00     0.021 C 
ATOM      8  C   UNL     1      -7.418  32.960  23.469  1.00  0.00     0.022 C 
ATOM      9  C   UNL     1      -8.892  33.348  23.781  1.00  0.00    -0.019 C 
ATOM     10  C   UNL     1      -8.998  34.670  24.583  1.00  0.00     0.012 C 
ATOM     11  C   UNL     1      -9.803  32.288  24.466  1.00  0.00     0.012 C 
ENDROOT
TORSDOF 0
ENDMDL
MODEL 4
REMARK VINA RESULT:    -5.595      1.293      3.200
REMARK INTER + INTRA:          -5.595
REMARK INTER:                  -5.595
REMARK INTRA:                   0.000
REMARK UNBOUND:                 0.000
REMARK SMILES CC1=CC(=O)[C@@H]2C[C@H]1C2(C)C
REMARK SMILES IDX 1 1 2 2 3 3 4 4 5 5 6 6 7 7 8 8 9 9 10 10 11 11
REMARK H PARENT
REMARK Flexibility Score: inf
ROOT
ATOM      1  C   UNL     1      -6.000  30.386  23.498  1.00  0.00     0.040 C 
ATOM      2  C   UNL     1      -7.205  31.259  23.352  1.00  0.00    -0.066 C 
ATOM      3  C   UNL     1      -8.103  31.404  24.366  1.00  0.00     0.047 C 
ATOM      4  C   UNL     1      -9.252  32.330  24.106  1.00  0.00     0.159 C 
ATOM      5  O   UNL     1     -10.125  32.578  24.979  1.00  0.00    -0.295 OA
ATOM      6  C   UNL     1      -9.289  32.953  22.711  1.00  0.00     0.067 C 
ATOM      7  C   UNL     1      -9.001  31.770  21.761  1.00  0.00     0.021 C 
ATOM      8  C   UNL     1      -7.503  32.021  22.042  1.00  0.00     0.022 C 
ATOM      9  C   UNL     1      -7.870  33.496  22.374  1.00  0.00    -0.019 C 
ATOM     10  C   UNL     1      -7.869  34.401  21.116  1.00  0.00     0.012 C 
ATOM     11  C   UNL     1      -7.070  34.219  23.495  1.00  0.00     0.012 C 
ENDROOT
TORSDOF 0
ENDMDL
MODEL 5
REMARK VINA RESULT:    -5.587      1.811      2.756
REMARK INTER + INTRA:          -5.587
REMARK INTER:                  -5.587
REMARK INTRA:                   0.000
REMARK UNBOUND:                 0.000
REMARK SMILES CC1=CC(=O)[C@@H]2C[C@H]1C2(C)C
REMARK SMILES IDX 1 1 2 2 3 3 4 4 5 5 6 6 7 7 8 8 9 9 10 10 11 11
REMARK H PARENT
REMARK Flexibility Score: inf
ROOT
ATOM      1  C   UNL     1      -7.403  35.624  22.241  1.00  0.00     0.040 C 
ATOM      2  C   UNL     1      -8.129  34.321  22.359  1.00  0.00    -0.066 C 
ATOM      3  C   UNL     1      -8.451  33.587  21.259  1.00  0.00     0.047 C 
ATOM      4  C   UNL     1      -9.150  32.286  21.511  1.00  0.00     0.159 C 
ATOM      5  O   UNL     1      -9.464  31.500  20.579  1.00  0.00    -0.295 OA
ATOM      6  C   UNL     1      -9.452  31.979  22.977  1.00  0.00     0.067 C 
ATOM      7  C   UNL     1     -10.028  33.301  23.530  1.00  0.00     0.021 C 
ATOM      8  C   UNL     1      -8.564  33.755  23.728  1.00  0.00     0.022 C 
ATOM      9  C   UNL     1      -8.170  32.252  23.815  1.00  0.00    -0.019 C 
ATOM     10  C   UNL     1      -8.278  31.696  25.258  1.00  0.00     0.012 C 
ATOM     11  C   UNL     1      -6.797  31.816  23.227  1.00  0.00     0.012 C 
ENDROOT
TORSDOF 0
ENDMDL
MODEL 6
REMARK VINA RESULT:    -5.577      1.716      2.193
REMARK INTER + INTRA:          -5.577
REMARK INTER:                  -5.577
REMARK INTRA:                   0.000
REMARK UNBOUND:                 0.000
REMARK SMILES CC1=CC(=O)[C@@H]2C[C@H]1C2(C)C
REMARK SMILES IDX 1 1 2 2 3 3 4 4 5 5 6 6 7 7 8 8 9 9 10 10 11 11
REMARK H PARENT
REMARK Flexibility Score: inf
ROOT
ATOM      1  C   UNL     1      -7.029  35.233  23.496  1.00  0.00     0.040 C 
ATOM      2  C   UNL     1      -7.633  33.883  23.715  1.00  0.00    -0.066 C 
ATOM      3  C   UNL     1      -8.327  33.593  24.851  1.00  0.00     0.047 C 
ATOM      4  C   UNL     1      -8.910  32.215  24.938  1.00  0.00     0.159 C 
ATOM      5  O   UNL     1      -9.606  31.840  25.918  1.00  0.00    -0.295 OA
ATOM      6  C   UNL     1      -8.603  31.299  23.754  1.00  0.00     0.067 C 
ATOM      7  C   UNL     1      -7.093  31.500  23.501  1.00  0.00     0.021 C 
ATOM      8  C   UNL     1      -7.485  32.748  22.679  1.00  0.00     0.022 C 
ATOM      9  C   UNL     1      -8.871  32.084  22.437  1.00  0.00    -0.019 C 
ATOM     10  C   UNL     1      -8.875  31.162  21.191  1.00  0.00     0.012 C 
ATOM     11  C   UNL     1     -10.125  33.002  22.368  1.00  0.00     0.012 C 
ENDROOT
TORSDOF 0
ENDMDL
MODEL 7
REMARK VINA RESULT:    -5.392      1.544      2.528
REMARK INTER + INTRA:          -5.392
REMARK INTER:                  -5.392
REMARK INTRA:                   0.000
REMARK UNBOUND:                 0.000
REMARK SMILES CC1=CC(=O)[C@@H]2C[C@H]1C2(C)C
REMARK SMILES IDX 1 1 2 2 3 3 4 4 5 5 6 6 7 7 8 8 9 9 10 10 11 11
REMARK H PARENT
REMARK Flexibility Score: inf
ROOT
ATOM      1  C   UNL     1      -9.485  31.400  20.499  1.00  0.00     0.040 C 
ATOM      2  C   UNL     1      -8.778  32.100  21.616  1.00  0.00    -0.066 C 
ATOM      3  C   UNL     1      -8.498  33.431  21.553  1.00  0.00     0.047 C 
ATOM      4  C   UNL     1      -7.812  34.021  22.748  1.00  0.00     0.159 C 
ATOM      5  O   UNL     1      -7.537  35.247  22.828  1.00  0.00    -0.295 OA
ATOM      6  C   UNL     1      -7.474  33.032  23.863  1.00  0.00     0.067 C 
ATOM      7  C   UNL     1      -6.862  31.823  23.123  1.00  0.00     0.021 C 
ATOM      8  C   UNL     1      -8.313  31.347  22.881  1.00  0.00     0.022 C 
ATOM      9  C   UNL     1      -8.728  32.155  24.145  1.00  0.00    -0.019 C 
ATOM     10  C   UNL     1      -8.587  31.326  25.447  1.00  0.00     0.012 C 
ATOM     11  C   UNL     1     -10.123  32.842  24.153  1.00  0.00     0.012 C 
ENDROOT
TORSDOF 0
ENDMDL
MODEL 8
REMARK VINA RESULT:    -5.355      2.063      3.429
REMARK INTER + INTRA:          -5.355
REMARK INTER:                  -5.355
REMARK INTRA:                   0.000
REMARK UNBOUND:                 0.000
REMARK SMILES CC1=CC(=O)[C@@H]2C[C@H]1C2(C)C
REMARK SMILES IDX 1 1 2 2 3 3 4 4 5 5 6 6 7 7 8 8 9 9 10 10 11 11
REMARK H PARENT
REMARK Flexibility Score: inf
ROOT
ATOM      1  C   UNL     1      -8.647  32.993  25.785  1.00  0.00     0.040 C 
ATOM      2  C   UNL     1      -8.337  32.109  24.619  1.00  0.00    -0.066 C 
ATOM      3  C   UNL     1      -8.822  30.839  24.545  1.00  0.00     0.047 C 
ATOM      4  C   UNL     1      -8.465  30.064  23.313  1.00  0.00     0.159 C 
ATOM      5  O   UNL     1      -8.887  28.896  23.108  1.00  0.00    -0.295 OA
ATOM      6  C   UNL     1      -7.557  30.792  22.322  1.00  0.00     0.067 C 
ATOM      7  C   UNL     1      -6.456  31.415  23.206  1.00  0.00     0.021 C 
ATOM      8  C   UNL     1      -7.437  32.582  23.457  1.00  0.00     0.022 C 
ATOM      9  C   UNL     1      -8.115  32.228  22.102  1.00  0.00    -0.019 C 
ATOM     10  C   UNL     1      -7.444  32.944  20.902  1.00  0.00     0.012 C 
ATOM     11  C   UNL     1      -9.655  32.411  21.979  1.00  0.00     0.012 C 
ENDROOT
TORSDOF 0
ENDMDL
MODEL 9
REMARK VINA RESULT:    -5.266      2.264      3.599
REMARK INTER + INTRA:          -5.266
REMARK INTER:                  -5.266
REMARK INTRA:                   0.000
REMARK UNBOUND:                 0.000
REMARK SMILES CC1=CC(=O)[C@@H]2C[C@H]1C2(C)C
REMARK SMILES IDX 1 1 2 2 3 3 4 4 5 5 6 6 7 7 8 8 9 9 10 10 11 11
REMARK H PARENT
REMARK Flexibility Score: inf
ROOT
ATOM      1  C   UNL     1      -9.718  32.242  20.934  1.00  0.00     0.040 C 
ATOM      2  C   UNL     1      -8.925  31.995  22.178  1.00  0.00    -0.066 C 
ATOM      3  C   UNL     1      -7.771  31.273  22.151  1.00  0.00     0.047 C 
ATOM      4  C   UNL     1      -7.054  31.121  23.458  1.00  0.00     0.159 C 
ATOM      5  O   UNL     1      -5.956  30.512  23.555  1.00  0.00    -0.295 OA
ATOM      6  C   UNL     1      -7.745  31.760  24.662  1.00  0.00     0.067 C 
ATOM      7  C   UNL     1      -9.222  31.332  24.521  1.00  0.00     0.021 C 
ATOM      8  C   UNL     1      -9.385  32.526  23.553  1.00  0.00     0.022 C 
ATOM      9  C   UNL     1      -8.183  33.202  24.274  1.00  0.00    -0.019 C 
ATOM     10  C   UNL     1      -8.626  34.035  25.504  1.00  0.00     0.012 C 
ATOM     11  C   UNL     1      -7.208  34.067  23.426  1.00  0.00     0.012 C 
ENDROOT
TORSDOF 0
ENDMDL
