MODEL 1
REMARK VINA RESULT:     0.535      0.000      0.000
REMARK INTER + INTRA:           0.533
REMARK INTER:                   0.847
REMARK INTRA:                  -0.314
REMARK UNBOUND:                -0.314
REMARK SMILES CCCCCCCCCCCC(=O)[O-]
REMARK SMILES IDX 7 1 8 2 9 3 10 4 11 5 12 6 13 7 14 8 6 9 5 10 4 11 3 12 2 13
REMARK SMILES IDX 1 14
REMARK H PARENT
REMARK Flexibility Score: inf
ROOT
ATOM      1  C   UNL     1     -32.636  19.197 -10.431  1.00  0.00     0.000 C 
ENDROOT
BRANCH   1   2
ATOM      2  C   UNL     1     -31.290  18.459 -10.483  1.00  0.00     0.000 C 
BRANCH   2   3
ATOM      3  C   UNL     1     -31.491  16.942 -10.378  1.00  0.00     0.000 C 
BRANCH   3   4
ATOM      4  C   UNL     1     -30.329  16.185 -11.039  1.00  0.00     0.006 C 
BRANCH   4   5
ATOM      5  C   UNL     1     -29.072  17.053 -11.175  1.00  0.00     0.053 C 
BRANCH   5   6
ATOM      6  C   UNL     1     -28.815  17.442 -12.599  1.00  0.00     0.041 C 
ATOM      7  O   UNL     1     -28.460  18.616 -12.880  1.00  0.00    -0.550 OA
ATOM      8  O   UNL     1     -28.935  16.498 -13.610  1.00  0.00    -0.550 OA
ENDBRANCH   5   6
ENDBRANCH   4   5
ENDBRANCH   3   4
ENDBRANCH   2   3
ENDBRANCH   1   2
BRANCH   1   9
ATOM      9  C   UNL     1     -32.516  20.618  -9.853  1.00  0.00     0.000 C 
BRANCH   9  10
ATOM     10  C   UNL     1     -31.896  21.662 -10.803  1.00  0.00    -0.000 C 
BRANCH  10  11
ATOM     11  C   UNL     1     -31.009  22.719 -10.119  1.00  0.00    -0.000 C 
BRANCH  11  12
ATOM     12  C   UNL     1     -31.740  24.055  -9.901  1.00  0.00    -0.000 C 
BRANCH  12  13
ATOM     13  C   UNL     1     -33.253  23.943 -10.139  1.00  0.00    -0.003 C 
ATOM     14  C   UNL     1     -34.068  24.124  -8.858  1.00  0.00     0.004 C 
ENDBRANCH  12  13
ENDBRANCH  11  12
ENDBRANCH  10  11
ENDBRANCH   9  10
ENDBRANCH   1   9
TORSDOF 10
ENDMDL
MODEL 2
REMARK VINA RESULT:     2.454      3.261      6.650
REMARK INTER + INTRA:           3.574
REMARK INTER:                   3.317
REMARK INTRA:                   0.258
REMARK UNBOUND:                -0.314
REMARK SMILES CCCCCCCCCCCC(=O)[O-]
REMARK SMILES IDX 7 1 8 2 9 3 10 4 11 5 12 6 13 7 14 8 6 9 5 10 4 11 3 12 2 13
REMARK SMILES IDX 1 14
REMARK H PARENT
REMARK Flexibility Score: inf
ROOT
ATOM      1  C   UNL     1     -31.413  18.440 -10.475  1.00  0.00     0.000 C 
ENDROOT
BRANCH   1   2
ATOM      2  C   UNL     1     -32.785  19.131 -10.475  1.00  0.00     0.000 C 
BRANCH   2   3
ATOM      3  C   UNL     1     -32.678  20.563  -9.936  1.00  0.00     0.000 C 
BRANCH   3   4
ATOM      4  C   UNL     1     -31.352  21.213 -10.357  1.00  0.00     0.006 C 
BRANCH   4   5
ATOM      5  C   UNL     1     -31.553  22.617 -10.942  1.00  0.00     0.053 C 
BRANCH   5   6
ATOM      6  C   UNL     1     -32.273  23.520  -9.989  1.00  0.00     0.041 C 
ATOM      7  O   UNL     1     -31.653  24.054  -9.033  1.00  0.00    -0.550 OA
ATOM      8  O   UNL     1     -33.620  23.798 -10.177  1.00  0.00    -0.550 OA
ENDBRANCH   5   6
ENDBRANCH   4   5
ENDBRANCH   3   4
ENDBRANCH   2   3
ENDBRANCH   1   2
BRANCH   1   9
ATOM      9  C   UNL     1     -31.512  16.917 -10.276  1.00  0.00     0.000 C 
BRANCH   9  10
ATOM     10  C   UNL     1     -30.513  16.082 -11.102  1.00  0.00    -0.000 C 
BRANCH  10  11
ATOM     11  C   UNL     1     -29.079  16.640 -11.149  1.00  0.00    -0.000 C 
BRANCH  11  12
ATOM     12  C   UNL     1     -28.919  17.779 -12.171  1.00  0.00    -0.000 C 
BRANCH  12  13
ATOM     13  C   UNL     1     -28.863  17.265 -13.618  1.00  0.00    -0.003 C 
ATOM     14  C   UNL     1     -28.927  15.740 -13.706  1.00  0.00     0.004 C 
ENDBRANCH  12  13
ENDBRANCH  11  12
ENDBRANCH  10  11
ENDBRANCH   9  10
ENDBRANCH   1   9
TORSDOF 10
ENDMDL
MODEL 3
REMARK VINA RESULT:     3.136      3.225      6.272
REMARK INTER + INTRA:           4.655
REMARK INTER:                   4.718
REMARK INTRA:                  -0.063
REMARK UNBOUND:                -0.314
REMARK SMILES CCCCCCCCCCCC(=O)[O-]
REMARK SMILES IDX 7 1 8 2 9 3 10 4 11 5 12 6 13 7 14 8 6 9 5 10 4 11 3 12 2 13
REMARK SMILES IDX 1 14
REMARK H PARENT
REMARK Flexibility Score: inf
ROOT
ATOM      1  C   UNL     1     -31.553  18.378 -10.375  1.00  0.00     0.000 C 
ENDROOT
BRANCH   1   2
ATOM      2  C   UNL     1     -32.923  19.072 -10.347  1.00  0.00     0.000 C 
BRANCH   2   3
ATOM      3  C   UNL     1     -32.819  20.467  -9.721  1.00  0.00     0.000 C 
BRANCH   3   4
ATOM      4  C   UNL     1     -31.572  21.208 -10.226  1.00  0.00     0.006 C 
BRANCH   4   5
ATOM      5  C   UNL     1     -31.926  22.504 -10.966  1.00  0.00     0.053 C 
BRANCH   5   6
ATOM      6  C   UNL     1     -32.344  23.589 -10.021  1.00  0.00     0.041 C 
ATOM      7  O   UNL     1     -31.500  24.116  -9.250  1.00  0.00    -0.550 OA
ATOM      8  O   UNL     1     -33.657  24.040 -10.016  1.00  0.00    -0.550 OA
ENDBRANCH   5   6
ENDBRANCH   4   5
ENDBRANCH   3   4
ENDBRANCH   2   3
ENDBRANCH   1   2
BRANCH   1   9
ATOM      9  C   UNL     1     -31.652  16.852 -10.205  1.00  0.00     0.000 C 
BRANCH   9  10
ATOM     10  C   UNL     1     -30.688  16.031 -11.085  1.00  0.00    -0.000 C 
BRANCH  10  11
ATOM     11  C   UNL     1     -29.247  16.570 -11.152  1.00  0.00    -0.000 C 
BRANCH  11  12
ATOM     12  C   UNL     1     -28.892  17.145 -12.534  1.00  0.00    -0.000 C 
BRANCH  12  13
ATOM     13  C   UNL     1     -28.498  18.628 -12.469  1.00  0.00    -0.003 C 
ATOM     14  C   UNL     1     -28.938  19.300 -11.168  1.00  0.00     0.004 C 
ENDBRANCH  12  13
ENDBRANCH  11  12
ENDBRANCH  10  11
ENDBRANCH   9  10
ENDBRANCH   1   9
TORSDOF 10
ENDMDL
