MODEL 1
REMARK VINA RESULT:    -4.497      0.000      0.000
REMARK INTER + INTRA:          -8.298
REMARK INTER:                  -6.994
REMARK INTRA:                  -1.304
REMARK UNBOUND:                -1.304
REMARK SMILES COc1cc(CNC(=O)CCCCC=CC(C)C)ccc1O
REMARK SMILES IDX 11 1 12 2 13 3 14 4 15 5 16 6 17 7 18 8 10 9 8 10 9 11 7 12
REMARK SMILES IDX 6 14 5 15 4 16 19 17 3 18 20 19 21 20 2 21 1 22 22 23
REMARK H PARENT 7 13 22 24
REMARK Flexibility Score: inf
ROOT
ATOM      1  C   UNL     1     126.404 124.768 111.676  1.00  0.00     0.010 C 
ENDROOT
BRANCH   1   2
ATOM      2  C   UNL     1     125.715 123.425 111.975  1.00  0.00     0.005 C 
BRANCH   2   3
ATOM      3  C   UNL     1     124.273 123.590 112.479  1.00  0.00     0.027 C 
BRANCH   3   4
ATOM      4  C   UNL     1     124.063 124.956 113.081  1.00  0.00    -0.031 C 
ATOM      5  C   UNL     1     124.229 125.277 114.380  1.00  0.00    -0.028 C 
BRANCH   5   6
ATOM      6  C   UNL     1     124.611 124.307 115.480  1.00  0.00     0.005 C 
ATOM      7  C   UNL     1     125.680 124.943 116.374  1.00  0.00     0.012 C 
ATOM      8  C   UNL     1     123.369 123.945 116.301  1.00  0.00     0.012 C 
ENDBRANCH   5   6
ENDBRANCH   3   4
ENDBRANCH   2   3
ENDBRANCH   1   2
BRANCH   1   9
ATOM      9  C   UNL     1     127.422 124.718 110.520  1.00  0.00     0.100 C 
BRANCH   9  10
ATOM     10  C   UNL     1     127.417 125.987 109.713  1.00  0.00     0.220 C 
ATOM     11  O   UNL     1     128.510 126.456 109.292  1.00  0.00    -0.275 OA
ATOM     12  N   UNL     1     126.185 126.686 109.469  1.00  0.00    -0.352 N 
ATOM     13  H   UNL     1     125.286 126.236 109.754  1.00  0.00     0.163 HD
BRANCH  12  14
ATOM     14  C   UNL     1     126.149 128.098 109.091  1.00  0.00     0.151 C 
BRANCH  14  15
ATOM     15  C   UNL     1     125.156 128.825 109.958  1.00  0.00    -0.025 A 
ATOM     16  C   UNL     1     124.661 130.078 109.564  1.00  0.00     0.056 A 
ATOM     17  C   UNL     1     124.632 128.207 111.105  1.00  0.00     0.009 A 
ATOM     18  C   UNL     1     123.655 130.720 110.316  1.00  0.00     0.160 A 
ATOM     19  C   UNL     1     123.628 128.831 111.846  1.00  0.00     0.050 A 
ATOM     20  C   UNL     1     123.133 130.078 111.456  1.00  0.00     0.157 A 
BRANCH  18  21
ATOM     21  O   UNL     1     123.153 131.981 109.959  1.00  0.00    -0.493 OA
ATOM     22  C   UNL     1     123.829 133.216 110.183  1.00  0.00     0.278 C 
ENDBRANCH  18  21
BRANCH  20  23
ATOM     23  O   UNL     1     122.119 130.665 112.214  1.00  0.00    -0.504 OA
ATOM     24  H   UNL     1     122.030 130.506 113.210  1.00  0.00     0.293 HD
ENDBRANCH  20  23
ENDBRANCH  14  15
ENDBRANCH  12  14
ENDBRANCH   9  10
ENDBRANCH   1   9
TORSDOF 10
ENDMDL
MODEL 2
REMARK VINA RESULT:    -4.369      4.819      6.303
REMARK INTER + INTRA:          -8.099
REMARK INTER:                  -7.002
REMARK INTRA:                  -1.098
REMARK UNBOUND:                -1.304
REMARK SMILES COc1cc(CNC(=O)CCCCC=CC(C)C)ccc1O
REMARK SMILES IDX 11 1 12 2 13 3 14 4 15 5 16 6 17 7 18 8 10 9 8 10 9 11 7 12
REMARK SMILES IDX 6 14 5 15 4 16 19 17 3 18 20 19 21 20 2 21 1 22 22 23
REMARK H PARENT 7 13 22 24
REMARK Flexibility Score: inf
ROOT
ATOM      1  C   UNL     1     125.206 121.603 110.804  1.00  0.00     0.010 C 
ENDROOT
BRANCH   1   2
ATOM      2  C   UNL     1     125.114 123.097 111.163  1.00  0.00     0.005 C 
BRANCH   2   3
ATOM      3  C   UNL     1     125.270 123.362 112.667  1.00  0.00     0.027 C 
BRANCH   3   4
ATOM      4  C   UNL     1     124.503 124.592 113.082  1.00  0.00    -0.031 C 
ATOM      5  C   UNL     1     124.242 124.965 114.352  1.00  0.00    -0.028 C 
BRANCH   5   6
ATOM      6  C   UNL     1     124.634 124.187 115.591  1.00  0.00     0.005 C 
ATOM      7  C   UNL     1     125.643 125.000 116.408  1.00  0.00     0.012 C 
ATOM      8  C   UNL     1     123.384 123.885 116.426  1.00  0.00     0.012 C 
ENDBRANCH   5   6
ENDBRANCH   3   4
ENDBRANCH   2   3
ENDBRANCH   1   2
BRANCH   1   9
ATOM      9  C   UNL     1     125.375 121.318 109.299  1.00  0.00     0.100 C 
BRANCH   9  10
ATOM     10  C   UNL     1     126.822 121.239 108.901  1.00  0.00     0.220 C 
ATOM     11  O   UNL     1     127.405 120.121 108.909  1.00  0.00    -0.275 OA
ATOM     12  N   UNL     1     127.548 122.434 108.567  1.00  0.00    -0.352 N 
ATOM     13  H   UNL     1     127.025 123.334 108.486  1.00  0.00     0.163 HD
BRANCH  12  14
ATOM     14  C   UNL     1     129.009 122.496 108.600  1.00  0.00     0.151 C 
BRANCH  14  15
ATOM     15  C   UNL     1     129.445 123.557 109.574  1.00  0.00    -0.025 A 
ATOM     16  C   UNL     1     130.713 124.147 109.454  1.00  0.00     0.056 A 
ATOM     17  C   UNL     1     128.547 124.046 110.537  1.00  0.00     0.009 A 
ATOM     18  C   UNL     1     131.092 125.212 110.296  1.00  0.00     0.160 A 
ATOM     19  C   UNL     1     128.910 125.109 111.365  1.00  0.00     0.050 A 
ATOM     20  C   UNL     1     130.172 125.697 111.247  1.00  0.00     0.157 A 
BRANCH  18  21
ATOM     21  O   UNL     1     132.358 125.811 110.213  1.00  0.00    -0.493 OA
ATOM     22  C   UNL     1     133.569 125.110 109.935  1.00  0.00     0.278 C 
ENDBRANCH  18  21
BRANCH  20  23
ATOM     23  O   UNL     1     130.495 126.767 112.083  1.00  0.00    -0.504 OA
ATOM     24  H   UNL     1     129.868 127.549 112.225  1.00  0.00     0.293 HD
ENDBRANCH  20  23
ENDBRANCH  14  15
ENDBRANCH  12  14
ENDBRANCH   9  10
ENDBRANCH   1   9
TORSDOF 10
ENDMDL
MODEL 3
REMARK VINA RESULT:    -4.313      5.098      8.740
REMARK INTER + INTRA:          -8.012
REMARK INTER:                  -6.916
REMARK INTRA:                  -1.097
REMARK UNBOUND:                -1.304
REMARK SMILES COc1cc(CNC(=O)CCCCC=CC(C)C)ccc1O
REMARK SMILES IDX 11 1 12 2 13 3 14 4 15 5 16 6 17 7 18 8 10 9 8 10 9 11 7 12
REMARK SMILES IDX 6 14 5 15 4 16 19 17 3 18 20 19 21 20 2 21 1 22 22 23
REMARK H PARENT 7 13 22 24
REMARK Flexibility Score: inf
ROOT
ATOM      1  C   UNL     1     122.353 124.858 110.374  1.00  0.00     0.010 C 
ENDROOT
BRANCH   1   2
ATOM      2  C   UNL     1     122.912 125.241 111.756  1.00  0.00     0.005 C 
BRANCH   2   3
ATOM      3  C   UNL     1     123.677 124.094 112.432  1.00  0.00     0.027 C 
BRANCH   3   4
ATOM      4  C   UNL     1     124.983 124.579 113.008  1.00  0.00    -0.031 C 
ATOM      5  C   UNL     1     125.300 124.613 114.319  1.00  0.00    -0.028 C 
BRANCH   5   6
ATOM      6  C   UNL     1     124.380 124.210 115.453  1.00  0.00     0.005 C 
ATOM      7  C   UNL     1     125.086 123.185 116.346  1.00  0.00     0.012 C 
ATOM      8  C   UNL     1     123.990 125.451 116.264  1.00  0.00     0.012 C 
ENDBRANCH   5   6
ENDBRANCH   3   4
ENDBRANCH   2   3
ENDBRANCH   1   2
BRANCH   1   9
ATOM      9  C   UNL     1     121.144 123.903 110.417  1.00  0.00     0.100 C 
BRANCH   9  10
ATOM     10  C   UNL     1     121.365 122.680 109.573  1.00  0.00     0.220 C 
ATOM     11  O   UNL     1     120.414 122.229 108.877  1.00  0.00    -0.275 OA
ATOM     12  N   UNL     1     122.631 122.000 109.598  1.00  0.00    -0.352 N 
ATOM     13  H   UNL     1     123.427 122.438 110.113  1.00  0.00     0.163 HD
BRANCH  12  14
ATOM     14  C   UNL     1     122.781 120.610 109.168  1.00  0.00     0.151 C 
BRANCH  14  15
ATOM     15  C   UNL     1     123.871 119.952 109.970  1.00  0.00    -0.025 A 
ATOM     16  C   UNL     1     124.416 118.729 109.548  1.00  0.00     0.056 A 
ATOM     17  C   UNL     1     124.429 120.608 111.079  1.00  0.00     0.009 A 
ATOM     18  C   UNL     1     125.506 118.155 110.234  1.00  0.00     0.160 A 
ATOM     19  C   UNL     1     125.516 120.052 111.754  1.00  0.00     0.050 A 
ATOM     20  C   UNL     1     126.060 118.835 111.336  1.00  0.00     0.157 A 
BRANCH  18  21
ATOM     21  O   UNL     1     126.061 116.925 109.849  1.00  0.00    -0.493 OA
ATOM     22  C   UNL     1     125.679 115.660 110.385  1.00  0.00     0.278 C 
ENDBRANCH  18  21
BRANCH  20  23
ATOM     23  O   UNL     1     127.156 118.317 112.028  1.00  0.00    -0.504 OA
ATOM     24  H   UNL     1     128.065 118.209 111.595  1.00  0.00     0.293 HD
ENDBRANCH  20  23
ENDBRANCH  14  15
ENDBRANCH  12  14
ENDBRANCH   9  10
ENDBRANCH   1   9
TORSDOF 10
ENDMDL
MODEL 4
REMARK VINA RESULT:    -4.167      4.251      6.521
REMARK INTER + INTRA:          -7.785
REMARK INTER:                  -6.685
REMARK INTRA:                  -1.100
REMARK UNBOUND:                -1.304
REMARK SMILES COc1cc(CNC(=O)CCCCC=CC(C)C)ccc1O
REMARK SMILES IDX 11 1 12 2 13 3 14 4 15 5 16 6 17 7 18 8 10 9 8 10 9 11 7 12
REMARK SMILES IDX 6 14 5 15 4 16 19 17 3 18 20 19 21 20 2 21 1 22 22 23
REMARK H PARENT 7 13 22 24
REMARK Flexibility Score: inf
ROOT
ATOM      1  C   UNL     1     125.598 125.826 110.332  1.00  0.00     0.010 C 
ENDROOT
BRANCH   1   2
ATOM      2  C   UNL     1     125.655 125.774 111.869  1.00  0.00     0.005 C 
BRANCH   2   3
ATOM      3  C   UNL     1     124.436 125.075 112.491  1.00  0.00     0.027 C 
BRANCH   3   4
ATOM      4  C   UNL     1     124.846 123.822 113.221  1.00  0.00    -0.031 C 
ATOM      5  C   UNL     1     124.856 123.659 114.560  1.00  0.00    -0.028 C 
BRANCH   5   6
ATOM      6  C   UNL     1     124.502 124.728 115.574  1.00  0.00     0.005 C 
ATOM      7  C   UNL     1     123.419 124.198 116.519  1.00  0.00     0.012 C 
ATOM      8  C   UNL     1     125.756 125.124 116.362  1.00  0.00     0.012 C 
ENDBRANCH   5   6
ENDBRANCH   3   4
ENDBRANCH   2   3
ENDBRANCH   1   2
BRANCH   1   9
ATOM      9  C   UNL     1     125.108 124.525 109.667  1.00  0.00     0.100 C 
BRANCH   9  10
ATOM     10  C   UNL     1     126.198 123.494 109.583  1.00  0.00     0.220 C 
ATOM     11  O   UNL     1     126.020 122.361 110.110  1.00  0.00    -0.275 OA
ATOM     12  N   UNL     1     127.450 123.812 108.954  1.00  0.00    -0.352 N 
ATOM     13  H   UNL     1     127.544 124.723 108.452  1.00  0.00     0.163 HD
BRANCH  12  14
ATOM     14  C   UNL     1     128.671 123.048 109.210  1.00  0.00     0.151 C 
BRANCH  14  15
ATOM     15  C   UNL     1     129.818 123.996 109.439  1.00  0.00    -0.025 A 
ATOM     16  C   UNL     1     129.957 124.649 110.674  1.00  0.00     0.056 A 
ATOM     17  C   UNL     1     130.818 124.146 108.465  1.00  0.00     0.009 A 
ATOM     18  C   UNL     1     131.082 125.458 110.935  1.00  0.00     0.160 A 
ATOM     19  C   UNL     1     131.940 124.934 108.721  1.00  0.00     0.050 A 
ATOM     20  C   UNL     1     132.081 125.585 109.949  1.00  0.00     0.157 A 
BRANCH  18  21
ATOM     21  O   UNL     1     131.241 126.138 112.151  1.00  0.00    -0.493 OA
ATOM     22  C   UNL     1     131.686 125.536 113.365  1.00  0.00     0.278 C 
ENDBRANCH  18  21
BRANCH  20  23
ATOM     23  O   UNL     1     133.223 126.355 110.174  1.00  0.00    -0.504 OA
ATOM     24  H   UNL     1     133.179 127.355 110.322  1.00  0.00     0.293 HD
ENDBRANCH  20  23
ENDBRANCH  14  15
ENDBRANCH  12  14
ENDBRANCH   9  10
ENDBRANCH   1   9
TORSDOF 10
ENDMDL
MODEL 5
REMARK VINA RESULT:    -4.155      5.015      6.819
REMARK INTER + INTRA:          -7.767
REMARK INTER:                  -5.897
REMARK INTRA:                  -1.870
REMARK UNBOUND:                -1.304
REMARK SMILES COc1cc(CNC(=O)CCCCC=CC(C)C)ccc1O
REMARK SMILES IDX 11 1 12 2 13 3 14 4 15 5 16 6 17 7 18 8 10 9 8 10 9 11 7 12
REMARK SMILES IDX 6 14 5 15 4 16 19 17 3 18 20 19 21 20 2 21 1 22 22 23
REMARK H PARENT 7 13 22 24
REMARK Flexibility Score: inf
ROOT
ATOM      1  C   UNL     1     124.094 126.588 110.502  1.00  0.00     0.010 C 
ENDROOT
BRANCH   1   2
ATOM      2  C   UNL     1     123.730 126.376 111.982  1.00  0.00     0.005 C 
BRANCH   2   3
ATOM      3  C   UNL     1     124.493 125.209 112.626  1.00  0.00     0.027 C 
BRANCH   3   4
ATOM      4  C   UNL     1     123.609 123.997 112.770  1.00  0.00    -0.031 C 
ATOM      5  C   UNL     1     123.565 122.950 111.922  1.00  0.00    -0.028 C 
BRANCH   5   6
ATOM      6  C   UNL     1     124.367 122.825 110.642  1.00  0.00     0.005 C 
ATOM      7  C   UNL     1     124.957 121.415 110.542  1.00  0.00     0.012 C 
ATOM      8  C   UNL     1     123.463 123.117 109.439  1.00  0.00     0.012 C 
ENDBRANCH   5   6
ENDBRANCH   3   4
ENDBRANCH   2   3
ENDBRANCH   1   2
BRANCH   1   9
ATOM      9  C   UNL     1     123.592 127.917 109.905  1.00  0.00     0.100 C 
BRANCH   9  10
ATOM     10  C   UNL     1     122.261 127.759 109.225  1.00  0.00     0.220 C 
ATOM     11  O   UNL     1     121.668 128.780 108.781  1.00  0.00    -0.275 OA
ATOM     12  N   UNL     1     121.645 126.464 109.130  1.00  0.00    -0.352 N 
ATOM     13  H   UNL     1     122.190 125.624 109.428  1.00  0.00     0.163 HD
BRANCH  12  14
ATOM     14  C   UNL     1     120.212 126.295 108.890  1.00  0.00     0.151 C 
BRANCH  14  15
ATOM     15  C   UNL     1     119.663 125.262 109.838  1.00  0.00    -0.025 A 
ATOM     16  C   UNL     1     118.387 124.717 109.625  1.00  0.00     0.056 A 
ATOM     17  C   UNL     1     120.464 124.754 110.873  1.00  0.00     0.009 A 
ATOM     18  C   UNL     1     117.905 123.677 110.445  1.00  0.00     0.160 A 
ATOM     19  C   UNL     1     119.999 123.716 111.680  1.00  0.00     0.050 A 
ATOM     20  C   UNL     1     118.730 123.171 111.470  1.00  0.00     0.157 A 
BRANCH  18  21
ATOM     21  O   UNL     1     116.628 123.123 110.270  1.00  0.00    -0.493 OA
ATOM     22  C   UNL     1     115.601 123.694 109.460  1.00  0.00     0.278 C 
ENDBRANCH  18  21
BRANCH  20  23
ATOM     23  O   UNL     1     118.304 122.125 112.289  1.00  0.00    -0.504 OA
ATOM     24  H   UNL     1     118.804 121.246 112.346  1.00  0.00     0.293 HD
ENDBRANCH  20  23
ENDBRANCH  14  15
ENDBRANCH  12  14
ENDBRANCH   9  10
ENDBRANCH   1   9
TORSDOF 10
ENDMDL
MODEL 6
REMARK VINA RESULT:    -4.127      1.872      2.299
REMARK INTER + INTRA:          -7.722
REMARK INTER:                  -6.921
REMARK INTRA:                  -0.801
REMARK UNBOUND:                -1.304
REMARK SMILES COc1cc(CNC(=O)CCCCC=CC(C)C)ccc1O
REMARK SMILES IDX 11 1 12 2 13 3 14 4 15 5 16 6 17 7 18 8 10 9 8 10 9 11 7 12
REMARK SMILES IDX 6 14 5 15 4 16 19 17 3 18 20 19 21 20 2 21 1 22 22 23
REMARK H PARENT 7 13 22 24
REMARK Flexibility Score: inf
ROOT
ATOM      1  C   UNL     1     122.884 124.385 110.272  1.00  0.00     0.010 C 
ENDROOT
BRANCH   1   2
ATOM      2  C   UNL     1     122.255 124.392 111.676  1.00  0.00     0.005 C 
BRANCH   2   3
ATOM      3  C   UNL     1     123.097 123.636 112.715  1.00  0.00     0.027 C 
BRANCH   3   4
ATOM      4  C   UNL     1     124.372 124.379 113.022  1.00  0.00    -0.031 C 
ATOM      5  C   UNL     1     124.837 124.667 114.255  1.00  0.00    -0.028 C 
BRANCH   5   6
ATOM      6  C   UNL     1     124.134 124.337 115.555  1.00  0.00     0.005 C 
ATOM      7  C   UNL     1     124.997 123.372 116.374  1.00  0.00     0.012 C 
ATOM      8  C   UNL     1     123.875 125.627 116.342  1.00  0.00     0.012 C 
ENDBRANCH   5   6
ENDBRANCH   3   4
ENDBRANCH   2   3
ENDBRANCH   1   2
BRANCH   1   9
ATOM      9  C   UNL     1     122.829 125.741 109.542  1.00  0.00     0.100 C 
BRANCH   9  10
ATOM     10  C   UNL     1     124.117 126.503 109.675  1.00  0.00     0.220 C 
ATOM     11  O   UNL     1     125.039 126.038 110.401  1.00  0.00    -0.275 OA
ATOM     12  N   UNL     1     124.278 127.774 109.024  1.00  0.00    -0.352 N 
ATOM     13  H   UNL     1     123.538 128.098 108.362  1.00  0.00     0.163 HD
BRANCH  12  14
ATOM     14  C   UNL     1     125.287 128.746 109.444  1.00  0.00     0.151 C 
BRANCH  14  15
ATOM     15  C   UNL     1     124.621 129.869 110.194  1.00  0.00    -0.025 A 
ATOM     16  C   UNL     1     124.216 131.028 109.515  1.00  0.00     0.056 A 
ATOM     17  C   UNL     1     124.298 129.718 111.553  1.00  0.00     0.009 A 
ATOM     18  C   UNL     1     123.500 132.040 110.186  1.00  0.00     0.160 A 
ATOM     19  C   UNL     1     123.578 130.710 112.220  1.00  0.00     0.050 A 
ATOM     20  C   UNL     1     123.174 131.864 111.546  1.00  0.00     0.157 A 
BRANCH  18  21
ATOM     21  O   UNL     1     123.097 133.218 109.540  1.00  0.00    -0.493 OA
ATOM     22  C   UNL     1     122.413 133.263 108.289  1.00  0.00     0.278 C 
ENDBRANCH  18  21
BRANCH  20  23
ATOM     23  O   UNL     1     122.444 132.829 112.243  1.00  0.00    -0.504 OA
ATOM     24  H   UNL     1     121.969 133.589 111.773  1.00  0.00     0.293 HD
ENDBRANCH  20  23
ENDBRANCH  14  15
ENDBRANCH  12  14
ENDBRANCH   9  10
ENDBRANCH   1   9
TORSDOF 10
ENDMDL
MODEL 7
REMARK VINA RESULT:    -4.095      1.539      2.701
REMARK INTER + INTRA:          -7.673
REMARK INTER:                  -5.983
REMARK INTRA:                  -1.690
REMARK UNBOUND:                -1.304
REMARK SMILES COc1cc(CNC(=O)CCCCC=CC(C)C)ccc1O
REMARK SMILES IDX 11 1 12 2 13 3 14 4 15 5 16 6 17 7 18 8 10 9 8 10 9 11 7 12
REMARK SMILES IDX 6 14 5 15 4 16 19 17 3 18 20 19 21 20 2 21 1 22 22 23
REMARK H PARENT 7 13 22 24
REMARK Flexibility Score: inf
ROOT
ATOM      1  C   UNL     1     126.109 125.377 112.180  1.00  0.00     0.010 C 
ENDROOT
BRANCH   1   2
ATOM      2  C   UNL     1     125.419 124.240 112.953  1.00  0.00     0.005 C 
BRANCH   2   3
ATOM      3  C   UNL     1     123.975 124.577 113.355  1.00  0.00     0.027 C 
BRANCH   3   4
ATOM      4  C   UNL     1     123.383 125.609 112.429  1.00  0.00    -0.031 C 
ATOM      5  C   UNL     1     122.636 125.348 111.337  1.00  0.00    -0.028 C 
BRANCH   5   6
ATOM      6  C   UNL     1     122.297 123.966 110.817  1.00  0.00     0.005 C 
ATOM      7  C   UNL     1     120.870 123.964 110.259  1.00  0.00     0.012 C 
ATOM      8  C   UNL     1     123.300 123.566 109.729  1.00  0.00     0.012 C 
ENDBRANCH   5   6
ENDBRANCH   3   4
ENDBRANCH   2   3
ENDBRANCH   1   2
BRANCH   1   9
ATOM      9  C   UNL     1     126.695 124.958 110.817  1.00  0.00     0.100 C 
BRANCH   9  10
ATOM     10  C   UNL     1     126.736 126.105 109.847  1.00  0.00     0.220 C 
ATOM     11  O   UNL     1     127.807 126.353 109.228  1.00  0.00    -0.275 OA
ATOM     12  N   UNL     1     125.583 126.943 109.666  1.00  0.00    -0.352 N 
ATOM     13  H   UNL     1     124.685 126.669 110.124  1.00  0.00     0.163 HD
BRANCH  12  14
ATOM     14  C   UNL     1     125.674 128.288 109.100  1.00  0.00     0.151 C 
BRANCH  14  15
ATOM     15  C   UNL     1     124.900 129.250 109.961  1.00  0.00    -0.025 A 
ATOM     16  C   UNL     1     124.582 130.529 109.479  1.00  0.00     0.056 A 
ATOM     17  C   UNL     1     124.391 128.836 111.203  1.00  0.00     0.009 A 
ATOM     18  C   UNL     1     123.769 131.399 110.236  1.00  0.00     0.160 A 
ATOM     19  C   UNL     1     123.577 129.686 111.951  1.00  0.00     0.050 A 
ATOM     20  C   UNL     1     123.258 130.960 111.473  1.00  0.00     0.157 A 
BRANCH  18  21
ATOM     21  O   UNL     1     123.448 132.690 109.791  1.00  0.00    -0.493 OA
ATOM     22  C   UNL     1     122.634 132.977 108.655  1.00  0.00     0.278 C 
ENDBRANCH  18  21
BRANCH  20  23
ATOM     23  O   UNL     1     122.430 131.778 112.243  1.00  0.00    -0.504 OA
ATOM     24  H   UNL     1     122.489 131.808 113.253  1.00  0.00     0.293 HD
ENDBRANCH  20  23
ENDBRANCH  14  15
ENDBRANCH  12  14
ENDBRANCH   9  10
ENDBRANCH   1   9
TORSDOF 10
ENDMDL
MODEL 8
REMARK VINA RESULT:    -4.084      8.155     11.422
REMARK INTER + INTRA:          -7.655
REMARK INTER:                  -6.176
REMARK INTRA:                  -1.479
REMARK UNBOUND:                -1.304
REMARK SMILES COc1cc(CNC(=O)CCCCC=CC(C)C)ccc1O
REMARK SMILES IDX 11 1 12 2 13 3 14 4 15 5 16 6 17 7 18 8 10 9 8 10 9 11 7 12
REMARK SMILES IDX 6 14 5 15 4 16 19 17 3 18 20 19 21 20 2 21 1 22 22 23
REMARK H PARENT 7 13 22 24
REMARK Flexibility Score: inf
ROOT
ATOM      1  C   UNL     1     128.348 118.374 106.436  1.00  0.00     0.010 C 
ENDROOT
BRANCH   1   2
ATOM      2  C   UNL     1     127.906 119.227 107.638  1.00  0.00     0.005 C 
BRANCH   2   3
ATOM      3  C   UNL     1     128.946 119.256 108.768  1.00  0.00     0.027 C 
BRANCH   3   4
ATOM      4  C   UNL     1     130.116 120.135 108.405  1.00  0.00    -0.031 C 
ATOM      5  C   UNL     1     131.366 119.708 108.132  1.00  0.00    -0.028 C 
BRANCH   5   6
ATOM      6  C   UNL     1     131.831 118.267 108.187  1.00  0.00     0.005 C 
ATOM      7  C   UNL     1     131.907 117.699 106.767  1.00  0.00     0.012 C 
ATOM      8  C   UNL     1     133.202 118.195 108.870  1.00  0.00     0.012 C 
ENDBRANCH   5   6
ENDBRANCH   3   4
ENDBRANCH   2   3
ENDBRANCH   1   2
BRANCH   1   9
ATOM      9  C   UNL     1     128.380 116.857 106.709  1.00  0.00     0.100 C 
BRANCH   9  10
ATOM     10  C   UNL     1     127.059 116.349 107.213  1.00  0.00     0.220 C 
ATOM     11  O   UNL     1     126.031 116.480 106.493  1.00  0.00    -0.275 OA
ATOM     12  N   UNL     1     126.957 115.768 108.523  1.00  0.00    -0.352 N 
ATOM     13  H   UNL     1     127.833 115.594 109.065  1.00  0.00     0.163 HD
BRANCH  12  14
ATOM     14  C   UNL     1     125.684 115.660 109.234  1.00  0.00     0.151 C 
BRANCH  14  15
ATOM     15  C   UNL     1     125.768 116.416 110.533  1.00  0.00    -0.025 A 
ATOM     16  C   UNL     1     125.454 117.783 110.575  1.00  0.00     0.056 A 
ATOM     17  C   UNL     1     126.050 115.737 111.731  1.00  0.00     0.009 A 
ATOM     18  C   UNL     1     125.430 118.476 111.803  1.00  0.00     0.160 A 
ATOM     19  C   UNL     1     126.015 116.414 112.950  1.00  0.00     0.050 A 
ATOM     20  C   UNL     1     125.702 117.774 112.994  1.00  0.00     0.157 A 
BRANCH  18  21
ATOM     21  O   UNL     1     125.138 119.846 111.877  1.00  0.00    -0.493 OA
ATOM     22  C   UNL     1     124.546 120.607 110.825  1.00  0.00     0.278 C 
ENDBRANCH  18  21
BRANCH  20  23
ATOM     23  O   UNL     1     125.664 118.415 114.234  1.00  0.00    -0.504 OA
ATOM     24  H   UNL     1     124.954 119.096 114.467  1.00  0.00     0.293 HD
ENDBRANCH  20  23
ENDBRANCH  14  15
ENDBRANCH  12  14
ENDBRANCH   9  10
ENDBRANCH   1   9
TORSDOF 10
ENDMDL
MODEL 9
REMARK VINA RESULT:    -3.944      3.887      6.307
REMARK INTER + INTRA:          -7.439
REMARK INTER:                  -5.461
REMARK INTRA:                  -1.978
REMARK UNBOUND:                -1.304
REMARK SMILES COc1cc(CNC(=O)CCCCC=CC(C)C)ccc1O
REMARK SMILES IDX 11 1 12 2 13 3 14 4 15 5 16 6 17 7 18 8 10 9 8 10 9 11 7 12
REMARK SMILES IDX 6 14 5 15 4 16 19 17 3 18 20 19 21 20 2 21 1 22 22 23
REMARK H PARENT 7 13 22 24
REMARK Flexibility Score: inf
ROOT
ATOM      1  C   UNL     1     121.243 126.292 108.750  1.00  0.00     0.010 C 
ENDROOT
BRANCH   1   2
ATOM      2  C   UNL     1     122.028 124.998 108.472  1.00  0.00     0.005 C 
BRANCH   2   3
ATOM      3  C   UNL     1     121.976 124.003 109.641  1.00  0.00     0.027 C 
BRANCH   3   4
ATOM      4  C   UNL     1     121.401 124.648 110.876  1.00  0.00    -0.031 C 
ATOM      5  C   UNL     1     120.189 124.388 111.406  1.00  0.00    -0.028 C 
BRANCH   5   6
ATOM      6  C   UNL     1     119.166 123.432 110.827  1.00  0.00     0.005 C 
ATOM      7  C   UNL     1     118.284 122.881 111.953  1.00  0.00     0.012 C 
ATOM      8  C   UNL     1     118.313 124.162 109.784  1.00  0.00     0.012 C 
ENDBRANCH   5   6
ENDBRANCH   3   4
ENDBRANCH   2   3
ENDBRANCH   1   2
BRANCH   1   9
ATOM      9  C   UNL     1     121.897 127.568 108.184  1.00  0.00     0.100 C 
BRANCH   9  10
ATOM     10  C   UNL     1     123.073 128.010 109.010  1.00  0.00     0.220 C 
ATOM     11  O   UNL     1     124.035 128.602 108.449  1.00  0.00    -0.275 OA
ATOM     12  N   UNL     1     123.124 127.713 110.415  1.00  0.00    -0.352 N 
ATOM     13  H   UNL     1     122.281 127.299 110.873  1.00  0.00     0.163 HD
BRANCH  12  14
ATOM     14  C   UNL     1     124.377 127.714 111.170  1.00  0.00     0.151 C 
BRANCH  14  15
ATOM     15  C   UNL     1     124.822 126.296 111.406  1.00  0.00    -0.025 A 
ATOM     16  C   UNL     1     124.589 125.682 112.646  1.00  0.00     0.056 A 
ATOM     17  C   UNL     1     125.368 125.541 110.356  1.00  0.00     0.009 A 
ATOM     18  C   UNL     1     124.908 124.322 112.845  1.00  0.00     0.160 A 
ATOM     19  C   UNL     1     125.674 124.192 110.541  1.00  0.00     0.050 A 
ATOM     20  C   UNL     1     125.443 123.578 111.774  1.00  0.00     0.157 A 
BRANCH  18  21
ATOM     21  O   UNL     1     124.704 123.684 114.078  1.00  0.00    -0.493 OA
ATOM     22  C   UNL     1     124.365 124.353 115.291  1.00  0.00     0.278 C 
ENDBRANCH  18  21
BRANCH  20  23
ATOM     23  O   UNL     1     125.750 122.225 111.919  1.00  0.00    -0.504 OA
ATOM     24  H   UNL     1     126.221 121.863 112.738  1.00  0.00     0.293 HD
ENDBRANCH  20  23
ENDBRANCH  14  15
ENDBRANCH  12  14
ENDBRANCH   9  10
ENDBRANCH   1   9
TORSDOF 10
ENDMDL
