MODEL 1
REMARK VINA RESULT:    -5.828      0.000      0.000
REMARK INTER + INTRA:          -7.273
REMARK INTER:                  -7.020
REMARK INTRA:                  -0.252
REMARK UNBOUND:                -0.252
REMARK SMILES O=c1c(O)c(-c2ccc(O)c(O)c2)oc2cc(O)cc(O)c12
REMARK SMILES IDX 5 1 3 2 2 3 1 4 22 5 20 6 19 7 17 8 16 9 15 10 14 11 6 12
REMARK SMILES IDX 7 13 8 14 9 15 13 16 11 17 10 18 12 20 4 22 21 24 18 26
REMARK H PARENT 10 19 12 21 4 23 21 25 18 27
REMARK Flexibility Score: inf
ROOT
ATOM      1  C   UNL     1      20.229  20.119  20.772  1.00  0.00     0.180 A 
ATOM      2  C   UNL     1      21.534  19.627  20.972  1.00  0.00     0.208 A 
ATOM      3  C   UNL     1      21.698  18.337  21.501  1.00  0.00     0.238 A 
ATOM      4  O   UNL     1      22.861  17.890  21.696  1.00  0.00    -0.285 OA
ATOM      5  C   UNL     1      20.562  17.556  21.799  1.00  0.00     0.111 A 
ATOM      6  C   UNL     1      20.641  16.246  22.330  1.00  0.00     0.134 A 
ATOM      7  C   UNL     1      19.464  15.530  22.592  1.00  0.00     0.093 A 
ATOM      8  C   UNL     1      18.212  16.097  22.331  1.00  0.00     0.123 A 
ATOM      9  C   UNL     1      18.129  17.388  21.809  1.00  0.00     0.094 A 
ATOM     10  C   UNL     1      19.290  18.119  21.542  1.00  0.00     0.146 A 
ATOM     11  O   UNL     1      19.182  19.348  21.050  1.00  0.00    -0.452 OA
ENDROOT
BRANCH   1  12
ATOM     12  C   UNL     1      19.974  21.476  20.236  1.00  0.00     0.025 A 
ATOM     13  C   UNL     1      19.417  21.619  18.955  1.00  0.00     0.016 A 
ATOM     14  C   UNL     1      19.149  22.888  18.438  1.00  0.00     0.051 A 
ATOM     15  C   UNL     1      19.416  24.032  19.196  1.00  0.00     0.157 A 
ATOM     16  C   UNL     1      20.223  22.626  21.006  1.00  0.00     0.062 A 
ATOM     17  C   UNL     1      19.952  23.901  20.489  1.00  0.00     0.158 A 
BRANCH  15  18
ATOM     18  O   UNL     1      19.140  25.286  18.653  1.00  0.00    -0.504 OA
ATOM     19  H   UNL     1      18.289  25.791  18.868  1.00  0.00     0.293 HD
ENDBRANCH  15  18
BRANCH  17  20
ATOM     20  O   UNL     1      20.208  25.037  21.255  1.00  0.00    -0.504 OA
ATOM     21  H   UNL     1      19.787  25.167  22.169  1.00  0.00     0.293 HD
ENDBRANCH  17  20
ENDBRANCH   1  12
BRANCH   2  22
ATOM     22  O   UNL     1      22.642  20.402  20.623  1.00  0.00    -0.502 OA
ATOM     23  H   UNL     1      22.700  21.392  20.830  1.00  0.00     0.293 HD
ENDBRANCH   2  22
BRANCH   6  24
ATOM     24  O   UNL     1      21.876  15.653  22.599  1.00  0.00    -0.507 OA
ATOM     25  H   UNL     1      22.629  15.659  21.922  1.00  0.00     0.293 HD
ENDBRANCH   6  24
BRANCH   8  26
ATOM     26  O   UNL     1      17.043  15.384  22.589  1.00  0.00    -0.508 OA
ATOM     27  H   UNL     1      16.518  14.938  21.846  1.00  0.00     0.293 HD
ENDBRANCH   8  26
TORSDOF 6
ENDMDL
MODEL 2
REMARK VINA RESULT:    -5.744      1.584      7.134
REMARK INTER + INTRA:          -7.171
REMARK INTER:                  -6.850
REMARK INTRA:                  -0.321
REMARK UNBOUND:                -0.252
REMARK SMILES O=c1c(O)c(-c2ccc(O)c(O)c2)oc2cc(O)cc(O)c12
REMARK SMILES IDX 5 1 3 2 2 3 1 4 22 5 20 6 19 7 17 8 16 9 15 10 14 11 6 12
REMARK SMILES IDX 7 13 8 14 9 15 13 16 11 17 10 18 12 20 4 22 21 24 18 26
REMARK H PARENT 10 19 12 21 4 23 21 25 18 27
REMARK Flexibility Score: inf
ROOT
ATOM      1  C   UNL     1      19.253  19.863  20.475  1.00  0.00     0.180 A 
ATOM      2  C   UNL     1      18.850  19.785  19.127  1.00  0.00     0.208 A 
ATOM      3  C   UNL     1      18.781  20.965  18.371  1.00  0.00     0.238 A 
ATOM      4  O   UNL     1      18.410  20.909  17.167  1.00  0.00    -0.285 OA
ATOM      5  C   UNL     1      19.133  22.195  18.964  1.00  0.00     0.111 A 
ATOM      6  C   UNL     1      19.094  23.428  18.270  1.00  0.00     0.134 A 
ATOM      7  C   UNL     1      19.468  24.609  18.928  1.00  0.00     0.093 A 
ATOM      8  C   UNL     1      19.882  24.579  20.265  1.00  0.00     0.123 A 
ATOM      9  C   UNL     1      19.921  23.366  20.953  1.00  0.00     0.094 A 
ATOM     10  C   UNL     1      19.551  22.178  20.316  1.00  0.00     0.146 A 
ATOM     11  O   UNL     1      19.592  21.038  20.996  1.00  0.00    -0.452 OA
ENDROOT
BRANCH   1  12
ATOM     12  C   UNL     1      19.333  18.665  21.343  1.00  0.00     0.025 A 
ATOM     13  C   UNL     1      18.181  18.219  22.009  1.00  0.00     0.016 A 
ATOM     14  C   UNL     1      18.228  17.079  22.816  1.00  0.00     0.051 A 
ATOM     15  C   UNL     1      19.419  16.360  22.957  1.00  0.00     0.157 A 
ATOM     16  C   UNL     1      20.525  17.931  21.468  1.00  0.00     0.062 A 
ATOM     17  C   UNL     1      20.573  16.785  22.276  1.00  0.00     0.158 A 
BRANCH  15  18
ATOM     18  O   UNL     1      19.437  15.229  23.771  1.00  0.00    -0.504 OA
ATOM     19  H   UNL     1      19.850  14.355  23.470  1.00  0.00     0.293 HD
ENDBRANCH  15  18
BRANCH  17  20
ATOM     20  O   UNL     1      21.760  16.065  22.402  1.00  0.00    -0.504 OA
ATOM     21  H   UNL     1      22.308  16.089  23.255  1.00  0.00     0.293 HD
ENDBRANCH  17  20
ENDBRANCH   1  12
BRANCH   2  22
ATOM     22  O   UNL     1      18.554  18.548  18.550  1.00  0.00    -0.502 OA
ATOM     23  H   UNL     1      18.787  17.669  18.998  1.00  0.00     0.293 HD
ENDBRANCH   2  22
BRANCH   6  24
ATOM     24  O   UNL     1      18.687  23.490  16.937  1.00  0.00    -0.507 OA
ATOM     25  H   UNL     1      19.353  23.598  16.180  1.00  0.00     0.293 HD
ENDBRANCH   6  24
BRANCH   8  26
ATOM     26  O   UNL     1      20.256  25.752  20.918  1.00  0.00    -0.508 OA
ATOM     27  H   UNL     1      20.995  25.760  21.611  1.00  0.00     0.293 HD
ENDBRANCH   8  26
TORSDOF 6
ENDMDL
MODEL 3
REMARK VINA RESULT:    -5.708      1.253      2.843
REMARK INTER + INTRA:          -7.128
REMARK INTER:                  -6.804
REMARK INTRA:                  -0.324
REMARK UNBOUND:                -0.252
REMARK SMILES O=c1c(O)c(-c2ccc(O)c(O)c2)oc2cc(O)cc(O)c12
REMARK SMILES IDX 5 1 3 2 2 3 1 4 22 5 20 6 19 7 17 8 16 9 15 10 14 11 6 12
REMARK SMILES IDX 7 13 8 14 9 15 13 16 11 17 10 18 12 20 4 22 21 24 18 26
REMARK H PARENT 10 19 12 21 4 23 21 25 18 27
REMARK Flexibility Score: inf
ROOT
ATOM      1  C   UNL     1      19.091  20.078  20.836  1.00  0.00     0.180 A 
ATOM      2  C   UNL     1      17.944  19.632  21.521  1.00  0.00     0.208 A 
ATOM      3  C   UNL     1      17.909  18.310  21.995  1.00  0.00     0.238 A 
ATOM      4  O   UNL     1      16.883  17.896  22.599  1.00  0.00    -0.285 OA
ATOM      5  C   UNL     1      19.022  17.468  21.795  1.00  0.00     0.111 A 
ATOM      6  C   UNL     1      19.068  16.127  22.244  1.00  0.00     0.134 A 
ATOM      7  C   UNL     1      20.217  15.355  22.014  1.00  0.00     0.093 A 
ATOM      8  C   UNL     1      21.319  15.901  21.345  1.00  0.00     0.123 A 
ATOM      9  C   UNL     1      21.278  17.223  20.901  1.00  0.00     0.094 A 
ATOM     10  C   UNL     1      20.142  18.007  21.119  1.00  0.00     0.146 A 
ATOM     11  O   UNL     1      20.128  19.261  20.680  1.00  0.00    -0.452 OA
ENDROOT
BRANCH   1  12
ATOM     12  C   UNL     1      19.196  21.452  20.291  1.00  0.00     0.025 A 
ATOM     13  C   UNL     1      18.745  21.712  18.987  1.00  0.00     0.016 A 
ATOM     14  C   UNL     1      18.815  23.004  18.460  1.00  0.00     0.051 A 
ATOM     15  C   UNL     1      19.320  24.056  19.229  1.00  0.00     0.157 A 
ATOM     16  C   UNL     1      19.685  22.514  21.071  1.00  0.00     0.062 A 
ATOM     17  C   UNL     1      19.754  23.812  20.544  1.00  0.00     0.158 A 
BRANCH  15  18
ATOM     18  O   UNL     1      19.380  25.334  18.676  1.00  0.00    -0.504 OA
ATOM     19  H   UNL     1      19.816  26.110  19.158  1.00  0.00     0.293 HD
ENDBRANCH  15  18
BRANCH  17  20
ATOM     20  O   UNL     1      20.246  24.859  21.321  1.00  0.00    -0.504 OA
ATOM     21  H   UNL     1      19.777  25.157  22.169  1.00  0.00     0.293 HD
ENDBRANCH  17  20
ENDBRANCH   1  12
BRANCH   2  22
ATOM     22  O   UNL     1      16.875  20.501  21.749  1.00  0.00    -0.502 OA
ATOM     23  H   UNL     1      16.701  20.923  22.654  1.00  0.00     0.293 HD
ENDBRANCH   2  22
BRANCH   6  24
ATOM     24  O   UNL     1      17.986  15.556  22.914  1.00  0.00    -0.507 OA
ATOM     25  H   UNL     1      17.530  16.025  23.687  1.00  0.00     0.293 HD
ENDBRANCH   6  24
BRANCH   8  26
ATOM     26  O   UNL     1      22.461  15.135  21.119  1.00  0.00    -0.508 OA
ATOM     27  H   UNL     1      23.387  15.489  21.327  1.00  0.00     0.293 HD
ENDBRANCH   8  26
TORSDOF 6
ENDMDL
MODEL 4
REMARK VINA RESULT:    -5.606      4.616      5.786
REMARK INTER + INTRA:          -7.005
REMARK INTER:                  -7.030
REMARK INTRA:                   0.024
REMARK UNBOUND:                -0.252
REMARK SMILES O=c1c(O)c(-c2ccc(O)c(O)c2)oc2cc(O)cc(O)c12
REMARK SMILES IDX 5 1 3 2 2 3 1 4 22 5 20 6 19 7 17 8 16 9 15 10 14 11 6 12
REMARK SMILES IDX 7 13 8 14 9 15 13 16 11 17 10 18 12 20 4 22 21 24 18 26
REMARK H PARENT 10 19 12 21 4 23 21 25 18 27
REMARK Flexibility Score: inf
ROOT
ATOM      1  C   UNL     1      21.684  16.651  20.883  1.00  0.00     0.180 A 
ATOM      2  C   UNL     1      20.762  16.274  19.887  1.00  0.00     0.208 A 
ATOM      3  C   UNL     1      19.488  15.829  20.275  1.00  0.00     0.238 A 
ATOM      4  O   UNL     1      18.658  15.478  19.393  1.00  0.00    -0.285 OA
ATOM      5  C   UNL     1      19.151  15.788  21.644  1.00  0.00     0.111 A 
ATOM      6  C   UNL     1      17.889  15.358  22.118  1.00  0.00     0.134 A 
ATOM      7  C   UNL     1      17.628  15.355  23.496  1.00  0.00     0.093 A 
ATOM      8  C   UNL     1      18.603  15.775  24.407  1.00  0.00     0.123 A 
ATOM      9  C   UNL     1      19.849  16.201  23.945  1.00  0.00     0.094 A 
ATOM     10  C   UNL     1      20.130  16.210  22.576  1.00  0.00     0.146 A 
ATOM     11  O   UNL     1      21.325  16.614  22.163  1.00  0.00    -0.452 OA
ENDROOT
BRANCH   1  12
ATOM     12  C   UNL     1      23.052  17.113  20.554  1.00  0.00     0.025 A 
ATOM     13  C   UNL     1      23.580  18.232  21.216  1.00  0.00     0.016 A 
ATOM     14  C   UNL     1      24.876  18.673  20.936  1.00  0.00     0.051 A 
ATOM     15  C   UNL     1      25.669  17.994  20.006  1.00  0.00     0.157 A 
ATOM     16  C   UNL     1      23.857  16.419  19.633  1.00  0.00     0.062 A 
ATOM     17  C   UNL     1      25.159  16.859  19.353  1.00  0.00     0.158 A 
BRANCH  15  18
ATOM     18  O   UNL     1      26.957  18.458  19.746  1.00  0.00    -0.504 OA
ATOM     19  H   UNL     1      27.782  17.916  19.974  1.00  0.00     0.293 HD
ENDBRANCH  15  18
BRANCH  17  20
ATOM     20  O   UNL     1      25.949  16.170  18.434  1.00  0.00    -0.504 OA
ATOM     21  H   UNL     1      26.943  16.350  18.350  1.00  0.00     0.293 HD
ENDBRANCH  17  20
ENDBRANCH   1  12
BRANCH   2  22
ATOM     22  O   UNL     1      21.103  16.370  18.536  1.00  0.00    -0.502 OA
ATOM     23  H   UNL     1      21.440  17.231  18.121  1.00  0.00     0.293 HD
ENDBRANCH   2  22
BRANCH   6  24
ATOM     24  O   UNL     1      16.896  14.933  21.234  1.00  0.00    -0.507 OA
ATOM     25  H   UNL     1      16.265  15.588  20.787  1.00  0.00     0.293 HD
ENDBRANCH   6  24
BRANCH   8  26
ATOM     26  O   UNL     1      18.342  15.775  25.777  1.00  0.00    -0.508 OA
ATOM     27  H   UNL     1      19.080  15.911  26.457  1.00  0.00     0.293 HD
ENDBRANCH   8  26
TORSDOF 6
ENDMDL
MODEL 5
REMARK VINA RESULT:    -5.550      1.437      2.864
REMARK INTER + INTRA:          -6.938
REMARK INTER:                  -6.778
REMARK INTRA:                  -0.159
REMARK UNBOUND:                -0.252
REMARK SMILES O=c1c(O)c(-c2ccc(O)c(O)c2)oc2cc(O)cc(O)c12
REMARK SMILES IDX 5 1 3 2 2 3 1 4 22 5 20 6 19 7 17 8 16 9 15 10 14 11 6 12
REMARK SMILES IDX 7 13 8 14 9 15 13 16 11 17 10 18 12 20 4 22 21 24 18 26
REMARK H PARENT 10 19 12 21 4 23 21 25 18 27
REMARK Flexibility Score: inf
ROOT
ATOM      1  C   UNL     1      19.500  20.308  20.349  1.00  0.00     0.180 A 
ATOM      2  C   UNL     1      18.269  19.793  19.897  1.00  0.00     0.208 A 
ATOM      3  C   UNL     1      17.975  18.439  20.125  1.00  0.00     0.238 A 
ATOM      4  O   UNL     1      16.882  17.964  19.714  1.00  0.00    -0.285 OA
ATOM      5  C   UNL     1      18.902  17.632  20.817  1.00  0.00     0.111 A 
ATOM      6  C   UNL     1      18.681  16.261  21.091  1.00  0.00     0.134 A 
ATOM      7  C   UNL     1      19.648  15.527  21.793  1.00  0.00     0.093 A 
ATOM      8  C   UNL     1      20.830  16.138  22.226  1.00  0.00     0.123 A 
ATOM      9  C   UNL     1      21.053  17.489  21.958  1.00  0.00     0.094 A 
ATOM     10  C   UNL     1      20.102  18.238  21.258  1.00  0.00     0.146 A 
ATOM     11  O   UNL     1      20.342  19.521  21.012  1.00  0.00    -0.452 OA
ENDROOT
BRANCH   1  12
ATOM     12  C   UNL     1      19.890  21.720  20.130  1.00  0.00     0.025 A 
ATOM     13  C   UNL     1      20.073  22.189  18.820  1.00  0.00     0.016 A 
ATOM     14  C   UNL     1      20.421  23.522  18.588  1.00  0.00     0.051 A 
ATOM     15  C   UNL     1      20.575  24.410  19.657  1.00  0.00     0.157 A 
ATOM     16  C   UNL     1      20.025  22.617  21.203  1.00  0.00     0.062 A 
ATOM     17  C   UNL     1      20.371  23.957  20.972  1.00  0.00     0.158 A 
BRANCH  15  18
ATOM     18  O   UNL     1      20.924  25.733  19.396  1.00  0.00    -0.504 OA
ATOM     19  H   UNL     1      20.273  26.392  18.987  1.00  0.00     0.293 HD
ENDBRANCH  15  18
BRANCH  17  20
ATOM     20  O   UNL     1      20.509  24.840  22.042  1.00  0.00    -0.504 OA
ATOM     21  H   UNL     1      21.372  24.900  22.572  1.00  0.00     0.293 HD
ENDBRANCH  17  20
ENDBRANCH   1  12
BRANCH   2  22
ATOM     22  O   UNL     1      17.348  20.626  19.258  1.00  0.00    -0.502 OA
ATOM     23  H   UNL     1      16.353  20.437  19.259  1.00  0.00     0.293 HD
ENDBRANCH   2  22
BRANCH   6  24
ATOM     24  O   UNL     1      17.511  15.625  20.673  1.00  0.00    -0.507 OA
ATOM     25  H   UNL     1      16.684  16.147  20.411  1.00  0.00     0.293 HD
ENDBRANCH   6  24
BRANCH   8  26
ATOM     26  O   UNL     1      21.790  15.409  22.926  1.00  0.00    -0.508 OA
ATOM     27  H   UNL     1      21.560  14.908  23.775  1.00  0.00     0.293 HD
ENDBRANCH   8  26
TORSDOF 6
ENDMDL
MODEL 6
REMARK VINA RESULT:    -5.348      4.233      6.807
REMARK INTER + INTRA:          -6.695
REMARK INTER:                  -6.370
REMARK INTRA:                  -0.325
REMARK UNBOUND:                -0.252
REMARK SMILES O=c1c(O)c(-c2ccc(O)c(O)c2)oc2cc(O)cc(O)c12
REMARK SMILES IDX 5 1 3 2 2 3 1 4 22 5 20 6 19 7 17 8 16 9 15 10 14 11 6 12
REMARK SMILES IDX 7 13 8 14 9 15 13 16 11 17 10 18 12 20 4 22 21 24 18 26
REMARK H PARENT 10 19 12 21 4 23 21 25 18 27
REMARK Flexibility Score: inf
ROOT
ATOM      1  C   UNL     1      21.626  16.419  21.111  1.00  0.00     0.180 A 
ATOM      2  C   UNL     1      21.483  15.623  19.957  1.00  0.00     0.208 A 
ATOM      3  C   UNL     1      22.539  15.574  19.032  1.00  0.00     0.238 A 
ATOM      4  O   UNL     1      22.418  14.875  17.990  1.00  0.00    -0.285 OA
ATOM      5  C   UNL     1      23.721  16.300  19.285  1.00  0.00     0.111 A 
ATOM      6  C   UNL     1      24.831  16.300  18.407  1.00  0.00     0.134 A 
ATOM      7  C   UNL     1      25.976  17.042  18.734  1.00  0.00     0.093 A 
ATOM      8  C   UNL     1      26.032  17.781  19.921  1.00  0.00     0.123 A 
ATOM      9  C   UNL     1      24.939  17.784  20.790  1.00  0.00     0.094 A 
ATOM     10  C   UNL     1      23.789  17.052  20.481  1.00  0.00     0.146 A 
ATOM     11  O   UNL     1      22.761  17.077  21.323  1.00  0.00    -0.452 OA
ENDROOT
BRANCH   1  12
ATOM     12  C   UNL     1      20.551  16.537  22.122  1.00  0.00     0.025 A 
ATOM     13  C   UNL     1      20.619  15.767  23.294  1.00  0.00     0.016 A 
ATOM     14  C   UNL     1      19.627  15.878  24.272  1.00  0.00     0.051 A 
ATOM     15  C   UNL     1      18.562  16.768  24.102  1.00  0.00     0.157 A 
ATOM     16  C   UNL     1      19.491  17.446  21.961  1.00  0.00     0.062 A 
ATOM     17  C   UNL     1      18.495  17.560  22.943  1.00  0.00     0.158 A 
BRANCH  15  18
ATOM     18  O   UNL     1      17.586  16.855  25.093  1.00  0.00    -0.504 OA
ATOM     19  H   UNL     1      17.106  17.722  25.302  1.00  0.00     0.293 HD
ENDBRANCH  15  18
BRANCH  17  20
ATOM     20  O   UNL     1      17.444  18.459  22.774  1.00  0.00    -0.504 OA
ATOM     21  H   UNL     1      17.550  19.445  22.986  1.00  0.00     0.293 HD
ENDBRANCH  17  20
ENDBRANCH   1  12
BRANCH   2  22
ATOM     22  O   UNL     1      20.321  14.875  19.755  1.00  0.00    -0.502 OA
ATOM     23  H   UNL     1      20.338  13.940  19.364  1.00  0.00     0.293 HD
ENDBRANCH   2  22
BRANCH   6  24
ATOM     24  O   UNL     1      24.806  15.573  17.217  1.00  0.00    -0.507 OA
ATOM     25  H   UNL     1      25.627  15.092  16.868  1.00  0.00     0.293 HD
ENDBRANCH   6  24
BRANCH   8  26
ATOM     26  O   UNL     1      27.170  18.516  20.247  1.00  0.00    -0.508 OA
ATOM     27  H   UNL     1      27.564  19.194  19.607  1.00  0.00     0.293 HD
ENDBRANCH   8  26
TORSDOF 6
ENDMDL
MODEL 7
REMARK VINA RESULT:    -5.346      1.411      3.039
REMARK INTER + INTRA:          -6.692
REMARK INTER:                  -6.856
REMARK INTRA:                   0.165
REMARK UNBOUND:                -0.252
REMARK SMILES O=c1c(O)c(-c2ccc(O)c(O)c2)oc2cc(O)cc(O)c12
REMARK SMILES IDX 5 1 3 2 2 3 1 4 22 5 20 6 19 7 17 8 16 9 15 10 14 11 6 12
REMARK SMILES IDX 7 13 8 14 9 15 13 16 11 17 10 18 12 20 4 22 21 24 18 26
REMARK H PARENT 10 19 12 21 4 23 21 25 18 27
REMARK Flexibility Score: inf
ROOT
ATOM      1  C   UNL     1      19.539  20.264  20.843  1.00  0.00     0.180 A 
ATOM      2  C   UNL     1      18.273  19.946  21.372  1.00  0.00     0.208 A 
ATOM      3  C   UNL     1      18.009  18.620  21.748  1.00  0.00     0.238 A 
ATOM      4  O   UNL     1      16.875  18.320  22.212  1.00  0.00    -0.285 OA
ATOM      5  C   UNL     1      19.016  17.642  21.611  1.00  0.00     0.111 A 
ATOM      6  C   UNL     1      18.833  16.286  21.970  1.00  0.00     0.134 A 
ATOM      7  C   UNL     1      19.888  15.375  21.811  1.00  0.00     0.093 A 
ATOM      8  C   UNL     1      21.121  15.796  21.302  1.00  0.00     0.123 A 
ATOM      9  C   UNL     1      21.307  17.132  20.945  1.00  0.00     0.094 A 
ATOM     10  C   UNL     1      20.268  18.055  21.095  1.00  0.00     0.146 A 
ATOM     11  O   UNL     1      20.469  19.320  20.743  1.00  0.00    -0.452 OA
ENDROOT
BRANCH   1  12
ATOM     12  C   UNL     1      19.887  21.636  20.406  1.00  0.00     0.025 A 
ATOM     13  C   UNL     1      21.203  22.098  20.565  1.00  0.00     0.016 A 
ATOM     14  C   UNL     1      21.558  23.381  20.141  1.00  0.00     0.051 A 
ATOM     15  C   UNL     1      20.612  24.214  19.538  1.00  0.00     0.157 A 
ATOM     16  C   UNL     1      18.941  22.467  19.781  1.00  0.00     0.062 A 
ATOM     17  C   UNL     1      19.296  23.755  19.352  1.00  0.00     0.158 A 
BRANCH  15  18
ATOM     18  O   UNL     1      20.995  25.490  19.127  1.00  0.00    -0.504 OA
ATOM     19  H   UNL     1      21.763  25.642  18.484  1.00  0.00     0.293 HD
ENDBRANCH  15  18
BRANCH  17  20
ATOM     20  O   UNL     1      18.351  24.576  18.739  1.00  0.00    -0.504 OA
ATOM     21  H   UNL     1      18.405  25.586  18.804  1.00  0.00     0.293 HD
ENDBRANCH  17  20
ENDBRANCH   1  12
BRANCH   2  22
ATOM     22  O   UNL     1      17.309  20.943  21.544  1.00  0.00    -0.502 OA
ATOM     23  H   UNL     1      16.438  20.777  22.033  1.00  0.00     0.293 HD
ENDBRANCH   2  22
BRANCH   6  24
ATOM     24  O   UNL     1      17.615  15.837  22.482  1.00  0.00    -0.507 OA
ATOM     25  H   UNL     1      17.449  15.766  23.479  1.00  0.00     0.293 HD
ENDBRANCH   6  24
BRANCH   8  26
ATOM     26  O   UNL     1      22.170  14.892  21.146  1.00  0.00    -0.508 OA
ATOM     27  H   UNL     1      22.739  14.599  21.931  1.00  0.00     0.293 HD
ENDBRANCH   8  26
TORSDOF 6
ENDMDL
MODEL 8
REMARK VINA RESULT:    -5.123      2.765      6.012
REMARK INTER + INTRA:          -6.424
REMARK INTER:                  -6.185
REMARK INTRA:                  -0.238
REMARK UNBOUND:                -0.252
REMARK SMILES O=c1c(O)c(-c2ccc(O)c(O)c2)oc2cc(O)cc(O)c12
REMARK SMILES IDX 5 1 3 2 2 3 1 4 22 5 20 6 19 7 17 8 16 9 15 10 14 11 6 12
REMARK SMILES IDX 7 13 8 14 9 15 13 16 11 17 10 18 12 20 4 22 21 24 18 26
REMARK H PARENT 10 19 12 21 4 23 21 25 18 27
REMARK Flexibility Score: inf
ROOT
ATOM      1  C   UNL     1      21.637  17.384  21.183  1.00  0.00     0.180 A 
ATOM      2  C   UNL     1      21.094  16.337  21.953  1.00  0.00     0.208 A 
ATOM      3  C   UNL     1      19.765  16.437  22.394  1.00  0.00     0.238 A 
ATOM      4  O   UNL     1      19.272  15.512  23.094  1.00  0.00    -0.285 OA
ATOM      5  C   UNL     1      18.997  17.567  22.042  1.00  0.00     0.111 A 
ATOM      6  C   UNL     1      17.651  17.742  22.441  1.00  0.00     0.134 A 
ATOM      7  C   UNL     1      16.951  18.891  22.043  1.00  0.00     0.093 A 
ATOM      8  C   UNL     1      17.572  19.864  21.252  1.00  0.00     0.123 A 
ATOM      9  C   UNL     1      18.899  19.696  20.856  1.00  0.00     0.094 A 
ATOM     10  C   UNL     1      19.614  18.559  21.244  1.00  0.00     0.146 A 
ATOM     11  O   UNL     1      20.878  18.426  20.858  1.00  0.00    -0.452 OA
ENDROOT
BRANCH   1  12
ATOM     12  C   UNL     1      23.036  17.360  20.698  1.00  0.00     0.025 A 
ATOM     13  C   UNL     1      23.995  18.175  21.318  1.00  0.00     0.016 A 
ATOM     14  C   UNL     1      25.325  18.153  20.891  1.00  0.00     0.051 A 
ATOM     15  C   UNL     1      25.720  17.307  19.851  1.00  0.00     0.157 A 
ATOM     16  C   UNL     1      23.437  16.494  19.665  1.00  0.00     0.062 A 
ATOM     17  C   UNL     1      24.773  16.470  19.236  1.00  0.00     0.158 A 
BRANCH  15  18
ATOM     18  O   UNL     1      27.053  17.309  19.444  1.00  0.00    -0.504 OA
ATOM     19  H   UNL     1      27.766  17.834  19.935  1.00  0.00     0.293 HD
ENDBRANCH  15  18
BRANCH  17  20
ATOM     20  O   UNL     1      25.163  15.614  18.208  1.00  0.00    -0.504 OA
ATOM     21  H   UNL     1      25.557  14.699  18.399  1.00  0.00     0.293 HD
ENDBRANCH  17  20
ENDBRANCH   1  12
BRANCH   2  22
ATOM     22  O   UNL     1      21.860  15.206  22.246  1.00  0.00    -0.502 OA
ATOM     23  H   UNL     1      21.447  14.292  22.388  1.00  0.00     0.293 HD
ENDBRANCH   2  22
BRANCH   6  24
ATOM     24  O   UNL     1      17.005  16.789  23.229  1.00  0.00    -0.507 OA
ATOM     25  H   UNL     1      16.680  15.910  22.844  1.00  0.00     0.293 HD
ENDBRANCH   6  24
BRANCH   8  26
ATOM     26  O   UNL     1      16.876  21.004  20.854  1.00  0.00    -0.508 OA
ATOM     27  H   UNL     1      15.979  20.942  20.388  1.00  0.00     0.293 HD
ENDBRANCH   8  26
TORSDOF 6
ENDMDL
MODEL 9
REMARK VINA RESULT:    -4.864      4.766      6.038
REMARK INTER + INTRA:          -6.112
REMARK INTER:                  -5.983
REMARK INTRA:                  -0.129
REMARK UNBOUND:                -0.252
REMARK SMILES O=c1c(O)c(-c2ccc(O)c(O)c2)oc2cc(O)cc(O)c12
REMARK SMILES IDX 5 1 3 2 2 3 1 4 22 5 20 6 19 7 17 8 16 9 15 10 14 11 6 12
REMARK SMILES IDX 7 13 8 14 9 15 13 16 11 17 10 18 12 20 4 22 21 24 18 26
REMARK H PARENT 10 19 12 21 4 23 21 25 18 27
REMARK Flexibility Score: inf
ROOT
ATOM      1  C   UNL     1      21.835  16.373  20.439  1.00  0.00     0.180 A 
ATOM      2  C   UNL     1      20.693  16.322  19.616  1.00  0.00     0.208 A 
ATOM      3  C   UNL     1      19.425  16.276  20.219  1.00  0.00     0.238 A 
ATOM      4  O   UNL     1      18.395  16.219  19.493  1.00  0.00    -0.285 OA
ATOM      5  C   UNL     1      19.320  16.303  21.625  1.00  0.00     0.111 A 
ATOM      6  C   UNL     1      18.082  16.265  22.309  1.00  0.00     0.134 A 
ATOM      7  C   UNL     1      18.061  16.304  23.711  1.00  0.00     0.093 A 
ATOM      8  C   UNL     1      19.253  16.383  24.440  1.00  0.00     0.123 A 
ATOM      9  C   UNL     1      20.476  16.421  23.769  1.00  0.00     0.094 A 
ATOM     10  C   UNL     1      20.519  16.381  22.373  1.00  0.00     0.146 A 
ATOM     11  O   UNL     1      21.697  16.413  21.760  1.00  0.00    -0.452 OA
ENDROOT
BRANCH   1  12
ATOM     12  C   UNL     1      23.206  16.404  19.879  1.00  0.00     0.025 A 
ATOM     13  C   UNL     1      23.653  15.333  19.090  1.00  0.00     0.016 A 
ATOM     14  C   UNL     1      24.935  15.350  18.535  1.00  0.00     0.051 A 
ATOM     15  C   UNL     1      25.782  16.442  18.743  1.00  0.00     0.157 A 
ATOM     16  C   UNL     1      24.050  17.512  20.072  1.00  0.00     0.062 A 
ATOM     17  C   UNL     1      25.337  17.532  19.512  1.00  0.00     0.158 A 
BRANCH  15  18
ATOM     18  O   UNL     1      27.056  16.431  18.179  1.00  0.00    -0.504 OA
ATOM     19  H   UNL     1      27.505  17.275  17.844  1.00  0.00     0.293 HD
ENDBRANCH  15  18
BRANCH  17  20
ATOM     20  O   UNL     1      26.171  18.630  19.713  1.00  0.00    -0.504 OA
ATOM     21  H   UNL     1      26.570  18.834  20.623  1.00  0.00     0.293 HD
ENDBRANCH  17  20
ENDBRANCH   1  12
BRANCH   2  22
ATOM     22  O   UNL     1      20.822  16.346  18.226  1.00  0.00    -0.502 OA
ATOM     23  H   UNL     1      21.230  17.131  17.732  1.00  0.00     0.293 HD
ENDBRANCH   2  22
BRANCH   6  24
ATOM     24  O   UNL     1      16.877  16.187  21.610  1.00  0.00    -0.507 OA
ATOM     25  H   UNL     1      16.060  15.736  22.004  1.00  0.00     0.293 HD
ENDBRANCH   6  24
BRANCH   8  26
ATOM     26  O   UNL     1      19.231  16.425  25.833  1.00  0.00    -0.508 OA
ATOM     27  H   UNL     1      18.545  16.974  26.336  1.00  0.00     0.293 HD
ENDBRANCH   8  26
TORSDOF 6
ENDMDL
