MODEL 1
REMARK VINA RESULT:    -2.711      0.000      0.000
REMARK INTER + INTRA:          -3.063
REMARK INTER:                  -3.028
REMARK INTRA:                  -0.035
REMARK UNBOUND:                -0.035
REMARK SMILES CCCC(=O)[O-]
REMARK SMILES IDX 3 1 4 2 5 3 6 4 2 5 1 6
REMARK H PARENT
REMARK Flexibility Score: inf
ROOT
ATOM      1  C   UNL     1      27.556  10.629   5.409  1.00  0.00     0.052 C 
ENDROOT
BRANCH   1   2
ATOM      2  C   UNL     1      28.142  11.955   5.789  1.00  0.00     0.041 C 
ATOM      3  O   UNL     1      27.542  12.702   6.606  1.00  0.00    -0.550 OA
ATOM      4  O   UNL     1      29.367  12.349   5.265  1.00  0.00    -0.550 OA
ENDBRANCH   1   2
BRANCH   1   5
ATOM      5  C   UNL     1      27.137   9.819   6.643  1.00  0.00     0.003 C 
ATOM      6  C   UNL     1      25.658   9.432   6.611  1.00  0.00     0.004 C 
ENDBRANCH   1   5
TORSDOF 2
ENDMDL
MODEL 2
REMARK VINA RESULT:    -2.537      9.159      9.845
REMARK INTER + INTRA:          -2.869
REMARK INTER:                  -2.835
REMARK INTRA:                  -0.033
REMARK UNBOUND:                -0.035
REMARK SMILES CCCC(=O)[O-]
REMARK SMILES IDX 3 1 4 2 5 3 6 4 2 5 1 6
REMARK H PARENT
REMARK Flexibility Score: inf
ROOT
ATOM      1  C   UNL     1      21.918   3.675   4.513  1.00  0.00     0.052 C 
ENDROOT
BRANCH   1   2
ATOM      2  C   UNL     1      22.751   3.141   5.638  1.00  0.00     0.041 C 
ATOM      3  O   UNL     1      22.252   2.336   6.468  1.00  0.00    -0.550 OA
ATOM      4  O   UNL     1      24.086   3.507   5.751  1.00  0.00    -0.550 OA
ENDBRANCH   1   2
BRANCH   1   5
ATOM      5  C   UNL     1      20.426   3.384   4.721  1.00  0.00     0.003 C 
ATOM      6  C   UNL     1      19.619   4.653   4.999  1.00  0.00     0.004 C 
ENDBRANCH   1   5
TORSDOF 2
ENDMDL
MODEL 3
REMARK VINA RESULT:    -2.476     18.361     19.157
REMARK INTER + INTRA:          -2.800
REMARK INTER:                  -2.786
REMARK INTRA:                  -0.014
REMARK UNBOUND:                -0.035
REMARK SMILES CCCC(=O)[O-]
REMARK SMILES IDX 3 1 4 2 5 3 6 4 2 5 1 6
REMARK H PARENT
REMARK Flexibility Score: inf
ROOT
ATOM      1  C   UNL     1      16.426  -0.343  14.595  1.00  0.00     0.052 C 
ENDROOT
BRANCH   1   2
ATOM      2  C   UNL     1      15.498  -1.519  14.599  1.00  0.00     0.041 C 
ATOM      3  O   UNL     1      15.266  -2.147  13.533  1.00  0.00    -0.550 OA
ATOM      4  O   UNL     1      14.915  -1.942  15.788  1.00  0.00    -0.550 OA
ENDBRANCH   1   2
BRANCH   1   5
ATOM      5  C   UNL     1      16.036   0.692  15.658  1.00  0.00     0.003 C 
ATOM      6  C   UNL     1      15.758   2.070  15.055  1.00  0.00     0.004 C 
ENDBRANCH   1   5
TORSDOF 2
ENDMDL
MODEL 4
REMARK VINA RESULT:    -2.433      2.571      3.319
REMARK INTER + INTRA:          -2.752
REMARK INTER:                  -2.726
REMARK INTRA:                  -0.026
REMARK UNBOUND:                -0.035
REMARK SMILES CCCC(=O)[O-]
REMARK SMILES IDX 3 1 4 2 5 3 6 4 2 5 1 6
REMARK H PARENT
REMARK Flexibility Score: inf
ROOT
ATOM      1  C   UNL     1      26.433  10.748   5.806  1.00  0.00     0.052 C 
ENDROOT
BRANCH   1   2
ATOM      2  C   UNL     1      26.779   9.297   5.945  1.00  0.00     0.041 C 
ATOM      3  O   UNL     1      26.368   8.641   6.938  1.00  0.00    -0.550 OA
ATOM      4  O   UNL     1      27.527   8.663   4.961  1.00  0.00    -0.550 OA
ENDBRANCH   1   2
BRANCH   1   5
ATOM      5  C   UNL     1      27.572  11.653   6.292  1.00  0.00     0.003 C 
ATOM      6  C   UNL     1      28.577  11.970   5.184  1.00  0.00     0.004 C 
ENDBRANCH   1   5
TORSDOF 2
ENDMDL
MODEL 5
REMARK VINA RESULT:    -2.415      9.189     10.257
REMARK INTER + INTRA:          -2.733
REMARK INTER:                  -2.700
REMARK INTRA:                  -0.032
REMARK UNBOUND:                -0.035
REMARK SMILES CCCC(=O)[O-]
REMARK SMILES IDX 3 1 4 2 5 3 6 4 2 5 1 6
REMARK H PARENT
REMARK Flexibility Score: inf
ROOT
ATOM      1  C   UNL     1      22.130   2.211   6.132  1.00  0.00     0.052 C 
ENDROOT
BRANCH   1   2
ATOM      2  C   UNL     1      23.010   3.229   5.473  1.00  0.00     0.041 C 
ATOM      3  O   UNL     1      24.146   3.489   5.951  1.00  0.00    -0.550 OA
ATOM      4  O   UNL     1      22.588   3.867   4.313  1.00  0.00    -0.550 OA
ENDBRANCH   1   2
BRANCH   1   5
ATOM      5  C   UNL     1      21.156   1.572   5.135  1.00  0.00     0.003 C 
ATOM      6  C   UNL     1      21.583   0.162   4.725  1.00  0.00     0.004 C 
ENDBRANCH   1   5
TORSDOF 2
ENDMDL
MODEL 6
REMARK VINA RESULT:    -2.389     11.961     12.377
REMARK INTER + INTRA:          -2.703
REMARK INTER:                  -2.697
REMARK INTRA:                  -0.006
REMARK UNBOUND:                -0.035
REMARK SMILES CCCC(=O)[O-]
REMARK SMILES IDX 3 1 4 2 5 3 6 4 2 5 1 6
REMARK H PARENT
REMARK Flexibility Score: inf
ROOT
ATOM      1  C   UNL     1      29.782   7.702  18.143  1.00  0.00     0.052 C 
ENDROOT
BRANCH   1   2
ATOM      2  C   UNL     1      30.221   6.896  16.959  1.00  0.00     0.041 C 
ATOM      3  O   UNL     1      29.517   5.935  16.552  1.00  0.00    -0.550 OA
ATOM      4  O   UNL     1      31.391   7.227  16.287  1.00  0.00    -0.550 OA
ENDBRANCH   1   2
BRANCH   1   5
ATOM      5  C   UNL     1      29.847   9.209  17.861  1.00  0.00     0.003 C 
ATOM      6  C   UNL     1      28.787   9.992  18.636  1.00  0.00     0.004 C 
ENDBRANCH   1   5
TORSDOF 2
ENDMDL
MODEL 7
REMARK VINA RESULT:    -2.366     18.374     19.096
REMARK INTER + INTRA:          -2.677
REMARK INTER:                  -2.637
REMARK INTRA:                  -0.040
REMARK UNBOUND:                -0.035
REMARK SMILES CCCC(=O)[O-]
REMARK SMILES IDX 3 1 4 2 5 3 6 4 2 5 1 6
REMARK H PARENT
REMARK Flexibility Score: inf
ROOT
ATOM      1  C   UNL     1      16.482  -0.644  14.546  1.00  0.00     0.052 C 
ENDROOT
BRANCH   1   2
ATOM      2  C   UNL     1      17.176  -0.741  15.870  1.00  0.00     0.041 C 
ATOM      3  O   UNL     1      18.329  -1.240  15.946  1.00  0.00    -0.550 OA
ATOM      4  O   UNL     1      16.561  -0.251  17.016  1.00  0.00    -0.550 OA
ENDBRANCH   1   2
BRANCH   1   5
ATOM      5  C   UNL     1      15.354  -1.675  14.417  1.00  0.00     0.003 C 
ATOM      6  C   UNL     1      15.879  -3.109  14.359  1.00  0.00     0.004 C 
ENDBRANCH   1   5
TORSDOF 2
ENDMDL
MODEL 8
REMARK VINA RESULT:    -2.351     11.569     12.249
REMARK INTER + INTRA:          -2.661
REMARK INTER:                  -2.642
REMARK INTRA:                  -0.019
REMARK UNBOUND:                -0.035
REMARK SMILES CCCC(=O)[O-]
REMARK SMILES IDX 3 1 4 2 5 3 6 4 2 5 1 6
REMARK H PARENT
REMARK Flexibility Score: inf
ROOT
ATOM      1  C   UNL     1      29.851   6.969  17.491  1.00  0.00     0.052 C 
ENDROOT
BRANCH   1   2
ATOM      2  C   UNL     1      29.835   8.362  18.042  1.00  0.00     0.041 C 
ATOM      3  O   UNL     1      30.280   9.320  17.356  1.00  0.00    -0.550 OA
ATOM      4  O   UNL     1      29.298   8.607  19.300  1.00  0.00    -0.550 OA
ENDBRANCH   1   2
BRANCH   1   5
ATOM      5  C   UNL     1      30.799   6.843  16.292  1.00  0.00     0.003 C 
ATOM      6  C   UNL     1      30.287   5.852  15.246  1.00  0.00     0.004 C 
ENDBRANCH   1   5
TORSDOF 2
ENDMDL
MODEL 9
REMARK VINA RESULT:    -2.255      9.057     10.067
REMARK INTER + INTRA:          -2.554
REMARK INTER:                  -2.515
REMARK INTRA:                  -0.039
REMARK UNBOUND:                -0.035
REMARK SMILES CCCC(=O)[O-]
REMARK SMILES IDX 3 1 4 2 5 3 6 4 2 5 1 6
REMARK H PARENT
REMARK Flexibility Score: inf
ROOT
ATOM      1  C   UNL     1      22.796   1.780   6.148  1.00  0.00     0.052 C 
ENDROOT
BRANCH   1   2
ATOM      2  C   UNL     1      23.492   3.042   5.737  1.00  0.00     0.041 C 
ATOM      3  O   UNL     1      24.553   3.397   6.314  1.00  0.00    -0.550 OA
ATOM      4  O   UNL     1      22.985   3.807   4.694  1.00  0.00    -0.550 OA
ENDBRANCH   1   2
BRANCH   1   5
ATOM      5  C   UNL     1      23.364   0.555   5.420  1.00  0.00     0.003 C 
ATOM      6  C   UNL     1      24.402  -0.191   6.259  1.00  0.00     0.004 C 
ENDBRANCH   1   5
TORSDOF 2
ENDMDL
