MODEL 1
REMARK VINA RESULT:    -3.790      0.000      0.000
REMARK INTER + INTRA:          -8.007
REMARK INTER:                  -6.891
REMARK INTRA:                  -1.116
REMARK UNBOUND:                -1.116
REMARK SMILES CCCCCCCCCCCCCCCC(=O)[O-]
REMARK SMILES IDX 9 1 10 2 11 3 12 4 13 5 14 6 15 7 16 8 17 9 18 10 8 11 7 12
REMARK SMILES IDX 6 13 5 14 4 15 3 16 2 17 1 18
REMARK H PARENT
REMARK Flexibility Score: inf
ROOT
ATOM      1  C   UNL     1      48.279  46.819  42.558  1.00  0.00     0.000 C 
ENDROOT
BRANCH   1   2
ATOM      2  C   UNL     1      49.662  47.183  41.996  1.00  0.00     0.000 C 
BRANCH   2   3
ATOM      3  C   UNL     1      50.371  45.986  41.344  1.00  0.00     0.000 C 
BRANCH   3   4
ATOM      4  C   UNL     1      51.379  45.353  42.314  1.00  0.00     0.000 C 
BRANCH   4   5
ATOM      5  C   UNL     1      52.157  46.398  43.128  1.00  0.00     0.000 C 
BRANCH   5   6
ATOM      6  C   UNL     1      52.391  45.962  44.585  1.00  0.00     0.006 C 
BRANCH   6   7
ATOM      7  C   UNL     1      51.075  45.770  45.349  1.00  0.00     0.053 C 
BRANCH   7   8
ATOM      8  C   UNL     1      50.833  46.875  46.331  1.00  0.00     0.041 C 
ATOM      9  O   UNL     1      51.802  47.525  46.805  1.00  0.00    -0.550 OA
ATOM     10  O   UNL     1      49.540  47.168  46.746  1.00  0.00    -0.550 OA
ENDBRANCH   7   8
ENDBRANCH   6   7
ENDBRANCH   5   6
ENDBRANCH   4   5
ENDBRANCH   3   4
ENDBRANCH   2   3
ENDBRANCH   1   2
BRANCH   1  11
ATOM     11  C   UNL     1      47.796  45.433  42.094  1.00  0.00     0.000 C 
BRANCH  11  12
ATOM     12  C   UNL     1      46.821  45.526  40.902  1.00  0.00    -0.000 C 
BRANCH  12  13
ATOM     13  C   UNL     1      45.507  46.253  41.236  1.00  0.00    -0.000 C 
BRANCH  13  14
ATOM     14  C   UNL     1      44.322  45.295  41.415  1.00  0.00    -0.000 C 
BRANCH  14  15
ATOM     15  C   UNL     1      43.010  46.068  41.597  1.00  0.00    -0.000 C 
BRANCH  15  16
ATOM     16  C   UNL     1      43.126  47.489  41.026  1.00  0.00    -0.000 C 
BRANCH  16  17
ATOM     17  C   UNL     1      42.763  48.570  42.055  1.00  0.00    -0.003 C 
ATOM     18  C   UNL     1      43.923  49.519  42.351  1.00  0.00     0.004 C 
ENDBRANCH  16  17
ENDBRANCH  15  16
ENDBRANCH  14  15
ENDBRANCH  13  14
ENDBRANCH  12  13
ENDBRANCH  11  12
ENDBRANCH   1  11
TORSDOF 14
ENDMDL
MODEL 2
REMARK VINA RESULT:    -2.843      2.985      8.065
REMARK INTER + INTRA:          -6.286
REMARK INTER:                  -5.469
REMARK INTRA:                  -0.817
REMARK UNBOUND:                -1.116
REMARK SMILES CCCCCCCCCCCCCCCC(=O)[O-]
REMARK SMILES IDX 9 1 10 2 11 3 12 4 13 5 14 6 15 7 16 8 17 9 18 10 8 11 7 12
REMARK SMILES IDX 6 13 5 14 4 15 3 16 2 17 1 18
REMARK H PARENT
REMARK Flexibility Score: inf
ROOT
ATOM      1  C   UNL     1      45.820  46.601  41.552  1.00  0.00     0.000 C 
ENDROOT
BRANCH   1   2
ATOM      2  C   UNL     1      45.467  45.118  41.353  1.00  0.00     0.000 C 
BRANCH   2   3
ATOM      3  C   UNL     1      43.952  44.876  41.265  1.00  0.00     0.000 C 
BRANCH   3   4
ATOM      4  C   UNL     1      43.175  46.035  41.906  1.00  0.00     0.000 C 
BRANCH   4   5
ATOM      5  C   UNL     1      42.399  46.870  40.876  1.00  0.00     0.000 C 
BRANCH   5   6
ATOM      6  C   UNL     1      42.563  48.384  41.095  1.00  0.00     0.006 C 
BRANCH   6   7
ATOM      7  C   UNL     1      42.878  48.726  42.557  1.00  0.00     0.053 C 
BRANCH   7   8
ATOM      8  C   UNL     1      43.873  49.839  42.669  1.00  0.00     0.041 C 
ATOM      9  O   UNL     1      44.206  50.280  43.800  1.00  0.00    -0.550 OA
ATOM     10  O   UNL     1      44.412  50.410  41.523  1.00  0.00    -0.550 OA
ENDBRANCH   7   8
ENDBRANCH   6   7
ENDBRANCH   5   6
ENDBRANCH   4   5
ENDBRANCH   3   4
ENDBRANCH   2   3
ENDBRANCH   1   2
BRANCH   1  11
ATOM     11  C   UNL     1      47.317  46.889  41.339  1.00  0.00     0.000 C 
BRANCH  11  12
ATOM     12  C   UNL     1      48.135  46.701  42.634  1.00  0.00    -0.000 C 
BRANCH  12  13
ATOM     13  C   UNL     1      49.421  45.881  42.436  1.00  0.00    -0.000 C 
BRANCH  13  14
ATOM     14  C   UNL     1      50.688  46.747  42.440  1.00  0.00    -0.000 C 
BRANCH  14  15
ATOM     15  C   UNL     1      51.948  45.879  42.547  1.00  0.00    -0.000 C 
BRANCH  15  16
ATOM     16  C   UNL     1      53.025  46.349  41.557  1.00  0.00    -0.000 C 
BRANCH  16  17
ATOM     17  C   UNL     1      54.448  46.026  42.037  1.00  0.00    -0.003 C 
ATOM     18  C   UNL     1      54.470  45.319  43.391  1.00  0.00     0.004 C 
ENDBRANCH  16  17
ENDBRANCH  15  16
ENDBRANCH  14  15
ENDBRANCH  13  14
ENDBRANCH  12  13
ENDBRANCH  11  12
ENDBRANCH   1  11
TORSDOF 14
ENDMDL
MODEL 3
REMARK VINA RESULT:    -2.736     22.094     23.799
REMARK INTER + INTRA:          -6.092
REMARK INTER:                  -5.117
REMARK INTRA:                  -0.975
REMARK UNBOUND:                -1.116
REMARK SMILES CCCCCCCCCCCCCCCC(=O)[O-]
REMARK SMILES IDX 9 1 10 2 11 3 12 4 13 5 14 6 15 7 16 8 17 9 18 10 8 11 7 12
REMARK SMILES IDX 6 13 5 14 4 15 3 16 2 17 1 18
REMARK H PARENT
REMARK Flexibility Score: inf
ROOT
ATOM      1  C   UNL     1      43.688  63.392  55.946  1.00  0.00     0.000 C 
ENDROOT
BRANCH   1   2
ATOM      2  C   UNL     1      44.557  64.497  56.567  1.00  0.00     0.000 C 
BRANCH   2   3
ATOM      3  C   UNL     1      45.452  63.979  57.704  1.00  0.00     0.000 C 
BRANCH   3   4
ATOM      4  C   UNL     1      45.180  64.746  59.006  1.00  0.00     0.000 C 
BRANCH   4   5
ATOM      5  C   UNL     1      46.406  64.798  59.932  1.00  0.00     0.000 C 
BRANCH   5   6
ATOM      6  C   UNL     1      47.728  64.938  59.157  1.00  0.00     0.006 C 
BRANCH   6   7
ATOM      7  C   UNL     1      48.947  64.933  60.088  1.00  0.00     0.053 C 
BRANCH   7   8
ATOM      8  C   UNL     1      49.661  63.617  60.067  1.00  0.00     0.041 C 
ATOM      9  O   UNL     1      49.103  62.585  60.524  1.00  0.00    -0.550 OA
ATOM     10  O   UNL     1      50.955  63.534  59.569  1.00  0.00    -0.550 OA
ENDBRANCH   7   8
ENDBRANCH   6   7
ENDBRANCH   5   6
ENDBRANCH   4   5
ENDBRANCH   3   4
ENDBRANCH   2   3
ENDBRANCH   1   2
BRANCH   1  11
ATOM     11  C   UNL     1      42.188  63.586  56.233  1.00  0.00     0.000 C 
BRANCH  11  12
ATOM     12  C   UNL     1      41.886  64.973  56.837  1.00  0.00    -0.000 C 
BRANCH  12  13
ATOM     13  C   UNL     1      40.453  65.110  57.377  1.00  0.00    -0.000 C 
BRANCH  13  14
ATOM     14  C   UNL     1      40.365  64.917  58.897  1.00  0.00    -0.000 C 
BRANCH  14  15
ATOM     15  C   UNL     1      39.266  63.912  59.263  1.00  0.00    -0.000 C 
BRANCH  15  16
ATOM     16  C   UNL     1      39.124  62.834  58.178  1.00  0.00    -0.000 C 
BRANCH  16  17
ATOM     17  C   UNL     1      38.611  61.498  58.738  1.00  0.00    -0.003 C 
ATOM     18  C   UNL     1      37.444  61.673  59.709  1.00  0.00     0.004 C 
ENDBRANCH  16  17
ENDBRANCH  15  16
ENDBRANCH  14  15
ENDBRANCH  13  14
ENDBRANCH  12  13
ENDBRANCH  11  12
ENDBRANCH   1  11
TORSDOF 14
ENDMDL
MODEL 4
REMARK VINA RESULT:    -2.680     22.333     24.733
REMARK INTER + INTRA:          -5.989
REMARK INTER:                  -5.255
REMARK INTRA:                  -0.734
REMARK UNBOUND:                -1.116
REMARK SMILES CCCCCCCCCCCCCCCC(=O)[O-]
REMARK SMILES IDX 9 1 10 2 11 3 12 4 13 5 14 6 15 7 16 8 17 9 18 10 8 11 7 12
REMARK SMILES IDX 6 13 5 14 4 15 3 16 2 17 1 18
REMARK H PARENT
REMARK Flexibility Score: inf
ROOT
ATOM      1  C   UNL     1      43.040  63.718  56.246  1.00  0.00     0.000 C 
ENDROOT
BRANCH   1   2
ATOM      2  C   UNL     1      42.406  65.083  55.933  1.00  0.00     0.000 C 
BRANCH   2   3
ATOM      3  C   UNL     1      40.898  65.117  56.228  1.00  0.00     0.000 C 
BRANCH   3   4
ATOM      4  C   UNL     1      40.602  64.550  57.624  1.00  0.00     0.000 C 
BRANCH   4   5
ATOM      5  C   UNL     1      39.116  64.652  58.003  1.00  0.00     0.000 C 
BRANCH   5   6
ATOM      6  C   UNL     1      38.692  63.587  59.030  1.00  0.00     0.006 C 
BRANCH   6   7
ATOM      7  C   UNL     1      38.887  62.161  58.499  1.00  0.00     0.053 C 
BRANCH   7   8
ATOM      8  C   UNL     1      38.089  61.161  59.277  1.00  0.00     0.041 C 
ATOM      9  O   UNL     1      38.553  60.012  59.496  1.00  0.00    -0.550 OA
ATOM     10  O   UNL     1      36.819  61.488  59.736  1.00  0.00    -0.550 OA
ENDBRANCH   7   8
ENDBRANCH   6   7
ENDBRANCH   5   6
ENDBRANCH   4   5
ENDBRANCH   3   4
ENDBRANCH   2   3
ENDBRANCH   1   2
BRANCH   1  11
ATOM     11  C   UNL     1      44.561  63.703  56.013  1.00  0.00     0.000 C 
BRANCH  11  12
ATOM     12  C   UNL     1      45.306  64.659  56.969  1.00  0.00    -0.000 C 
BRANCH  12  13
ATOM     13  C   UNL     1      45.055  64.360  58.457  1.00  0.00    -0.000 C 
BRANCH  13  14
ATOM     14  C   UNL     1      46.192  63.560  59.107  1.00  0.00    -0.000 C 
BRANCH  14  15
ATOM     15  C   UNL     1      47.437  64.432  59.303  1.00  0.00    -0.000 C 
BRANCH  15  16
ATOM     16  C   UNL     1      48.160  64.073  60.610  1.00  0.00    -0.000 C 
BRANCH  16  17
ATOM     17  C   UNL     1      49.578  63.533  60.372  1.00  0.00    -0.003 C 
ATOM     18  C   UNL     1      50.451  64.498  59.571  1.00  0.00     0.004 C 
ENDBRANCH  16  17
ENDBRANCH  15  16
ENDBRANCH  14  15
ENDBRANCH  13  14
ENDBRANCH  12  13
ENDBRANCH  11  12
ENDBRANCH   1  11
TORSDOF 14
ENDMDL
MODEL 5
REMARK VINA RESULT:    -2.318     22.693     24.025
REMARK INTER + INTRA:          -5.332
REMARK INTER:                  -4.533
REMARK INTRA:                  -0.799
REMARK UNBOUND:                -1.116
REMARK SMILES CCCCCCCCCCCCCCCC(=O)[O-]
REMARK SMILES IDX 9 1 10 2 11 3 12 4 13 5 14 6 15 7 16 8 17 9 18 10 8 11 7 12
REMARK SMILES IDX 6 13 5 14 4 15 3 16 2 17 1 18
REMARK H PARENT
REMARK Flexibility Score: inf
ROOT
ATOM      1  C   UNL     1      41.832  64.307  56.422  1.00  0.00     0.000 C 
ENDROOT
BRANCH   1   2
ATOM      2  C   UNL     1      42.661  65.076  55.381  1.00  0.00     0.000 C 
BRANCH   2   3
ATOM      3  C   UNL     1      44.150  64.695  55.410  1.00  0.00     0.000 C 
BRANCH   3   4
ATOM      4  C   UNL     1      44.748  64.935  56.805  1.00  0.00     0.000 C 
BRANCH   4   5
ATOM      5  C   UNL     1      45.255  63.642  57.463  1.00  0.00     0.000 C 
BRANCH   5   6
ATOM      6  C   UNL     1      45.827  63.879  58.872  1.00  0.00     0.006 C 
BRANCH   6   7
ATOM      7  C   UNL     1      47.146  64.662  58.836  1.00  0.00     0.053 C 
BRANCH   7   8
ATOM      8  C   UNL     1      48.069  64.253  59.942  1.00  0.00     0.041 C 
ATOM      9  O   UNL     1      47.615  64.028  61.095  1.00  0.00    -0.550 OA
ATOM     10  O   UNL     1      49.434  64.147  59.708  1.00  0.00    -0.550 OA
ENDBRANCH   7   8
ENDBRANCH   6   7
ENDBRANCH   5   6
ENDBRANCH   4   5
ENDBRANCH   3   4
ENDBRANCH   2   3
ENDBRANCH   1   2
BRANCH   1  11
ATOM     11  C   UNL     1      40.606  65.100  56.907  1.00  0.00     0.000 C 
BRANCH  11  12
ATOM     12  C   UNL     1      40.501  65.125  58.446  1.00  0.00    -0.000 C 
BRANCH  12  13
ATOM     13  C   UNL     1      39.066  64.937  58.969  1.00  0.00    -0.000 C 
BRANCH  13  14
ATOM     14  C   UNL     1      39.013  64.234  60.332  1.00  0.00    -0.000 C 
BRANCH  14  15
ATOM     15  C   UNL     1      39.329  62.739  60.194  1.00  0.00    -0.000 C 
BRANCH  15  16
ATOM     16  C   UNL     1      38.637  62.143  58.959  1.00  0.00    -0.000 C 
BRANCH  16  17
ATOM     17  C   UNL     1      38.367  60.638  59.103  1.00  0.00    -0.003 C 
ATOM     18  C   UNL     1      38.628  60.123  60.518  1.00  0.00     0.004 C 
ENDBRANCH  16  17
ENDBRANCH  15  16
ENDBRANCH  14  15
ENDBRANCH  13  14
ENDBRANCH  12  13
ENDBRANCH  11  12
ENDBRANCH   1  11
TORSDOF 14
ENDMDL
MODEL 6
REMARK VINA RESULT:    -2.235     22.148     24.798
REMARK INTER + INTRA:          -5.181
REMARK INTER:                  -4.208
REMARK INTRA:                  -0.973
REMARK UNBOUND:                -1.116
REMARK SMILES CCCCCCCCCCCCCCCC(=O)[O-]
REMARK SMILES IDX 9 1 10 2 11 3 12 4 13 5 14 6 15 7 16 8 17 9 18 10 8 11 7 12
REMARK SMILES IDX 6 13 5 14 4 15 3 16 2 17 1 18
REMARK H PARENT
REMARK Flexibility Score: inf
ROOT
ATOM      1  C   UNL     1      41.226  64.376  57.252  1.00  0.00     0.000 C 
ENDROOT
BRANCH   1   2
ATOM      2  C   UNL     1      39.907  65.125  57.003  1.00  0.00     0.000 C 
BRANCH   2   3
ATOM      3  C   UNL     1      38.852  64.843  58.085  1.00  0.00     0.000 C 
BRANCH   3   4
ATOM      4  C   UNL     1      39.519  64.583  59.444  1.00  0.00     0.000 C 
BRANCH   4   5
ATOM      5  C   UNL     1      38.501  64.426  60.584  1.00  0.00     0.000 C 
BRANCH   5   6
ATOM      6  C   UNL     1      38.056  62.967  60.784  1.00  0.00     0.006 C 
BRANCH   6   7
ATOM      7  C   UNL     1      39.206  61.975  60.564  1.00  0.00     0.053 C 
BRANCH   7   8
ATOM      8  C   UNL     1      38.768  60.778  59.777  1.00  0.00     0.041 C 
ATOM      9  O   UNL     1      38.910  59.621  60.253  1.00  0.00    -0.550 OA
ATOM     10  O   UNL     1      38.231  60.938  58.506  1.00  0.00    -0.550 OA
ENDBRANCH   7   8
ENDBRANCH   6   7
ENDBRANCH   5   6
ENDBRANCH   4   5
ENDBRANCH   3   4
ENDBRANCH   2   3
ENDBRANCH   1   2
BRANCH   1  11
ATOM     11  C   UNL     1      42.249  64.584  56.121  1.00  0.00     0.000 C 
BRANCH  11  12
ATOM     12  C   UNL     1      43.114  63.329  55.881  1.00  0.00    -0.000 C 
BRANCH  12  13
ATOM     13  C   UNL     1      44.624  63.588  56.009  1.00  0.00    -0.000 C 
BRANCH  13  14
ATOM     14  C   UNL     1      44.951  64.786  56.911  1.00  0.00    -0.000 C 
BRANCH  14  15
ATOM     15  C   UNL     1      45.111  64.349  58.372  1.00  0.00    -0.000 C 
BRANCH  15  16
ATOM     16  C   UNL     1      46.591  64.337  58.784  1.00  0.00    -0.000 C 
BRANCH  16  17
ATOM     17  C   UNL     1      46.911  63.231  59.800  1.00  0.00    -0.003 C 
ATOM     18  C   UNL     1      45.895  63.163  60.940  1.00  0.00     0.004 C 
ENDBRANCH  16  17
ENDBRANCH  15  16
ENDBRANCH  14  15
ENDBRANCH  13  14
ENDBRANCH  12  13
ENDBRANCH  11  12
ENDBRANCH   1  11
TORSDOF 14
ENDMDL
MODEL 7
REMARK VINA RESULT:    -2.205     21.551     24.268
REMARK INTER + INTRA:          -5.126
REMARK INTER:                  -4.066
REMARK INTRA:                  -1.060
REMARK UNBOUND:                -1.116
REMARK SMILES CCCCCCCCCCCCCCCC(=O)[O-]
REMARK SMILES IDX 9 1 10 2 11 3 12 4 13 5 14 6 15 7 16 8 17 9 18 10 8 11 7 12
REMARK SMILES IDX 6 13 5 14 4 15 3 16 2 17 1 18
REMARK H PARENT
REMARK Flexibility Score: inf
ROOT
ATOM      1  C   UNL     1      40.197  64.752  57.091  1.00  0.00     0.000 C 
ENDROOT
BRANCH   1   2
ATOM      2  C   UNL     1      41.590  64.111  56.988  1.00  0.00     0.000 C 
BRANCH   2   3
ATOM      3  C   UNL     1      42.726  65.125  57.199  1.00  0.00     0.000 C 
BRANCH   3   4
ATOM      4  C   UNL     1      43.967  64.733  56.383  1.00  0.00     0.000 C 
BRANCH   4   5
ATOM      5  C   UNL     1      43.794  63.398  55.642  1.00  0.00     0.000 C 
BRANCH   5   6
ATOM      6  C   UNL     1      43.928  63.545  54.116  1.00  0.00     0.006 C 
BRANCH   6   7
ATOM      7  C   UNL     1      43.382  64.888  53.615  1.00  0.00     0.053 C 
BRANCH   7   8
ATOM      8  C   UNL     1      41.962  64.776  53.151  1.00  0.00     0.041 C 
ATOM      9  O   UNL     1      41.019  65.125  53.909  1.00  0.00    -0.550 OA
ATOM     10  O   UNL     1      41.679  64.260  51.893  1.00  0.00    -0.550 OA
ENDBRANCH   7   8
ENDBRANCH   6   7
ENDBRANCH   5   6
ENDBRANCH   4   5
ENDBRANCH   3   4
ENDBRANCH   2   3
ENDBRANCH   1   2
BRANCH   1  11
ATOM     11  C   UNL     1      39.479  64.402  58.406  1.00  0.00     0.000 C 
BRANCH  11  12
ATOM     12  C   UNL     1      38.052  63.866  58.165  1.00  0.00    -0.000 C 
BRANCH  12  13
ATOM     13  C   UNL     1      36.973  64.602  58.976  1.00  0.00    -0.000 C 
BRANCH  13  14
ATOM     14  C   UNL     1      37.339  64.755  60.459  1.00  0.00    -0.000 C 
BRANCH  14  15
ATOM     15  C   UNL     1      37.529  63.386  61.124  1.00  0.00    -0.000 C 
BRANCH  15  16
ATOM     16  C   UNL     1      36.223  62.577  61.098  1.00  0.00    -0.000 C 
BRANCH  16  17
ATOM     17  C   UNL     1      36.463  61.077  60.873  1.00  0.00    -0.003 C 
ATOM     18  C   UNL     1      37.711  60.796  60.038  1.00  0.00     0.004 C 
ENDBRANCH  16  17
ENDBRANCH  15  16
ENDBRANCH  14  15
ENDBRANCH  13  14
ENDBRANCH  12  13
ENDBRANCH  11  12
ENDBRANCH   1  11
TORSDOF 14
ENDMDL
