MODEL 1
REMARK VINA RESULT:    -3.753      0.000      0.000
REMARK INTER + INTRA:          -5.150
REMARK INTER:                  -5.288
REMARK INTRA:                   0.138
REMARK UNBOUND:                 0.138
REMARK SMILES CC1=CCC(=C(C)C)C(=O)CC(C)=CCC1
REMARK SMILES IDX 12 1 14 2 13 3 15 4 16 5 2 6 1 7 3 8 11 10 9 11 10 12 5 13
REMARK SMILES IDX 6 14 7 15 8 16 4 17
REMARK H PARENT
REMARK Flexibility Score: 60.00
ROOT
ATOM      1  C   UNL     1      16.165  23.979  27.083  1.00  0.00    -0.070 C 
ATOM      2  C   UNL     1      16.710  22.900  26.476  1.00  0.00    -0.027 C 
ATOM      3  C   UNL     1      14.882  23.783  27.850  1.00  0.00     0.039 C 
ENDROOT
BRANCH   2   4
ATOM      4  C   UNL     1      18.035  22.873  25.746  1.00  0.00     0.032 C 
BRANCH   4   5
ATOM      5  C   UNL     1      19.277  22.809  26.660  1.00  0.00     0.034 C 
BRANCH   5   6
ATOM      6  C   UNL     1      20.347  23.820  26.288  1.00  0.00    -0.077 C 
ATOM      7  C   UNL     1      21.026  23.661  24.951  1.00  0.00     0.039 C 
ATOM      8  C   UNL     1      20.680  24.893  27.046  1.00  0.00    -0.023 CG0
ATOM      9  G   UNL     1      20.147  25.243  28.421  1.00  0.00     0.000 G0
ENDBRANCH   5   6
ENDBRANCH   4   5
ENDBRANCH   2   4
BRANCH   1  10
ATOM     10  C   UNL     1      16.826  25.342  27.105  1.00  0.00     0.111 C 
BRANCH  10  11
ATOM     11  C   UNL     1      17.602  25.563  28.376  1.00  0.00     0.163 C 
ATOM     12  O   UNL     1      17.100  25.155  29.458  1.00  0.00    -0.294 OA
BRANCH  11  13
ATOM     13  C   UNL     1      18.959  26.188  28.388  1.00  0.00    -0.002 C 
ATOM     14  C   UNL     1      19.103  27.545  28.450  1.00  0.00    -0.069 C 
ATOM     15  C   UNL     1      20.455  28.200  28.623  1.00  0.00     0.039 C 
ATOM     16  C   UNL     1      17.907  28.466  28.351  1.00  0.00     0.039 C 
BRANCH  13  17
ATOM     17  C   UNL     1      20.155  25.251  28.424  1.00  0.00     0.066 CG0
ATOM     18  G   UNL     1      20.671  24.922  27.037  1.00  0.00     0.000 G0
ENDBRANCH  13  17
ENDBRANCH  11  13
ENDBRANCH  10  11
ENDBRANCH   1  10
TORSDOF 0
ENDMDL
MODEL 2
REMARK VINA RESULT:    -3.565      2.104      3.364
REMARK INTER + INTRA:          -4.886
REMARK INTER:                  -5.186
REMARK INTRA:                   0.300
REMARK UNBOUND:                 0.138
REMARK SMILES CC1=CCC(=C(C)C)C(=O)CC(C)=CCC1
REMARK SMILES IDX 12 1 14 2 13 3 15 4 16 5 2 6 1 7 3 8 11 10 9 11 10 12 5 13
REMARK SMILES IDX 6 14 7 15 8 16 4 17
REMARK H PARENT
REMARK Flexibility Score: 60.00
ROOT
ATOM      1  C   UNL     1      18.025  25.742  27.632  1.00  0.00    -0.070 C 
ATOM      2  C   UNL     1      19.098  24.945  27.429  1.00  0.00    -0.027 C 
ATOM      3  C   UNL     1      16.691  25.082  27.875  1.00  0.00     0.039 C 
ENDROOT
BRANCH   2   4
ATOM      4  C   UNL     1      20.528  25.412  27.266  1.00  0.00     0.032 C 
BRANCH   4   5
ATOM      5  C   UNL     1      21.294  25.623  28.589  1.00  0.00     0.034 C 
BRANCH   5   6
ATOM      6  C   UNL     1      21.858  27.025  28.737  1.00  0.00    -0.077 C 
ATOM      7  C   UNL     1      23.069  27.384  27.914  1.00  0.00     0.039 C 
ATOM      8  C   UNL     1      21.302  27.994  29.505  1.00  0.00    -0.023 CG0
ATOM      9  G   UNL     1      20.104  27.859  30.423  1.00  0.00     0.000 G0
ENDBRANCH   5   6
ENDBRANCH   4   5
ENDBRANCH   2   4
BRANCH   1  10
ATOM     10  C   UNL     1      18.116  27.252  27.716  1.00  0.00     0.111 C 
BRANCH  10  11
ATOM     11  C   UNL     1      17.877  27.745  29.119  1.00  0.00     0.163 C 
ATOM     12  O   UNL     1      16.816  27.390  29.701  1.00  0.00    -0.294 OA
BRANCH  11  13
ATOM     13  C   UNL     1      18.872  28.581  29.855  1.00  0.00    -0.002 C 
ATOM     14  C   UNL     1      18.640  29.909  30.080  1.00  0.00    -0.069 C 
ATOM     15  C   UNL     1      19.548  30.744  30.955  1.00  0.00     0.039 C 
ATOM     16  C   UNL     1      17.452  30.613  29.461  1.00  0.00     0.039 C 
BRANCH  13  17
ATOM     17  C   UNL     1      20.093  27.873  30.419  1.00  0.00     0.066 CG0
ATOM     18  G   UNL     1      21.299  27.993  29.509  1.00  0.00     0.000 G0
ENDBRANCH  13  17
ENDBRANCH  11  13
ENDBRANCH  10  11
ENDBRANCH   1  10
TORSDOF 0
ENDMDL
MODEL 3
REMARK VINA RESULT:    -3.541      2.538      4.768
REMARK INTER + INTRA:          -4.852
REMARK INTER:                  -5.052
REMARK INTRA:                   0.200
REMARK UNBOUND:                 0.138
REMARK SMILES CC1=CCC(=C(C)C)C(=O)CC(C)=CCC1
REMARK SMILES IDX 12 1 14 2 13 3 15 4 16 5 2 6 1 7 3 8 11 10 9 11 10 12 5 13
REMARK SMILES IDX 6 14 7 15 8 16 4 17
REMARK H PARENT
REMARK Flexibility Score: 60.00
ROOT
ATOM      1  C   UNL     1      21.765  26.798  28.890  1.00  0.00    -0.070 C 
ATOM      2  C   UNL     1      21.402  25.705  28.182  1.00  0.00    -0.027 C 
ATOM      3  C   UNL     1      23.111  27.412  28.599  1.00  0.00     0.039 C 
ENDROOT
BRANCH   2   4
ATOM      4  C   UNL     1      20.062  25.007  28.260  1.00  0.00     0.032 C 
BRANCH   4   5
ATOM      5  C   UNL     1      19.069  25.387  27.141  1.00  0.00     0.034 C 
BRANCH   5   6
ATOM      6  C   UNL     1      17.705  25.799  27.666  1.00  0.00    -0.077 C 
ATOM      7  C   UNL     1      16.692  24.710  27.916  1.00  0.00     0.039 C 
ATOM      8  C   UNL     1      17.364  27.070  27.991  1.00  0.00    -0.023 CG0
ATOM      9  G   UNL     1      18.205  28.318  27.810  1.00  0.00     0.000 G0
ENDBRANCH   5   6
ENDBRANCH   4   5
ENDBRANCH   2   4
BRANCH   1  10
ATOM     10  C   UNL     1      20.853  27.483  29.887  1.00  0.00     0.111 C 
BRANCH  10  11
ATOM     11  C   UNL     1      20.243  28.735  29.314  1.00  0.00     0.163 C 
ATOM     12  O   UNL     1      21.017  29.666  28.962  1.00  0.00    -0.294 OA
BRANCH  11  13
ATOM     13  C   UNL     1      18.773  28.882  29.094  1.00  0.00    -0.002 C 
ATOM     14  C   UNL     1      17.996  29.557  29.993  1.00  0.00    -0.069 C 
ATOM     15  C   UNL     1      16.539  29.859  29.724  1.00  0.00     0.039 C 
ATOM     16  C   UNL     1      18.561  30.040  31.311  1.00  0.00     0.039 C 
BRANCH  13  17
ATOM     17  C   UNL     1      18.206  28.336  27.794  1.00  0.00     0.066 CG0
ATOM     18  G   UNL     1      17.392  27.075  28.005  1.00  0.00     0.000 G0
ENDBRANCH  13  17
ENDBRANCH  11  13
ENDBRANCH  10  11
ENDBRANCH   1  10
TORSDOF 0
ENDMDL
MODEL 4
REMARK VINA RESULT:    -3.480      2.937      5.104
REMARK INTER + INTRA:          -4.766
REMARK INTER:                  -5.037
REMARK INTRA:                   0.270
REMARK UNBOUND:                 0.138
REMARK SMILES CC1=CCC(=C(C)C)C(=O)CC(C)=CCC1
REMARK SMILES IDX 12 1 14 2 13 3 15 4 16 5 2 6 1 7 3 8 11 10 9 11 10 12 5 13
REMARK SMILES IDX 6 14 7 15 8 16 4 17
REMARK H PARENT
REMARK Flexibility Score: 60.00
ROOT
ATOM      1  C   UNL     1      20.001  25.901  28.090  1.00  0.00    -0.070 C 
ATOM      2  C   UNL     1      21.349  26.013  28.082  1.00  0.00    -0.027 C 
ATOM      3  C   UNL     1      19.376  24.838  27.223  1.00  0.00     0.039 C 
ENDROOT
BRANCH   2   4
ATOM      4  C   UNL     1      22.163  26.946  28.951  1.00  0.00     0.032 C 
BRANCH   4   5
ATOM      5  C   UNL     1      22.050  28.440  28.579  1.00  0.00     0.034 C 
BRANCH   5   6
ATOM      6  C   UNL     1      21.613  29.315  29.740  1.00  0.00    -0.077 C 
ATOM      7  C   UNL     1      22.513  29.376  30.949  1.00  0.00     0.039 C 
ATOM      8  C   UNL     1      20.506  30.097  29.731  1.00  0.00    -0.023 CG0
ATOM      9  G   UNL     1      19.455  30.184  28.643  1.00  0.00     0.000 G0
ENDBRANCH   5   6
ENDBRANCH   4   5
ENDBRANCH   2   4
BRANCH   1  10
ATOM     10  C   UNL     1      19.104  26.726  28.991  1.00  0.00     0.111 C 
BRANCH  10  11
ATOM     11  C   UNL     1      18.452  27.857  28.240  1.00  0.00     0.163 C 
ATOM     12  O   UNL     1      17.975  27.616  27.099  1.00  0.00    -0.294 OA
BRANCH  11  13
ATOM     13  C   UNL     1      18.300  29.224  28.824  1.00  0.00    -0.002 C 
ATOM     14  C   UNL     1      17.204  29.545  29.574  1.00  0.00    -0.069 C 
ATOM     15  C   UNL     1      17.094  30.863  30.309  1.00  0.00     0.039 C 
ATOM     16  C   UNL     1      16.038  28.590  29.709  1.00  0.00     0.039 C 
BRANCH  13  17
ATOM     17  C   UNL     1      19.452  30.196  28.628  1.00  0.00     0.066 CG0
ATOM     18  G   UNL     1      20.493  30.083  29.724  1.00  0.00     0.000 G0
ENDBRANCH  13  17
ENDBRANCH  11  13
ENDBRANCH  10  11
ENDBRANCH   1  10
TORSDOF 0
ENDMDL
MODEL 5
REMARK VINA RESULT:    -3.455      2.269      4.342
REMARK INTER + INTRA:          -4.730
REMARK INTER:                  -5.100
REMARK INTRA:                   0.370
REMARK UNBOUND:                 0.138
REMARK SMILES CC1=CCC(=C(C)C)C(=O)CC(C)=CCC1
REMARK SMILES IDX 12 1 14 2 13 3 15 4 16 5 2 6 1 7 3 8 11 10 9 11 10 12 5 13
REMARK SMILES IDX 6 14 7 15 8 16 4 17
REMARK H PARENT
REMARK Flexibility Score: 60.00
ROOT
ATOM      1  C   UNL     1      19.186  24.736  27.103  1.00  0.00    -0.070 C 
ATOM      2  C   UNL     1      17.898  25.008  27.410  1.00  0.00    -0.027 C 
ATOM      3  C   UNL     1      19.546  23.312  26.765  1.00  0.00     0.039 C 
ENDROOT
BRANCH   2   4
ATOM      4  C   UNL     1      17.325  26.382  27.681  1.00  0.00     0.032 C 
BRANCH   4   5
ATOM      5  C   UNL     1      17.250  26.770  29.173  1.00  0.00     0.034 C 
BRANCH   5   6
ATOM      6  C   UNL     1      17.936  28.088  29.484  1.00  0.00    -0.077 C 
ATOM      7  C   UNL     1      17.133  29.353  29.312  1.00  0.00     0.039 C 
ATOM      8  C   UNL     1      19.196  28.197  29.972  1.00  0.00    -0.023 CG0
ATOM      9  G   UNL     1      20.187  27.075  30.206  1.00  0.00     0.000 G0
ENDBRANCH   5   6
ENDBRANCH   4   5
ENDBRANCH   2   4
BRANCH   1  10
ATOM     10  C   UNL     1      20.257  25.803  26.994  1.00  0.00     0.111 C 
BRANCH  10  11
ATOM     11  C   UNL     1      21.158  25.811  28.201  1.00  0.00     0.163 C 
ATOM     12  O   UNL     1      21.896  24.808  28.398  1.00  0.00    -0.294 OA
BRANCH  11  13
ATOM     13  C   UNL     1      21.248  26.981  29.126  1.00  0.00    -0.002 C 
ATOM     14  C   UNL     1      22.186  27.955  28.930  1.00  0.00    -0.069 C 
ATOM     15  C   UNL     1      22.203  29.226  29.750  1.00  0.00     0.039 C 
ATOM     16  C   UNL     1      23.260  27.809  27.875  1.00  0.00     0.039 C 
BRANCH  13  17
ATOM     17  C   UNL     1      20.201  27.083  30.222  1.00  0.00     0.066 CG0
ATOM     18  G   UNL     1      19.205  28.197  29.966  1.00  0.00     0.000 G0
ENDBRANCH  13  17
ENDBRANCH  11  13
ENDBRANCH  10  11
ENDBRANCH   1  10
TORSDOF 0
ENDMDL
MODEL 6
REMARK VINA RESULT:    -3.434      2.811      4.843
REMARK INTER + INTRA:          -4.701
REMARK INTER:                  -5.191
REMARK INTRA:                   0.490
REMARK UNBOUND:                 0.138
REMARK SMILES CC1=CCC(=C(C)C)C(=O)CC(C)=CCC1
REMARK SMILES IDX 12 1 14 2 13 3 15 4 16 5 2 6 1 7 3 8 11 10 9 11 10 12 5 13
REMARK SMILES IDX 6 14 7 15 8 16 4 17
REMARK H PARENT
REMARK Flexibility Score: 60.00
ROOT
ATOM      1  C   UNL     1      17.916  25.718  27.673  1.00  0.00    -0.070 C 
ATOM      2  C   UNL     1      16.870  24.874  27.524  1.00  0.00    -0.027 C 
ATOM      3  C   UNL     1      19.294  25.120  27.799  1.00  0.00     0.039 C 
ENDROOT
BRANCH   2   4
ATOM      4  C   UNL     1      15.433  25.281  27.286  1.00  0.00     0.032 C 
BRANCH   4   5
ATOM      5  C   UNL     1      14.462  24.929  28.433  1.00  0.00     0.034 C 
BRANCH   5   6
ATOM      6  C   UNL     1      15.044  25.192  29.810  1.00  0.00    -0.077 C 
ATOM      7  C   UNL     1      15.366  23.998  30.675  1.00  0.00     0.039 C 
ATOM      8  C   UNL     1      15.359  26.422  30.285  1.00  0.00    -0.023 CG0
ATOM      9  G   UNL     1      15.112  27.755  29.607  1.00  0.00     0.000 G0
ENDBRANCH   5   6
ENDBRANCH   4   5
ENDBRANCH   2   4
BRANCH   1  10
ATOM     10  C   UNL     1      17.778  27.227  27.628  1.00  0.00     0.111 C 
BRANCH  10  11
ATOM     11  C   UNL     1      17.628  27.813  29.007  1.00  0.00     0.163 C 
ATOM     12  O   UNL     1      18.596  27.705  29.807  1.00  0.00    -0.294 OA
BRANCH  11  13
ATOM     13  C   UNL     1      16.407  28.562  29.430  1.00  0.00    -0.002 C 
ATOM     14  C   UNL     1      16.435  29.921  29.570  1.00  0.00    -0.069 C 
ATOM     15  C   UNL     1      15.182  30.723  29.842  1.00  0.00     0.039 C 
ATOM     16  C   UNL     1      17.730  30.695  29.458  1.00  0.00     0.039 C 
BRANCH  13  17
ATOM     17  C   UNL     1      15.125  27.762  29.602  1.00  0.00     0.066 CG0
ATOM     18  G   UNL     1      15.363  26.435  30.294  1.00  0.00     0.000 G0
ENDBRANCH  13  17
ENDBRANCH  11  13
ENDBRANCH  10  11
ENDBRANCH   1  10
TORSDOF 0
ENDMDL
MODEL 7
REMARK VINA RESULT:    -3.430      2.211      4.008
REMARK INTER + INTRA:          -4.695
REMARK INTER:                  -5.060
REMARK INTRA:                   0.365
REMARK UNBOUND:                 0.138
REMARK SMILES CC1=CCC(=C(C)C)C(=O)CC(C)=CCC1
REMARK SMILES IDX 12 1 14 2 13 3 15 4 16 5 2 6 1 7 3 8 11 10 9 11 10 12 5 13
REMARK SMILES IDX 6 14 7 15 8 16 4 17
REMARK H PARENT
REMARK Flexibility Score: 60.00
ROOT
ATOM      1  C   UNL     1      19.581  24.122  26.946  1.00  0.00    -0.070 C 
ATOM      2  C   UNL     1      19.348  22.930  26.352  1.00  0.00    -0.027 C 
ATOM      3  C   UNL     1      20.984  24.418  27.409  1.00  0.00     0.039 C 
ENDROOT
BRANCH   2   4
ATOM      4  C   UNL     1      18.037  22.490  25.737  1.00  0.00     0.032 C 
BRANCH   4   5
ATOM      5  C   UNL     1      16.909  22.208  26.751  1.00  0.00     0.034 C 
BRANCH   5   6
ATOM      6  C   UNL     1      15.673  23.061  26.523  1.00  0.00    -0.077 C 
ATOM      7  C   UNL     1      14.939  22.897  25.216  1.00  0.00     0.039 C 
ATOM      8  C   UNL     1      15.148  23.905  27.445  1.00  0.00    -0.023 CG0
ATOM      9  G   UNL     1      15.718  24.240  28.809  1.00  0.00     0.000 G0
ENDBRANCH   5   6
ENDBRANCH   4   5
ENDBRANCH   2   4
BRANCH   1  10
ATOM     10  C   UNL     1      18.527  25.202  27.082  1.00  0.00     0.111 C 
BRANCH  10  11
ATOM     11  C   UNL     1      18.025  25.313  28.498  1.00  0.00     0.163 C 
ATOM     12  O   UNL     1      18.873  25.307  29.431  1.00  0.00    -0.294 OA
BRANCH  11  13
ATOM     13  C   UNL     1      16.578  25.490  28.824  1.00  0.00    -0.002 C 
ATOM     14  C   UNL     1      16.055  26.737  29.024  1.00  0.00    -0.069 C 
ATOM     15  C   UNL     1      14.569  26.962  29.199  1.00  0.00     0.039 C 
ATOM     16  C   UNL     1      16.942  27.960  29.080  1.00  0.00     0.039 C 
BRANCH  13  17
ATOM     17  C   UNL     1      15.708  24.244  28.826  1.00  0.00     0.066 CG0
ATOM     18  G   UNL     1      15.151  23.927  27.453  1.00  0.00     0.000 G0
ENDBRANCH  13  17
ENDBRANCH  11  13
ENDBRANCH  10  11
ENDBRANCH   1  10
TORSDOF 0
ENDMDL
MODEL 8
REMARK VINA RESULT:    -3.324      3.254      5.721
REMARK INTER + INTRA:          -4.546
REMARK INTER:                  -4.766
REMARK INTRA:                   0.220
REMARK UNBOUND:                 0.138
REMARK SMILES CC1=CCC(=C(C)C)C(=O)CC(C)=CCC1
REMARK SMILES IDX 12 1 14 2 13 3 15 4 16 5 2 6 1 7 3 8 11 10 9 11 10 12 5 13
REMARK SMILES IDX 6 14 7 15 8 16 4 17
REMARK H PARENT
REMARK Flexibility Score: 60.00
ROOT
ATOM      1  C   UNL     1      23.242  27.825  28.922  1.00  0.00    -0.070 C 
ATOM      2  C   UNL     1      22.940  26.537  28.643  1.00  0.00    -0.027 C 
ATOM      3  C   UNL     1      24.673  28.156  29.262  1.00  0.00     0.039 C 
ENDROOT
BRANCH   2   4
ATOM      4  C   UNL     1      21.591  26.024  28.188  1.00  0.00     0.032 C 
BRANCH   4   5
ATOM      5  C   UNL     1      20.510  25.981  29.289  1.00  0.00     0.034 C 
BRANCH   5   6
ATOM      6  C   UNL     1      19.219  26.671  28.888  1.00  0.00    -0.077 C 
ATOM      7  C   UNL     1      18.457  26.107  27.715  1.00  0.00     0.039 C 
ATOM      8  C   UNL     1      18.672  27.715  29.558  1.00  0.00    -0.023 CG0
ATOM      9  G   UNL     1      19.262  28.452  30.744  1.00  0.00     0.000 G0
ENDBRANCH   5   6
ENDBRANCH   4   5
ENDBRANCH   2   4
BRANCH   1  10
ATOM     10  C   UNL     1      22.238  28.954  28.820  1.00  0.00     0.111 C 
BRANCH  10  11
ATOM     11  C   UNL     1      21.624  29.275  30.157  1.00  0.00     0.163 C 
ATOM     12  O   UNL     1      22.382  29.316  31.164  1.00  0.00    -0.294 OA
BRANCH  11  13
ATOM     13  C   UNL     1      20.176  29.603  30.317  1.00  0.00    -0.002 C 
ATOM     14  C   UNL     1      19.703  30.847  30.005  1.00  0.00    -0.069 C 
ATOM     15  C   UNL     1      18.224  31.164  30.004  1.00  0.00     0.039 C 
ATOM     16  C   UNL     1      20.643  31.975  29.642  1.00  0.00     0.039 C 
BRANCH  13  17
ATOM     17  C   UNL     1      19.250  28.476  30.744  1.00  0.00     0.066 CG0
ATOM     18  G   UNL     1      18.671  27.726  29.561  1.00  0.00     0.000 G0
ENDBRANCH  13  17
ENDBRANCH  11  13
ENDBRANCH  10  11
ENDBRANCH   1  10
TORSDOF 0
ENDMDL
MODEL 9
REMARK VINA RESULT:    -3.186      3.288      5.491
REMARK INTER + INTRA:          -4.352
REMARK INTER:                  -4.542
REMARK INTRA:                   0.190
REMARK UNBOUND:                 0.138
REMARK SMILES CC1=CCC(=C(C)C)C(=O)CC(C)=CCC1
REMARK SMILES IDX 12 1 14 2 13 3 15 4 16 5 2 6 1 7 3 8 11 10 9 11 10 12 5 13
REMARK SMILES IDX 6 14 7 15 8 16 4 17
REMARK H PARENT
REMARK Flexibility Score: 60.00
ROOT
ATOM      1  C   UNL     1      20.346  25.884  28.872  1.00  0.00    -0.070 C 
ATOM      2  C   UNL     1      19.127  25.665  28.330  1.00  0.00    -0.027 C 
ATOM      3  C   UNL     1      21.532  25.201  28.239  1.00  0.00     0.039 C 
ENDROOT
BRANCH   2   4
ATOM      4  C   UNL     1      17.837  26.330  28.759  1.00  0.00     0.032 C 
BRANCH   4   5
ATOM      5  C   UNL     1      17.615  27.744  28.180  1.00  0.00     0.034 C 
BRANCH   5   6
ATOM      6  C   UNL     1      17.299  28.782  29.241  1.00  0.00    -0.077 C 
ATOM      7  C   UNL     1      15.966  28.686  29.941  1.00  0.00     0.039 C 
ATOM      8  C   UNL     1      18.162  29.744  29.650  1.00  0.00    -0.023 CG0
ATOM      9  G   UNL     1      19.536  30.040  29.084  1.00  0.00     0.000 G0
ENDBRANCH   5   6
ENDBRANCH   4   5
ENDBRANCH   2   4
BRANCH   1  10
ATOM     10  C   UNL     1      20.586  26.846  30.017  1.00  0.00     0.111 C 
BRANCH  10  11
ATOM     11  C   UNL     1      21.201  28.136  29.540  1.00  0.00     0.163 C 
ATOM     12  O   UNL     1      22.173  28.070  28.740  1.00  0.00    -0.294 OA
BRANCH  11  13
ATOM     13  C   UNL     1      20.663  29.473  29.932  1.00  0.00    -0.002 C 
ATOM     14  C   UNL     1      21.223  30.178  30.960  1.00  0.00    -0.069 C 
ATOM     15  C   UNL     1      20.807  31.597  31.278  1.00  0.00     0.039 C 
ATOM     16  C   UNL     1      22.296  29.569  31.836  1.00  0.00     0.039 C 
BRANCH  13  17
ATOM     17  C   UNL     1      19.541  30.047  29.082  1.00  0.00     0.066 CG0
ATOM     18  G   UNL     1      18.171  29.742  29.654  1.00  0.00     0.000 G0
ENDBRANCH  13  17
ENDBRANCH  11  13
ENDBRANCH  10  11
ENDBRANCH   1  10
TORSDOF 0
ENDMDL
