MODEL 1
REMARK VINA RESULT:    -3.502      0.000      0.000
REMARK INTER + INTRA:          -5.630
REMARK INTER:                  -5.345
REMARK INTRA:                  -0.285
REMARK UNBOUND:                -0.285
REMARK SMILES CC1=CCC[C@H](C)C(=O)C[C@@H](C(C)C)C(=O)C1
REMARK SMILES IDX 8 1 9 2 6 3 7 4 5 5 4 6 3 7 2 8 1 9 10 11 11 12 15 13 16 14
REMARK SMILES IDX 17 15 12 17 13 18 14 19
REMARK H PARENT
REMARK Flexibility Score: 70.00
ROOT
ATOM      1  C   UNL     1      16.417  28.821  29.862  1.00  0.00     0.136 C 
ATOM      2  O   UNL     1      15.274  29.058  29.497  1.00  0.00    -0.299 OA
ENDROOT
BRANCH   1   3
ATOM      3  C   UNL     1      17.082  27.507  29.487  1.00  0.00     0.053 C 
ATOM      4  C   UNL     1      16.276  26.289  29.966  1.00  0.00     0.016 C 
BRANCH   3   5
ATOM      5  C   UNL     1      17.379  27.437  27.975  1.00  0.00     0.015 C 
BRANCH   5   6
ATOM      6  C   UNL     1      18.660  28.187  27.552  1.00  0.00     0.028 C 
BRANCH   6   7
ATOM      7  C   UNL     1      19.813  27.852  28.465  1.00  0.00    -0.028 C 
ATOM      8  C   UNL     1      20.550  28.763  29.143  1.00  0.00    -0.070 CG0
ATOM      9  C   UNL     1      21.644  28.256  30.047  1.00  0.00     0.039 C 
ATOM     10  G   UNL     1      20.331  30.265  29.026  1.00  0.00     0.000 G0
ENDBRANCH   6   7
ENDBRANCH   5   6
ENDBRANCH   3   5
ENDBRANCH   1   3
BRANCH   1  11
ATOM     11  C   UNL     1      17.150  29.851  30.688  1.00  0.00     0.087 C 
BRANCH  11  12
ATOM     12  C   UNL     1      17.894  30.886  29.803  1.00  0.00     0.066 C 
BRANCH  12  13
ATOM     13  C   UNL     1      19.387  30.807  30.079  1.00  0.00     0.140 C 
ATOM     14  O   UNL     1      19.832  31.263  31.124  1.00  0.00    -0.299 OA
BRANCH  13  15
ATOM     15  C   UNL     1      20.334  30.271  29.034  1.00  0.00     0.106 CG0
ATOM     16  G   UNL     1      20.536  28.766  29.146  1.00  0.00     0.000 G0
ENDBRANCH  13  15
ENDBRANCH  12  13
BRANCH  12  17
ATOM     17  C   UNL     1      17.374  32.346  30.017  1.00  0.00    -0.006 C 
ATOM     18  C   UNL     1      15.838  32.414  30.108  1.00  0.00     0.008 C 
ATOM     19  C   UNL     1      17.842  33.275  28.879  1.00  0.00     0.008 C 
ENDBRANCH  12  17
ENDBRANCH  11  12
ENDBRANCH   1  11
TORSDOF 1
ENDMDL
MODEL 2
REMARK VINA RESULT:    -3.482      1.576      3.787
REMARK INTER + INTRA:          -5.599
REMARK INTER:                  -5.332
REMARK INTRA:                  -0.267
REMARK UNBOUND:                -0.285
REMARK SMILES CC1=CCC[C@H](C)C(=O)C[C@@H](C(C)C)C(=O)C1
REMARK SMILES IDX 8 1 9 2 6 3 7 4 5 5 4 6 3 7 2 8 1 9 10 11 11 12 15 13 16 14
REMARK SMILES IDX 17 15 12 17 13 18 14 19
REMARK H PARENT
REMARK Flexibility Score: 70.00
ROOT
ATOM      1  C   UNL     1      19.727  31.648  29.512  1.00  0.00     0.136 C 
ATOM      2  O   UNL     1      19.828  32.863  29.614  1.00  0.00    -0.299 OA
ENDROOT
BRANCH   1   3
ATOM      3  C   UNL     1      20.886  30.748  29.904  1.00  0.00     0.053 C 
ATOM      4  C   UNL     1      20.934  30.488  31.418  1.00  0.00     0.016 C 
BRANCH   3   5
ATOM      5  C   UNL     1      20.878  29.434  29.098  1.00  0.00     0.015 C 
BRANCH   5   6
ATOM      6  C   UNL     1      20.253  28.240  29.852  1.00  0.00     0.028 C 
BRANCH   6   7
ATOM      7  C   UNL     1      19.291  27.483  28.971  1.00  0.00    -0.028 C 
ATOM      8  C   UNL     1      17.946  27.477  29.122  1.00  0.00    -0.070 CG0
ATOM      9  C   UNL     1      17.125  26.698  28.127  1.00  0.00     0.039 C 
ATOM     10  G   UNL     1      17.233  28.208  30.251  1.00  0.00     0.000 G0
ENDBRANCH   6   7
ENDBRANCH   5   6
ENDBRANCH   3   5
ENDBRANCH   1   3
BRANCH   1  11
ATOM     11  C   UNL     1      18.435  31.064  28.990  1.00  0.00     0.087 C 
BRANCH  11  12
ATOM     12  C   UNL     1      17.403  30.823  30.124  1.00  0.00     0.066 C 
BRANCH  12  13
ATOM     13  C   UNL     1      16.639  29.538  29.849  1.00  0.00     0.140 C 
ATOM     14  O   UNL     1      15.516  29.596  29.367  1.00  0.00    -0.299 OA
BRANCH  13  15
ATOM     15  C   UNL     1      17.208  28.202  30.261  1.00  0.00     0.106 CG0
ATOM     16  G   UNL     1      17.912  27.489  29.116  1.00  0.00     0.000 G0
ENDBRANCH  13  15
ENDBRANCH  12  13
BRANCH  12  17
ATOM     17  C   UNL     1      16.414  32.021  30.303  1.00  0.00    -0.006 C 
ATOM     18  C   UNL     1      16.394  32.954  29.077  1.00  0.00     0.008 C 
ATOM     19  C   UNL     1      16.771  32.855  31.550  1.00  0.00     0.008 C 
ENDBRANCH  12  17
ENDBRANCH  11  12
ENDBRANCH   1  11
TORSDOF 1
ENDMDL
MODEL 3
REMARK VINA RESULT:    -3.481      2.014      2.757
REMARK INTER + INTRA:          -5.598
REMARK INTER:                  -5.730
REMARK INTRA:                   0.132
REMARK UNBOUND:                -0.285
REMARK SMILES CC1=CCC[C@H](C)C(=O)C[C@@H](C(C)C)C(=O)C1
REMARK SMILES IDX 8 1 9 2 6 3 7 4 5 5 4 6 3 7 2 8 1 9 10 11 11 12 15 13 16 14
REMARK SMILES IDX 17 15 12 17 13 18 14 19
REMARK H PARENT
REMARK Flexibility Score: 70.00
ROOT
ATOM      1  C   UNL     1      18.623  27.494  28.389  1.00  0.00     0.136 C 
ATOM      2  O   UNL     1      18.462  28.114  27.346  1.00  0.00    -0.299 OA
ENDROOT
BRANCH   1   3
ATOM      3  C   UNL     1      18.574  25.976  28.390  1.00  0.00     0.053 C 
ATOM      4  C   UNL     1      17.317  25.432  27.691  1.00  0.00     0.016 C 
BRANCH   3   5
ATOM      5  C   UNL     1      19.863  25.370  27.798  1.00  0.00     0.015 C 
BRANCH   5   6
ATOM      6  C   UNL     1      21.066  25.388  28.766  1.00  0.00     0.028 C 
BRANCH   6   7
ATOM      7  C   UNL     1      22.136  26.337  28.286  1.00  0.00    -0.028 C 
ATOM      8  C   UNL     1      22.416  27.534  28.852  1.00  0.00    -0.070 CG0
ATOM      9  C   UNL     1      23.549  28.343  28.273  1.00  0.00     0.039 C 
ATOM     10  G   UNL     1      21.638  28.100  30.032  1.00  0.00     0.000 G0
ENDBRANCH   6   7
ENDBRANCH   5   6
ENDBRANCH   3   5
ENDBRANCH   1   3
BRANCH   1  11
ATOM     11  C   UNL     1      18.868  28.262  29.666  1.00  0.00     0.087 C 
BRANCH  11  12
ATOM     12  C   UNL     1      19.595  29.608  29.406  1.00  0.00     0.066 C 
BRANCH  12  13
ATOM     13  C   UNL     1      21.067  29.466  29.760  1.00  0.00     0.140 C 
ATOM     14  O   UNL     1      21.792  30.452  29.730  1.00  0.00    -0.299 OA
BRANCH  13  15
ATOM     15  C   UNL     1      21.661  28.109  30.042  1.00  0.00     0.106 CG0
ATOM     16  G   UNL     1      22.418  27.543  28.848  1.00  0.00     0.000 G0
ENDBRANCH  13  15
ENDBRANCH  12  13
BRANCH  12  17
ATOM     17  C   UNL     1      18.955  30.800  30.192  1.00  0.00    -0.006 C 
ATOM     18  C   UNL     1      18.207  30.334  31.456  1.00  0.00     0.008 C 
ATOM     19  C   UNL     1      17.974  31.590  29.302  1.00  0.00     0.008 C 
ENDBRANCH  12  17
ENDBRANCH  11  12
ENDBRANCH   1  11
TORSDOF 1
ENDMDL
MODEL 4
REMARK VINA RESULT:    -3.330      1.987      2.637
REMARK INTER + INTRA:          -5.366
REMARK INTER:                  -5.216
REMARK INTRA:                  -0.150
REMARK UNBOUND:                -0.285
REMARK SMILES CC1=CCC[C@H](C)C(=O)C[C@@H](C(C)C)C(=O)C1
REMARK SMILES IDX 8 1 9 2 6 3 7 4 5 5 4 6 3 7 2 8 1 9 10 11 11 12 15 13 16 14
REMARK SMILES IDX 17 15 12 17 13 18 14 19
REMARK H PARENT
REMARK Flexibility Score: 70.00
ROOT
ATOM      1  C   UNL     1      19.155  28.672  28.819  1.00  0.00     0.136 C 
ATOM      2  O   UNL     1      18.999  29.009  27.653  1.00  0.00    -0.299 OA
ENDROOT
BRANCH   1   3
ATOM      3  C   UNL     1      19.949  27.421  29.153  1.00  0.00     0.053 C 
ATOM      4  C   UNL     1      19.283  26.146  28.612  1.00  0.00     0.016 C 
BRANCH   3   5
ATOM      5  C   UNL     1      21.414  27.542  28.686  1.00  0.00     0.015 C 
BRANCH   5   6
ATOM      6  C   UNL     1      22.059  28.911  28.992  1.00  0.00     0.028 C 
BRANCH   6   7
ATOM      7  C   UNL     1      22.241  29.108  30.476  1.00  0.00    -0.028 C 
ATOM      8  C   UNL     1      21.871  30.217  31.159  1.00  0.00    -0.070 CG0
ATOM      9  C   UNL     1      22.088  30.235  32.650  1.00  0.00     0.039 C 
ATOM     10  G   UNL     1      21.261  31.441  30.490  1.00  0.00     0.000 G0
ENDBRANCH   6   7
ENDBRANCH   5   6
ENDBRANCH   3   5
ENDBRANCH   1   3
BRANCH   1  11
ATOM     11  C   UNL     1      18.545  29.517  29.912  1.00  0.00     0.087 C 
BRANCH  11  12
ATOM     12  C   UNL     1      18.779  31.033  29.676  1.00  0.00     0.066 C 
BRANCH  12  13
ATOM     13  C   UNL     1      19.763  31.561  30.708  1.00  0.00     0.140 C 
ATOM     14  O   UNL     1      19.342  32.151  31.694  1.00  0.00    -0.299 OA
BRANCH  13  15
ATOM     15  C   UNL     1      21.250  31.459  30.475  1.00  0.00     0.106 CG0
ATOM     16  G   UNL     1      21.862  30.234  31.139  1.00  0.00     0.000 G0
ENDBRANCH  13  15
ENDBRANCH  12  13
BRANCH  12  17
ATOM     17  C   UNL     1      17.451  31.860  29.711  1.00  0.00    -0.006 C 
ATOM     18  C   UNL     1      16.211  30.989  29.434  1.00  0.00     0.008 C 
ATOM     19  C   UNL     1      17.485  33.010  28.686  1.00  0.00     0.008 C 
ENDBRANCH  12  17
ENDBRANCH  11  12
ENDBRANCH   1  11
TORSDOF 1
ENDMDL
MODEL 5
REMARK VINA RESULT:    -3.315      2.077      5.378
REMARK INTER + INTRA:          -5.343
REMARK INTER:                  -5.026
REMARK INTRA:                  -0.317
REMARK UNBOUND:                -0.285
REMARK SMILES CC1=CCC[C@H](C)C(=O)C[C@@H](C(C)C)C(=O)C1
REMARK SMILES IDX 8 1 9 2 6 3 7 4 5 5 4 6 3 7 2 8 1 9 10 11 11 12 15 13 16 14
REMARK SMILES IDX 17 15 12 17 13 18 14 19
REMARK H PARENT
REMARK Flexibility Score: 70.00
ROOT
ATOM      1  C   UNL     1      20.016  31.108  30.220  1.00  0.00     0.136 C 
ATOM      2  O   UNL     1      21.003  31.030  29.502  1.00  0.00    -0.299 OA
ENDROOT
BRANCH   1   3
ATOM      3  C   UNL     1      19.495  32.467  30.657  1.00  0.00     0.053 C 
ATOM      4  C   UNL     1      20.551  33.276  31.427  1.00  0.00     0.016 C 
BRANCH   3   5
ATOM      5  C   UNL     1      18.925  33.262  29.464  1.00  0.00     0.015 C 
BRANCH   5   6
ATOM      6  C   UNL     1      17.522  32.799  29.016  1.00  0.00     0.028 C 
BRANCH   6   7
ATOM      7  C   UNL     1      16.588  32.674  30.193  1.00  0.00    -0.028 C 
ATOM      8  C   UNL     1      15.883  31.561  30.504  1.00  0.00    -0.070 CG0
ATOM      9  C   UNL     1      15.024  31.590  31.742  1.00  0.00     0.039 C 
ATOM     10  G   UNL     1      15.911  30.295  29.660  1.00  0.00     0.000 G0
ENDBRANCH   6   7
ENDBRANCH   5   6
ENDBRANCH   3   5
ENDBRANCH   1   3
BRANCH   1  11
ATOM     11  C   UNL     1      19.330  29.838  30.663  1.00  0.00     0.087 C 
BRANCH  11  12
ATOM     12  C   UNL     1      18.342  29.304  29.591  1.00  0.00     0.066 C 
BRANCH  12  13
ATOM     13  C   UNL     1      16.933  29.293  30.161  1.00  0.00     0.140 C 
ATOM     14  O   UNL     1      16.613  28.422  30.958  1.00  0.00    -0.299 OA
BRANCH  13  15
ATOM     15  C   UNL     1      15.900  30.279  29.675  1.00  0.00     0.106 CG0
ATOM     16  G   UNL     1      15.886  31.562  30.494  1.00  0.00     0.000 G0
ENDBRANCH  13  15
ENDBRANCH  12  13
BRANCH  12  17
ATOM     17  C   UNL     1      18.733  27.883  29.066  1.00  0.00    -0.006 C 
ATOM     18  C   UNL     1      20.231  27.579  29.255  1.00  0.00     0.008 C 
ATOM     19  C   UNL     1      18.382  27.726  27.573  1.00  0.00     0.008 C 
ENDBRANCH  12  17
ENDBRANCH  11  12
ENDBRANCH   1  11
TORSDOF 1
ENDMDL
MODEL 6
REMARK VINA RESULT:    -3.266      2.121      4.291
REMARK INTER + INTRA:          -5.269
REMARK INTER:                  -4.928
REMARK INTRA:                  -0.341
REMARK UNBOUND:                -0.285
REMARK SMILES CC1=CCC[C@H](C)C(=O)C[C@@H](C(C)C)C(=O)C1
REMARK SMILES IDX 8 1 9 2 6 3 7 4 5 5 4 6 3 7 2 8 1 9 10 11 11 12 15 13 16 14
REMARK SMILES IDX 17 15 12 17 13 18 14 19
REMARK H PARENT
REMARK Flexibility Score: 70.00
ROOT
ATOM      1  C   UNL     1      20.006  28.558  29.161  1.00  0.00     0.136 C 
ATOM      2  O   UNL     1      20.600  27.562  29.551  1.00  0.00    -0.299 OA
ENDROOT
BRANCH   1   3
ATOM      3  C   UNL     1      18.565  28.453  28.691  1.00  0.00     0.053 C 
ATOM      4  C   UNL     1      18.409  27.493  27.501  1.00  0.00     0.016 C 
BRANCH   3   5
ATOM      5  C   UNL     1      17.619  28.084  29.852  1.00  0.00     0.015 C 
BRANCH   5   6
ATOM      6  C   UNL     1      17.244  29.275  30.759  1.00  0.00     0.028 C 
BRANCH   6   7
ATOM      7  C   UNL     1      16.768  30.451  29.944  1.00  0.00    -0.028 C 
ATOM      8  C   UNL     1      17.308  31.691  29.990  1.00  0.00    -0.070 CG0
ATOM      9  C   UNL     1      16.737  32.747  29.077  1.00  0.00     0.039 C 
ATOM     10  G   UNL     1      18.450  32.067  30.923  1.00  0.00     0.000 G0
ENDBRANCH   6   7
ENDBRANCH   5   6
ENDBRANCH   3   5
ENDBRANCH   1   3
BRANCH   1  11
ATOM     11  C   UNL     1      20.728  29.885  29.156  1.00  0.00     0.087 C 
BRANCH  11  12
ATOM     12  C   UNL     1      20.596  30.626  30.513  1.00  0.00     0.066 C 
BRANCH  12  13
ATOM     13  C   UNL     1      19.815  31.915  30.312  1.00  0.00     0.140 C 
ATOM     14  O   UNL     1      20.334  32.847  29.714  1.00  0.00    -0.299 OA
BRANCH  13  15
ATOM     15  C   UNL     1      18.452  32.092  30.935  1.00  0.00     0.106 CG0
ATOM     16  G   UNL     1      17.324  31.710  29.987  1.00  0.00     0.000 G0
ENDBRANCH  13  15
ENDBRANCH  12  13
BRANCH  12  17
ATOM     17  C   UNL     1      21.983  30.923  31.174  1.00  0.00    -0.006 C 
ATOM     18  C   UNL     1      23.041  29.862  30.818  1.00  0.00     0.008 C 
ATOM     19  C   UNL     1      21.861  31.002  32.709  1.00  0.00     0.008 C 
ENDBRANCH  12  17
ENDBRANCH  11  12
ENDBRANCH   1  11
TORSDOF 1
ENDMDL
MODEL 7
REMARK VINA RESULT:    -3.211      1.977      4.382
REMARK INTER + INTRA:          -5.186
REMARK INTER:                  -5.135
REMARK INTRA:                  -0.051
REMARK UNBOUND:                -0.285
REMARK SMILES CC1=CCC[C@H](C)C(=O)C[C@@H](C(C)C)C(=O)C1
REMARK SMILES IDX 8 1 9 2 6 3 7 4 5 5 4 6 3 7 2 8 1 9 10 11 11 12 15 13 16 14
REMARK SMILES IDX 17 15 12 17 13 18 14 19
REMARK H PARENT
REMARK Flexibility Score: 70.00
ROOT
ATOM      1  C   UNL     1      17.953  31.293  29.279  1.00  0.00     0.136 C 
ATOM      2  O   UNL     1      16.915  30.808  29.710  1.00  0.00    -0.299 OA
ENDROOT
BRANCH   1   3
ATOM      3  C   UNL     1      18.167  32.796  29.318  1.00  0.00     0.053 C 
ATOM      4  C   UNL     1      16.854  33.577  29.150  1.00  0.00     0.016 C 
BRANCH   3   5
ATOM      5  C   UNL     1      18.928  33.225  30.589  1.00  0.00     0.015 C 
BRANCH   5   6
ATOM      6  C   UNL     1      20.451  32.984  30.520  1.00  0.00     0.028 C 
BRANCH   6   7
ATOM      7  C   UNL     1      20.908  32.065  31.624  1.00  0.00    -0.028 C 
ATOM      8  C   UNL     1      21.450  30.840  31.434  1.00  0.00    -0.070 CG0
ATOM      9  C   UNL     1      21.894  30.065  32.649  1.00  0.00     0.039 C 
ATOM     10  G   UNL     1      21.621  30.210  30.059  1.00  0.00     0.000 G0
ENDBRANCH   6   7
ENDBRANCH   5   6
ENDBRANCH   3   5
ENDBRANCH   1   3
BRANCH   1  11
ATOM     11  C   UNL     1      19.008  30.374  28.711  1.00  0.00     0.087 C 
BRANCH  11  12
ATOM     12  C   UNL     1      19.270  29.149  29.627  1.00  0.00     0.066 C 
BRANCH  12  13
ATOM     13  C   UNL     1      20.767  28.986  29.839  1.00  0.00     0.140 C 
ATOM     14  O   UNL     1      21.245  27.863  29.920  1.00  0.00    -0.299 OA
BRANCH  13  15
ATOM     15  C   UNL     1      21.648  30.192  30.056  1.00  0.00     0.106 CG0
ATOM     16  G   UNL     1      21.457  30.813  31.433  1.00  0.00     0.000 G0
ENDBRANCH  13  15
ENDBRANCH  12  13
BRANCH  12  17
ATOM     17  C   UNL     1      18.649  27.830  29.060  1.00  0.00    -0.006 C 
ATOM     18  C   UNL     1      18.536  27.848  27.524  1.00  0.00     0.008 C 
ATOM     19  C   UNL     1      17.250  27.573  29.655  1.00  0.00     0.008 C 
ENDBRANCH  12  17
ENDBRANCH  11  12
ENDBRANCH   1  11
TORSDOF 1
ENDMDL
MODEL 8
REMARK VINA RESULT:    -3.199      1.981      4.335
REMARK INTER + INTRA:          -5.167
REMARK INTER:                  -4.850
REMARK INTRA:                  -0.317
REMARK UNBOUND:                -0.285
REMARK SMILES CC1=CCC[C@H](C)C(=O)C[C@@H](C(C)C)C(=O)C1
REMARK SMILES IDX 8 1 9 2 6 3 7 4 5 5 4 6 3 7 2 8 1 9 10 11 11 12 15 13 16 14
REMARK SMILES IDX 17 15 12 17 13 18 14 19
REMARK H PARENT
REMARK Flexibility Score: 70.00
ROOT
ATOM      1  C   UNL     1      17.591  29.116  29.437  1.00  0.00     0.136 C 
ATOM      2  O   UNL     1      16.791  28.190  29.419  1.00  0.00    -0.299 OA
ENDROOT
BRANCH   1   3
ATOM      3  C   UNL     1      17.291  30.368  30.242  1.00  0.00     0.053 C 
ATOM      4  C   UNL     1      16.040  31.102  29.734  1.00  0.00     0.016 C 
BRANCH   3   5
ATOM      5  C   UNL     1      17.200  30.060  31.751  1.00  0.00     0.015 C 
BRANCH   5   6
ATOM      6  C   UNL     1      18.565  29.791  32.419  1.00  0.00     0.028 C 
BRANCH   6   7
ATOM      7  C   UNL     1      19.555  30.882  32.096  1.00  0.00    -0.028 C 
ATOM      8  C   UNL     1      20.771  30.680  31.537  1.00  0.00    -0.070 CG0
ATOM      9  C   UNL     1      21.624  31.887  31.240  1.00  0.00     0.039 C 
ATOM     10  G   UNL     1      21.316  29.297  31.208  1.00  0.00     0.000 G0
ENDBRANCH   6   7
ENDBRANCH   5   6
ENDBRANCH   3   5
ENDBRANCH   1   3
BRANCH   1  11
ATOM     11  C   UNL     1      18.873  28.990  28.648  1.00  0.00     0.087 C 
BRANCH  11  12
ATOM     12  C   UNL     1      19.910  28.081  29.361  1.00  0.00     0.066 C 
BRANCH  12  13
ATOM     13  C   UNL     1      21.116  28.912  29.767  1.00  0.00     0.140 C 
ATOM     14  O   UNL     1      21.965  29.191  28.931  1.00  0.00    -0.299 OA
BRANCH  13  15
ATOM     15  C   UNL     1      21.330  29.303  31.209  1.00  0.00     0.106 CG0
ATOM     16  G   UNL     1      20.771  30.682  31.528  1.00  0.00     0.000 G0
ENDBRANCH  13  15
ENDBRANCH  12  13
BRANCH  12  17
ATOM     17  C   UNL     1      20.352  26.866  28.480  1.00  0.00    -0.006 C 
ATOM     18  C   UNL     1      19.152  26.109  27.881  1.00  0.00     0.008 C 
ATOM     19  C   UNL     1      21.206  25.872  29.293  1.00  0.00     0.008 C 
ENDBRANCH  12  17
ENDBRANCH  11  12
ENDBRANCH   1  11
TORSDOF 1
ENDMDL
MODEL 9
REMARK VINA RESULT:    -3.133      3.410      6.467
REMARK INTER + INTRA:          -5.067
REMARK INTER:                  -5.537
REMARK INTRA:                   0.470
REMARK UNBOUND:                -0.285
REMARK SMILES CC1=CCC[C@H](C)C(=O)C[C@@H](C(C)C)C(=O)C1
REMARK SMILES IDX 8 1 9 2 6 3 7 4 5 5 4 6 3 7 2 8 1 9 10 11 11 12 15 13 16 14
REMARK SMILES IDX 17 15 12 17 13 18 14 19
REMARK H PARENT
REMARK Flexibility Score: 70.00
ROOT
ATOM      1  C   UNL     1      24.137  27.780  27.998  1.00  0.00     0.136 C 
ATOM      2  O   UNL     1      23.904  27.912  26.804  1.00  0.00    -0.299 OA
ENDROOT
BRANCH   1   3
ATOM      3  C   UNL     1      25.429  28.317  28.589  1.00  0.00     0.053 C 
ATOM      4  C   UNL     1      26.577  28.328  27.567  1.00  0.00     0.016 C 
BRANCH   3   5
ATOM      5  C   UNL     1      25.222  29.704  29.230  1.00  0.00     0.015 C 
BRANCH   5   6
ATOM      6  C   UNL     1      24.993  29.662  30.756  1.00  0.00     0.028 C 
BRANCH   6   7
ATOM      7  C   UNL     1      23.875  30.587  31.165  1.00  0.00    -0.028 C 
ATOM      8  C   UNL     1      22.575  30.227  31.275  1.00  0.00    -0.070 CG0
ATOM      9  C   UNL     1      21.588  31.268  31.738  1.00  0.00     0.039 C 
ATOM     10  G   UNL     1      22.068  28.830  30.944  1.00  0.00     0.000 G0
ENDBRANCH   6   7
ENDBRANCH   5   6
ENDBRANCH   3   5
ENDBRANCH   1   3
BRANCH   1  11
ATOM     11  C   UNL     1      23.122  27.075  28.867  1.00  0.00     0.087 C 
BRANCH  11  12
ATOM     12  C   UNL     1      21.682  27.603  28.628  1.00  0.00     0.066 C 
BRANCH  12  13
ATOM     13  C   UNL     1      21.405  28.763  29.571  1.00  0.00     0.140 C 
ATOM     14  O   UNL     1      20.715  29.699  29.190  1.00  0.00    -0.299 OA
BRANCH  13  15
ATOM     15  C   UNL     1      22.059  28.820  30.930  1.00  0.00     0.106 CG0
ATOM     16  G   UNL     1      22.561  30.215  31.277  1.00  0.00     0.000 G0
ENDBRANCH  13  15
ENDBRANCH  12  13
BRANCH  12  17
ATOM     17  C   UNL     1      20.597  26.490  28.793  1.00  0.00    -0.006 C 
ATOM     18  C   UNL     1      20.886  25.254  27.921  1.00  0.00     0.008 C 
ATOM     19  C   UNL     1      19.194  27.024  28.441  1.00  0.00     0.008 C 
ENDBRANCH  12  17
ENDBRANCH  11  12
ENDBRANCH   1  11
TORSDOF 1
ENDMDL
