MODEL 1
REMARK VINA RESULT:    -5.104      0.000      0.000
REMARK INTER + INTRA:          -5.869
REMARK INTER:                  -5.552
REMARK INTRA:                  -0.317
REMARK UNBOUND:                -0.317
REMARK SMILES C=C1C[C@]2(O)O[C@]3(C[C@@H]2C(C)C)[C@H](C)CC[C@H]13
REMARK SMILES IDX 14 1 13 2 15 3 16 4 17 5 7 6 8 7 9 8 4 9 6 10 3 11 2 12 1 13
REMARK SMILES IDX 10 14 11 15 12 16 5 17
REMARK H PARENT 5 18
REMARK Flexibility Score: inf
ROOT
ATOM      1  C   UNL     1      44.496  16.313  -2.510  1.00  0.00     0.011 C 
ATOM      2  C   UNL     1      43.670  16.999  -3.609  1.00  0.00     0.019 C 
ATOM      3  C   UNL     1      44.530  17.420  -4.809  1.00  0.00     0.007 C 
ATOM      4  C   UNL     1      44.023  18.790  -5.268  1.00  0.00     0.011 C 
ATOM      5  C   UNL     1      42.770  19.088  -4.445  1.00  0.00     0.047 C 
ATOM      6  C   UNL     1      42.960  18.280  -3.146  1.00  0.00     0.081 C 
ATOM      7  C   UNL     1      41.630  18.034  -2.425  1.00  0.00     0.046 C 
ATOM      8  C   UNL     1      41.566  19.204  -1.450  1.00  0.00     0.054 C 
ATOM      9  C   UNL     1      42.878  19.989  -1.729  1.00  0.00     0.173 C 
ATOM     10  O   UNL     1      43.764  19.024  -2.252  1.00  0.00    -0.342 OA
ATOM     11  C   UNL     1      42.792  21.127  -2.775  1.00  0.00     0.096 C 
ATOM     12  C   UNL     1      42.587  20.575  -4.173  1.00  0.00    -0.066 C 
ATOM     13  C   UNL     1      42.270  21.407  -5.174  1.00  0.00     0.008 C 
ENDROOT
BRANCH   8  14
ATOM     14  C   UNL     1      40.185  19.933  -1.371  1.00  0.00    -0.009 C 
ATOM     15  C   UNL     1      39.756  20.487   0.006  1.00  0.00     0.008 C 
ATOM     16  C   UNL     1      39.064  19.084  -1.988  1.00  0.00     0.008 C 
ENDBRANCH   8  14
BRANCH   9  17
ATOM     17  O   UNL     1      43.381  20.497  -0.518  1.00  0.00    -0.365 OA
ATOM     18  H   UNL     1      42.635  20.962  -0.056  1.00  0.00     0.214 HD
ENDBRANCH   9  17
TORSDOF 2
ENDMDL
MODEL 2
REMARK VINA RESULT:    -5.059      1.702      3.427
REMARK INTER + INTRA:          -5.820
REMARK INTER:                  -5.478
REMARK INTRA:                  -0.342
REMARK UNBOUND:                -0.317
REMARK SMILES C=C1C[C@]2(O)O[C@]3(C[C@@H]2C(C)C)[C@H](C)CC[C@H]13
REMARK SMILES IDX 14 1 13 2 15 3 16 4 17 5 7 6 8 7 9 8 4 9 6 10 3 11 2 12 1 13
REMARK SMILES IDX 10 14 11 15 12 16 5 17
REMARK H PARENT 5 18
REMARK Flexibility Score: inf
ROOT
ATOM      1  C   UNL     1      43.165  21.688  -6.122  1.00  0.00     0.011 C 
ATOM      2  C   UNL     1      43.965  20.741  -5.215  1.00  0.00     0.019 C 
ATOM      3  C   UNL     1      44.632  19.603  -6.001  1.00  0.00     0.007 C 
ATOM      4  C   UNL     1      44.500  18.333  -5.156  1.00  0.00     0.011 C 
ATOM      5  C   UNL     1      43.906  18.764  -3.815  1.00  0.00     0.047 C 
ATOM      6  C   UNL     1      43.118  20.050  -4.135  1.00  0.00     0.081 C 
ATOM      7  C   UNL     1      42.881  20.902  -2.884  1.00  0.00     0.046 C 
ATOM      8  C   UNL     1      41.511  20.421  -2.417  1.00  0.00     0.054 C 
ATOM      9  C   UNL     1      41.123  19.341  -3.465  1.00  0.00     0.173 C 
ATOM     10  O   UNL     1      41.840  19.699  -4.626  1.00  0.00    -0.342 OA
ATOM     11  C   UNL     1      41.519  17.882  -3.131  1.00  0.00     0.096 C 
ATOM     12  C   UNL     1      43.022  17.691  -3.193  1.00  0.00    -0.066 C 
ATOM     13  C   UNL     1      43.567  16.561  -2.724  1.00  0.00     0.008 C 
ENDROOT
BRANCH   8  14
ATOM     14  C   UNL     1      41.388  20.145  -0.883  1.00  0.00    -0.009 C 
ATOM     15  C   UNL     1      40.101  20.629  -0.180  1.00  0.00     0.008 C 
ATOM     16  C   UNL     1      42.634  20.622  -0.123  1.00  0.00     0.008 C 
ENDBRANCH   8  14
BRANCH   9  17
ATOM     17  O   UNL     1      39.741  19.411  -3.713  1.00  0.00    -0.365 OA
ATOM     18  H   UNL     1      39.543  20.324  -4.049  1.00  0.00     0.214 HD
ENDBRANCH   9  17
TORSDOF 2
ENDMDL
MODEL 3
REMARK VINA RESULT:    -4.767      1.440      4.723
REMARK INTER + INTRA:          -5.503
REMARK INTER:                  -5.259
REMARK INTRA:                  -0.244
REMARK UNBOUND:                -0.317
REMARK SMILES C=C1C[C@]2(O)O[C@]3(C[C@@H]2C(C)C)[C@H](C)CC[C@H]13
REMARK SMILES IDX 14 1 13 2 15 3 16 4 17 5 7 6 8 7 9 8 4 9 6 10 3 11 2 12 1 13
REMARK SMILES IDX 10 14 11 15 12 16 5 17
REMARK H PARENT 5 18
REMARK Flexibility Score: inf
ROOT
ATOM      1  C   UNL     1      41.949  20.856  -0.495  1.00  0.00     0.011 C 
ATOM      2  C   UNL     1      41.139  20.455  -1.737  1.00  0.00     0.019 C 
ATOM      3  C   UNL     1      39.822  19.756  -1.375  1.00  0.00     0.007 C 
ATOM      4  C   UNL     1      39.625  18.617  -2.381  1.00  0.00     0.011 C 
ATOM      5  C   UNL     1      40.738  18.758  -3.420  1.00  0.00     0.047 C 
ATOM      6  C   UNL     1      41.874  19.484  -2.673  1.00  0.00     0.081 C 
ATOM      7  C   UNL     1      42.851  20.163  -3.639  1.00  0.00     0.046 C 
ATOM      8  C   UNL     1      43.925  19.096  -3.821  1.00  0.00     0.054 C 
ATOM      9  C   UNL     1      43.431  17.922  -2.930  1.00  0.00     0.173 C 
ATOM     10  O   UNL     1      42.629  18.536  -1.946  1.00  0.00    -0.342 OA
ATOM     11  C   UNL     1      42.549  16.855  -3.621  1.00  0.00     0.096 C 
ATOM     12  C   UNL     1      41.187  17.418  -3.983  1.00  0.00    -0.066 C 
ATOM     13  C   UNL     1      40.370  16.716  -4.780  1.00  0.00     0.008 C 
ENDROOT
BRANCH   8  14
ATOM     14  C   UNL     1      44.387  18.858  -5.296  1.00  0.00    -0.009 C 
ATOM     15  C   UNL     1      45.643  17.985  -5.510  1.00  0.00     0.008 C 
ATOM     16  C   UNL     1      44.503  20.178  -6.069  1.00  0.00     0.008 C 
ENDBRANCH   8  14
BRANCH   9  17
ATOM     17  O   UNL     1      44.540  17.300  -2.327  1.00  0.00    -0.365 OA
ATOM     18  H   UNL     1      44.754  16.490  -2.860  1.00  0.00     0.214 HD
ENDBRANCH   9  17
TORSDOF 2
ENDMDL
MODEL 4
REMARK VINA RESULT:    -4.696      1.987      4.268
REMARK INTER + INTRA:          -5.425
REMARK INTER:                  -5.030
REMARK INTRA:                  -0.395
REMARK UNBOUND:                -0.317
REMARK SMILES C=C1C[C@]2(O)O[C@]3(C[C@@H]2C(C)C)[C@H](C)CC[C@H]13
REMARK SMILES IDX 14 1 13 2 15 3 16 4 17 5 7 6 8 7 9 8 4 9 6 10 3 11 2 12 1 13
REMARK SMILES IDX 10 14 11 15 12 16 5 17
REMARK H PARENT 5 18
REMARK Flexibility Score: inf
ROOT
ATOM      1  C   UNL     1      40.451  20.045  -0.342  1.00  0.00     0.011 C 
ATOM      2  C   UNL     1      41.877  19.830  -0.872  1.00  0.00     0.019 C 
ATOM      3  C   UNL     1      42.523  21.135  -1.357  1.00  0.00     0.007 C 
ATOM      4  C   UNL     1      43.308  20.803  -2.629  1.00  0.00     0.011 C 
ATOM      5  C   UNL     1      43.253  19.284  -2.790  1.00  0.00     0.047 C 
ATOM      6  C   UNL     1      41.959  18.865  -2.064  1.00  0.00     0.081 C 
ATOM      7  C   UNL     1      41.977  17.383  -1.672  1.00  0.00     0.046 C 
ATOM      8  C   UNL     1      41.285  16.723  -2.859  1.00  0.00     0.054 C 
ATOM      9  C   UNL     1      40.950  17.915  -3.799  1.00  0.00     0.173 C 
ATOM     10  O   UNL     1      40.863  19.031  -2.941  1.00  0.00    -0.342 OA
ATOM     11  C   UNL     1      42.007  18.263  -4.875  1.00  0.00     0.096 C 
ATOM     12  C   UNL     1      43.258  18.848  -4.249  1.00  0.00    -0.066 C 
ATOM     13  C   UNL     1      44.361  19.005  -4.993  1.00  0.00     0.008 C 
ENDROOT
BRANCH   8  14
ATOM     14  C   UNL     1      41.978  15.431  -3.401  1.00  0.00    -0.009 C 
ATOM     15  C   UNL     1      41.210  14.100  -3.247  1.00  0.00     0.008 C 
ATOM     16  C   UNL     1      43.412  15.295  -2.869  1.00  0.00     0.008 C 
ENDBRANCH   8  14
BRANCH   9  17
ATOM     17  O   UNL     1      39.707  17.684  -4.415  1.00  0.00    -0.365 OA
ATOM     18  H   UNL     1      39.083  18.392  -4.104  1.00  0.00     0.214 HD
ENDBRANCH   9  17
TORSDOF 2
ENDMDL
MODEL 5
REMARK VINA RESULT:    -4.631      1.525      4.621
REMARK INTER + INTRA:          -5.355
REMARK INTER:                  -5.005
REMARK INTRA:                  -0.350
REMARK UNBOUND:                -0.317
REMARK SMILES C=C1C[C@]2(O)O[C@]3(C[C@@H]2C(C)C)[C@H](C)CC[C@H]13
REMARK SMILES IDX 14 1 13 2 15 3 16 4 17 5 7 6 8 7 9 8 4 9 6 10 3 11 2 12 1 13
REMARK SMILES IDX 10 14 11 15 12 16 5 17
REMARK H PARENT 5 18
REMARK Flexibility Score: inf
ROOT
ATOM      1  C   UNL     1      38.875  18.331  -3.526  1.00  0.00     0.011 C 
ATOM      2  C   UNL     1      39.794  18.414  -2.298  1.00  0.00     0.019 C 
ATOM      3  C   UNL     1      39.347  19.496  -1.306  1.00  0.00     0.007 C 
ATOM      4  C   UNL     1      40.614  20.178  -0.782  1.00  0.00     0.011 C 
ATOM      5  C   UNL     1      41.796  19.387  -1.341  1.00  0.00     0.047 C 
ATOM      6  C   UNL     1      41.256  18.746  -2.635  1.00  0.00     0.081 C 
ATOM      7  C   UNL     1      42.090  17.536  -3.066  1.00  0.00     0.046 C 
ATOM      8  C   UNL     1      43.091  18.158  -4.033  1.00  0.00     0.054 C 
ATOM      9  C   UNL     1      42.708  19.665  -4.041  1.00  0.00     0.173 C 
ATOM     10  O   UNL     1      41.343  19.686  -3.687  1.00  0.00    -0.342 OA
ATOM     11  C   UNL     1      43.445  20.569  -3.023  1.00  0.00     0.096 C 
ATOM     12  C   UNL     1      43.016  20.260  -1.601  1.00  0.00    -0.066 C 
ATOM     13  C   UNL     1      43.699  20.783  -0.574  1.00  0.00     0.008 C 
ENDROOT
BRANCH   8  14
ATOM     14  C   UNL     1      44.575  17.698  -3.846  1.00  0.00    -0.009 C 
ATOM     15  C   UNL     1      45.365  17.329  -5.121  1.00  0.00     0.008 C 
ATOM     16  C   UNL     1      44.691  16.587  -2.793  1.00  0.00     0.008 C 
ENDBRANCH   8  14
BRANCH   9  17
ATOM     17  O   UNL     1      42.877  20.179  -5.339  1.00  0.00    -0.365 OA
ATOM     18  H   UNL     1      41.995  20.519  -5.643  1.00  0.00     0.214 HD
ENDBRANCH   9  17
TORSDOF 2
ENDMDL
MODEL 6
REMARK VINA RESULT:    -4.559      1.938      2.597
REMARK INTER + INTRA:          -5.276
REMARK INTER:                  -5.589
REMARK INTRA:                   0.313
REMARK UNBOUND:                -0.317
REMARK SMILES C=C1C[C@]2(O)O[C@]3(C[C@@H]2C(C)C)[C@H](C)CC[C@H]13
REMARK SMILES IDX 14 1 13 2 15 3 16 4 17 5 7 6 8 7 9 8 4 9 6 10 3 11 2 12 1 13
REMARK SMILES IDX 10 14 11 15 12 16 5 17
REMARK H PARENT 5 18
REMARK Flexibility Score: inf
ROOT
ATOM      1  C   UNL     1      39.598  15.971  -4.499  1.00  0.00     0.011 C 
ATOM      2  C   UNL     1      40.119  17.323  -5.011  1.00  0.00     0.019 C 
ATOM      3  C   UNL     1      41.186  17.162  -6.103  1.00  0.00     0.007 C 
ATOM      4  C   UNL     1      42.257  18.225  -5.846  1.00  0.00     0.011 C 
ATOM      5  C   UNL     1      41.734  19.104  -4.710  1.00  0.00     0.047 C 
ATOM      6  C   UNL     1      40.773  18.189  -3.924  1.00  0.00     0.081 C 
ATOM      7  C   UNL     1      39.779  18.994  -3.081  1.00  0.00     0.046 C 
ATOM      8  C   UNL     1      40.484  19.072  -1.731  1.00  0.00     0.054 C 
ATOM      9  C   UNL     1      41.811  18.297  -1.964  1.00  0.00     0.173 C 
ATOM     10  O   UNL     1      41.521  17.405  -3.017  1.00  0.00    -0.342 OA
ATOM     11  C   UNL     1      43.030  19.137  -2.416  1.00  0.00     0.096 C 
ATOM     12  C   UNL     1      42.849  19.653  -3.831  1.00  0.00    -0.066 C 
ATOM     13  C   UNL     1      43.693  20.574  -4.314  1.00  0.00     0.008 C 
ENDROOT
BRANCH   8  14
ATOM     14  C   UNL     1      40.475  20.482  -1.054  1.00  0.00    -0.009 C 
ATOM     15  C   UNL     1      41.814  21.000  -0.484  1.00  0.00     0.008 C 
ATOM     16  C   UNL     1      39.358  20.597  -0.008  1.00  0.00     0.008 C 
ENDBRANCH   8  14
BRANCH   9  17
ATOM     17  O   UNL     1      42.138  17.578  -0.801  1.00  0.00    -0.365 OA
ATOM     18  H   UNL     1      42.318  16.639  -1.070  1.00  0.00     0.214 HD
ENDBRANCH   9  17
TORSDOF 2
ENDMDL
MODEL 7
REMARK VINA RESULT:    -4.538      2.024      4.401
REMARK INTER + INTRA:          -5.253
REMARK INTER:                  -4.892
REMARK INTRA:                  -0.362
REMARK UNBOUND:                -0.317
REMARK SMILES C=C1C[C@]2(O)O[C@]3(C[C@@H]2C(C)C)[C@H](C)CC[C@H]13
REMARK SMILES IDX 14 1 13 2 15 3 16 4 17 5 7 6 8 7 9 8 4 9 6 10 3 11 2 12 1 13
REMARK SMILES IDX 10 14 11 15 12 16 5 17
REMARK H PARENT 5 18
REMARK Flexibility Score: inf
ROOT
ATOM      1  C   UNL     1      43.562  20.421  -0.906  1.00  0.00     0.011 C 
ATOM      2  C   UNL     1      43.348  20.191  -2.410  1.00  0.00     0.019 C 
ATOM      3  C   UNL     1      42.246  21.089  -2.988  1.00  0.00     0.007 C 
ATOM      4  C   UNL     1      41.450  20.242  -3.984  1.00  0.00     0.011 C 
ATOM      5  C   UNL     1      42.186  18.908  -4.106  1.00  0.00     0.047 C 
ATOM      6  C   UNL     1      42.934  18.755  -2.766  1.00  0.00     0.081 C 
ATOM      7  C   UNL     1      44.105  17.773  -2.873  1.00  0.00     0.046 C 
ATOM      8  C   UNL     1      43.468  16.458  -2.437  1.00  0.00     0.054 C 
ATOM      9  C   UNL     1      41.995  16.846  -2.129  1.00  0.00     0.173 C 
ATOM     10  O   UNL     1      42.050  18.217  -1.803  1.00  0.00    -0.342 OA
ATOM     11  C   UNL     1      40.987  16.706  -3.296  1.00  0.00     0.096 C 
ATOM     12  C   UNL     1      41.246  17.741  -4.374  1.00  0.00    -0.066 C 
ATOM     13  C   UNL     1      40.621  17.639  -5.555  1.00  0.00     0.008 C 
ENDROOT
BRANCH   8  14
ATOM     14  C   UNL     1      43.813  15.221  -3.330  1.00  0.00    -0.009 C 
ATOM     15  C   UNL     1      44.840  14.211  -2.771  1.00  0.00     0.008 C 
ATOM     16  C   UNL     1      44.188  15.643  -4.757  1.00  0.00     0.008 C 
ENDBRANCH   8  14
BRANCH   9  17
ATOM     17  O   UNL     1      41.543  16.106  -1.022  1.00  0.00    -0.365 OA
ATOM     18  H   UNL     1      41.891  16.548  -0.204  1.00  0.00     0.214 HD
ENDBRANCH   9  17
TORSDOF 2
ENDMDL
MODEL 8
REMARK VINA RESULT:    -4.351      1.335      1.556
REMARK INTER + INTRA:          -5.050
REMARK INTER:                  -4.743
REMARK INTRA:                  -0.306
REMARK UNBOUND:                -0.317
REMARK SMILES C=C1C[C@]2(O)O[C@]3(C[C@@H]2C(C)C)[C@H](C)CC[C@H]13
REMARK SMILES IDX 14 1 13 2 15 3 16 4 17 5 7 6 8 7 9 8 4 9 6 10 3 11 2 12 1 13
REMARK SMILES IDX 10 14 11 15 12 16 5 17
REMARK H PARENT 5 18
REMARK Flexibility Score: inf
ROOT
ATOM      1  C   UNL     1      43.658  14.908  -3.300  1.00  0.00     0.011 C 
ATOM      2  C   UNL     1      43.566  16.099  -4.265  1.00  0.00     0.019 C 
ATOM      3  C   UNL     1      44.947  16.586  -4.726  1.00  0.00     0.007 C 
ATOM      4  C   UNL     1      44.897  18.116  -4.764  1.00  0.00     0.011 C 
ATOM      5  C   UNL     1      43.447  18.510  -4.485  1.00  0.00     0.047 C 
ATOM      6  C   UNL     1      42.877  17.335  -3.665  1.00  0.00     0.081 C 
ATOM      7  C   UNL     1      41.347  17.287  -3.720  1.00  0.00     0.046 C 
ATOM      8  C   UNL     1      40.951  18.080  -2.479  1.00  0.00     0.054 C 
ATOM      9  C   UNL     1      42.314  18.492  -1.856  1.00  0.00     0.173 C 
ATOM     10  O   UNL     1      43.222  17.510  -2.306  1.00  0.00    -0.342 OA
ATOM     11  C   UNL     1      42.887  19.861  -2.293  1.00  0.00     0.096 C 
ATOM     12  C   UNL     1      43.331  19.834  -3.743  1.00  0.00    -0.066 C 
ATOM     13  C   UNL     1      43.648  20.980  -4.361  1.00  0.00     0.008 C 
ENDROOT
BRANCH   8  14
ATOM     14  C   UNL     1      39.806  19.124  -2.691  1.00  0.00    -0.009 C 
ATOM     15  C   UNL     1      38.875  19.404  -1.491  1.00  0.00     0.008 C 
ATOM     16  C   UNL     1      38.989  18.815  -3.953  1.00  0.00     0.008 C 
ENDBRANCH   8  14
BRANCH   9  17
ATOM     17  O   UNL     1      42.214  18.447  -0.453  1.00  0.00    -0.365 OA
ATOM     18  H   UNL     1      43.136  18.485  -0.086  1.00  0.00     0.214 HD
ENDBRANCH   9  17
TORSDOF 2
ENDMDL
MODEL 9
REMARK VINA RESULT:    -4.279      5.331      8.121
REMARK INTER + INTRA:          -4.971
REMARK INTER:                  -4.591
REMARK INTRA:                  -0.381
REMARK UNBOUND:                -0.317
REMARK SMILES C=C1C[C@]2(O)O[C@]3(C[C@@H]2C(C)C)[C@H](C)CC[C@H]13
REMARK SMILES IDX 14 1 13 2 15 3 16 4 17 5 7 6 8 7 9 8 4 9 6 10 3 11 2 12 1 13
REMARK SMILES IDX 10 14 11 15 12 16 5 17
REMARK H PARENT 5 18
REMARK Flexibility Score: inf
ROOT
ATOM      1  C   UNL     1      45.053  16.616  -5.058  1.00  0.00     0.011 C 
ATOM      2  C   UNL     1      46.424  16.566  -4.366  1.00  0.00     0.019 C 
ATOM      3  C   UNL     1      47.513  17.285  -5.173  1.00  0.00     0.007 C 
ATOM      4  C   UNL     1      48.786  16.442  -5.063  1.00  0.00     0.011 C 
ATOM      5  C   UNL     1      48.484  15.327  -4.063  1.00  0.00     0.047 C 
ATOM      6  C   UNL     1      46.955  15.143  -4.139  1.00  0.00     0.081 C 
ATOM      7  C   UNL     1      46.398  14.457  -2.887  1.00  0.00     0.046 C 
ATOM      8  C   UNL     1      46.393  12.988  -3.295  1.00  0.00     0.054 C 
ATOM      9  C   UNL     1      46.953  13.006  -4.745  1.00  0.00     0.173 C 
ATOM     10  O   UNL     1      46.646  14.295  -5.228  1.00  0.00    -0.342 OA
ATOM     11  C   UNL     1      48.483  12.827  -4.895  1.00  0.00     0.096 C 
ATOM     12  C   UNL     1      49.232  14.039  -4.376  1.00  0.00    -0.066 C 
ATOM     13  C   UNL     1      50.562  13.980  -4.220  1.00  0.00     0.008 C 
ENDROOT
BRANCH   8  14
ATOM     14  C   UNL     1      46.948  11.995  -2.222  1.00  0.00    -0.009 C 
ATOM     15  C   UNL     1      46.001  10.875  -1.738  1.00  0.00     0.008 C 
ATOM     16  C   UNL     1      47.562  12.742  -1.029  1.00  0.00     0.008 C 
ENDBRANCH   8  14
BRANCH   9  17
ATOM     17  O   UNL     1      46.285  12.034  -5.512  1.00  0.00    -0.365 OA
ATOM     18  H   UNL     1      45.696  11.522  -4.898  1.00  0.00     0.214 HD
ENDBRANCH   9  17
TORSDOF 2
ENDMDL
