MODEL 1
REMARK VINA RESULT:    -2.506      0.000      0.000
REMARK INTER + INTRA:          -3.329
REMARK INTER:                  -3.825
REMARK INTRA:                   0.496
REMARK UNBOUND:                 0.496
REMARK SMILES CC1=CCC[C@H](C)C(=O)C[C@@H](C(C)C)C(=O)C1
REMARK SMILES IDX 8 1 9 2 6 3 7 4 5 5 4 6 3 7 2 8 1 9 10 11 11 12 15 13 16 14
REMARK SMILES IDX 17 15 12 17 13 18 14 19
REMARK H PARENT
REMARK Flexibility Score: 70.00
ROOT
ATOM      1  C   UNL     1     -29.131 -11.504  22.482  1.00  0.00     0.136 C 
ATOM      2  O   UNL     1     -28.007 -11.230  22.087  1.00  0.00    -0.299 OA
ENDROOT
BRANCH   1   3
ATOM      3  C   UNL     1     -29.953 -12.538  21.745  1.00  0.00     0.053 C 
ATOM      4  C   UNL     1     -30.111 -12.171  20.265  1.00  0.00     0.016 C 
BRANCH   3   5
ATOM      5  C   UNL     1     -29.290 -13.926  21.919  1.00  0.00     0.015 C 
BRANCH   5   6
ATOM      6  C   UNL     1     -28.894 -14.309  23.358  1.00  0.00     0.028 C 
BRANCH   6   7
ATOM      7  C   UNL     1     -27.442 -14.124  23.747  1.00  0.00    -0.028 C 
ATOM      8  C   UNL     1     -26.969 -13.577  24.893  1.00  0.00    -0.070 CG0
ATOM      9  C   UNL     1     -25.476 -13.389  25.013  1.00  0.00     0.039 C 
ATOM     10  G   UNL     1     -27.832 -13.224  26.091  1.00  0.00     0.000 G0
ENDBRANCH   6   7
ENDBRANCH   5   6
ENDBRANCH   3   5
ENDBRANCH   1   3
BRANCH   1  11
ATOM     11  C   UNL     1     -29.649 -10.854  23.745  1.00  0.00     0.087 C 
BRANCH  11  12
ATOM     12  C   UNL     1     -28.651 -10.984  24.933  1.00  0.00     0.066 C 
BRANCH  12  13
ATOM     13  C   UNL     1     -28.919 -12.248  25.741  1.00  0.00     0.140 C 
ATOM     14  O   UNL     1     -30.057 -12.484  26.121  1.00  0.00    -0.299 OA
BRANCH  13  15
ATOM     15  C   UNL     1     -27.812 -13.215  26.111  1.00  0.00     0.106 CG0
ATOM     16  G   UNL     1     -26.968 -13.560  24.897  1.00  0.00     0.000 G0
ENDBRANCH  13  15
ENDBRANCH  12  13
BRANCH  12  17
ATOM     17  C   UNL     1     -28.638  -9.705  25.825  1.00  0.00    -0.006 C 
ATOM     18  C   UNL     1     -29.790  -8.754  25.463  1.00  0.00     0.008 C 
ATOM     19  C   UNL     1     -27.301  -8.944  25.815  1.00  0.00     0.008 C 
ENDBRANCH  12  17
ENDBRANCH  11  12
ENDBRANCH   1  11
TORSDOF 1
ENDMDL
MODEL 2
REMARK VINA RESULT:    -0.135      1.967      3.611
REMARK INTER + INTRA:           0.291
REMARK INTER:                  -2.570
REMARK INTRA:                   2.861
REMARK UNBOUND:                 0.496
REMARK SMILES CC1=CCC[C@H](C)C(=O)C[C@@H](C(C)C)C(=O)C1
REMARK SMILES IDX 8 1 9 2 6 3 7 4 5 5 4 6 3 7 2 8 1 9 10 11 11 12 15 13 16 14
REMARK SMILES IDX 17 15 12 17 13 18 14 19
REMARK H PARENT
REMARK Flexibility Score: 70.00
ROOT
ATOM      1  C   UNL     1     -26.790 -13.135  25.015  1.00  0.00     0.136 C 
ATOM      2  O   UNL     1     -25.750 -13.772  25.105  1.00  0.00    -0.299 OA
ENDROOT
BRANCH   1   3
ATOM      3  C   UNL     1     -28.103 -13.786  25.390  1.00  0.00     0.053 C 
ATOM      4  C   UNL     1     -29.110 -12.753  25.906  1.00  0.00     0.016 C 
BRANCH   3   5
ATOM      5  C   UNL     1     -28.653 -14.553  24.163  1.00  0.00     0.015 C 
BRANCH   5   6
ATOM      6  C   UNL     1     -27.978 -14.241  22.813  1.00  0.00     0.028 C 
BRANCH   6   7
ATOM      7  C   UNL     1     -28.851 -13.645  21.727  1.00  0.00    -0.028 C 
ATOM      8  C   UNL     1     -29.083 -12.330  21.499  1.00  0.00    -0.070 CG0
ATOM      9  C   UNL     1     -30.084 -11.973  20.428  1.00  0.00     0.039 C 
ATOM     10  G   UNL     1     -28.340 -11.199  22.188  1.00  0.00     0.000 G0
ENDBRANCH   6   7
ENDBRANCH   5   6
ENDBRANCH   3   5
ENDBRANCH   1   3
BRANCH   1  11
ATOM     11  C   UNL     1     -26.734 -11.683  24.598  1.00  0.00     0.087 C 
BRANCH  11  12
ATOM     12  C   UNL     1     -28.082 -10.942  24.838  1.00  0.00     0.066 C 
BRANCH  12  13
ATOM     13  C   UNL     1     -28.928 -10.916  23.571  1.00  0.00     0.140 C 
ATOM     14  O   UNL     1     -30.125 -10.679  23.657  1.00  0.00    -0.299 OA
BRANCH  13  15
ATOM     15  C   UNL     1     -28.338 -11.198  22.204  1.00  0.00     0.106 CG0
ATOM     16  G   UNL     1     -29.091 -12.319  21.510  1.00  0.00     0.000 G0
ENDBRANCH  13  15
ENDBRANCH  12  13
BRANCH  12  17
ATOM     17  C   UNL     1     -27.865  -9.516  25.431  1.00  0.00    -0.006 C 
ATOM     18  C   UNL     1     -29.194  -8.883  25.872  1.00  0.00     0.008 C 
ATOM     19  C   UNL     1     -27.104  -8.556  24.501  1.00  0.00     0.008 C 
ENDBRANCH  12  17
ENDBRANCH  11  12
ENDBRANCH   1  11
TORSDOF 1
ENDMDL
MODEL 3
REMARK VINA RESULT:    -0.048      1.938      4.307
REMARK INTER + INTRA:           0.422
REMARK INTER:                  -2.143
REMARK INTRA:                   2.565
REMARK UNBOUND:                 0.496
REMARK SMILES CC1=CCC[C@H](C)C(=O)C[C@@H](C(C)C)C(=O)C1
REMARK SMILES IDX 8 1 9 2 6 3 7 4 5 5 4 6 3 7 2 8 1 9 10 11 11 12 15 13 16 14
REMARK SMILES IDX 17 15 12 17 13 18 14 19
REMARK H PARENT
REMARK Flexibility Score: 70.00
ROOT
ATOM      1  C   UNL     1     -28.083 -13.864  23.628  1.00  0.00     0.136 C 
ATOM      2  O   UNL     1     -27.181 -14.010  24.442  1.00  0.00    -0.299 OA
ENDROOT
BRANCH   1   3
ATOM      3  C   UNL     1     -29.514 -13.766  24.106  1.00  0.00     0.053 C 
ATOM      4  C   UNL     1     -30.055 -15.136  24.530  1.00  0.00     0.016 C 
BRANCH   3   5
ATOM      5  C   UNL     1     -29.590 -12.741  25.264  1.00  0.00     0.015 C 
BRANCH   5   6
ATOM      6  C   UNL     1     -28.244 -12.340  25.899  1.00  0.00     0.028 C 
BRANCH   6   7
ATOM      7  C   UNL     1     -27.843 -10.882  25.802  1.00  0.00    -0.028 C 
ATOM      8  C   UNL     1     -27.183 -10.286  24.780  1.00  0.00    -0.070 CG0
ATOM      9  C   UNL     1     -26.787  -8.840  24.954  1.00  0.00     0.039 C 
ATOM     10  G   UNL     1     -26.897 -10.949  23.445  1.00  0.00     0.000 G0
ENDBRANCH   6   7
ENDBRANCH   5   6
ENDBRANCH   3   5
ENDBRANCH   1   3
BRANCH   1  11
ATOM     11  C   UNL     1     -27.738 -13.712  22.164  1.00  0.00     0.087 C 
BRANCH  11  12
ATOM     12  C   UNL     1     -28.186 -12.337  21.587  1.00  0.00     0.066 C 
BRANCH  12  13
ATOM     13  C   UNL     1     -28.144 -11.252  22.656  1.00  0.00     0.140 C 
ATOM     14  O   UNL     1     -29.153 -10.599  22.885  1.00  0.00    -0.299 OA
BRANCH  13  15
ATOM     15  C   UNL     1     -26.882 -10.939  23.435  1.00  0.00     0.106 CG0
ATOM     16  G   UNL     1     -27.214 -10.262  24.753  1.00  0.00     0.000 G0
ENDBRANCH  13  15
ENDBRANCH  12  13
BRANCH  12  17
ATOM     17  C   UNL     1     -29.578 -12.424  20.889  1.00  0.00    -0.006 C 
ATOM     18  C   UNL     1     -30.115 -13.864  20.881  1.00  0.00     0.008 C 
ATOM     19  C   UNL     1     -29.605 -11.841  19.465  1.00  0.00     0.008 C 
ENDBRANCH  12  17
ENDBRANCH  11  12
ENDBRANCH   1  11
TORSDOF 1
ENDMDL
