MODEL 1
REMARK VINA RESULT:    -7.008      0.000      0.000
REMARK INTER + INTRA:          -8.438
REMARK INTER:                  -8.442
REMARK INTRA:                   0.004
REMARK UNBOUND:                 0.004
REMARK SMILES Oc1cc(O)c2c(c1)O[C@H](c1ccc(O)c(O)c1)[C@@H](O)C2
REMARK SMILES IDX 21 1 19 2 10 3 9 4 7 5 8 6 2 7 3 8 4 9 6 10 20 11 11 13
REMARK SMILES IDX 18 14 12 15 16 16 13 17 14 18 17 19 15 21 5 23 1 25
REMARK H PARENT 20 12 17 20 15 22 5 24 1 26
REMARK Flexibility Score: inf
ROOT
ATOM      1  C   UNL     1      35.511  29.858  36.264  1.00  0.00     0.079 C 
ATOM      2  C   UNL     1      34.603  31.057  35.930  1.00  0.00     0.164 C 
ATOM      3  C   UNL     1      33.180  30.557  35.616  1.00  0.00     0.232 C 
ATOM      4  O   UNL     1      33.217  29.597  34.558  1.00  0.00    -0.482 OA
ATOM      5  C   UNL     1      34.254  28.669  34.423  1.00  0.00     0.131 A 
ATOM      6  C   UNL     1      34.145  27.651  33.471  1.00  0.00     0.093 A 
ATOM      7  C   UNL     1      35.172  26.711  33.321  1.00  0.00     0.122 A 
ATOM      8  C   UNL     1      36.310  26.791  34.129  1.00  0.00     0.092 A 
ATOM      9  C   UNL     1      36.434  27.810  35.084  1.00  0.00     0.126 A 
ATOM     10  C   UNL     1      35.412  28.769  35.222  1.00  0.00     0.039 A 
ENDROOT
BRANCH   2  11
ATOM     11  O   UNL     1      34.565  31.942  37.019  1.00  0.00    -0.389 OA
ATOM     12  H   UNL     1      33.949  31.544  37.689  1.00  0.00     0.211 HD
ENDBRANCH   2  11
BRANCH   3  13
ATOM     13  C   UNL     1      32.275  31.704  35.229  1.00  0.00    -0.001 A 
ATOM     14  C   UNL     1      32.821  32.937  34.837  1.00  0.00     0.057 A 
ATOM     15  C   UNL     1      30.879  31.536  35.211  1.00  0.00     0.012 A 
ATOM     16  C   UNL     1      31.989  33.994  34.451  1.00  0.00     0.157 A 
ATOM     17  C   UNL     1      30.046  32.589  34.828  1.00  0.00     0.050 A 
ATOM     18  C   UNL     1      30.594  33.821  34.447  1.00  0.00     0.157 A 
BRANCH  16  19
ATOM     19  O   UNL     1      32.566  35.206  34.072  1.00  0.00    -0.504 OA
ATOM     20  H   UNL     1      33.385  35.249  33.477  1.00  0.00     0.293 HD
ENDBRANCH  16  19
BRANCH  18  21
ATOM     21  O   UNL     1      29.761  34.871  34.065  1.00  0.00    -0.504 OA
ATOM     22  H   UNL     1      30.118  35.673  33.558  1.00  0.00     0.293 HD
ENDBRANCH  18  21
ENDBRANCH   3  13
BRANCH   9  23
ATOM     23  O   UNL     1      37.567  27.873  35.895  1.00  0.00    -0.507 OA
ATOM     24  H   UNL     1      38.304  28.548  35.724  1.00  0.00     0.293 HD
ENDBRANCH   9  23
BRANCH   7  25
ATOM     25  O   UNL     1      35.069  25.693  32.377  1.00  0.00    -0.508 OA
ATOM     26  H   UNL     1      35.204  25.871  31.388  1.00  0.00     0.293 HD
ENDBRANCH   7  25
TORSDOF 6
ENDMDL
MODEL 2
REMARK VINA RESULT:    -6.948      9.269     13.162
REMARK INTER + INTRA:          -8.365
REMARK INTER:                  -8.018
REMARK INTRA:                  -0.347
REMARK UNBOUND:                 0.004
REMARK SMILES Oc1cc(O)c2c(c1)O[C@H](c1ccc(O)c(O)c1)[C@@H](O)C2
REMARK SMILES IDX 21 1 19 2 10 3 9 4 7 5 8 6 2 7 3 8 4 9 6 10 20 11 11 13
REMARK SMILES IDX 18 14 12 15 16 16 13 17 14 18 17 19 15 21 5 23 1 25
REMARK H PARENT 20 12 17 20 15 22 5 24 1 26
REMARK Flexibility Score: inf
ROOT
ATOM      1  C   UNL     1      41.705  21.393  39.045  1.00  0.00     0.079 C 
ATOM      2  C   UNL     1      40.610  20.457  39.588  1.00  0.00     0.164 C 
ATOM      3  C   UNL     1      39.643  20.075  38.451  1.00  0.00     0.232 C 
ATOM      4  O   UNL     1      39.098  21.252  37.852  1.00  0.00    -0.482 OA
ATOM      5  C   UNL     1      39.847  22.420  37.676  1.00  0.00     0.131 A 
ATOM      6  C   UNL     1      39.309  23.474  36.932  1.00  0.00     0.093 A 
ATOM      7  C   UNL     1      40.042  24.652  36.743  1.00  0.00     0.122 A 
ATOM      8  C   UNL     1      41.318  24.772  37.301  1.00  0.00     0.092 A 
ATOM      9  C   UNL     1      41.866  23.724  38.054  1.00  0.00     0.126 A 
ATOM     10  C   UNL     1      41.122  22.547  38.262  1.00  0.00     0.039 A 
ENDROOT
BRANCH   2  11
ATOM     11  O   UNL     1      41.197  19.298  40.121  1.00  0.00    -0.389 OA
ATOM     12  H   UNL     1      41.023  19.313  41.098  1.00  0.00     0.211 HD
ENDBRANCH   2  11
BRANCH   3  13
ATOM     13  C   UNL     1      38.522  19.200  38.962  1.00  0.00    -0.001 A 
ATOM     14  C   UNL     1      38.262  17.958  38.358  1.00  0.00     0.057 A 
ATOM     15  C   UNL     1      37.759  19.594  40.073  1.00  0.00     0.012 A 
ATOM     16  C   UNL     1      37.243  17.131  38.843  1.00  0.00     0.157 A 
ATOM     17  C   UNL     1      36.741  18.771  40.559  1.00  0.00     0.050 A 
ATOM     18  C   UNL     1      36.476  17.538  39.948  1.00  0.00     0.157 A 
BRANCH  16  19
ATOM     19  O   UNL     1      37.009  15.907  38.216  1.00  0.00    -0.504 OA
ATOM     20  H   UNL     1      37.525  15.070  38.460  1.00  0.00     0.293 HD
ENDBRANCH  16  19
BRANCH  18  21
ATOM     21  O   UNL     1      35.459  16.718  40.434  1.00  0.00    -0.504 OA
ATOM     22  H   UNL     1      34.534  16.719  40.021  1.00  0.00     0.293 HD
ENDBRANCH  18  21
ENDBRANCH   3  13
BRANCH   9  23
ATOM     23  O   UNL     1      43.146  23.848  38.595  1.00  0.00    -0.507 OA
ATOM     24  H   UNL     1      43.975  23.664  38.042  1.00  0.00     0.293 HD
ENDBRANCH   9  23
BRANCH   7  25
ATOM     25  O   UNL     1      39.514  25.706  36.002  1.00  0.00    -0.508 OA
ATOM     26  H   UNL     1      38.867  25.545  35.239  1.00  0.00     0.293 HD
ENDBRANCH   7  25
TORSDOF 6
ENDMDL
MODEL 3
REMARK VINA RESULT:    -6.939      8.841     12.262
REMARK INTER + INTRA:          -8.354
REMARK INTER:                  -8.010
REMARK INTRA:                  -0.345
REMARK UNBOUND:                 0.004
REMARK SMILES Oc1cc(O)c2c(c1)O[C@H](c1ccc(O)c(O)c1)[C@@H](O)C2
REMARK SMILES IDX 21 1 19 2 10 3 9 4 7 5 8 6 2 7 3 8 4 9 6 10 20 11 11 13
REMARK SMILES IDX 18 14 12 15 16 16 13 17 14 18 17 19 15 21 5 23 1 25
REMARK H PARENT 20 12 17 20 15 22 5 24 1 26
REMARK Flexibility Score: inf
ROOT
ATOM      1  C   UNL     1      42.311  20.159  39.638  1.00  0.00     0.079 C 
ATOM      2  C   UNL     1      41.873  21.450  38.922  1.00  0.00     0.164 C 
ATOM      3  C   UNL     1      40.393  21.740  39.235  1.00  0.00     0.232 C 
ATOM      4  O   UNL     1      39.583  20.621  38.871  1.00  0.00    -0.482 OA
ATOM      5  C   UNL     1      40.014  19.299  39.033  1.00  0.00     0.131 A 
ATOM      6  C   UNL     1      39.113  18.253  38.818  1.00  0.00     0.093 A 
ATOM      7  C   UNL     1      39.523  16.923  38.975  1.00  0.00     0.122 A 
ATOM      8  C   UNL     1      40.841  16.643  39.350  1.00  0.00     0.092 A 
ATOM      9  C   UNL     1      41.755  17.684  39.564  1.00  0.00     0.126 A 
ATOM     10  C   UNL     1      41.350  19.021  39.385  1.00  0.00     0.039 A 
ENDROOT
BRANCH   2  11
ATOM     11  O   UNL     1      42.668  22.525  39.351  1.00  0.00    -0.389 OA
ATOM     12  H   UNL     1      43.583  22.359  39.005  1.00  0.00     0.211 HD
ENDBRANCH   2  11
BRANCH   3  13
ATOM     13  C   UNL     1      39.913  22.972  38.502  1.00  0.00    -0.001 A 
ATOM     14  C   UNL     1      39.633  22.914  37.127  1.00  0.00     0.057 A 
ATOM     15  C   UNL     1      39.697  24.175  39.195  1.00  0.00     0.012 A 
ATOM     16  C   UNL     1      39.162  24.043  36.448  1.00  0.00     0.157 A 
ATOM     17  C   UNL     1      39.228  25.304  38.521  1.00  0.00     0.050 A 
ATOM     18  C   UNL     1      38.959  25.246  37.146  1.00  0.00     0.157 A 
BRANCH  16  19
ATOM     19  O   UNL     1      38.899  23.951  35.082  1.00  0.00    -0.504 OA
ATOM     20  H   UNL     1      39.304  23.224  34.503  1.00  0.00     0.293 HD
ENDBRANCH  16  19
BRANCH  18  21
ATOM     21  O   UNL     1      38.492  26.374  36.474  1.00  0.00    -0.504 OA
ATOM     22  H   UNL     1      37.778  26.972  36.875  1.00  0.00     0.293 HD
ENDBRANCH  18  21
ENDBRANCH   3  13
BRANCH   9  23
ATOM     23  O   UNL     1      43.064  17.395  39.951  1.00  0.00    -0.507 OA
ATOM     24  H   UNL     1      43.857  17.871  39.536  1.00  0.00     0.293 HD
ENDBRANCH   9  23
BRANCH   7  25
ATOM     25  O   UNL     1      38.631  15.875  38.765  1.00  0.00    -0.508 OA
ATOM     26  H   UNL     1      37.753  16.016  38.279  1.00  0.00     0.293 HD
ENDBRANCH   7  25
TORSDOF 6
ENDMDL
MODEL 4
REMARK VINA RESULT:    -6.883     11.726     13.629
REMARK INTER + INTRA:          -8.286
REMARK INTER:                  -7.919
REMARK INTRA:                  -0.367
REMARK UNBOUND:                 0.004
REMARK SMILES Oc1cc(O)c2c(c1)O[C@H](c1ccc(O)c(O)c1)[C@@H](O)C2
REMARK SMILES IDX 21 1 19 2 10 3 9 4 7 5 8 6 2 7 3 8 4 9 6 10 20 11 11 13
REMARK SMILES IDX 18 14 12 15 16 16 13 17 14 18 17 19 15 21 5 23 1 25
REMARK H PARENT 20 12 17 20 15 22 5 24 1 26
REMARK Flexibility Score: inf
ROOT
ATOM      1  C   UNL     1      38.990  16.678  38.653  1.00  0.00     0.079 C 
ATOM      2  C   UNL     1      37.601  17.160  39.112  1.00  0.00     0.164 C 
ATOM      3  C   UNL     1      37.345  18.583  38.582  1.00  0.00     0.232 C 
ATOM      4  O   UNL     1      38.388  19.462  39.007  1.00  0.00    -0.482 OA
ATOM      5  C   UNL     1      39.723  19.055  39.095  1.00  0.00     0.131 A 
ATOM      6  C   UNL     1      40.715  20.005  39.352  1.00  0.00     0.093 A 
ATOM      7  C   UNL     1      42.058  19.618  39.444  1.00  0.00     0.122 A 
ATOM      8  C   UNL     1      42.406  18.274  39.277  1.00  0.00     0.092 A 
ATOM      9  C   UNL     1      41.419  17.311  39.024  1.00  0.00     0.126 A 
ATOM     10  C   UNL     1      40.067  17.695  38.953  1.00  0.00     0.039 A 
ENDROOT
BRANCH   2  11
ATOM     11  O   UNL     1      36.612  16.288  38.628  1.00  0.00    -0.389 OA
ATOM     12  H   UNL     1      37.035  15.747  37.912  1.00  0.00     0.211 HD
ENDBRANCH   2  11
BRANCH   3  13
ATOM     13  C   UNL     1      36.012  19.110  39.061  1.00  0.00    -0.001 A 
ATOM     14  C   UNL     1      34.977  19.357  38.144  1.00  0.00     0.057 A 
ATOM     15  C   UNL     1      35.776  19.313  40.432  1.00  0.00     0.012 A 
ATOM     16  C   UNL     1      33.731  19.819  38.584  1.00  0.00     0.157 A 
ATOM     17  C   UNL     1      34.534  19.774  40.874  1.00  0.00     0.050 A 
ATOM     18  C   UNL     1      33.507  20.030  39.956  1.00  0.00     0.157 A 
BRANCH  16  19
ATOM     19  O   UNL     1      32.728  20.058  37.646  1.00  0.00    -0.504 OA
ATOM     20  H   UNL     1      32.512  19.397  36.908  1.00  0.00     0.293 HD
ENDBRANCH  16  19
BRANCH  18  21
ATOM     21  O   UNL     1      32.269  20.491  40.399  1.00  0.00    -0.504 OA
ATOM     22  H   UNL     1      31.972  21.448  40.241  1.00  0.00     0.293 HD
ENDBRANCH  18  21
ENDBRANCH   3  13
BRANCH   9  23
ATOM     23  O   UNL     1      41.778  15.975  38.845  1.00  0.00    -0.507 OA
ATOM     24  H   UNL     1      42.749  15.691  38.777  1.00  0.00     0.293 HD
ENDBRANCH   9  23
BRANCH   7  25
ATOM     25  O   UNL     1      43.052  20.559  39.697  1.00  0.00    -0.508 OA
ATOM     26  H   UNL     1      43.885  20.619  39.121  1.00  0.00     0.293 HD
ENDBRANCH   7  25
TORSDOF 6
ENDMDL
MODEL 5
REMARK VINA RESULT:    -6.852     10.170     12.335
REMARK INTER + INTRA:          -8.250
REMARK INTER:                  -8.295
REMARK INTRA:                   0.045
REMARK UNBOUND:                 0.004
REMARK SMILES Oc1cc(O)c2c(c1)O[C@H](c1ccc(O)c(O)c1)[C@@H](O)C2
REMARK SMILES IDX 21 1 19 2 10 3 9 4 7 5 8 6 2 7 3 8 4 9 6 10 20 11 11 13
REMARK SMILES IDX 18 14 12 15 16 16 13 17 14 18 17 19 15 21 5 23 1 25
REMARK H PARENT 20 12 17 20 15 22 5 24 1 26
REMARK Flexibility Score: inf
ROOT
ATOM      1  C   UNL     1      37.673  34.730  46.934  1.00  0.00     0.079 C 
ATOM      2  C   UNL     1      38.696  34.843  45.789  1.00  0.00     0.164 C 
ATOM      3  C   UNL     1      37.961  34.847  44.436  1.00  0.00     0.232 C 
ATOM      4  O   UNL     1      37.144  33.681  44.315  1.00  0.00    -0.482 OA
ATOM      5  C   UNL     1      36.458  33.130  45.403  1.00  0.00     0.131 A 
ATOM      6  C   UNL     1      35.545  32.094  45.185  1.00  0.00     0.093 A 
ATOM      7  C   UNL     1      34.847  31.529  46.260  1.00  0.00     0.122 A 
ATOM      8  C   UNL     1      35.066  32.005  47.556  1.00  0.00     0.092 A 
ATOM      9  C   UNL     1      35.983  33.040  47.788  1.00  0.00     0.126 A 
ATOM     10  C   UNL     1      36.701  33.594  46.711  1.00  0.00     0.039 A 
ENDROOT
BRANCH   2  11
ATOM     11  O   UNL     1      39.437  36.027  45.929  1.00  0.00    -0.389 OA
ATOM     12  H   UNL     1      39.010  36.546  46.660  1.00  0.00     0.211 HD
ENDBRANCH   2  11
BRANCH   3  13
ATOM     13  C   UNL     1      38.940  34.901  43.285  1.00  0.00    -0.001 A 
ATOM     14  C   UNL     1      39.085  33.799  42.426  1.00  0.00     0.057 A 
ATOM     15  C   UNL     1      39.680  36.068  43.033  1.00  0.00     0.012 A 
ATOM     16  C   UNL     1      39.969  33.852  41.343  1.00  0.00     0.157 A 
ATOM     17  C   UNL     1      40.563  36.125  41.953  1.00  0.00     0.050 A 
ATOM     18  C   UNL     1      40.714  35.020  41.105  1.00  0.00     0.157 A 
BRANCH  16  19
ATOM     19  O   UNL     1      40.092  32.738  40.514  1.00  0.00    -0.504 OA
ATOM     20  H   UNL     1      40.799  32.680  39.790  1.00  0.00     0.293 HD
ENDBRANCH  16  19
BRANCH  18  21
ATOM     21  O   UNL     1      41.597  35.078  40.028  1.00  0.00    -0.504 OA
ATOM     22  H   UNL     1      41.379  35.606  39.191  1.00  0.00     0.293 HD
ENDBRANCH  18  21
ENDBRANCH   3  13
BRANCH   9  23
ATOM     23  O   UNL     1      36.184  33.517  49.083  1.00  0.00    -0.507 OA
ATOM     24  H   UNL     1      35.424  33.909  49.628  1.00  0.00     0.293 HD
ENDBRANCH   9  23
BRANCH   7  25
ATOM     25  O   UNL     1      33.934  30.499  46.050  1.00  0.00    -0.508 OA
ATOM     26  H   UNL     1      32.958  30.688  45.851  1.00  0.00     0.293 HD
ENDBRANCH   7  25
TORSDOF 6
ENDMDL
MODEL 6
REMARK VINA RESULT:    -6.832     11.588     13.715
REMARK INTER + INTRA:          -8.225
REMARK INTER:                  -7.861
REMARK INTRA:                  -0.364
REMARK UNBOUND:                 0.004
REMARK SMILES Oc1cc(O)c2c(c1)O[C@H](c1ccc(O)c(O)c1)[C@@H](O)C2
REMARK SMILES IDX 21 1 19 2 10 3 9 4 7 5 8 6 2 7 3 8 4 9 6 10 20 11 11 13
REMARK SMILES IDX 18 14 12 15 16 16 13 17 14 18 17 19 15 21 5 23 1 25
REMARK H PARENT 20 12 17 20 15 22 5 24 1 26
REMARK Flexibility Score: inf
ROOT
ATOM      1  C   UNL     1      37.569  17.354  39.283  1.00  0.00     0.079 C 
ATOM      2  C   UNL     1      38.523  18.404  38.685  1.00  0.00     0.164 C 
ATOM      3  C   UNL     1      38.859  19.465  39.750  1.00  0.00     0.232 C 
ATOM      4  O   UNL     1      37.659  20.053  40.256  1.00  0.00    -0.482 OA
ATOM      5  C   UNL     1      36.487  19.315  40.450  1.00  0.00     0.131 A 
ATOM      6  C   UNL     1      35.404  19.909  41.105  1.00  0.00     0.093 A 
ATOM      7  C   UNL     1      34.221  19.187  41.311  1.00  0.00     0.122 A 
ATOM      8  C   UNL     1      34.125  17.868  40.859  1.00  0.00     0.092 A 
ATOM      9  C   UNL     1      35.203  17.264  40.195  1.00  0.00     0.126 A 
ATOM     10  C   UNL     1      36.385  17.994  39.970  1.00  0.00     0.039 A 
ENDROOT
BRANCH   2  11
ATOM     11  O   UNL     1      39.703  17.780  38.248  1.00  0.00    -0.389 OA
ATOM     12  H   UNL     1      40.445  18.167  38.783  1.00  0.00     0.211 HD
ENDBRANCH   2  11
BRANCH   3  13
ATOM     13  C   UNL     1      39.751  20.544  39.180  1.00  0.00    -0.001 A 
ATOM     14  C   UNL     1      41.010  20.796  39.749  1.00  0.00     0.057 A 
ATOM     15  C   UNL     1      39.353  21.274  38.048  1.00  0.00     0.012 A 
ATOM     16  C   UNL     1      41.853  21.775  39.210  1.00  0.00     0.157 A 
ATOM     17  C   UNL     1      40.190  22.252  37.507  1.00  0.00     0.050 A 
ATOM     18  C   UNL     1      41.442  22.509  38.084  1.00  0.00     0.157 A 
BRANCH  16  19
ATOM     19  O   UNL     1      43.094  22.001  39.803  1.00  0.00    -0.504 OA
ATOM     20  H   UNL     1      43.274  22.814  40.381  1.00  0.00     0.293 HD
ENDBRANCH  16  19
BRANCH  18  21
ATOM     21  O   UNL     1      42.276  23.486  37.544  1.00  0.00    -0.504 OA
ATOM     22  H   UNL     1      42.695  23.377  36.627  1.00  0.00     0.293 HD
ENDBRANCH  18  21
ENDBRANCH   3  13
BRANCH   9  23
ATOM     23  O   UNL     1      35.102  15.942  39.761  1.00  0.00    -0.507 OA
ATOM     24  H   UNL     1      35.882  15.468  39.321  1.00  0.00     0.293 HD
ENDBRANCH   9  23
BRANCH   7  25
ATOM     25  O   UNL     1      33.139  19.770  41.964  1.00  0.00    -0.508 OA
ATOM     26  H   UNL     1      32.610  20.527  41.545  1.00  0.00     0.293 HD
ENDBRANCH   7  25
TORSDOF 6
ENDMDL
MODEL 7
REMARK VINA RESULT:    -6.819      6.224      9.032
REMARK INTER + INTRA:          -8.210
REMARK INTER:                  -7.862
REMARK INTRA:                  -0.349
REMARK UNBOUND:                 0.004
REMARK SMILES Oc1cc(O)c2c(c1)O[C@H](c1ccc(O)c(O)c1)[C@@H](O)C2
REMARK SMILES IDX 21 1 19 2 10 3 9 4 7 5 8 6 2 7 3 8 4 9 6 10 20 11 11 13
REMARK SMILES IDX 18 14 12 15 16 16 13 17 14 18 17 19 15 21 5 23 1 25
REMARK H PARENT 20 12 17 20 15 22 5 24 1 26
REMARK Flexibility Score: inf
ROOT
ATOM      1  C   UNL     1      40.858  24.006  36.755  1.00  0.00     0.079 C 
ATOM      2  C   UNL     1      39.449  24.189  36.163  1.00  0.00     0.164 C 
ATOM      3  C   UNL     1      39.557  24.719  34.720  1.00  0.00     0.232 C 
ATOM      4  O   UNL     1      40.314  25.930  34.695  1.00  0.00    -0.482 OA
ATOM      5  C   UNL     1      41.418  26.142  35.529  1.00  0.00     0.131 A 
ATOM      6  C   UNL     1      42.215  27.274  35.336  1.00  0.00     0.093 A 
ATOM      7  C   UNL     1      43.324  27.505  36.159  1.00  0.00     0.122 A 
ATOM      8  C   UNL     1      43.635  26.597  37.176  1.00  0.00     0.092 A 
ATOM      9  C   UNL     1      42.840  25.461  37.382  1.00  0.00     0.126 A 
ATOM     10  C   UNL     1      41.712  25.239  36.569  1.00  0.00     0.039 A 
ENDROOT
BRANCH   2  11
ATOM     11  O   UNL     1      38.768  22.961  36.167  1.00  0.00    -0.389 OA
ATOM     12  H   UNL     1      38.011  23.057  36.803  1.00  0.00     0.211 HD
ENDBRANCH   2  11
BRANCH   3  13
ATOM     13  C   UNL     1      38.189  24.964  34.127  1.00  0.00    -0.001 A 
ATOM     14  C   UNL     1      37.690  24.117  33.123  1.00  0.00     0.057 A 
ATOM     15  C   UNL     1      37.381  26.010  34.604  1.00  0.00     0.012 A 
ATOM     16  C   UNL     1      36.414  24.322  32.588  1.00  0.00     0.157 A 
ATOM     17  C   UNL     1      36.107  26.218  34.072  1.00  0.00     0.050 A 
ATOM     18  C   UNL     1      35.617  25.378  33.063  1.00  0.00     0.157 A 
BRANCH  16  19
ATOM     19  O   UNL     1      35.953  23.465  31.589  1.00  0.00    -0.504 OA
ATOM     20  H   UNL     1      35.026  23.055  31.616  1.00  0.00     0.293 HD
ENDBRANCH  16  19
BRANCH  18  21
ATOM     21  O   UNL     1      34.345  25.587  32.532  1.00  0.00    -0.504 OA
ATOM     22  H   UNL     1      33.855  26.465  32.659  1.00  0.00     0.293 HD
ENDBRANCH  18  21
ENDBRANCH   3  13
BRANCH   9  23
ATOM     23  O   UNL     1      43.167  24.554  38.390  1.00  0.00    -0.507 OA
ATOM     24  H   UNL     1      43.997  23.976  38.334  1.00  0.00     0.293 HD
ENDBRANCH   9  23
BRANCH   7  25
ATOM     25  O   UNL     1      44.125  28.629  35.972  1.00  0.00    -0.508 OA
ATOM     26  H   UNL     1      45.127  28.551  35.848  1.00  0.00     0.293 HD
ENDBRANCH   7  25
TORSDOF 6
ENDMDL
MODEL 8
REMARK VINA RESULT:    -6.817     12.286     13.655
REMARK INTER + INTRA:          -8.207
REMARK INTER:                  -7.837
REMARK INTRA:                  -0.371
REMARK UNBOUND:                 0.004
REMARK SMILES Oc1cc(O)c2c(c1)O[C@H](c1ccc(O)c(O)c1)[C@@H](O)C2
REMARK SMILES IDX 21 1 19 2 10 3 9 4 7 5 8 6 2 7 3 8 4 9 6 10 20 11 11 13
REMARK SMILES IDX 18 14 12 15 16 16 13 17 14 18 17 19 15 21 5 23 1 25
REMARK H PARENT 20 12 17 20 15 22 5 24 1 26
REMARK Flexibility Score: inf
ROOT
ATOM      1  C   UNL     1      38.385  17.686  38.767  1.00  0.00     0.079 C 
ATOM      2  C   UNL     1      37.048  17.493  39.506  1.00  0.00     0.164 C 
ATOM      3  C   UNL     1      36.183  18.758  39.351  1.00  0.00     0.232 C 
ATOM      4  O   UNL     1      36.898  19.904  39.819  1.00  0.00    -0.482 OA
ATOM      5  C   UNL     1      38.276  20.056  39.633  1.00  0.00     0.131 A 
ATOM      6  C   UNL     1      38.882  21.272  39.962  1.00  0.00     0.093 A 
ATOM      7  C   UNL     1      40.260  21.446  39.782  1.00  0.00     0.122 A 
ATOM      8  C   UNL     1      41.031  20.397  39.271  1.00  0.00     0.092 A 
ATOM      9  C   UNL     1      40.435  19.172  38.942  1.00  0.00     0.126 A 
ATOM     10  C   UNL     1      39.054  18.988  39.142  1.00  0.00     0.039 A 
ENDROOT
BRANCH   2  11
ATOM     11  O   UNL     1      36.367  16.386  38.976  1.00  0.00    -0.389 OA
ATOM     12  H   UNL     1      35.872  16.710  38.178  1.00  0.00     0.211 HD
ENDBRANCH   2  11
BRANCH   3  13
ATOM     13  C   UNL     1      34.884  18.626  40.112  1.00  0.00    -0.001 A 
ATOM     14  C   UNL     1      33.657  18.656  39.428  1.00  0.00     0.057 A 
ATOM     15  C   UNL     1      34.889  18.423  41.502  1.00  0.00     0.012 A 
ATOM     16  C   UNL     1      32.451  18.506  40.123  1.00  0.00     0.157 A 
ATOM     17  C   UNL     1      33.688  18.274  42.199  1.00  0.00     0.050 A 
ATOM     18  C   UNL     1      32.465  18.315  41.516  1.00  0.00     0.157 A 
BRANCH  16  19
ATOM     19  O   UNL     1      31.252  18.546  39.413  1.00  0.00    -0.504 OA
ATOM     20  H   UNL     1      30.357  18.665  39.874  1.00  0.00     0.293 HD
ENDBRANCH  16  19
BRANCH  18  21
ATOM     21  O   UNL     1      31.267  18.167  42.212  1.00  0.00    -0.504 OA
ATOM     22  H   UNL     1      30.973  18.840  42.911  1.00  0.00     0.293 HD
ENDBRANCH  18  21
ENDBRANCH   3  13
BRANCH   9  23
ATOM     23  O   UNL     1      41.210  18.137  38.419  1.00  0.00    -0.507 OA
ATOM     24  H   UNL     1      40.810  17.427  37.817  1.00  0.00     0.293 HD
ENDBRANCH   9  23
BRANCH   7  25
ATOM     25  O   UNL     1      40.871  22.654  40.106  1.00  0.00    -0.508 OA
ATOM     26  H   UNL     1      41.361  23.204  39.409  1.00  0.00     0.293 HD
ENDBRANCH   7  25
TORSDOF 6
ENDMDL
MODEL 9
REMARK VINA RESULT:    -6.714      9.432     11.881
REMARK INTER + INTRA:          -8.083
REMARK INTER:                  -7.713
REMARK INTRA:                  -0.370
REMARK UNBOUND:                 0.004
REMARK SMILES Oc1cc(O)c2c(c1)O[C@H](c1ccc(O)c(O)c1)[C@@H](O)C2
REMARK SMILES IDX 21 1 19 2 10 3 9 4 7 5 8 6 2 7 3 8 4 9 6 10 20 11 11 13
REMARK SMILES IDX 18 14 12 15 16 16 13 17 14 18 17 19 15 21 5 23 1 25
REMARK H PARENT 20 12 17 20 15 22 5 24 1 26
REMARK Flexibility Score: inf
ROOT
ATOM      1  C   UNL     1      38.375  34.990  46.065  1.00  0.00     0.079 C 
ATOM      2  C   UNL     1      38.832  34.580  44.653  1.00  0.00     0.164 C 
ATOM      3  C   UNL     1      37.601  34.283  43.776  1.00  0.00     0.232 C 
ATOM      4  O   UNL     1      36.788  33.283  44.391  1.00  0.00    -0.482 OA
ATOM      5  C   UNL     1      36.606  33.210  45.776  1.00  0.00     0.131 A 
ATOM      6  C   UNL     1      35.667  32.317  46.299  1.00  0.00     0.093 A 
ATOM      7  C   UNL     1      35.469  32.230  47.682  1.00  0.00     0.122 A 
ATOM      8  C   UNL     1      36.214  33.042  48.543  1.00  0.00     0.092 A 
ATOM      9  C   UNL     1      37.163  33.937  48.031  1.00  0.00     0.126 A 
ATOM     10  C   UNL     1      37.378  34.011  46.641  1.00  0.00     0.039 A 
ENDROOT
BRANCH   2  11
ATOM     11  O   UNL     1      39.585  35.617  44.078  1.00  0.00    -0.389 OA
ATOM     12  H   UNL     1      38.971  36.390  43.971  1.00  0.00     0.211 HD
ENDBRANCH   2  11
BRANCH   3  13
ATOM     13  C   UNL     1      38.014  33.824  42.397  1.00  0.00    -0.001 A 
ATOM     14  C   UNL     1      37.694  34.595  41.267  1.00  0.00     0.057 A 
ATOM     15  C   UNL     1      38.764  32.646  42.232  1.00  0.00     0.012 A 
ATOM     16  C   UNL     1      38.097  34.189  39.990  1.00  0.00     0.157 A 
ATOM     17  C   UNL     1      39.167  32.238  40.959  1.00  0.00     0.050 A 
ATOM     18  C   UNL     1      38.836  33.004  39.833  1.00  0.00     0.157 A 
BRANCH  16  19
ATOM     19  O   UNL     1      37.757  34.977  38.891  1.00  0.00    -0.504 OA
ATOM     20  H   UNL     1      37.415  35.925  38.993  1.00  0.00     0.293 HD
ENDBRANCH  16  19
BRANCH  18  21
ATOM     21  O   UNL     1      39.239  32.595  38.563  1.00  0.00    -0.504 OA
ATOM     22  H   UNL     1      39.931  33.114  38.033  1.00  0.00     0.293 HD
ENDBRANCH  18  21
ENDBRANCH   3  13
BRANCH   9  23
ATOM     23  O   UNL     1      37.892  34.753  48.897  1.00  0.00    -0.507 OA
ATOM     24  H   UNL     1      37.471  35.557  49.348  1.00  0.00     0.293 HD
ENDBRANCH   9  23
BRANCH   7  25
ATOM     25  O   UNL     1      34.533  31.345  48.211  1.00  0.00    -0.508 OA
ATOM     26  H   UNL     1      34.787  30.399  48.473  1.00  0.00     0.293 HD
ENDBRANCH   7  25
TORSDOF 6
ENDMDL
