MODEL 1
REMARK VINA RESULT:    -4.347      0.000      0.000
REMARK INTER + INTRA:          -6.247
REMARK INTER:                  -5.872
REMARK INTRA:                  -0.376
REMARK UNBOUND:                -0.376
REMARK SMILES CCCCCCCC(=O)[O-]
REMARK SMILES IDX 5 1 6 2 7 3 8 4 9 5 10 6 4 7 3 8 2 9 1 10
REMARK H PARENT
REMARK Flexibility Score: inf
ROOT
ATOM      1  C   UNL     1     -99.356 -60.789 -66.870  1.00  0.00     0.000 C 
ENDROOT
BRANCH   1   2
ATOM      2  C   UNL     1     -99.745 -61.458 -65.543  1.00  0.00     0.006 C 
BRANCH   2   3
ATOM      3  C   UNL     1     -98.527 -61.731 -64.650  1.00  0.00     0.053 C 
BRANCH   3   4
ATOM      4  C   UNL     1     -98.679 -63.004 -63.877  1.00  0.00     0.041 C 
ATOM      5  O   UNL     1     -99.825 -63.441 -63.592  1.00  0.00    -0.550 OA
ATOM      6  O   UNL     1     -97.554 -63.692 -63.440  1.00  0.00    -0.550 OA
ENDBRANCH   3   4
ENDBRANCH   2   3
ENDBRANCH   1   2
BRANCH   1   7
ATOM      7  C   UNL     1     -99.244 -59.266 -66.705  1.00  0.00     0.000 C 
BRANCH   7   8
ATOM      8  C   UNL     1     -97.821 -58.737 -66.958  1.00  0.00    -0.000 C 
BRANCH   8   9
ATOM      9  C   UNL     1     -97.291 -57.770 -65.884  1.00  0.00    -0.003 C 
ATOM     10  C   UNL     1     -96.502 -58.474 -64.782  1.00  0.00     0.004 C 
ENDBRANCH   8   9
ENDBRANCH   7   8
ENDBRANCH   1   7
TORSDOF 6
ENDMDL
MODEL 2
REMARK VINA RESULT:    -4.106      2.677      4.499
REMARK INTER + INTRA:          -5.922
REMARK INTER:                  -5.558
REMARK INTRA:                  -0.364
REMARK UNBOUND:                -0.376
REMARK SMILES CCCCCCCC(=O)[O-]
REMARK SMILES IDX 5 1 6 2 7 3 8 4 9 5 10 6 4 7 3 8 2 9 1 10
REMARK H PARENT
REMARK Flexibility Score: inf
ROOT
ATOM      1  C   UNL     1    -100.267 -60.632 -66.947  1.00  0.00     0.000 C 
ENDROOT
BRANCH   1   2
ATOM      2  C   UNL     1     -99.680 -59.339 -66.361  1.00  0.00     0.006 C 
BRANCH   2   3
ATOM      3  C   UNL     1     -98.289 -59.023 -66.928  1.00  0.00     0.053 C 
BRANCH   3   4
ATOM      4  C   UNL     1     -97.347 -58.556 -65.862  1.00  0.00     0.041 C 
ATOM      5  O   UNL     1     -96.775 -57.439 -65.967  1.00  0.00    -0.550 OA
ATOM      6  O   UNL     1     -97.072 -59.369 -64.770  1.00  0.00    -0.550 OA
ENDBRANCH   3   4
ENDBRANCH   2   3
ENDBRANCH   1   2
BRANCH   1   7
ATOM      7  C   UNL     1     -99.627 -61.869 -66.299  1.00  0.00     0.000 C 
BRANCH   7   8
ATOM      8  C   UNL     1     -99.741 -61.869 -64.764  1.00  0.00    -0.000 C 
BRANCH   8   9
ATOM      9  C   UNL     1     -98.500 -62.401 -64.024  1.00  0.00    -0.003 C 
ATOM     10  C   UNL     1     -98.608 -63.882 -63.666  1.00  0.00     0.004 C 
ENDBRANCH   8   9
ENDBRANCH   7   8
ENDBRANCH   1   7
TORSDOF 6
ENDMDL
MODEL 3
REMARK VINA RESULT:    -3.726      2.600      4.393
REMARK INTER + INTRA:          -5.408
REMARK INTER:                  -5.040
REMARK INTRA:                  -0.368
REMARK UNBOUND:                -0.376
REMARK SMILES CCCCCCCC(=O)[O-]
REMARK SMILES IDX 5 1 6 2 7 3 8 4 9 5 10 6 4 7 3 8 2 9 1 10
REMARK H PARENT
REMARK Flexibility Score: inf
ROOT
ATOM      1  C   UNL     1     -99.858 -59.279 -66.613  1.00  0.00     0.000 C 
ENDROOT
BRANCH   1   2
ATOM      2  C   UNL     1     -98.355 -59.477 -66.858  1.00  0.00     0.006 C 
BRANCH   2   3
ATOM      3  C   UNL     1     -97.507 -58.405 -66.160  1.00  0.00     0.053 C 
BRANCH   3   4
ATOM      4  C   UNL     1     -96.905 -58.912 -64.886  1.00  0.00     0.041 C 
ATOM      5  O   UNL     1     -97.162 -60.078 -64.485  1.00  0.00    -0.550 OA
ATOM      6  O   UNL     1     -96.089 -58.088 -64.124  1.00  0.00    -0.550 OA
ENDBRANCH   3   4
ENDBRANCH   2   3
ENDBRANCH   1   2
BRANCH   1   7
ATOM      7  C   UNL     1    -100.620 -60.603 -66.776  1.00  0.00     0.000 C 
BRANCH   7   8
ATOM      8  C   UNL     1     -99.690 -61.829 -66.825  1.00  0.00    -0.000 C 
BRANCH   8   9
ATOM      9  C   UNL     1     -99.908 -62.757 -68.033  1.00  0.00    -0.003 C 
ATOM     10  C   UNL     1     -98.741 -62.738 -69.019  1.00  0.00     0.004 C 
ENDBRANCH   8   9
ENDBRANCH   7   8
ENDBRANCH   1   7
TORSDOF 6
ENDMDL
MODEL 4
REMARK VINA RESULT:    -3.173      2.728      4.439
REMARK INTER + INTRA:          -4.662
REMARK INTER:                  -4.359
REMARK INTRA:                  -0.303
REMARK UNBOUND:                -0.376
REMARK SMILES CCCCCCCC(=O)[O-]
REMARK SMILES IDX 5 1 6 2 7 3 8 4 9 5 10 6 4 7 3 8 2 9 1 10
REMARK H PARENT
REMARK Flexibility Score: inf
ROOT
ATOM      1  C   UNL     1     -98.703 -59.096 -67.131  1.00  0.00     0.000 C 
ENDROOT
BRANCH   1   2
ATOM      2  C   UNL     1     -97.314 -58.487 -66.886  1.00  0.00     0.006 C 
BRANCH   2   3
ATOM      3  C   UNL     1     -97.256 -57.681 -65.581  1.00  0.00     0.053 C 
BRANCH   3   4
ATOM      4  C   UNL     1     -96.406 -58.353 -64.549  1.00  0.00     0.041 C 
ATOM      5  O   UNL     1     -96.626 -59.551 -64.228  1.00  0.00    -0.550 OA
ATOM      6  O   UNL     1     -95.392 -57.648 -63.913  1.00  0.00    -0.550 OA
ENDBRANCH   3   4
ENDBRANCH   2   3
ENDBRANCH   1   2
BRANCH   1   7
ATOM      7  C   UNL     1     -98.739 -60.572 -66.705  1.00  0.00     0.000 C 
BRANCH   7   8
ATOM      8  C   UNL     1    -100.169 -61.102 -66.496  1.00  0.00    -0.000 C 
BRANCH   8   9
ATOM      9  C   UNL     1    -101.271 -60.029 -66.554  1.00  0.00    -0.003 C 
ATOM     10  C   UNL     1    -101.763 -59.601 -65.173  1.00  0.00     0.004 C 
ENDBRANCH   8   9
ENDBRANCH   7   8
ENDBRANCH   1   7
TORSDOF 6
ENDMDL
MODEL 5
REMARK VINA RESULT:    -3.150      3.816      4.685
REMARK INTER + INTRA:          -4.630
REMARK INTER:                  -4.434
REMARK INTRA:                  -0.197
REMARK UNBOUND:                -0.376
REMARK SMILES CCCCCCCC(=O)[O-]
REMARK SMILES IDX 5 1 6 2 7 3 8 4 9 5 10 6 4 7 3 8 2 9 1 10
REMARK H PARENT
REMARK Flexibility Score: inf
ROOT
ATOM      1  C   UNL     1     -98.854 -63.086 -68.858  1.00  0.00     0.000 C 
ENDROOT
BRANCH   1   2
ATOM      2  C   UNL     1    -100.065 -62.428 -68.181  1.00  0.00     0.006 C 
BRANCH   2   3
ATOM      3  C   UNL     1     -99.741 -61.930 -66.766  1.00  0.00     0.053 C 
BRANCH   3   4
ATOM      4  C   UNL     1    -100.064 -60.477 -66.599  1.00  0.00     0.041 C 
ATOM      5  O   UNL     1    -101.213 -60.122 -66.226  1.00  0.00    -0.550 OA
ATOM      6  O   UNL     1     -99.107 -59.513 -66.889  1.00  0.00    -0.550 OA
ENDBRANCH   3   4
ENDBRANCH   2   3
ENDBRANCH   1   2
BRANCH   1   7
ATOM      7  C   UNL     1     -97.977 -62.037 -69.557  1.00  0.00     0.000 C 
BRANCH   7   8
ATOM      8  C   UNL     1     -96.736 -62.645 -70.234  1.00  0.00    -0.000 C 
BRANCH   8   9
ATOM      9  C   UNL     1     -95.558 -61.672 -70.418  1.00  0.00    -0.003 C 
ATOM     10  C   UNL     1     -95.938 -60.416 -71.200  1.00  0.00     0.004 C 
ENDBRANCH   8   9
ENDBRANCH   7   8
ENDBRANCH   1   7
TORSDOF 6
ENDMDL
MODEL 6
REMARK VINA RESULT:    -3.138      4.423      5.422
REMARK INTER + INTRA:          -4.614
REMARK INTER:                  -4.294
REMARK INTRA:                  -0.320
REMARK UNBOUND:                -0.376
REMARK SMILES CCCCCCCC(=O)[O-]
REMARK SMILES IDX 5 1 6 2 7 3 8 4 9 5 10 6 4 7 3 8 2 9 1 10
REMARK H PARENT
REMARK Flexibility Score: inf
ROOT
ATOM      1  C   UNL     1     -99.379 -63.093 -68.326  1.00  0.00     0.000 C 
ENDROOT
BRANCH   1   2
ATOM      2  C   UNL     1     -98.670 -62.183 -69.340  1.00  0.00     0.006 C 
BRANCH   2   3
ATOM      3  C   UNL     1     -97.336 -62.773 -69.818  1.00  0.00     0.053 C 
BRANCH   3   4
ATOM      4  C   UNL     1     -96.582 -61.814 -70.685  1.00  0.00     0.041 C 
ATOM      5  O   UNL     1     -95.653 -61.116 -70.200  1.00  0.00    -0.550 OA
ATOM      6  O   UNL     1     -96.927 -61.665 -72.022  1.00  0.00    -0.550 OA
ENDBRANCH   3   4
ENDBRANCH   2   3
ENDBRANCH   1   2
BRANCH   1   7
ATOM      7  C   UNL     1     -99.750 -62.315 -67.055  1.00  0.00     0.000 C 
BRANCH   7   8
ATOM      8  C   UNL     1    -100.529 -61.021 -67.349  1.00  0.00    -0.000 C 
BRANCH   8   9
ATOM      9  C   UNL     1    -100.078 -59.796 -66.533  1.00  0.00    -0.003 C 
ATOM     10  C   UNL     1     -98.661 -59.340 -66.874  1.00  0.00     0.004 C 
ENDBRANCH   8   9
ENDBRANCH   7   8
ENDBRANCH   1   7
TORSDOF 6
ENDMDL
MODEL 7
REMARK VINA RESULT:    -2.955     14.855     15.298
REMARK INTER + INTRA:          -4.367
REMARK INTER:                  -3.943
REMARK INTRA:                  -0.424
REMARK UNBOUND:                -0.376
REMARK SMILES CCCCCCCC(=O)[O-]
REMARK SMILES IDX 5 1 6 2 7 3 8 4 9 5 10 6 4 7 3 8 2 9 1 10
REMARK H PARENT
REMARK Flexibility Score: inf
ROOT
ATOM      1  C   UNL     1     -97.591 -46.050 -68.657  1.00  0.00     0.000 C 
ENDROOT
BRANCH   1   2
ATOM      2  C   UNL     1     -98.420 -46.863 -69.663  1.00  0.00     0.006 C 
BRANCH   2   3
ATOM      3  C   UNL     1     -98.152 -46.440 -71.113  1.00  0.00     0.053 C 
BRANCH   3   4
ATOM      4  C   UNL     1     -98.136 -47.613 -72.042  1.00  0.00     0.041 C 
ATOM      5  O   UNL     1     -99.210 -48.194 -72.350  1.00  0.00    -0.550 OA
ATOM      6  O   UNL     1     -96.931 -48.090 -72.541  1.00  0.00    -0.550 OA
ENDBRANCH   3   4
ENDBRANCH   2   3
ENDBRANCH   1   2
BRANCH   1   7
ATOM      7  C   UNL     1     -96.238 -45.645 -69.261  1.00  0.00     0.000 C 
BRANCH   7   8
ATOM      8  C   UNL     1     -95.060 -45.862 -68.294  1.00  0.00    -0.000 C 
BRANCH   8   9
ATOM      9  C   UNL     1     -94.052 -46.937 -68.736  1.00  0.00    -0.003 C 
ATOM     10  C   UNL     1     -94.254 -47.388 -70.182  1.00  0.00     0.004 C 
ENDBRANCH   8   9
ENDBRANCH   7   8
ENDBRANCH   1   7
TORSDOF 6
ENDMDL
MODEL 8
REMARK VINA RESULT:    -2.885     14.928     15.681
REMARK INTER + INTRA:          -4.273
REMARK INTER:                  -3.736
REMARK INTRA:                  -0.537
REMARK UNBOUND:                -0.376
REMARK SMILES CCCCCCCC(=O)[O-]
REMARK SMILES IDX 5 1 6 2 7 3 8 4 9 5 10 6 4 7 3 8 2 9 1 10
REMARK H PARENT
REMARK Flexibility Score: inf
ROOT
ATOM      1  C   UNL     1     -94.096 -46.878 -68.833  1.00  0.00     0.000 C 
ENDROOT
BRANCH   1   2
ATOM      2  C   UNL     1     -94.025 -46.670 -70.353  1.00  0.00     0.006 C 
BRANCH   2   3
ATOM      3  C   UNL     1     -94.365 -47.949 -71.132  1.00  0.00     0.053 C 
BRANCH   3   4
ATOM      4  C   UNL     1     -95.319 -47.680 -72.253  1.00  0.00     0.041 C 
ATOM      5  O   UNL     1     -95.673 -46.500 -72.515  1.00  0.00    -0.550 OA
ATOM      6  O   UNL     1     -95.845 -48.735 -72.989  1.00  0.00    -0.550 OA
ENDBRANCH   3   4
ENDBRANCH   2   3
ENDBRANCH   1   2
BRANCH   1   7
ATOM      7  C   UNL     1     -95.095 -45.903 -68.192  1.00  0.00     0.000 C 
BRANCH   7   8
ATOM      8  C   UNL     1     -96.225 -45.484 -69.150  1.00  0.00    -0.000 C 
BRANCH   8   9
ATOM      9  C   UNL     1     -97.600 -46.097 -68.835  1.00  0.00    -0.003 C 
ATOM     10  C   UNL     1     -98.214 -46.832 -70.025  1.00  0.00     0.004 C 
ENDBRANCH   8   9
ENDBRANCH   7   8
ENDBRANCH   1   7
TORSDOF 6
ENDMDL
MODEL 9
REMARK VINA RESULT:    -2.861     15.050     15.676
REMARK INTER + INTRA:          -4.240
REMARK INTER:                  -3.725
REMARK INTRA:                  -0.516
REMARK UNBOUND:                -0.376
REMARK SMILES CCCCCCCC(=O)[O-]
REMARK SMILES IDX 5 1 6 2 7 3 8 4 9 5 10 6 4 7 3 8 2 9 1 10
REMARK H PARENT
REMARK Flexibility Score: inf
ROOT
ATOM      1  C   UNL     1     -95.577 -44.918 -69.177  1.00  0.00     0.000 C 
ENDROOT
BRANCH   1   2
ATOM      2  C   UNL     1     -97.081 -45.004 -69.480  1.00  0.00     0.006 C 
BRANCH   2   3
ATOM      3  C   UNL     1     -97.628 -46.428 -69.313  1.00  0.00     0.053 C 
BRANCH   3   4
ATOM      4  C   UNL     1     -98.394 -46.875 -70.518  1.00  0.00     0.041 C 
ATOM      5  O   UNL     1     -97.784 -47.268 -71.548  1.00  0.00    -0.550 OA
ATOM      6  O   UNL     1     -99.782 -46.826 -70.520  1.00  0.00    -0.550 OA
ENDBRANCH   3   4
ENDBRANCH   2   3
ENDBRANCH   1   2
BRANCH   1   7
ATOM      7  C   UNL     1     -95.145 -46.041 -68.222  1.00  0.00     0.000 C 
BRANCH   7   8
ATOM      8  C   UNL     1     -94.001 -46.903 -68.787  1.00  0.00    -0.000 C 
BRANCH   8   9
ATOM      9  C   UNL     1     -93.751 -46.735 -70.296  1.00  0.00    -0.003 C 
ATOM     10  C   UNL     1     -94.329 -47.878 -71.128  1.00  0.00     0.004 C 
ENDBRANCH   8   9
ENDBRANCH   7   8
ENDBRANCH   1   7
TORSDOF 6
ENDMDL
