MODEL 1
REMARK VINA RESULT:     4.452      0.000      0.000
REMARK INTER + INTRA:           5.895
REMARK INTER:                   6.534
REMARK INTRA:                  -0.638
REMARK UNBOUND:                -0.638
REMARK SMILES Cc1cc2c(C(C)C)c(O)c(O)c(C=O)c2c(O)c1-c1c(C)cc2c(C(C)C)c(O)c(O)c(C=O)c2c1O
REMARK SMILES IDX 1 1 2 2 3 3 4 4 16 5 13 6 11 7 9 8 5 9 17 10 19 11 20 12
REMARK SMILES IDX 37 13 21 14 36 15 23 16 22 17 24 18 33 19 25 20 31 21 29 22
REMARK SMILES IDX 38 23 34 25 35 26 26 27 27 28 28 29 32 30 30 32 18 34 6 36
REMARK SMILES IDX 7 37 8 38 14 39 15 40 10 41 12 43
REMARK H PARENT 38 24 32 31 30 33 18 35 10 42 12 44
REMARK Flexibility Score: inf
ROOT
ATOM      1  C   UNL     1     157.756   1.849   6.310  1.00  0.00     0.045 C 
ATOM      2  C   UNL     1     157.405   3.194   6.899  1.00  0.00    -0.039 A 
ATOM      3  C   UNL     1     158.396   3.944   7.534  1.00  0.00     0.013 A 
ATOM      4  C   UNL     1     158.127   5.215   8.088  1.00  0.00    -0.006 A 
ATOM      5  C   UNL     1     156.849   5.801   7.862  1.00  0.00     0.039 A 
ATOM      6  C   UNL     1     156.647   7.170   8.203  1.00  0.00     0.072 A 
ATOM      7  C   UNL     1     157.681   7.904   8.817  1.00  0.00     0.169 A 
ATOM      8  C   UNL     1     158.920   7.295   9.098  1.00  0.00     0.162 A 
ATOM      9  C   UNL     1     159.119   5.922   8.832  1.00  0.00     0.008 A 
ATOM     10  C   UNL     1     155.809   4.987   7.324  1.00  0.00     0.132 A 
ATOM     11  C   UNL     1     156.097   3.701   6.820  1.00  0.00     0.031 A 
ENDROOT
BRANCH  11  12
ATOM     12  C   UNL     1     155.024   2.885   6.193  1.00  0.00     0.031 A 
ATOM     13  C   UNL     1     154.885   2.851   4.788  1.00  0.00     0.132 A 
ATOM     14  C   UNL     1     154.129   2.174   7.006  1.00  0.00    -0.039 A 
ATOM     15  C   UNL     1     153.844   2.083   4.180  1.00  0.00     0.039 A 
ATOM     16  C   UNL     1     153.119   1.411   6.418  1.00  0.00     0.013 A 
ATOM     17  C   UNL     1     154.238   2.224   8.512  1.00  0.00     0.045 C 
ATOM     18  C   UNL     1     152.981   1.308   5.016  1.00  0.00    -0.006 A 
ATOM     19  C   UNL     1     153.608   2.095   2.771  1.00  0.00     0.072 A 
ATOM     20  C   UNL     1     151.973   0.477   4.435  1.00  0.00     0.008 A 
ATOM     21  C   UNL     1     152.508   1.395   2.236  1.00  0.00     0.169 A 
ATOM     22  C   UNL     1     151.683   0.627   3.063  1.00  0.00     0.162 A 
BRANCH  13  23
ATOM     23  O   UNL     1     155.777   3.587   3.999  1.00  0.00    -0.507 OA
ATOM     24  H   UNL     1     155.524   4.040   3.130  1.00  0.00     0.293 HD
ENDBRANCH  13  23
BRANCH  19  25
ATOM     25  C   UNL     1     154.469   2.850   1.840  1.00  0.00     0.264 C 
ATOM     26  O   UNL     1     154.233   2.840   0.602  1.00  0.00    -0.298 OA
ENDBRANCH  19  25
BRANCH  20  27
ATOM     27  C   UNL     1     151.188  -0.551   5.271  1.00  0.00     0.017 C 
ATOM     28  C   UNL     1     149.684  -0.267   5.212  1.00  0.00     0.012 C 
ATOM     29  C   UNL     1     151.496  -2.016   4.906  1.00  0.00     0.012 C 
ENDBRANCH  20  27
BRANCH  21  30
ATOM     30  O   UNL     1     152.221   1.420   0.866  1.00  0.00    -0.504 OA
ATOM     31  H   UNL     1     151.691   0.706   0.383  1.00  0.00     0.293 HD
ENDBRANCH  21  30
BRANCH  22  32
ATOM     32  O   UNL     1     150.559   0.003   2.516  1.00  0.00    -0.504 OA
ATOM     33  H   UNL     1     149.973  -0.637   3.037  1.00  0.00     0.293 HD
ENDBRANCH  22  32
ENDBRANCH  11  12
BRANCH  10  34
ATOM     34  O   UNL     1     154.484   5.439   7.331  1.00  0.00    -0.507 OA
ATOM     35  H   UNL     1     153.819   5.225   8.063  1.00  0.00     0.293 HD
ENDBRANCH  10  34
BRANCH   9  36
ATOM     36  C   UNL     1     160.398   5.224   9.331  1.00  0.00     0.017 C 
ATOM     37  C   UNL     1     161.641   5.797   8.643  1.00  0.00     0.012 C 
ATOM     38  C   UNL     1     160.551   5.232  10.864  1.00  0.00     0.012 C 
ENDBRANCH   9  36
BRANCH   6  39
ATOM     39  C   UNL     1     155.423   7.906   7.801  1.00  0.00     0.264 C 
ATOM     40  O   UNL     1     154.583   8.292   8.657  1.00  0.00    -0.298 OA
ENDBRANCH   6  39
BRANCH   8  41
ATOM     41  O   UNL     1     159.987   8.044   9.605  1.00  0.00    -0.504 OA
ATOM     42  H   UNL     1     159.998   8.500  10.504  1.00  0.00     0.293 HD
ENDBRANCH   8  41
BRANCH   7  43
ATOM     43  O   UNL     1     157.446   9.249   9.129  1.00  0.00    -0.504 OA
ATOM     44  H   UNL     1     157.939  10.030   8.720  1.00  0.00     0.293 HD
ENDBRANCH   7  43
TORSDOF 11
ENDMDL
MODEL 2
REMARK VINA RESULT:     5.987      1.005      9.198
REMARK INTER + INTRA:           8.149
REMARK INTER:                   7.730
REMARK INTRA:                   0.419
REMARK UNBOUND:                -0.638
REMARK SMILES Cc1cc2c(C(C)C)c(O)c(O)c(C=O)c2c(O)c1-c1c(C)cc2c(C(C)C)c(O)c(O)c(C=O)c2c1O
REMARK SMILES IDX 1 1 2 2 3 3 4 4 16 5 13 6 11 7 9 8 5 9 17 10 19 11 20 12
REMARK SMILES IDX 37 13 21 14 36 15 23 16 22 17 24 18 33 19 25 20 31 21 29 22
REMARK SMILES IDX 38 23 34 25 35 26 26 27 27 28 28 29 32 30 30 32 18 34 6 36
REMARK SMILES IDX 7 37 8 38 14 39 15 40 10 41 12 43
REMARK H PARENT 38 24 32 31 30 33 18 35 10 42 12 44
REMARK Flexibility Score: inf
ROOT
ATOM      1  C   UNL     1     154.165   2.064   8.960  1.00  0.00     0.045 C 
ATOM      2  C   UNL     1     154.137   2.123   7.452  1.00  0.00    -0.039 A 
ATOM      3  C   UNL     1     153.221   1.336   6.752  1.00  0.00     0.013 A 
ATOM      4  C   UNL     1     153.141   1.364   5.341  1.00  0.00    -0.006 A 
ATOM      5  C   UNL     1     153.916   2.326   4.633  1.00  0.00     0.039 A 
ATOM      6  C   UNL     1     153.666   2.527   3.245  1.00  0.00     0.072 A 
ATOM      7  C   UNL     1     152.712   1.733   2.577  1.00  0.00     0.169 A 
ATOM      8  C   UNL     1     151.998   0.737   3.273  1.00  0.00     0.162 A 
ATOM      9  C   UNL     1     152.279   0.474   4.632  1.00  0.00     0.008 A 
ATOM     10  C   UNL     1     154.933   3.036   5.336  1.00  0.00     0.132 A 
ATOM     11  C   UNL     1     155.020   2.954   6.742  1.00  0.00     0.031 A 
ENDROOT
BRANCH  11  12
ATOM     12  C   UNL     1     156.035   3.754   7.477  1.00  0.00     0.031 A 
ATOM     13  C   UNL     1     155.632   4.815   8.318  1.00  0.00     0.132 A 
ATOM     14  C   UNL     1     157.399   3.469   7.307  1.00  0.00    -0.039 A 
ATOM     15  C   UNL     1     156.604   5.599   9.013  1.00  0.00     0.039 A 
ATOM     16  C   UNL     1     158.351   4.222   7.994  1.00  0.00     0.013 A 
ATOM     17  C   UNL     1     157.853   2.361   6.386  1.00  0.00     0.045 C 
ATOM     18  C   UNL     1     157.986   5.256   8.886  1.00  0.00    -0.006 A 
ATOM     19  C   UNL     1     156.248   6.739   9.796  1.00  0.00     0.072 A 
ATOM     20  C   UNL     1     158.977   5.978   9.620  1.00  0.00     0.008 A 
ATOM     21  C   UNL     1     157.255   7.533  10.382  1.00  0.00     0.169 A 
ATOM     22  C   UNL     1     158.600   7.176  10.264  1.00  0.00     0.162 A 
BRANCH  13  23
ATOM     23  O   UNL     1     154.267   5.093   8.453  1.00  0.00    -0.507 OA
ATOM     24  H   UNL     1     153.797   5.209   9.343  1.00  0.00     0.293 HD
ENDBRANCH  13  23
BRANCH  19  25
ATOM     25  C   UNL     1     154.842   7.144   9.996  1.00  0.00     0.264 C 
ATOM     26  O   UNL     1     154.362   8.118   9.359  1.00  0.00    -0.298 OA
ENDBRANCH  19  25
BRANCH  20  27
ATOM     27  C   UNL     1     160.437   5.495   9.703  1.00  0.00     0.017 C 
ATOM     28  C   UNL     1     161.318   6.249   8.702  1.00  0.00     0.012 C 
ATOM     29  C   UNL     1     161.032   5.551  11.124  1.00  0.00     0.012 C 
ENDBRANCH  20  27
BRANCH  21  30
ATOM     30  O   UNL     1     156.945   8.682  11.120  1.00  0.00    -0.504 OA
ATOM     31  H   UNL     1     156.975   8.734  12.129  1.00  0.00     0.293 HD
ENDBRANCH  21  30
BRANCH  22  32
ATOM     32  O   UNL     1     159.580   8.020  10.793  1.00  0.00    -0.504 OA
ATOM     33  H   UNL     1     159.470   8.514  11.669  1.00  0.00     0.293 HD
ENDBRANCH  22  32
ENDBRANCH  11  12
BRANCH  10  34
ATOM     34  O   UNL     1     155.883   3.789   4.634  1.00  0.00    -0.507 OA
ATOM     35  H   UNL     1     156.834   3.484   4.469  1.00  0.00     0.293 HD
ENDBRANCH  10  34
BRANCH   9  36
ATOM     36  C   UNL     1     151.643  -0.748   5.322  1.00  0.00     0.017 C 
ATOM     37  C   UNL     1     150.133  -0.556   5.496  1.00  0.00     0.012 C 
ATOM     38  C   UNL     1     151.963  -2.086   4.630  1.00  0.00     0.012 C 
ENDBRANCH   9  36
BRANCH   6  39
ATOM     39  C   UNL     1     154.274   3.653   2.493  1.00  0.00     0.264 C 
ATOM     40  O   UNL     1     154.105   4.846   2.857  1.00  0.00    -0.298 OA
ENDBRANCH   6  39
BRANCH   8  41
ATOM     41  O   UNL     1     150.973   0.021   2.647  1.00  0.00    -0.504 OA
ATOM     42  H   UNL     1     150.665  -0.901   2.915  1.00  0.00     0.293 HD
ENDBRANCH   8  41
BRANCH   7  43
ATOM     43  O   UNL     1     152.489   1.968   1.215  1.00  0.00    -0.504 OA
ATOM     44  H   UNL     1     152.199   1.265   0.549  1.00  0.00     0.293 HD
ENDBRANCH   7  43
TORSDOF 11
ENDMDL
MODEL 3
REMARK VINA RESULT:     6.042      1.882      9.115
REMARK INTER + INTRA:           8.229
REMARK INTER:                   6.337
REMARK INTRA:                   1.892
REMARK UNBOUND:                -0.638
REMARK SMILES Cc1cc2c(C(C)C)c(O)c(O)c(C=O)c2c(O)c1-c1c(C)cc2c(C(C)C)c(O)c(O)c(C=O)c2c1O
REMARK SMILES IDX 1 1 2 2 3 3 4 4 16 5 13 6 11 7 9 8 5 9 17 10 19 11 20 12
REMARK SMILES IDX 37 13 21 14 36 15 23 16 22 17 24 18 33 19 25 20 31 21 29 22
REMARK SMILES IDX 38 23 34 25 35 26 26 27 27 28 28 29 32 30 30 32 18 34 6 36
REMARK SMILES IDX 7 37 8 38 14 39 15 40 10 41 12 43
REMARK H PARENT 38 24 32 31 30 33 18 35 10 42 12 44
REMARK Flexibility Score: inf
ROOT
ATOM      1  C   UNL     1     158.735   3.661   5.201  1.00  0.00     0.045 C 
ATOM      2  C   UNL     1     157.334   3.213   5.541  1.00  0.00    -0.039 A 
ATOM      3  C   UNL     1     156.658   2.356   4.671  1.00  0.00     0.013 A 
ATOM      4  C   UNL     1     155.352   1.894   4.947  1.00  0.00    -0.006 A 
ATOM      5  C   UNL     1     154.775   2.196   6.213  1.00  0.00     0.039 A 
ATOM      6  C   UNL     1     153.570   1.539   6.597  1.00  0.00     0.072 A 
ATOM      7  C   UNL     1     152.931   0.658   5.703  1.00  0.00     0.169 A 
ATOM      8  C   UNL     1     153.474   0.418   4.425  1.00  0.00     0.162 A 
ATOM      9  C   UNL     1     154.629   1.110   3.998  1.00  0.00     0.008 A 
ATOM     10  C   UNL     1     155.412   3.166   7.042  1.00  0.00     0.132 A 
ATOM     11  C   UNL     1     156.699   3.647   6.717  1.00  0.00     0.031 A 
ENDROOT
BRANCH  11  12
ATOM     12  C   UNL     1     157.391   4.602   7.622  1.00  0.00     0.031 A 
ATOM     13  C   UNL     1     156.808   5.855   7.915  1.00  0.00     0.132 A 
ATOM     14  C   UNL     1     158.643   4.265   8.160  1.00  0.00    -0.039 A 
ATOM     15  C   UNL     1     157.477   6.785   8.769  1.00  0.00     0.039 A 
ATOM     16  C   UNL     1     159.293   5.163   9.007  1.00  0.00     0.013 A 
ATOM     17  C   UNL     1     159.300   2.945   7.833  1.00  0.00     0.045 C 
ATOM     18  C   UNL     1     158.719   6.402   9.366  1.00  0.00    -0.006 A 
ATOM     19  C   UNL     1     156.970   8.097   9.015  1.00  0.00     0.072 A 
ATOM     20  C   UNL     1     159.380   7.283  10.278  1.00  0.00     0.008 A 
ATOM     21  C   UNL     1     157.719   9.006   9.790  1.00  0.00     0.169 A 
ATOM     22  C   UNL     1     158.923   8.614  10.381  1.00  0.00     0.162 A 
BRANCH  13  23
ATOM     23  O   UNL     1     155.569   6.176   7.348  1.00  0.00    -0.507 OA
ATOM     24  H   UNL     1     155.370   7.051   6.879  1.00  0.00     0.293 HD
ENDBRANCH  13  23
BRANCH  19  25
ATOM     25  C   UNL     1     155.685   8.558   8.456  1.00  0.00     0.264 C 
ATOM     26  O   UNL     1     154.663   8.642   9.189  1.00  0.00    -0.298 OA
ENDBRANCH  19  25
BRANCH  20  27
ATOM     27  C   UNL     1     160.581   6.822  11.124  1.00  0.00     0.017 C 
ATOM     28  C   UNL     1     160.692   5.294  11.125  1.00  0.00     0.012 C 
ATOM     29  C   UNL     1     161.915   7.480  10.723  1.00  0.00     0.012 C 
ENDBRANCH  20  27
BRANCH  21  30
ATOM     30  O   UNL     1     157.275  10.315  10.015  1.00  0.00    -0.504 OA
ATOM     31  H   UNL     1     156.553  10.564  10.678  1.00  0.00     0.293 HD
ENDBRANCH  21  30
BRANCH  22  32
ATOM     32  O   UNL     1     159.678   9.557  11.083  1.00  0.00    -0.504 OA
ATOM     33  H   UNL     1     160.255   9.321  11.880  1.00  0.00     0.293 HD
ENDBRANCH  22  32
ENDBRANCH  11  12
BRANCH  10  34
ATOM     34  O   UNL     1     154.750   3.682   8.162  1.00  0.00    -0.507 OA
ATOM     35  H   UNL     1     155.076   4.481   8.691  1.00  0.00     0.293 HD
ENDBRANCH  10  34
BRANCH   9  36
ATOM     36  C   UNL     1     155.092   0.994   2.533  1.00  0.00     0.017 C 
ATOM     37  C   UNL     1     155.558  -0.430   2.215  1.00  0.00     0.012 C 
ATOM     38  C   UNL     1     154.048   1.484   1.512  1.00  0.00     0.012 C 
ENDBRANCH   9  36
BRANCH   6  39
ATOM     39  C   UNL     1     153.029   1.635   7.976  1.00  0.00     0.264 C 
ATOM     40  O   UNL     1     153.644   1.133   8.954  1.00  0.00    -0.298 OA
ENDBRANCH   6  39
BRANCH   8  41
ATOM     41  O   UNL     1     152.909  -0.537   3.574  1.00  0.00    -0.504 OA
ATOM     42  H   UNL     1     152.871  -0.466   2.569  1.00  0.00     0.293 HD
ENDBRANCH   8  41
BRANCH   7  43
ATOM     43  O   UNL     1     151.753   0.026   6.121  1.00  0.00    -0.504 OA
ATOM     44  H   UNL     1     150.836   0.205   5.737  1.00  0.00     0.293 HD
ENDBRANCH   7  43
TORSDOF 11
ENDMDL
MODEL 4
REMARK VINA RESULT:     6.782      1.896      9.194
REMARK INTER + INTRA:           9.316
REMARK INTER:                  10.135
REMARK INTRA:                  -0.820
REMARK UNBOUND:                -0.638
REMARK SMILES Cc1cc2c(C(C)C)c(O)c(O)c(C=O)c2c(O)c1-c1c(C)cc2c(C(C)C)c(O)c(O)c(C=O)c2c1O
REMARK SMILES IDX 1 1 2 2 3 3 4 4 16 5 13 6 11 7 9 8 5 9 17 10 19 11 20 12
REMARK SMILES IDX 37 13 21 14 36 15 23 16 22 17 24 18 33 19 25 20 31 21 29 22
REMARK SMILES IDX 38 23 34 25 35 26 26 27 27 28 28 29 32 30 30 32 18 34 6 36
REMARK SMILES IDX 7 37 8 38 14 39 15 40 10 41 12 43
REMARK H PARENT 38 24 32 31 30 33 18 35 10 42 12 44
REMARK Flexibility Score: inf
ROOT
ATOM      1  C   UNL     1     156.114   3.645   4.358  1.00  0.00     0.045 C 
ATOM      2  C   UNL     1     155.219   2.828   5.258  1.00  0.00    -0.039 A 
ATOM      3  C   UNL     1     154.234   2.017   4.691  1.00  0.00     0.013 A 
ATOM      4  C   UNL     1     153.380   1.219   5.485  1.00  0.00    -0.006 A 
ATOM      5  C   UNL     1     153.630   1.135   6.884  1.00  0.00     0.039 A 
ATOM      6  C   UNL     1     152.936   0.156   7.652  1.00  0.00     0.072 A 
ATOM      7  C   UNL     1     151.969  -0.665   7.039  1.00  0.00     0.169 A 
ATOM      8  C   UNL     1     151.679  -0.528   5.667  1.00  0.00     0.162 A 
ATOM      9  C   UNL     1     152.305   0.482   4.903  1.00  0.00     0.008 A 
ATOM     10  C   UNL     1     154.550   2.053   7.471  1.00  0.00     0.132 A 
ATOM     11  C   UNL     1     155.359   2.872   6.655  1.00  0.00     0.031 A 
ENDROOT
BRANCH  11  12
ATOM     12  C   UNL     1     156.370   3.775   7.269  1.00  0.00     0.031 A 
ATOM     13  C   UNL     1     155.966   4.977   7.889  1.00  0.00     0.132 A 
ATOM     14  C   UNL     1     157.731   3.440   7.200  1.00  0.00    -0.039 A 
ATOM     15  C   UNL     1     156.934   5.858   8.465  1.00  0.00     0.039 A 
ATOM     16  C   UNL     1     158.679   4.288   7.773  1.00  0.00     0.013 A 
ATOM     17  C   UNL     1     158.187   2.176   6.511  1.00  0.00     0.045 C 
ATOM     18  C   UNL     1     158.311   5.472   8.450  1.00  0.00    -0.006 A 
ATOM     19  C   UNL     1     156.580   7.126   9.017  1.00  0.00     0.072 A 
ATOM     20  C   UNL     1     159.295   6.299   9.076  1.00  0.00     0.008 A 
ATOM     21  C   UNL     1     157.586   7.995   9.484  1.00  0.00     0.169 A 
ATOM     22  C   UNL     1     158.926   7.599   9.480  1.00  0.00     0.162 A 
BRANCH  13  23
ATOM     23  O   UNL     1     154.604   5.299   7.925  1.00  0.00    -0.507 OA
ATOM     24  H   UNL     1     154.078   5.628   7.125  1.00  0.00     0.293 HD
ENDBRANCH  13  23
BRANCH  19  25
ATOM     25  C   UNL     1     155.179   7.585   9.091  1.00  0.00     0.264 C 
ATOM     26  O   UNL     1     154.742   8.438   8.274  1.00  0.00    -0.298 OA
ENDBRANCH  19  25
BRANCH  20  27
ATOM     27  C   UNL     1     160.740   5.814   9.296  1.00  0.00     0.017 C 
ATOM     28  C   UNL     1     161.698   6.493   8.312  1.00  0.00     0.012 C 
ATOM     29  C   UNL     1     161.232   5.961  10.749  1.00  0.00     0.012 C 
ENDBRANCH  20  27
BRANCH  21  30
ATOM     30  O   UNL     1     157.281   9.264   9.991  1.00  0.00    -0.504 OA
ATOM     31  H   UNL     1     156.627   9.906   9.562  1.00  0.00     0.293 HD
ENDBRANCH  21  30
BRANCH  22  32
ATOM     32  O   UNL     1     159.909   8.509   9.882  1.00  0.00    -0.504 OA
ATOM     33  H   UNL     1     159.857   9.500   9.688  1.00  0.00     0.293 HD
ENDBRANCH  22  32
ENDBRANCH  11  12
BRANCH  10  34
ATOM     34  O   UNL     1     154.629   2.181   8.863  1.00  0.00    -0.507 OA
ATOM     35  H   UNL     1     154.883   1.424   9.485  1.00  0.00     0.293 HD
ENDBRANCH  10  34
BRANCH   9  36
ATOM     36  C   UNL     1     151.831   0.755   3.463  1.00  0.00     0.017 C 
ATOM     37  C   UNL     1     151.106   2.101   3.368  1.00  0.00     0.012 C 
ATOM     38  C   UNL     1     152.951   0.645   2.410  1.00  0.00     0.012 C 
ENDBRANCH   9  36
BRANCH   6  39
ATOM     39  C   UNL     1     153.297  -0.138   9.061  1.00  0.00     0.264 C 
ATOM     40  O   UNL     1     152.614   0.315  10.017  1.00  0.00    -0.298 OA
ENDBRANCH   6  39
BRANCH   8  41
ATOM     41  O   UNL     1     150.804  -1.410   5.028  1.00  0.00    -0.504 OA
ATOM     42  H   UNL     1     150.882  -1.708   4.067  1.00  0.00     0.293 HD
ENDBRANCH   8  41
BRANCH   7  43
ATOM     43  O   UNL     1     151.314  -1.621   7.827  1.00  0.00    -0.504 OA
ATOM     44  H   UNL     1     151.715  -2.502   8.116  1.00  0.00     0.293 HD
ENDBRANCH   7  43
TORSDOF 11
ENDMDL
MODEL 5
REMARK VINA RESULT:     7.141      1.898      3.244
REMARK INTER + INTRA:           9.843
REMARK INTER:                  10.821
REMARK INTRA:                  -0.978
REMARK UNBOUND:                -0.638
REMARK SMILES Cc1cc2c(C(C)C)c(O)c(O)c(C=O)c2c(O)c1-c1c(C)cc2c(C(C)C)c(O)c(O)c(C=O)c2c1O
REMARK SMILES IDX 1 1 2 2 3 3 4 4 16 5 13 6 11 7 9 8 5 9 17 10 19 11 20 12
REMARK SMILES IDX 37 13 21 14 36 15 23 16 22 17 24 18 33 19 25 20 31 21 29 22
REMARK SMILES IDX 38 23 34 25 35 26 26 27 27 28 28 29 32 30 30 32 18 34 6 36
REMARK SMILES IDX 7 37 8 38 14 39 15 40 10 41 12 43
REMARK H PARENT 38 24 32 31 30 33 18 35 10 42 12 44
REMARK Flexibility Score: inf
ROOT
ATOM      1  C   UNL     1     158.133   2.319   6.462  1.00  0.00     0.045 C 
ATOM      2  C   UNL     1     157.691   3.566   7.188  1.00  0.00    -0.039 A 
ATOM      3  C   UNL     1     158.647   4.378   7.801  1.00  0.00     0.013 A 
ATOM      4  C   UNL     1     158.291   5.565   8.479  1.00  0.00    -0.006 A 
ATOM      5  C   UNL     1     156.942   6.013   8.408  1.00  0.00     0.039 A 
ATOM      6  C   UNL     1     156.622   7.319   8.879  1.00  0.00     0.072 A 
ATOM      7  C   UNL     1     157.621   8.122   9.465  1.00  0.00     0.169 A 
ATOM      8  C   UNL     1     158.940   7.642   9.593  1.00  0.00     0.162 A 
ATOM      9  C   UNL     1     159.263   6.325   9.197  1.00  0.00     0.008 A 
ATOM     10  C   UNL     1     155.952   5.125   7.891  1.00  0.00     0.132 A 
ATOM     11  C   UNL     1     156.334   3.922   7.259  1.00  0.00     0.031 A 
ENDROOT
BRANCH  11  12
ATOM     12  C   UNL     1     155.304   3.035   6.655  1.00  0.00     0.031 A 
ATOM     13  C   UNL     1     154.592   2.120   7.462  1.00  0.00     0.132 A 
ATOM     14  C   UNL     1     155.065   3.090   5.273  1.00  0.00    -0.039 A 
ATOM     15  C   UNL     1     153.614   1.252   6.885  1.00  0.00     0.039 A 
ATOM     16  C   UNL     1     154.101   2.255   4.707  1.00  0.00     0.013 A 
ATOM     17  C   UNL     1     155.840   4.036   4.387  1.00  0.00     0.045 C 
ATOM     18  C   UNL     1     153.330   1.365   5.488  1.00  0.00    -0.006 A 
ATOM     19  C   UNL     1     152.940   0.248   7.645  1.00  0.00     0.072 A 
ATOM     20  C   UNL     1     152.311   0.558   4.894  1.00  0.00     0.008 A 
ATOM     21  C   UNL     1     152.056  -0.643   7.005  1.00  0.00     0.169 A 
ATOM     22  C   UNL     1     151.774  -0.510   5.642  1.00  0.00     0.162 A 
BRANCH  13  23
ATOM     23  O   UNL     1     154.864   2.070   8.834  1.00  0.00    -0.507 OA
ATOM     24  H   UNL     1     154.284   2.500   9.544  1.00  0.00     0.293 HD
ENDBRANCH  13  23
BRANCH  19  25
ATOM     25  C   UNL     1     153.159   0.085   9.095  1.00  0.00     0.264 C 
ATOM     26  O   UNL     1     152.613   0.869   9.916  1.00  0.00    -0.298 OA
ENDBRANCH  19  25
BRANCH  20  27
ATOM     27  C   UNL     1     151.807   0.813   3.461  1.00  0.00     0.017 C 
ATOM     28  C   UNL     1     151.107   2.172   3.364  1.00  0.00     0.012 C 
ATOM     29  C   UNL     1     152.897   0.667   2.382  1.00  0.00     0.012 C 
ENDBRANCH  20  27
BRANCH  21  30
ATOM     30  O   UNL     1     151.411  -1.667   7.709  1.00  0.00    -0.504 OA
ATOM     31  H   UNL     1     150.529  -1.557   8.192  1.00  0.00     0.293 HD
ENDBRANCH  21  30
BRANCH  22  32
ATOM     32  O   UNL     1     150.950  -1.452   5.020  1.00  0.00    -0.504 OA
ATOM     33  H   UNL     1     151.184  -2.434   4.956  1.00  0.00     0.293 HD
ENDBRANCH  22  32
ENDBRANCH  11  12
BRANCH  10  34
ATOM     34  O   UNL     1     154.592   5.418   8.044  1.00  0.00    -0.507 OA
ATOM     35  H   UNL     1     153.869   4.713   8.125  1.00  0.00     0.293 HD
ENDBRANCH  10  34
BRANCH   9  36
ATOM     36  C   UNL     1     160.651   5.746   9.530  1.00  0.00     0.017 C 
ATOM     37  C   UNL     1     161.732   6.361   8.635  1.00  0.00     0.012 C 
ATOM     38  C   UNL     1     161.027   5.853  11.020  1.00  0.00     0.012 C 
ENDBRANCH   9  36
BRANCH   6  39
ATOM     39  C   UNL     1     155.293   7.936   8.641  1.00  0.00     0.264 C 
ATOM     40  O   UNL     1     154.461   8.071   9.577  1.00  0.00    -0.298 OA
ENDBRANCH   6  39
BRANCH   8  41
ATOM     41  O   UNL     1     159.960   8.470  10.071  1.00  0.00    -0.504 OA
ATOM     42  H   UNL     1     160.067   9.447   9.842  1.00  0.00     0.293 HD
ENDBRANCH   8  41
BRANCH   7  43
ATOM     43  O   UNL     1     157.268   9.403   9.907  1.00  0.00    -0.504 OA
ATOM     44  H   UNL     1     156.359   9.659  10.265  1.00  0.00     0.293 HD
ENDBRANCH   7  43
TORSDOF 11
ENDMDL
