MODEL 1
REMARK VINA RESULT:    -3.771      0.000      0.000
REMARK INTER + INTRA:          -6.632
REMARK INTER:                  -5.755
REMARK INTRA:                  -0.878
REMARK UNBOUND:                -0.878
REMARK SMILES C=CCCCCCCCCCC
REMARK SMILES IDX 7 1 8 2 9 3 10 4 11 5 12 6 6 7 5 8 4 9 3 10 2 11 1 12
REMARK H PARENT
REMARK Flexibility Score: inf
ROOT
ATOM      1  C   UNL     1      19.846  62.679  14.226  1.00  0.00     0.000 C 
ENDROOT
BRANCH   1   2
ATOM      2  C   UNL     1      21.143  63.485  14.049  1.00  0.00    -0.000 C 
BRANCH   2   3
ATOM      3  C   UNL     1      22.222  63.101  15.077  1.00  0.00    -0.000 C 
BRANCH   3   4
ATOM      4  C   UNL     1      22.145  63.947  16.358  1.00  0.00    -0.000 C 
BRANCH   4   5
ATOM      5  C   UNL     1      21.939  63.093  17.618  1.00  0.00    -0.003 C 
ATOM      6  C   UNL     1      20.484  63.130  18.075  1.00  0.00     0.004 C 
ENDBRANCH   4   5
ENDBRANCH   3   4
ENDBRANCH   2   3
ENDBRANCH   1   2
BRANCH   1   7
ATOM      7  C   UNL     1      18.591  63.564  14.187  1.00  0.00     0.000 C 
BRANCH   7   8
ATOM      8  C   UNL     1      18.617  64.603  15.315  1.00  0.00     0.000 C 
BRANCH   8   9
ATOM      9  C   UNL     1      17.196  65.035  15.697  1.00  0.00     0.004 C 
BRANCH   9  10
ATOM     10  C   UNL     1      16.196  64.677  14.589  1.00  0.00     0.027 C 
BRANCH  10  11
ATOM     11  C   UNL     1      14.790  65.028  14.990  1.00  0.00    -0.035 C 
ATOM     12  C   UNL     1      14.259  64.601  16.139  1.00  0.00     0.004 C 
ENDBRANCH  10  11
ENDBRANCH   9  10
ENDBRANCH   8   9
ENDBRANCH   7   8
ENDBRANCH   1   7
TORSDOF 9
ENDMDL
MODEL 2
REMARK VINA RESULT:    -3.752      0.951      5.423
REMARK INTER + INTRA:          -6.604
REMARK INTER:                  -5.512
REMARK INTRA:                  -1.092
REMARK UNBOUND:                -0.878
REMARK SMILES C=CCCCCCCCCCC
REMARK SMILES IDX 7 1 8 2 9 3 10 4 11 5 12 6 6 7 5 8 4 9 3 10 2 11 1 12
REMARK H PARENT
REMARK Flexibility Score: inf
ROOT
ATOM      1  C   UNL     1      19.454  65.029  17.121  1.00  0.00     0.000 C 
ENDROOT
BRANCH   1   2
ATOM      2  C   UNL     1      17.935  64.999  16.889  1.00  0.00    -0.000 C 
BRANCH   2   3
ATOM      3  C   UNL     1      17.545  65.446  15.469  1.00  0.00    -0.000 C 
BRANCH   3   4
ATOM      4  C   UNL     1      16.473  64.544  14.839  1.00  0.00    -0.000 C 
BRANCH   4   5
ATOM      5  C   UNL     1      15.116  65.251  14.698  1.00  0.00    -0.003 C 
ATOM      6  C   UNL     1      14.112  64.722  15.718  1.00  0.00     0.004 C 
ENDBRANCH   4   5
ENDBRANCH   3   4
ENDBRANCH   2   3
ENDBRANCH   1   2
BRANCH   1   7
ATOM      7  C   UNL     1      20.020  63.654  17.505  1.00  0.00     0.000 C 
BRANCH   7   8
ATOM      8  C   UNL     1      21.497  63.538  17.110  1.00  0.00     0.000 C 
BRANCH   8   9
ATOM      9  C   UNL     1      21.758  64.205  15.754  1.00  0.00     0.004 C 
BRANCH   9  10
ATOM     10  C   UNL     1      21.600  63.198  14.607  1.00  0.00     0.027 C 
BRANCH  10  11
ATOM     11  C   UNL     1      20.316  63.423  13.858  1.00  0.00    -0.035 C 
ATOM     12  C   UNL     1      19.297  62.562  13.933  1.00  0.00     0.004 C 
ENDBRANCH  10  11
ENDBRANCH   9  10
ENDBRANCH   8   9
ENDBRANCH   7   8
ENDBRANCH   1   7
TORSDOF 9
ENDMDL
MODEL 3
REMARK VINA RESULT:    -3.707      1.651      5.835
REMARK INTER + INTRA:          -6.536
REMARK INTER:                  -5.434
REMARK INTRA:                  -1.102
REMARK UNBOUND:                -0.878
REMARK SMILES C=CCCCCCCCCCC
REMARK SMILES IDX 7 1 8 2 9 3 10 4 11 5 12 6 6 7 5 8 4 9 3 10 2 11 1 12
REMARK H PARENT
REMARK Flexibility Score: inf
ROOT
ATOM      1  C   UNL     1      18.333  65.145  16.997  1.00  0.00     0.000 C 
ENDROOT
BRANCH   1   2
ATOM      2  C   UNL     1      17.055  65.717  17.631  1.00  0.00    -0.000 C 
BRANCH   2   3
ATOM      3  C   UNL     1      15.859  64.754  17.520  1.00  0.00    -0.000 C 
BRANCH   3   4
ATOM      4  C   UNL     1      14.687  65.356  16.730  1.00  0.00    -0.000 C 
BRANCH   4   5
ATOM      5  C   UNL     1      14.526  64.723  15.340  1.00  0.00    -0.003 C 
ATOM      6  C   UNL     1      15.318  65.495  14.289  1.00  0.00     0.004 C 
ENDBRANCH   4   5
ENDBRANCH   3   4
ENDBRANCH   2   3
ENDBRANCH   1   2
BRANCH   1   7
ATOM      7  C   UNL     1      18.957  66.096  15.965  1.00  0.00     0.000 C 
BRANCH   7   8
ATOM      8  C   UNL     1      19.185  65.381  14.627  1.00  0.00     0.000 C 
BRANCH   8   9
ATOM      9  C   UNL     1      18.639  63.949  14.669  1.00  0.00     0.004 C 
BRANCH   9  10
ATOM     10  C   UNL     1      19.641  62.962  14.055  1.00  0.00     0.027 C 
BRANCH  10  11
ATOM     11  C   UNL     1      20.988  63.073  14.714  1.00  0.00    -0.035 C 
ATOM     12  C   UNL     1      22.122  63.032  14.009  1.00  0.00     0.004 C 
ENDBRANCH  10  11
ENDBRANCH   9  10
ENDBRANCH   8   9
ENDBRANCH   7   8
ENDBRANCH   1   7
TORSDOF 9
ENDMDL
MODEL 4
REMARK VINA RESULT:    -3.692      1.407      5.736
REMARK INTER + INTRA:          -6.512
REMARK INTER:                  -5.477
REMARK INTRA:                  -1.036
REMARK UNBOUND:                -0.878
REMARK SMILES C=CCCCCCCCCCC
REMARK SMILES IDX 7 1 8 2 9 3 10 4 11 5 12 6 6 7 5 8 4 9 3 10 2 11 1 12
REMARK H PARENT
REMARK Flexibility Score: inf
ROOT
ATOM      1  C   UNL     1      16.781  64.636  14.982  1.00  0.00     0.000 C 
ENDROOT
BRANCH   1   2
ATOM      2  C   UNL     1      15.651  65.471  14.360  1.00  0.00    -0.000 C 
BRANCH   2   3
ATOM      3  C   UNL     1      14.258  65.036  14.847  1.00  0.00    -0.000 C 
BRANCH   3   4
ATOM      4  C   UNL     1      14.244  64.659  16.337  1.00  0.00    -0.000 C 
BRANCH   4   5
ATOM      5  C   UNL     1      14.032  65.876  17.251  1.00  0.00    -0.003 C 
ATOM      6  C   UNL     1      15.177  66.019  18.250  1.00  0.00     0.004 C 
ENDBRANCH   4   5
ENDBRANCH   3   4
ENDBRANCH   2   3
ENDBRANCH   1   2
BRANCH   1   7
ATOM      7  C   UNL     1      17.936  65.502  15.507  1.00  0.00     0.000 C 
BRANCH   7   8
ATOM      8  C   UNL     1      18.443  64.982  16.857  1.00  0.00     0.000 C 
BRANCH   8   9
ATOM      9  C   UNL     1      19.755  64.205  16.690  1.00  0.00     0.004 C 
BRANCH   9  10
ATOM     10  C   UNL     1      20.375  64.464  15.311  1.00  0.00     0.027 C 
BRANCH  10  11
ATOM     11  C   UNL     1      20.600  63.178  14.565  1.00  0.00    -0.035 C 
ATOM     12  C   UNL     1      19.600  62.530  13.961  1.00  0.00     0.004 C 
ENDBRANCH  10  11
ENDBRANCH   9  10
ENDBRANCH   8   9
ENDBRANCH   7   8
ENDBRANCH   1   7
TORSDOF 9
ENDMDL
MODEL 5
REMARK VINA RESULT:    -3.677      0.311      5.490
REMARK INTER + INTRA:          -6.489
REMARK INTER:                  -5.539
REMARK INTRA:                  -0.951
REMARK UNBOUND:                -0.878
REMARK SMILES C=CCCCCCCCCCC
REMARK SMILES IDX 7 1 8 2 9 3 10 4 11 5 12 6 6 7 5 8 4 9 3 10 2 11 1 12
REMARK H PARENT
REMARK Flexibility Score: inf
ROOT
ATOM      1  C   UNL     1      18.694  63.307  14.264  1.00  0.00     0.000 C 
ENDROOT
BRANCH   1   2
ATOM      2  C   UNL     1      18.797  64.680  14.947  1.00  0.00    -0.000 C 
BRANCH   2   3
ATOM      3  C   UNL     1      17.443  65.175  15.487  1.00  0.00    -0.000 C 
BRANCH   3   4
ATOM      4  C   UNL     1      16.251  64.590  14.713  1.00  0.00    -0.000 C 
BRANCH   4   5
ATOM      5  C   UNL     1      14.942  65.348  14.986  1.00  0.00    -0.003 C 
ATOM      6  C   UNL     1      13.990  64.513  15.836  1.00  0.00     0.004 C 
ENDBRANCH   4   5
ENDBRANCH   3   4
ENDBRANCH   2   3
ENDBRANCH   1   2
BRANCH   1   7
ATOM      7  C   UNL     1      20.064  62.648  14.053  1.00  0.00     0.000 C 
BRANCH   7   8
ATOM      8  C   UNL     1      21.192  63.682  14.154  1.00  0.00     0.000 C 
BRANCH   8   9
ATOM      9  C   UNL     1      22.254  63.241  15.169  1.00  0.00     0.004 C 
BRANCH   9  10
ATOM     10  C   UNL     1      22.064  63.961  16.511  1.00  0.00     0.027 C 
BRANCH  10  11
ATOM     11  C   UNL     1      21.486  63.037  17.548  1.00  0.00    -0.035 C 
ATOM     12  C   UNL     1      20.291  63.259  18.101  1.00  0.00     0.004 C 
ENDBRANCH  10  11
ENDBRANCH   9  10
ENDBRANCH   8   9
ENDBRANCH   7   8
ENDBRANCH   1   7
TORSDOF 9
ENDMDL
MODEL 6
REMARK VINA RESULT:    -3.668      1.179      2.670
REMARK INTER + INTRA:          -6.476
REMARK INTER:                  -5.378
REMARK INTRA:                  -1.097
REMARK UNBOUND:                -0.878
REMARK SMILES C=CCCCCCCCCCC
REMARK SMILES IDX 7 1 8 2 9 3 10 4 11 5 12 6 6 7 5 8 4 9 3 10 2 11 1 12
REMARK H PARENT
REMARK Flexibility Score: inf
ROOT
ATOM      1  C   UNL     1      18.314  64.754  16.681  1.00  0.00     0.000 C 
ENDROOT
BRANCH   1   2
ATOM      2  C   UNL     1      19.750  64.466  17.148  1.00  0.00    -0.000 C 
BRANCH   2   3
ATOM      3  C   UNL     1      20.786  64.659  16.027  1.00  0.00    -0.000 C 
BRANCH   3   4
ATOM      4  C   UNL     1      21.340  63.326  15.500  1.00  0.00    -0.000 C 
BRANCH   4   5
ATOM      5  C   UNL     1      20.977  63.077  14.028  1.00  0.00    -0.003 C 
ATOM      6  C   UNL     1      19.505  62.703  13.881  1.00  0.00     0.004 C 
ENDBRANCH   4   5
ENDBRANCH   3   4
ENDBRANCH   2   3
ENDBRANCH   1   2
BRANCH   1   7
ATOM      7  C   UNL     1      18.178  66.124  16.002  1.00  0.00     0.000 C 
BRANCH   7   8
ATOM      8  C   UNL     1      17.232  66.048  14.797  1.00  0.00     0.000 C 
BRANCH   8   9
ATOM      9  C   UNL     1      16.489  64.707  14.764  1.00  0.00     0.004 C 
BRANCH   9  10
ATOM     10  C   UNL     1      14.971  64.922  14.701  1.00  0.00     0.027 C 
BRANCH  10  11
ATOM     11  C   UNL     1      14.337  64.736  16.051  1.00  0.00    -0.035 C 
ATOM     12  C   UNL     1      14.055  65.772  16.846  1.00  0.00     0.004 C 
ENDBRANCH  10  11
ENDBRANCH   9  10
ENDBRANCH   8   9
ENDBRANCH   7   8
ENDBRANCH   1   7
TORSDOF 9
ENDMDL
MODEL 7
REMARK VINA RESULT:    -3.653      2.919      5.066
REMARK INTER + INTRA:          -6.452
REMARK INTER:                  -5.583
REMARK INTRA:                  -0.869
REMARK UNBOUND:                -0.878
REMARK SMILES C=CCCCCCCCCCC
REMARK SMILES IDX 7 1 8 2 9 3 10 4 11 5 12 6 6 7 5 8 4 9 3 10 2 11 1 12
REMARK H PARENT
REMARK Flexibility Score: inf
ROOT
ATOM      1  C   UNL     1      23.750  62.612  17.474  1.00  0.00     0.000 C 
ENDROOT
BRANCH   1   2
ATOM      2  C   UNL     1      24.256  61.225  17.046  1.00  0.00    -0.000 C 
BRANCH   2   3
ATOM      3  C   UNL     1      24.965  61.250  15.681  1.00  0.00    -0.000 C 
BRANCH   3   4
ATOM      4  C   UNL     1      24.139  61.963  14.600  1.00  0.00    -0.000 C 
BRANCH   4   5
ATOM      5  C   UNL     1      24.348  61.359  13.203  1.00  0.00    -0.003 C 
ATOM      6  C   UNL     1      24.866  59.927  13.295  1.00  0.00     0.004 C 
ENDBRANCH   4   5
ENDBRANCH   3   4
ENDBRANCH   2   3
ENDBRANCH   1   2
BRANCH   1   7
ATOM      7  C   UNL     1      22.307  62.579  17.996  1.00  0.00     0.000 C 
BRANCH   7   8
ATOM      8  C   UNL     1      21.554  63.859  17.610  1.00  0.00     0.000 C 
BRANCH   8   9
ATOM      9  C   UNL     1      20.517  63.578  16.516  1.00  0.00     0.004 C 
BRANCH   9  10
ATOM     10  C   UNL     1      21.102  63.846  15.123  1.00  0.00     0.027 C 
BRANCH  10  11
ATOM     11  C   UNL     1      20.582  62.859  14.115  1.00  0.00    -0.035 C 
ATOM     12  C   UNL     1      19.274  62.682  13.913  1.00  0.00     0.004 C 
ENDBRANCH  10  11
ENDBRANCH   9  10
ENDBRANCH   8   9
ENDBRANCH   7   8
ENDBRANCH   1   7
TORSDOF 9
ENDMDL
MODEL 8
REMARK VINA RESULT:    -3.635      2.982      4.772
REMARK INTER + INTRA:          -6.426
REMARK INTER:                  -5.030
REMARK INTRA:                  -1.395
REMARK UNBOUND:                -0.878
REMARK SMILES C=CCCCCCCCCCC
REMARK SMILES IDX 7 1 8 2 9 3 10 4 11 5 12 6 6 7 5 8 4 9 3 10 2 11 1 12
REMARK H PARENT
REMARK Flexibility Score: inf
ROOT
ATOM      1  C   UNL     1      24.715  61.216  15.845  1.00  0.00     0.000 C 
ENDROOT
BRANCH   1   2
ATOM      2  C   UNL     1      23.902  61.561  17.103  1.00  0.00    -0.000 C 
BRANCH   2   3
ATOM      3  C   UNL     1      24.010  63.047  17.488  1.00  0.00    -0.000 C 
BRANCH   3   4
ATOM      4  C   UNL     1      22.643  63.746  17.527  1.00  0.00    -0.000 C 
BRANCH   4   5
ATOM      5  C   UNL     1      21.526  62.831  18.050  1.00  0.00    -0.003 C 
ATOM      6  C   UNL     1      20.153  63.464  17.843  1.00  0.00     0.004 C 
ENDBRANCH   4   5
ENDBRANCH   3   4
ENDBRANCH   2   3
ENDBRANCH   1   2
BRANCH   1   7
ATOM      7  C   UNL     1      24.700  62.346  14.804  1.00  0.00     0.000 C 
BRANCH   7   8
ATOM      8  C   UNL     1      23.371  62.368  14.038  1.00  0.00     0.000 C 
BRANCH   8   9
ATOM      9  C   UNL     1      22.965  63.804  13.684  1.00  0.00     0.004 C 
BRANCH   9  10
ATOM     10  C   UNL     1      21.486  64.053  14.009  1.00  0.00     0.027 C 
BRANCH  10  11
ATOM     11  C   UNL     1      20.746  62.759  14.203  1.00  0.00    -0.035 C 
ATOM     12  C   UNL     1      19.443  62.646  13.931  1.00  0.00     0.004 C 
ENDBRANCH  10  11
ENDBRANCH   9  10
ENDBRANCH   8   9
ENDBRANCH   7   8
ENDBRANCH   1   7
TORSDOF 9
ENDMDL
MODEL 9
REMARK VINA RESULT:    -3.533      2.211      3.905
REMARK INTER + INTRA:          -6.269
REMARK INTER:                  -5.106
REMARK INTRA:                  -1.163
REMARK UNBOUND:                -0.878
REMARK SMILES C=CCCCCCCCCCC
REMARK SMILES IDX 7 1 8 2 9 3 10 4 11 5 12 6 6 7 5 8 4 9 3 10 2 11 1 12
REMARK H PARENT
REMARK Flexibility Score: inf
ROOT
ATOM      1  C   UNL     1      20.490  62.665  14.221  1.00  0.00     0.000 C 
ENDROOT
BRANCH   1   2
ATOM      2  C   UNL     1      21.680  63.603  13.960  1.00  0.00    -0.000 C 
BRANCH   2   3
ATOM      3  C   UNL     1      22.976  63.113  14.628  1.00  0.00    -0.000 C 
BRANCH   3   4
ATOM      4  C   UNL     1      23.655  61.982  13.840  1.00  0.00    -0.000 C 
BRANCH   4   5
ATOM      5  C   UNL     1      24.694  61.221  14.678  1.00  0.00    -0.003 C 
ATOM      6  C   UNL     1      24.420  61.379  16.170  1.00  0.00     0.004 C 
ENDBRANCH   4   5
ENDBRANCH   3   4
ENDBRANCH   2   3
ENDBRANCH   1   2
BRANCH   1   7
ATOM      7  C   UNL     1      19.146  63.408  14.243  1.00  0.00     0.000 C 
BRANCH   7   8
ATOM      8  C   UNL     1      19.271  64.748  14.979  1.00  0.00     0.000 C 
BRANCH   8   9
ATOM      9  C   UNL     1      18.774  64.631  16.424  1.00  0.00     0.004 C 
BRANCH   9  10
ATOM     10  C   UNL     1      19.944  64.687  17.415  1.00  0.00     0.027 C 
BRANCH  10  11
ATOM     11  C   UNL     1      20.254  63.325  17.970  1.00  0.00    -0.035 C 
ATOM     12  C   UNL     1      21.509  62.884  18.093  1.00  0.00     0.004 C 
ENDBRANCH  10  11
ENDBRANCH   9  10
ENDBRANCH   8   9
ENDBRANCH   7   8
ENDBRANCH   1   7
TORSDOF 9
ENDMDL
