MODEL 1
REMARK VINA RESULT:    -5.974      0.000      0.000
REMARK INTER + INTRA:          -7.490
REMARK INTER:                  -7.197
REMARK INTRA:                  -0.294
REMARK UNBOUND:                -0.294
REMARK SMILES O=c1c(O)c(-c2ccc(O)c(O)c2)oc2cc(O)cc(O)c12
REMARK SMILES IDX 5 1 3 2 2 3 1 4 22 5 20 6 19 7 17 8 16 9 15 10 14 11 6 12
REMARK SMILES IDX 7 13 8 14 9 15 13 16 11 17 10 18 12 20 4 22 21 24 18 26
REMARK H PARENT 10 19 12 21 4 23 21 25 18 27
REMARK Flexibility Score: inf
ROOT
ATOM      1  C   UNL     1      13.155  20.037 -11.043  1.00  0.00     0.180 A 
ATOM      2  C   UNL     1      12.346  20.839 -10.220  1.00  0.00     0.208 A 
ATOM      3  C   UNL     1      11.137  20.315  -9.735  1.00  0.00     0.238 A 
ATOM      4  O   UNL     1      10.443  21.019  -8.955  1.00  0.00    -0.285 OA
ATOM      5  C   UNL     1      10.745  19.003 -10.092  1.00  0.00     0.111 A 
ATOM      6  C   UNL     1       9.521  18.386  -9.691  1.00  0.00     0.134 A 
ATOM      7  C   UNL     1       9.296  17.037  -9.995  1.00  0.00     0.093 A 
ATOM      8  C   UNL     1      10.221  16.303 -10.742  1.00  0.00     0.123 A 
ATOM      9  C   UNL     1      11.390  16.914 -11.189  1.00  0.00     0.094 A 
ATOM     10  C   UNL     1      11.660  18.247 -10.870  1.00  0.00     0.146 A 
ATOM     11  O   UNL     1      12.791  18.787 -11.307  1.00  0.00    -0.452 OA
ENDROOT
BRANCH   1  12
ATOM     12  C   UNL     1      14.431  20.528 -11.614  1.00  0.00     0.025 A 
ATOM     13  C   UNL     1      15.591  20.513 -10.824  1.00  0.00     0.016 A 
ATOM     14  C   UNL     1      16.810  20.952 -11.348  1.00  0.00     0.051 A 
ATOM     15  C   UNL     1      16.892  21.398 -12.670  1.00  0.00     0.157 A 
ATOM     16  C   UNL     1      14.519  20.957 -12.950  1.00  0.00     0.062 A 
ATOM     17  C   UNL     1      15.741  21.397 -13.478  1.00  0.00     0.158 A 
BRANCH  15  18
ATOM     18  O   UNL     1      18.120  21.832 -13.165  1.00  0.00    -0.504 OA
ATOM     19  H   UNL     1      18.678  22.529 -12.684  1.00  0.00     0.293 HD
ENDBRANCH  15  18
BRANCH  17  20
ATOM     20  O   UNL     1      15.819  21.827 -14.802  1.00  0.00    -0.504 OA
ATOM     21  H   UNL     1      16.061  22.783 -15.036  1.00  0.00     0.293 HD
ENDBRANCH  17  20
ENDBRANCH   1  12
BRANCH   2  22
ATOM     22  O   UNL     1      12.763  22.124  -9.862  1.00  0.00    -0.502 OA
ATOM     23  H   UNL     1      12.132  22.812  -9.469  1.00  0.00     0.293 HD
ENDBRANCH   2  22
BRANCH   6  24
ATOM     24  O   UNL     1       8.492  19.055  -9.023  1.00  0.00    -0.507 OA
ATOM     25  H   UNL     1       8.126  19.956  -9.288  1.00  0.00     0.293 HD
ENDBRANCH   6  24
BRANCH   8  26
ATOM     26  O   UNL     1       9.982  14.967 -11.053  1.00  0.00    -0.508 OA
ATOM     27  H   UNL     1      10.547  14.471 -11.733  1.00  0.00     0.293 HD
ENDBRANCH   8  26
TORSDOF 6
ENDMDL
MODEL 2
REMARK VINA RESULT:    -5.921     15.552     18.066
REMARK INTER + INTRA:          -7.427
REMARK INTER:                  -7.104
REMARK INTRA:                  -0.323
REMARK UNBOUND:                -0.294
REMARK SMILES O=c1c(O)c(-c2ccc(O)c(O)c2)oc2cc(O)cc(O)c12
REMARK SMILES IDX 5 1 3 2 2 3 1 4 22 5 20 6 19 7 17 8 16 9 15 10 14 11 6 12
REMARK SMILES IDX 7 13 8 14 9 15 13 16 11 17 10 18 12 20 4 22 21 24 18 26
REMARK H PARENT 10 19 12 21 4 23 21 25 18 27
REMARK Flexibility Score: inf
ROOT
ATOM      1  C   UNL     1      20.366   4.627 -10.293  1.00  0.00     0.180 A 
ATOM      2  C   UNL     1      20.705   3.307  -9.950  1.00  0.00     0.208 A 
ATOM      3  C   UNL     1      21.910   3.068  -9.270  1.00  0.00     0.238 A 
ATOM      4  O   UNL     1      22.182   1.890  -8.918  1.00  0.00    -0.285 OA
ATOM      5  C   UNL     1      22.769   4.148  -8.957  1.00  0.00     0.111 A 
ATOM      6  C   UNL     1      24.033   4.017  -8.307  1.00  0.00     0.134 A 
ATOM      7  C   UNL     1      24.739   5.167  -7.931  1.00  0.00     0.093 A 
ATOM      8  C   UNL     1      24.257   6.441  -8.239  1.00  0.00     0.123 A 
ATOM      9  C   UNL     1      23.053   6.578  -8.927  1.00  0.00     0.094 A 
ATOM     10  C   UNL     1      22.309   5.451  -9.283  1.00  0.00     0.146 A 
ATOM     11  O   UNL     1      21.162   5.627  -9.928  1.00  0.00    -0.452 OA
ENDROOT
BRANCH   1  12
ATOM     12  C   UNL     1      19.126   4.956 -11.032  1.00  0.00     0.025 A 
ATOM     13  C   UNL     1      19.141   4.967 -12.436  1.00  0.00     0.016 A 
ATOM     14  C   UNL     1      17.977   5.255 -13.154  1.00  0.00     0.051 A 
ATOM     15  C   UNL     1      16.779   5.519 -12.483  1.00  0.00     0.157 A 
ATOM     16  C   UNL     1      17.916   5.202 -10.360  1.00  0.00     0.062 A 
ATOM     17  C   UNL     1      16.746   5.489 -11.078  1.00  0.00     0.158 A 
BRANCH  15  18
ATOM     18  O   UNL     1      15.635   5.805 -13.226  1.00  0.00    -0.504 OA
ATOM     19  H   UNL     1      14.969   5.087 -13.486  1.00  0.00     0.293 HD
ENDBRANCH  15  18
BRANCH  17  20
ATOM     20  O   UNL     1      15.552   5.738 -10.403  1.00  0.00    -0.504 OA
ATOM     21  H   UNL     1      15.543   6.133  -9.469  1.00  0.00     0.293 HD
ENDBRANCH  17  20
ENDBRANCH   1  12
BRANCH   2  22
ATOM     22  O   UNL     1      19.832   2.257 -10.249  1.00  0.00    -0.502 OA
ATOM     23  H   UNL     1      20.150   1.379 -10.639  1.00  0.00     0.293 HD
ENDBRANCH   2  22
BRANCH   6  24
ATOM     24  O   UNL     1      24.647   2.790  -8.036  1.00  0.00    -0.507 OA
ATOM     25  H   UNL     1      25.498   2.466  -8.469  1.00  0.00     0.293 HD
ENDBRANCH   6  24
BRANCH   8  26
ATOM     26  O   UNL     1      24.973   7.579  -7.876  1.00  0.00    -0.508 OA
ATOM     27  H   UNL     1      24.672   8.506  -8.152  1.00  0.00     0.293 HD
ENDBRANCH   8  26
TORSDOF 6
ENDMDL
MODEL 3
REMARK VINA RESULT:    -5.744      1.577      6.922
REMARK INTER + INTRA:          -7.213
REMARK INTER:                  -6.903
REMARK INTRA:                  -0.311
REMARK UNBOUND:                -0.294
REMARK SMILES O=c1c(O)c(-c2ccc(O)c(O)c2)oc2cc(O)cc(O)c12
REMARK SMILES IDX 5 1 3 2 2 3 1 4 22 5 20 6 19 7 17 8 16 9 15 10 14 11 6 12
REMARK SMILES IDX 7 13 8 14 9 15 13 16 11 17 10 18 12 20 4 22 21 24 18 26
REMARK H PARENT 10 19 12 21 4 23 21 25 18 27
REMARK Flexibility Score: inf
ROOT
ATOM      1  C   UNL     1      13.122  19.921 -10.352  1.00  0.00     0.180 A 
ATOM      2  C   UNL     1      14.030  20.015  -9.284  1.00  0.00     0.208 A 
ATOM      3  C   UNL     1      15.331  20.480  -9.534  1.00  0.00     0.238 A 
ATOM      4  O   UNL     1      16.123  20.613  -8.565  1.00  0.00    -0.285 OA
ATOM      5  C   UNL     1      15.712  20.830 -10.852  1.00  0.00     0.111 A 
ATOM      6  C   UNL     1      17.015  21.274 -11.228  1.00  0.00     0.134 A 
ATOM      7  C   UNL     1      17.243  21.718 -12.537  1.00  0.00     0.093 A 
ATOM      8  C   UNL     1      16.232  21.671 -13.500  1.00  0.00     0.123 A 
ATOM      9  C   UNL     1      14.973  21.182 -13.158  1.00  0.00     0.094 A 
ATOM     10  C   UNL     1      14.706  20.767 -11.850  1.00  0.00     0.146 A 
ATOM     11  O   UNL     1      13.489  20.318 -11.565  1.00  0.00    -0.452 OA
ENDROOT
BRANCH   1  12
ATOM     12  C   UNL     1      11.741  19.415 -10.170  1.00  0.00     0.025 A 
ATOM     13  C   UNL     1      11.511  18.031 -10.148  1.00  0.00     0.016 A 
ATOM     14  C   UNL     1      10.219  17.532  -9.958  1.00  0.00     0.051 A 
ATOM     15  C   UNL     1       9.144  18.405  -9.772  1.00  0.00     0.157 A 
ATOM     16  C   UNL     1      10.662  20.292  -9.963  1.00  0.00     0.062 A 
ATOM     17  C   UNL     1       9.365  19.793  -9.770  1.00  0.00     0.158 A 
BRANCH  15  18
ATOM     18  O   UNL     1       7.867  17.878  -9.587  1.00  0.00    -0.504 OA
ATOM     19  H   UNL     1       7.625  16.939  -9.882  1.00  0.00     0.293 HD
ENDBRANCH  15  18
BRANCH  17  20
ATOM     20  O   UNL     1       8.299  20.669  -9.572  1.00  0.00    -0.504 OA
ATOM     21  H   UNL     1       8.450  21.652  -9.375  1.00  0.00     0.293 HD
ENDBRANCH  17  20
ENDBRANCH   1  12
BRANCH   2  22
ATOM     22  O   UNL     1      13.626  19.685  -7.987  1.00  0.00    -0.502 OA
ATOM     23  H   UNL     1      13.590  20.366  -7.238  1.00  0.00     0.293 HD
ENDBRANCH   2  22
BRANCH   6  24
ATOM     24  O   UNL     1      18.118  21.274 -10.368  1.00  0.00    -0.507 OA
ATOM     25  H   UNL     1      18.780  22.030 -10.282  1.00  0.00     0.293 HD
ENDBRANCH   6  24
BRANCH   8  26
ATOM     26  O   UNL     1      16.472  22.098 -14.803  1.00  0.00    -0.508 OA
ATOM     27  H   UNL     1      16.706  23.062 -15.010  1.00  0.00     0.293 HD
ENDBRANCH   8  26
TORSDOF 6
ENDMDL
MODEL 4
REMARK VINA RESULT:    -5.727      1.692      3.224
REMARK INTER + INTRA:          -7.193
REMARK INTER:                  -6.877
REMARK INTRA:                  -0.316
REMARK UNBOUND:                -0.294
REMARK SMILES O=c1c(O)c(-c2ccc(O)c(O)c2)oc2cc(O)cc(O)c12
REMARK SMILES IDX 5 1 3 2 2 3 1 4 22 5 20 6 19 7 17 8 16 9 15 10 14 11 6 12
REMARK SMILES IDX 7 13 8 14 9 15 13 16 11 17 10 18 12 20 4 22 21 24 18 26
REMARK H PARENT 10 19 12 21 4 23 21 25 18 27
REMARK Flexibility Score: inf
ROOT
ATOM      1  C   UNL     1      12.616  19.177 -10.567  1.00  0.00     0.180 A 
ATOM      2  C   UNL     1      12.664  17.805 -10.271  1.00  0.00     0.208 A 
ATOM      3  C   UNL     1      11.490  17.155  -9.857  1.00  0.00     0.238 A 
ATOM      4  O   UNL     1      11.527  15.915  -9.646  1.00  0.00    -0.285 OA
ATOM      5  C   UNL     1      10.287  17.890  -9.728  1.00  0.00     0.111 A 
ATOM      6  C   UNL     1       9.048  17.343  -9.278  1.00  0.00     0.134 A 
ATOM      7  C   UNL     1       7.891  18.132  -9.314  1.00  0.00     0.093 A 
ATOM      8  C   UNL     1       7.942  19.467  -9.722  1.00  0.00     0.123 A 
ATOM      9  C   UNL     1       9.158  20.027 -10.106  1.00  0.00     0.094 A 
ATOM     10  C   UNL     1      10.322  19.255 -10.116  1.00  0.00     0.146 A 
ATOM     11  O   UNL     1      11.458  19.825 -10.499  1.00  0.00    -0.452 OA
ENDROOT
BRANCH   1  12
ATOM     12  C   UNL     1      13.817  19.936 -10.985  1.00  0.00     0.025 A 
ATOM     13  C   UNL     1      14.174  19.971 -12.342  1.00  0.00     0.016 A 
ATOM     14  C   UNL     1      15.292  20.697 -12.762  1.00  0.00     0.051 A 
ATOM     15  C   UNL     1      16.059  21.412 -11.837  1.00  0.00     0.157 A 
ATOM     16  C   UNL     1      14.578  20.672 -10.059  1.00  0.00     0.062 A 
ATOM     17  C   UNL     1      15.699  21.403 -10.479  1.00  0.00     0.158 A 
BRANCH  15  18
ATOM     18  O   UNL     1      17.169  22.125 -12.285  1.00  0.00    -0.504 OA
ATOM     19  H   UNL     1      17.407  23.038 -11.915  1.00  0.00     0.293 HD
ENDBRANCH  15  18
BRANCH  17  20
ATOM     20  O   UNL     1      16.451  22.125  -9.553  1.00  0.00    -0.504 OA
ATOM     21  H   UNL     1      16.408  23.137  -9.508  1.00  0.00     0.293 HD
ENDBRANCH  17  20
ENDBRANCH   1  12
BRANCH   2  22
ATOM     22  O   UNL     1      13.857  17.094 -10.427  1.00  0.00    -0.502 OA
ATOM     23  H   UNL     1      13.886  16.153 -10.800  1.00  0.00     0.293 HD
ENDBRANCH   2  22
BRANCH   6  24
ATOM     24  O   UNL     1       8.906  16.050  -8.764  1.00  0.00    -0.507 OA
ATOM     25  H   UNL     1       8.043  15.662  -8.416  1.00  0.00     0.293 HD
ENDBRANCH   6  24
BRANCH   8  26
ATOM     26  O   UNL     1       6.790  20.249  -9.739  1.00  0.00    -0.508 OA
ATOM     27  H   UNL     1       6.580  20.869 -10.513  1.00  0.00     0.293 HD
ENDBRANCH   8  26
TORSDOF 6
ENDMDL
MODEL 5
REMARK VINA RESULT:    -5.233     15.372     18.027
REMARK INTER + INTRA:          -6.598
REMARK INTER:                  -6.489
REMARK INTRA:                  -0.108
REMARK UNBOUND:                -0.294
REMARK SMILES O=c1c(O)c(-c2ccc(O)c(O)c2)oc2cc(O)cc(O)c12
REMARK SMILES IDX 5 1 3 2 2 3 1 4 22 5 20 6 19 7 17 8 16 9 15 10 14 11 6 12
REMARK SMILES IDX 7 13 8 14 9 15 13 16 11 17 10 18 12 20 4 22 21 24 18 26
REMARK H PARENT 10 19 12 21 4 23 21 25 18 27
REMARK Flexibility Score: inf
ROOT
ATOM      1  C   UNL     1      20.551   4.586  -9.938  1.00  0.00     0.180 A 
ATOM      2  C   UNL     1      21.422   3.824  -9.140  1.00  0.00     0.208 A 
ATOM      3  C   UNL     1      22.586   4.427  -8.635  1.00  0.00     0.238 A 
ATOM      4  O   UNL     1      23.334   3.755  -7.877  1.00  0.00    -0.285 OA
ATOM      5  C   UNL     1      22.872   5.777  -8.948  1.00  0.00     0.111 A 
ATOM      6  C   UNL     1      24.042   6.476  -8.524  1.00  0.00     0.134 A 
ATOM      7  C   UNL     1      24.158   7.848  -8.783  1.00  0.00     0.093 A 
ATOM      8  C   UNL     1      23.177   8.531  -9.506  1.00  0.00     0.123 A 
ATOM      9  C   UNL     1      22.061   7.843  -9.977  1.00  0.00     0.094 A 
ATOM     10  C   UNL     1      21.899   6.483  -9.702  1.00  0.00     0.146 A 
ATOM     11  O   UNL     1      20.814   5.869 -10.160  1.00  0.00    -0.452 OA
ENDROOT
BRANCH   1  12
ATOM     12  C   UNL     1      19.318   4.014 -10.527  1.00  0.00     0.025 A 
ATOM     13  C   UNL     1      19.413   2.913 -11.392  1.00  0.00     0.016 A 
ATOM     14  C   UNL     1      18.262   2.344 -11.944  1.00  0.00     0.051 A 
ATOM     15  C   UNL     1      17.000   2.855 -11.627  1.00  0.00     0.157 A 
ATOM     16  C   UNL     1      18.047   4.513 -10.193  1.00  0.00     0.062 A 
ATOM     17  C   UNL     1      16.890   3.943 -10.744  1.00  0.00     0.158 A 
BRANCH  15  18
ATOM     18  O   UNL     1      15.870   2.268 -12.194  1.00  0.00    -0.504 OA
ATOM     19  H   UNL     1      15.697   1.271 -12.141  1.00  0.00     0.293 HD
ENDBRANCH  15  18
BRANCH  17  20
ATOM     20  O   UNL     1      15.634   4.448 -10.413  1.00  0.00    -0.504 OA
ATOM     21  H   UNL     1      15.179   4.209  -9.539  1.00  0.00     0.293 HD
ENDBRANCH  17  20
ENDBRANCH   1  12
BRANCH   2  22
ATOM     22  O   UNL     1      21.109   2.499  -8.825  1.00  0.00    -0.502 OA
ATOM     23  H   UNL     1      20.229   2.071  -9.086  1.00  0.00     0.293 HD
ENDBRANCH   2  22
BRANCH   6  24
ATOM     24  O   UNL     1      25.122   5.869  -7.876  1.00  0.00    -0.507 OA
ATOM     25  H   UNL     1      25.577   5.024  -8.185  1.00  0.00     0.293 HD
ENDBRANCH   6  24
BRANCH   8  26
ATOM     26  O   UNL     1      23.309   9.891  -9.773  1.00  0.00    -0.508 OA
ATOM     27  H   UNL     1      23.463  10.564  -9.032  1.00  0.00     0.293 HD
ENDBRANCH   8  26
TORSDOF 6
ENDMDL
MODEL 6
REMARK VINA RESULT:    -5.178      3.977      7.397
REMARK INTER + INTRA:          -6.531
REMARK INTER:                  -6.204
REMARK INTRA:                  -0.327
REMARK UNBOUND:                -0.294
REMARK SMILES O=c1c(O)c(-c2ccc(O)c(O)c2)oc2cc(O)cc(O)c12
REMARK SMILES IDX 5 1 3 2 2 3 1 4 22 5 20 6 19 7 17 8 16 9 15 10 14 11 6 12
REMARK SMILES IDX 7 13 8 14 9 15 13 16 11 17 10 18 12 20 4 22 21 24 18 26
REMARK H PARENT 10 19 12 21 4 23 21 25 18 27
REMARK Flexibility Score: inf
ROOT
ATOM      1  C   UNL     1      10.684  15.504  -9.981  1.00  0.00     0.180 A 
ATOM      2  C   UNL     1      11.932  16.092  -9.711  1.00  0.00     0.208 A 
ATOM      3  C   UNL     1      11.998  17.477  -9.486  1.00  0.00     0.238 A 
ATOM      4  O   UNL     1      13.110  17.989  -9.191  1.00  0.00    -0.285 OA
ATOM      5  C   UNL     1      10.820  18.258  -9.550  1.00  0.00     0.111 A 
ATOM      6  C   UNL     1      10.776  19.674  -9.378  1.00  0.00     0.134 A 
ATOM      7  C   UNL     1       9.537  20.326  -9.333  1.00  0.00     0.093 A 
ATOM      8  C   UNL     1       8.345  19.622  -9.518  1.00  0.00     0.123 A 
ATOM      9  C   UNL     1       8.381  18.248  -9.746  1.00  0.00     0.094 A 
ATOM     10  C   UNL     1       9.599  17.564  -9.760  1.00  0.00     0.146 A 
ATOM     11  O   UNL     1       9.587  16.254  -9.970  1.00  0.00    -0.452 OA
ENDROOT
BRANCH   1  12
ATOM     12  C   UNL     1      10.538  14.056 -10.254  1.00  0.00     0.025 A 
ATOM     13  C   UNL     1      10.133  13.196  -9.221  1.00  0.00     0.016 A 
ATOM     14  C   UNL     1       9.969  11.829  -9.461  1.00  0.00     0.051 A 
ATOM     15  C   UNL     1      10.190  11.304 -10.737  1.00  0.00     0.157 A 
ATOM     16  C   UNL     1      10.741  13.529 -11.541  1.00  0.00     0.062 A 
ATOM     17  C   UNL     1      10.575  12.158 -11.785  1.00  0.00     0.158 A 
BRANCH  15  18
ATOM     18  O   UNL     1      10.021   9.936 -10.945  1.00  0.00    -0.504 OA
ATOM     19  H   UNL     1      10.769   9.349 -11.296  1.00  0.00     0.293 HD
ENDBRANCH  15  18
BRANCH  17  20
ATOM     20  O   UNL     1      10.785  11.642 -13.063  1.00  0.00    -0.504 OA
ATOM     21  H   UNL     1      11.702  11.338 -13.369  1.00  0.00     0.293 HD
ENDBRANCH  17  20
ENDBRANCH   1  12
BRANCH   2  22
ATOM     22  O   UNL     1      13.080  15.299  -9.631  1.00  0.00    -0.502 OA
ATOM     23  H   UNL     1      13.725  15.353  -8.852  1.00  0.00     0.293 HD
ENDBRANCH   2  22
BRANCH   6  24
ATOM     24  O   UNL     1      11.912  20.484  -9.277  1.00  0.00    -0.507 OA
ATOM     25  H   UNL     1      12.579  20.633 -10.019  1.00  0.00     0.293 HD
ENDBRANCH   6  24
BRANCH   8  26
ATOM     26  O   UNL     1       7.118  20.281  -9.487  1.00  0.00    -0.508 OA
ATOM     27  H   UNL     1       6.412  20.119 -10.195  1.00  0.00     0.293 HD
ENDBRANCH   8  26
TORSDOF 6
ENDMDL
MODEL 7
REMARK VINA RESULT:    -5.160      2.235      7.012
REMARK INTER + INTRA:          -6.510
REMARK INTER:                  -6.284
REMARK INTRA:                  -0.225
REMARK UNBOUND:                -0.294
REMARK SMILES O=c1c(O)c(-c2ccc(O)c(O)c2)oc2cc(O)cc(O)c12
REMARK SMILES IDX 5 1 3 2 2 3 1 4 22 5 20 6 19 7 17 8 16 9 15 10 14 11 6 12
REMARK SMILES IDX 7 13 8 14 9 15 13 16 11 17 10 18 12 20 4 22 21 24 18 26
REMARK H PARENT 10 19 12 21 4 23 21 25 18 27
REMARK Flexibility Score: inf
ROOT
ATOM      1  C   UNL     1      12.429  19.242  -9.591  1.00  0.00     0.180 A 
ATOM      2  C   UNL     1      13.159  18.324  -8.817  1.00  0.00     0.208 A 
ATOM      3  C   UNL     1      14.559  18.299  -8.930  1.00  0.00     0.238 A 
ATOM      4  O   UNL     1      15.210  17.512  -8.194  1.00  0.00    -0.285 OA
ATOM      5  C   UNL     1      15.209  19.180  -9.827  1.00  0.00     0.111 A 
ATOM      6  C   UNL     1      16.618  19.213 -10.051  1.00  0.00     0.134 A 
ATOM      7  C   UNL     1      17.164  20.214 -10.864  1.00  0.00     0.093 A 
ATOM      8  C   UNL     1      16.346  21.143 -11.512  1.00  0.00     0.123 A 
ATOM      9  C   UNL     1      14.964  21.081 -11.347  1.00  0.00     0.094 A 
ATOM     10  C   UNL     1      14.393  20.116 -10.513  1.00  0.00     0.146 A 
ATOM     11  O   UNL     1      13.073  20.100 -10.375  1.00  0.00    -0.452 OA
ENDROOT
BRANCH   1  12
ATOM     12  C   UNL     1      10.950  19.311  -9.546  1.00  0.00     0.025 A 
ATOM     13  C   UNL     1      10.328  20.466  -9.048  1.00  0.00     0.016 A 
ATOM     14  C   UNL     1       8.934  20.561  -9.015  1.00  0.00     0.051 A 
ATOM     15  C   UNL     1       8.142  19.512  -9.492  1.00  0.00     0.157 A 
ATOM     16  C   UNL     1      10.153  18.266 -10.045  1.00  0.00     0.062 A 
ATOM     17  C   UNL     1       8.754  18.360 -10.014  1.00  0.00     0.158 A 
BRANCH  15  18
ATOM     18  O   UNL     1       6.755  19.635  -9.444  1.00  0.00    -0.504 OA
ATOM     19  H   UNL     1       6.264  20.383  -9.920  1.00  0.00     0.293 HD
ENDBRANCH  15  18
BRANCH  17  20
ATOM     20  O   UNL     1       7.970  17.316 -10.505  1.00  0.00    -0.504 OA
ATOM     21  H   UNL     1       7.087  17.489 -10.971  1.00  0.00     0.293 HD
ENDBRANCH  17  20
ENDBRANCH   1  12
BRANCH   2  22
ATOM     22  O   UNL     1      12.499  17.478  -7.922  1.00  0.00    -0.502 OA
ATOM     23  H   UNL     1      12.127  16.577  -8.197  1.00  0.00     0.293 HD
ENDBRANCH   2  22
BRANCH   6  24
ATOM     24  O   UNL     1      17.514  18.277  -9.526  1.00  0.00    -0.507 OA
ATOM     25  H   UNL     1      17.299  17.629  -8.784  1.00  0.00     0.293 HD
ENDBRANCH   6  24
BRANCH   8  26
ATOM     26  O   UNL     1      16.896  22.125 -12.332  1.00  0.00    -0.508 OA
ATOM     27  H   UNL     1      16.447  23.024 -12.457  1.00  0.00     0.293 HD
ENDBRANCH   8  26
TORSDOF 6
ENDMDL
MODEL 8
REMARK VINA RESULT:    -5.154      1.677      2.224
REMARK INTER + INTRA:          -6.502
REMARK INTER:                  -6.180
REMARK INTRA:                  -0.323
REMARK UNBOUND:                -0.294
REMARK SMILES O=c1c(O)c(-c2ccc(O)c(O)c2)oc2cc(O)cc(O)c12
REMARK SMILES IDX 5 1 3 2 2 3 1 4 22 5 20 6 19 7 17 8 16 9 15 10 14 11 6 12
REMARK SMILES IDX 7 13 8 14 9 15 13 16 11 17 10 18 12 20 4 22 21 24 18 26
REMARK H PARENT 10 19 12 21 4 23 21 25 18 27
REMARK Flexibility Score: inf
ROOT
ATOM      1  C   UNL     1      12.896  19.011 -10.688  1.00  0.00     0.180 A 
ATOM      2  C   UNL     1      11.642  19.605 -10.463  1.00  0.00     0.208 A 
ATOM      3  C   UNL     1      10.573  18.800 -10.036  1.00  0.00     0.238 A 
ATOM      4  O   UNL     1       9.468  19.347  -9.785  1.00  0.00    -0.285 OA
ATOM      5  C   UNL     1      10.768  17.410  -9.854  1.00  0.00     0.111 A 
ATOM      6  C   UNL     1       9.746  16.494  -9.463  1.00  0.00     0.134 A 
ATOM      7  C   UNL     1      10.081  15.162  -9.187  1.00  0.00     0.093 A 
ATOM      8  C   UNL     1      11.389  14.699  -9.352  1.00  0.00     0.123 A 
ATOM      9  C   UNL     1      12.381  15.573  -9.792  1.00  0.00     0.094 A 
ATOM     10  C   UNL     1      12.085  16.915 -10.039  1.00  0.00     0.146 A 
ATOM     11  O   UNL     1      13.063  17.715 -10.446  1.00  0.00    -0.452 OA
ENDROOT
BRANCH   1  12
ATOM     12  C   UNL     1      14.063  19.789 -11.164  1.00  0.00     0.025 A 
ATOM     13  C   UNL     1      14.250  19.979 -12.542  1.00  0.00     0.016 A 
ATOM     14  C   UNL     1      15.333  20.727 -13.012  1.00  0.00     0.051 A 
ATOM     15  C   UNL     1      16.234  21.308 -12.115  1.00  0.00     0.157 A 
ATOM     16  C   UNL     1      14.959  20.391 -10.263  1.00  0.00     0.062 A 
ATOM     17  C   UNL     1      16.045  21.143 -10.733  1.00  0.00     0.158 A 
BRANCH  15  18
ATOM     18  O   UNL     1      17.306  22.046 -12.614  1.00  0.00    -0.504 OA
ATOM     19  H   UNL     1      17.305  22.429 -13.553  1.00  0.00     0.293 HD
ENDBRANCH  15  18
BRANCH  17  20
ATOM     20  O   UNL     1      16.932  21.731  -9.832  1.00  0.00    -0.504 OA
ATOM     21  H   UNL     1      17.165  21.288  -8.951  1.00  0.00     0.293 HD
ENDBRANCH  17  20
ENDBRANCH   1  12
BRANCH   2  22
ATOM     22  O   UNL     1      11.478  20.983 -10.628  1.00  0.00    -0.502 OA
ATOM     23  H   UNL     1      10.566  21.419 -10.695  1.00  0.00     0.293 HD
ENDBRANCH   2  22
BRANCH   6  24
ATOM     24  O   UNL     1       8.392  16.831  -9.359  1.00  0.00    -0.507 OA
ATOM     25  H   UNL     1       7.778  16.521  -8.622  1.00  0.00     0.293 HD
ENDBRANCH   6  24
BRANCH   8  26
ATOM     26  O   UNL     1      11.710  13.370  -9.091  1.00  0.00    -0.508 OA
ATOM     27  H   UNL     1      12.512  13.119  -8.524  1.00  0.00     0.293 HD
ENDBRANCH   8  26
TORSDOF 6
ENDMDL
