MODEL 1
REMARK VINA RESULT:    -3.193      0.000      0.000
REMARK INTER + INTRA:          -4.312
REMARK INTER:                  -4.126
REMARK INTRA:                  -0.186
REMARK UNBOUND:                -0.186
REMARK SMILES CCCCCCC(=O)[O-]
REMARK SMILES IDX 5 1 6 2 7 3 8 4 9 5 4 6 3 7 2 8 1 9
REMARK H PARENT
REMARK Flexibility Score: inf
ROOT
ATOM      1  C   UNL     1      57.199  28.077  50.491  1.00  0.00     0.006 C 
ENDROOT
BRANCH   1   2
ATOM      2  C   UNL     1      58.339  28.770  49.735  1.00  0.00     0.053 C 
BRANCH   2   3
ATOM      3  C   UNL     1      59.427  27.793  49.420  1.00  0.00     0.041 C 
ATOM      4  O   UNL     1      59.169  26.563  49.333  1.00  0.00    -0.550 OA
ATOM      5  O   UNL     1      60.736  28.233  49.273  1.00  0.00    -0.550 OA
ENDBRANCH   2   3
ENDBRANCH   1   2
BRANCH   1   6
ATOM      6  C   UNL     1      55.896  28.893  50.476  1.00  0.00     0.000 C 
BRANCH   6   7
ATOM      7  C   UNL     1      54.669  28.040  50.117  1.00  0.00    -0.000 C 
BRANCH   7   8
ATOM      8  C   UNL     1      55.068  26.578  49.885  1.00  0.00    -0.003 C 
ATOM      9  C   UNL     1      53.980  25.824  49.124  1.00  0.00     0.004 C 
ENDBRANCH   7   8
ENDBRANCH   6   7
ENDBRANCH   1   6
TORSDOF 5
ENDMDL
MODEL 2
REMARK VINA RESULT:    -3.177     13.371     14.600
REMARK INTER + INTRA:          -4.292
REMARK INTER:                  -4.138
REMARK INTRA:                  -0.154
REMARK UNBOUND:                -0.186
REMARK SMILES CCCCCCC(=O)[O-]
REMARK SMILES IDX 5 1 6 2 7 3 8 4 9 5 4 6 3 7 2 8 1 9
REMARK H PARENT
REMARK Flexibility Score: inf
ROOT
ATOM      1  C   UNL     1      62.248  33.620  60.652  1.00  0.00     0.006 C 
ENDROOT
BRANCH   1   2
ATOM      2  C   UNL     1      61.134  32.596  60.404  1.00  0.00     0.053 C 
BRANCH   2   3
ATOM      3  C   UNL     1      61.255  31.451  61.359  1.00  0.00     0.041 C 
ATOM      4  O   UNL     1      60.288  31.142  62.104  1.00  0.00    -0.550 OA
ATOM      5  O   UNL     1      62.453  30.756  61.463  1.00  0.00    -0.550 OA
ENDBRANCH   2   3
ENDBRANCH   1   2
BRANCH   1   6
ATOM      6  C   UNL     1      61.728  35.066  60.681  1.00  0.00     0.000 C 
BRANCH   6   7
ATOM      7  C   UNL     1      62.818  36.079  61.064  1.00  0.00    -0.000 C 
BRANCH   7   8
ATOM      8  C   UNL     1      64.111  35.363  61.474  1.00  0.00    -0.003 C 
ATOM      9  C   UNL     1      65.183  36.362  61.900  1.00  0.00     0.004 C 
ENDBRANCH   7   8
ENDBRANCH   6   7
ENDBRANCH   1   6
TORSDOF 5
ENDMDL
MODEL 3
REMARK VINA RESULT:    -3.176      0.788      1.611
REMARK INTER + INTRA:          -4.291
REMARK INTER:                  -4.136
REMARK INTRA:                  -0.154
REMARK UNBOUND:                -0.186
REMARK SMILES CCCCCCC(=O)[O-]
REMARK SMILES IDX 5 1 6 2 7 3 8 4 9 5 4 6 3 7 2 8 1 9
REMARK H PARENT
REMARK Flexibility Score: inf
ROOT
ATOM      1  C   UNL     1      57.855  29.454  50.383  1.00  0.00     0.006 C 
ENDROOT
BRANCH   1   2
ATOM      2  C   UNL     1      58.760  29.256  49.161  1.00  0.00     0.053 C 
BRANCH   2   3
ATOM      3  C   UNL     1      59.816  28.239  49.454  1.00  0.00     0.041 C 
ATOM      4  O   UNL     1      60.967  28.605  49.811  1.00  0.00    -0.550 OA
ATOM      5  O   UNL     1      59.546  26.886  49.285  1.00  0.00    -0.550 OA
ENDBRANCH   2   3
ENDBRANCH   1   2
BRANCH   1   6
ATOM      6  C   UNL     1      56.667  28.478  50.406  1.00  0.00     0.000 C 
BRANCH   6   7
ATOM      7  C   UNL     1      55.331  29.180  50.692  1.00  0.00    -0.000 C 
BRANCH   7   8
ATOM      8  C   UNL     1      54.160  28.394  50.089  1.00  0.00    -0.003 C 
ATOM      9  C   UNL     1      54.542  26.937  49.845  1.00  0.00     0.004 C 
ENDBRANCH   7   8
ENDBRANCH   6   7
ENDBRANCH   1   6
TORSDOF 5
ENDMDL
MODEL 4
REMARK VINA RESULT:    -3.164     12.730     13.860
REMARK INTER + INTRA:          -4.275
REMARK INTER:                  -4.131
REMARK INTRA:                  -0.144
REMARK UNBOUND:                -0.186
REMARK SMILES CCCCCCC(=O)[O-]
REMARK SMILES IDX 5 1 6 2 7 3 8 4 9 5 4 6 3 7 2 8 1 9
REMARK H PARENT
REMARK Flexibility Score: inf
ROOT
ATOM      1  C   UNL     1      60.951  32.196  60.576  1.00  0.00     0.006 C 
ENDROOT
BRANCH   1   2
ATOM      2  C   UNL     1      60.886  31.276  61.801  1.00  0.00     0.053 C 
BRANCH   2   3
ATOM      3  C   UNL     1      61.733  30.062  61.586  1.00  0.00     0.041 C 
ATOM      4  O   UNL     1      61.202  28.967  61.260  1.00  0.00    -0.550 OA
ATOM      5  O   UNL     1      63.105  30.125  61.795  1.00  0.00    -0.550 OA
ENDBRANCH   2   3
ENDBRANCH   1   2
BRANCH   1   6
ATOM      6  C   UNL     1      62.110  33.203  60.653  1.00  0.00     0.000 C 
BRANCH   6   7
ATOM      7  C   UNL     1      61.627  34.662  60.647  1.00  0.00    -0.000 C 
BRANCH   7   8
ATOM      8  C   UNL     1      62.772  35.619  61.002  1.00  0.00    -0.003 C 
ATOM      9  C   UNL     1      64.039  34.850  61.366  1.00  0.00     0.004 C 
ENDBRANCH   7   8
ENDBRANCH   6   7
ENDBRANCH   1   6
TORSDOF 5
ENDMDL
MODEL 5
REMARK VINA RESULT:    -3.084     13.591     14.519
REMARK INTER + INTRA:          -4.172
REMARK INTER:                  -4.042
REMARK INTRA:                  -0.131
REMARK UNBOUND:                -0.186
REMARK SMILES CCCCCCC(=O)[O-]
REMARK SMILES IDX 5 1 6 2 7 3 8 4 9 5 4 6 3 7 2 8 1 9
REMARK H PARENT
REMARK Flexibility Score: inf
ROOT
ATOM      1  C   UNL     1      62.482  34.222  60.710  1.00  0.00     0.006 C 
ENDROOT
BRANCH   1   2
ATOM      2  C   UNL     1      63.924  34.690  60.940  1.00  0.00     0.053 C 
BRANCH   2   3
ATOM      3  C   UNL     1      63.938  36.042  61.579  1.00  0.00     0.041 C 
ATOM      4  O   UNL     1      64.934  36.413  62.256  1.00  0.00    -0.550 OA
ATOM      5  O   UNL     1      62.832  36.875  61.470  1.00  0.00    -0.550 OA
ENDBRANCH   2   3
ENDBRANCH   1   2
BRANCH   1   6
ATOM      6  C   UNL     1      62.353  32.691  60.684  1.00  0.00     0.000 C 
BRANCH   6   7
ATOM      7  C   UNL     1      60.896  32.218  60.799  1.00  0.00    -0.000 C 
BRANCH   7   8
ATOM      8  C   UNL     1      60.745  31.176  61.915  1.00  0.00    -0.003 C 
ATOM      9  C   UNL     1      61.906  30.184  61.903  1.00  0.00     0.004 C 
ENDBRANCH   7   8
ENDBRANCH   6   7
ENDBRANCH   1   6
TORSDOF 5
ENDMDL
MODEL 6
REMARK VINA RESULT:    -3.084      3.101      4.654
REMARK INTER + INTRA:          -4.172
REMARK INTER:                  -3.934
REMARK INTRA:                  -0.238
REMARK UNBOUND:                -0.186
REMARK SMILES CCCCCCC(=O)[O-]
REMARK SMILES IDX 5 1 6 2 7 3 8 4 9 5 4 6 3 7 2 8 1 9
REMARK H PARENT
REMARK Flexibility Score: inf
ROOT
ATOM      1  C   UNL     1      56.013  28.178  50.507  1.00  0.00     0.006 C 
ENDROOT
BRANCH   1   2
ATOM      2  C   UNL     1      55.771  26.735  50.048  1.00  0.00     0.053 C 
BRANCH   2   3
ATOM      3  C   UNL     1      54.354  26.561  49.602  1.00  0.00     0.041 C 
ATOM      4  O   UNL     1      53.946  25.435  49.212  1.00  0.00    -0.550 OA
ATOM      5  O   UNL     1      53.495  27.652  49.571  1.00  0.00    -0.550 OA
ENDBRANCH   2   3
ENDBRANCH   1   2
BRANCH   1   6
ATOM      6  C   UNL     1      57.484  28.447  50.867  1.00  0.00     0.000 C 
BRANCH   6   7
ATOM      7  C   UNL     1      58.114  29.545  49.998  1.00  0.00    -0.000 C 
BRANCH   7   8
ATOM      8  C   UNL     1      59.156  28.955  49.040  1.00  0.00    -0.003 C 
ATOM      9  C   UNL     1      59.536  27.534  49.446  1.00  0.00     0.004 C 
ENDBRANCH   7   8
ENDBRANCH   6   7
ENDBRANCH   1   6
TORSDOF 5
ENDMDL
MODEL 7
REMARK VINA RESULT:    -3.069     13.289     13.941
REMARK INTER + INTRA:          -4.152
REMARK INTER:                  -3.926
REMARK INTRA:                  -0.226
REMARK UNBOUND:                -0.186
REMARK SMILES CCCCCCC(=O)[O-]
REMARK SMILES IDX 5 1 6 2 7 3 8 4 9 5 4 6 3 7 2 8 1 9
REMARK H PARENT
REMARK Flexibility Score: inf
ROOT
ATOM      1  C   UNL     1      63.172  32.026  60.476  1.00  0.00     0.006 C 
ENDROOT
BRANCH   1   2
ATOM      2  C   UNL     1      63.390  30.827  61.407  1.00  0.00     0.053 C 
BRANCH   2   3
ATOM      3  C   UNL     1      62.080  30.208  61.777  1.00  0.00     0.041 C 
ATOM      4  O   UNL     1      61.954  28.955  61.802  1.00  0.00    -0.550 OA
ATOM      5  O   UNL     1      60.981  31.015  62.046  1.00  0.00    -0.550 OA
ENDBRANCH   2   3
ENDBRANCH   1   2
BRANCH   1   6
ATOM      6  C   UNL     1      64.085  33.214  60.817  1.00  0.00     0.000 C 
BRANCH   6   7
ATOM      7  C   UNL     1      63.310  34.533  60.962  1.00  0.00    -0.000 C 
BRANCH   7   8
ATOM      8  C   UNL     1      61.833  34.343  60.596  1.00  0.00    -0.003 C 
ATOM      9  C   UNL     1      61.095  35.678  60.572  1.00  0.00     0.004 C 
ENDBRANCH   7   8
ENDBRANCH   6   7
ENDBRANCH   1   6
TORSDOF 5
ENDMDL
MODEL 8
REMARK VINA RESULT:    -3.049     13.138     13.844
REMARK INTER + INTRA:          -4.126
REMARK INTER:                  -3.988
REMARK INTRA:                  -0.139
REMARK UNBOUND:                -0.186
REMARK SMILES CCCCCCC(=O)[O-]
REMARK SMILES IDX 5 1 6 2 7 3 8 4 9 5 4 6 3 7 2 8 1 9
REMARK H PARENT
REMARK Flexibility Score: inf
ROOT
ATOM      1  C   UNL     1      62.052  33.013  60.639  1.00  0.00     0.006 C 
ENDROOT
BRANCH   1   2
ATOM      2  C   UNL     1      61.710  34.502  60.510  1.00  0.00     0.053 C 
BRANCH   2   3
ATOM      3  C   UNL     1      62.792  35.340  61.114  1.00  0.00     0.041 C 
ATOM      4  O   UNL     1      62.596  36.564  61.336  1.00  0.00    -0.550 OA
ATOM      5  O   UNL     1      64.034  34.781  61.386  1.00  0.00    -0.550 OA
ENDBRANCH   2   3
ENDBRANCH   1   2
BRANCH   1   6
ATOM      6  C   UNL     1      60.803  32.116  60.645  1.00  0.00     0.000 C 
BRANCH   6   7
ATOM      7  C   UNL     1      60.832  31.069  61.769  1.00  0.00    -0.000 C 
BRANCH   7   8
ATOM      8  C   UNL     1      62.163  30.307  61.772  1.00  0.00    -0.003 C 
ATOM      9  C   UNL     1      61.945  28.817  61.520  1.00  0.00     0.004 C 
ENDBRANCH   7   8
ENDBRANCH   6   7
ENDBRANCH   1   6
TORSDOF 5
ENDMDL
MODEL 9
REMARK VINA RESULT:    -3.036      1.107      1.495
REMARK INTER + INTRA:          -4.110
REMARK INTER:                  -3.960
REMARK INTRA:                  -0.150
REMARK UNBOUND:                -0.186
REMARK SMILES CCCCCCC(=O)[O-]
REMARK SMILES IDX 5 1 6 2 7 3 8 4 9 5 4 6 3 7 2 8 1 9
REMARK H PARENT
REMARK Flexibility Score: inf
ROOT
ATOM      1  C   UNL     1      57.408  27.302  50.545  1.00  0.00     0.006 C 
ENDROOT
BRANCH   1   2
ATOM      2  C   UNL     1      58.606  26.710  49.792  1.00  0.00     0.053 C 
BRANCH   2   3
ATOM      3  C   UNL     1      59.526  27.798  49.340  1.00  0.00     0.041 C 
ATOM      4  O   UNL     1      60.774  27.639  49.400  1.00  0.00    -0.550 OA
ATOM      5  O   UNL     1      59.009  29.009  48.898  1.00  0.00    -0.550 OA
ENDBRANCH   2   3
ENDBRANCH   1   2
BRANCH   1   6
ATOM      6  C   UNL     1      56.067  26.704  50.088  1.00  0.00     0.000 C 
BRANCH   6   7
ATOM      7  C   UNL     1      54.904  27.701  50.210  1.00  0.00    -0.000 C 
BRANCH   7   8
ATOM      8  C   UNL     1      53.624  27.127  49.588  1.00  0.00    -0.003 C 
ATOM      9  C   UNL     1      53.842  25.698  49.099  1.00  0.00     0.004 C 
ENDBRANCH   7   8
ENDBRANCH   6   7
ENDBRANCH   1   6
TORSDOF 5
ENDMDL
