MODEL 1
REMARK VINA RESULT:    -1.771      0.000      0.000
REMARK INTER + INTRA:          -3.001
REMARK INTER:                  -2.702
REMARK INTRA:                  -0.299
REMARK UNBOUND:                -0.299
REMARK SMILES O=C([O-])CCCCCCCCC(=O)[O-]
REMARK SMILES IDX 7 1 6 2 5 3 4 4 2 5 1 6 3 7 8 8 9 9 10 10 11 11 12 12 13 13
REMARK SMILES IDX 14 14
REMARK H PARENT
REMARK Flexibility Score: inf
ROOT
ATOM      1  C   UNL     1      -6.290  51.834  -6.286  1.00  0.00     0.000 C 
ENDROOT
BRANCH   1   2
ATOM      2  C   UNL     1      -6.179  51.649  -7.809  1.00  0.00     0.000 C 
BRANCH   2   3
ATOM      3  C   UNL     1      -4.796  52.043  -8.356  1.00  0.00     0.006 C 
BRANCH   3   4
ATOM      4  C   UNL     1      -3.737  52.123  -7.249  1.00  0.00     0.053 C 
BRANCH   4   5
ATOM      5  C   UNL     1      -2.372  51.770  -7.758  1.00  0.00     0.041 C 
ATOM      6  O   UNL     1      -2.044  52.048  -8.942  1.00  0.00    -0.550 OA
ATOM      7  O   UNL     1      -1.473  51.105  -6.934  1.00  0.00    -0.550 OA
ENDBRANCH   4   5
ENDBRANCH   3   4
ENDBRANCH   2   3
ENDBRANCH   1   2
BRANCH   1   8
ATOM      8  C   UNL     1      -7.747  51.847  -5.797  1.00  0.00     0.000 C 
BRANCH   8   9
ATOM      9  C   UNL     1      -7.859  52.077  -4.280  1.00  0.00     0.000 C 
BRANCH   9  10
ATOM     10  C   UNL     1      -8.972  51.234  -3.633  1.00  0.00     0.006 C 
BRANCH  10  11
ATOM     11  C   UNL     1      -8.425  49.957  -2.981  1.00  0.00     0.053 C 
BRANCH  11  12
ATOM     12  C   UNL     1      -8.359  50.077  -1.489  1.00  0.00     0.041 C 
ATOM     13  O   UNL     1      -9.123  50.873  -0.882  1.00  0.00    -0.550 OA
ATOM     14  O   UNL     1      -7.474  49.287  -0.766  1.00  0.00    -0.550 OA
ENDBRANCH  11  12
ENDBRANCH  10  11
ENDBRANCH   9  10
ENDBRANCH   8   9
ENDBRANCH   1   8
TORSDOF 9
ENDMDL
MODEL 2
REMARK VINA RESULT:    -1.477      3.004      6.952
REMARK INTER + INTRA:          -2.553
REMARK INTER:                  -2.120
REMARK INTRA:                  -0.433
REMARK UNBOUND:                -0.299
REMARK SMILES O=C([O-])CCCCCCCCC(=O)[O-]
REMARK SMILES IDX 7 1 6 2 5 3 4 4 2 5 1 6 3 7 8 8 9 9 10 10 11 11 12 12 13 13
REMARK SMILES IDX 14 14
REMARK H PARENT
REMARK Flexibility Score: inf
ROOT
ATOM      1  C   UNL     1      -8.640  50.334  -3.449  1.00  0.00     0.000 C 
ENDROOT
BRANCH   1   2
ATOM      2  C   UNL     1      -9.046  51.317  -2.339  1.00  0.00     0.000 C 
BRANCH   2   3
ATOM      3  C   UNL     1      -8.194  51.161  -1.066  1.00  0.00     0.006 C 
BRANCH   3   4
ATOM      4  C   UNL     1      -7.002  52.125  -1.047  1.00  0.00     0.053 C 
BRANCH   4   5
ATOM      5  C   UNL     1      -6.193  51.984   0.207  1.00  0.00     0.041 C 
ATOM      6  O   UNL     1      -4.955  51.761   0.142  1.00  0.00    -0.550 OA
ATOM      7  O   UNL     1      -6.812  52.070   1.447  1.00  0.00    -0.550 OA
ENDBRANCH   4   5
ENDBRANCH   3   4
ENDBRANCH   2   3
ENDBRANCH   1   2
BRANCH   1   8
ATOM      8  C   UNL     1      -8.496  51.017  -4.819  1.00  0.00     0.000 C 
BRANCH   8   9
ATOM      9  C   UNL     1      -7.220  51.869  -4.923  1.00  0.00     0.000 C 
BRANCH   9  10
ATOM     10  C   UNL     1      -6.790  52.119  -6.380  1.00  0.00     0.006 C 
BRANCH  10  11
ATOM     11  C   UNL     1      -7.938  51.883  -7.370  1.00  0.00     0.053 C 
BRANCH  11  12
ATOM     12  C   UNL     1      -7.464  51.211  -8.622  1.00  0.00     0.041 C 
ATOM     13  O   UNL     1      -6.620  51.775  -9.366  1.00  0.00    -0.550 OA
ATOM     14  O   UNL     1      -7.934  49.945  -8.952  1.00  0.00    -0.550 OA
ENDBRANCH  11  12
ENDBRANCH  10  11
ENDBRANCH   9  10
ENDBRANCH   8   9
ENDBRANCH   1   8
TORSDOF 9
ENDMDL
MODEL 3
REMARK VINA RESULT:    -1.263      2.390      3.630
REMARK INTER + INTRA:          -2.226
REMARK INTER:                  -1.916
REMARK INTRA:                  -0.310
REMARK UNBOUND:                -0.299
REMARK SMILES O=C([O-])CCCCCCCCC(=O)[O-]
REMARK SMILES IDX 7 1 6 2 5 3 4 4 2 5 1 6 3 7 8 8 9 9 10 10 11 11 12 12 13 13
REMARK SMILES IDX 14 14
REMARK H PARENT
REMARK Flexibility Score: inf
ROOT
ATOM      1  C   UNL     1      -8.366  51.264  -3.890  1.00  0.00     0.000 C 
ENDROOT
BRANCH   1   2
ATOM      2  C   UNL     1      -8.530  51.860  -5.298  1.00  0.00     0.000 C 
BRANCH   2   3
ATOM      3  C   UNL     1      -7.182  52.108  -5.998  1.00  0.00     0.006 C 
BRANCH   3   4
ATOM      4  C   UNL     1      -7.273  51.909  -7.516  1.00  0.00     0.053 C 
BRANCH   4   5
ATOM      5  C   UNL     1      -5.918  51.860  -8.154  1.00  0.00     0.041 C 
ATOM      6  O   UNL     1      -4.879  51.905  -7.442  1.00  0.00    -0.550 OA
ATOM      7  O   UNL     1      -5.801  51.796  -9.536  1.00  0.00    -0.550 OA
ENDBRANCH   4   5
ENDBRANCH   3   4
ENDBRANCH   2   3
ENDBRANCH   1   2
BRANCH   1   8
ATOM      8  C   UNL     1      -9.107  52.077  -2.815  1.00  0.00     0.000 C 
BRANCH   8   9
ATOM      9  C   UNL     1      -8.997  51.446  -1.417  1.00  0.00     0.000 C 
BRANCH   9  10
ATOM     10  C   UNL     1      -7.578  50.941  -1.103  1.00  0.00     0.006 C 
BRANCH  10  11
ATOM     11  C   UNL     1      -6.698  52.036  -0.486  1.00  0.00     0.053 C 
BRANCH  11  12
ATOM     12  C   UNL     1      -5.607  51.461   0.365  1.00  0.00     0.041 C 
ATOM     13  O   UNL     1      -5.795  50.390   0.999  1.00  0.00    -0.550 OA
ATOM     14  O   UNL     1      -4.372  52.093   0.433  1.00  0.00    -0.550 OA
ENDBRANCH  11  12
ENDBRANCH  10  11
ENDBRANCH   9  10
ENDBRANCH   8   9
ENDBRANCH   1   8
TORSDOF 9
ENDMDL
MODEL 4
REMARK VINA RESULT:    -1.244      4.753      6.658
REMARK INTER + INTRA:          -2.197
REMARK INTER:                  -1.895
REMARK INTRA:                  -0.302
REMARK UNBOUND:                -0.299
REMARK SMILES O=C([O-])CCCCCCCCC(=O)[O-]
REMARK SMILES IDX 7 1 6 2 5 3 4 4 2 5 1 6 3 7 8 8 9 9 10 10 11 11 12 12 13 13
REMARK SMILES IDX 14 14
REMARK H PARENT
REMARK Flexibility Score: inf
ROOT
ATOM      1  C   UNL     1      -7.589  51.745  -0.266  1.00  0.00     0.000 C 
ENDROOT
BRANCH   1   2
ATOM      2  C   UNL     1      -8.171  51.069  -1.519  1.00  0.00     0.000 C 
BRANCH   2   3
ATOM      3  C   UNL     1      -7.683  51.720  -2.825  1.00  0.00     0.006 C 
BRANCH   3   4
ATOM      4  C   UNL     1      -8.364  51.119  -4.061  1.00  0.00     0.053 C 
BRANCH   4   5
ATOM      5  C   UNL     1      -7.843  51.718  -5.332  1.00  0.00     0.041 C 
ATOM      6  O   UNL     1      -6.650  52.119  -5.402  1.00  0.00    -0.550 OA
ATOM      7  O   UNL     1      -8.682  51.862  -6.428  1.00  0.00    -0.550 OA
ENDBRANCH   4   5
ENDBRANCH   3   4
ENDBRANCH   2   3
ENDBRANCH   1   2
BRANCH   1   8
ATOM      8  C   UNL     1      -6.254  51.122   0.175  1.00  0.00     0.000 C 
BRANCH   8   9
ATOM      9  C   UNL     1      -5.070  52.092   0.019  1.00  0.00     0.000 C 
BRANCH   9  10
ATOM     10  C   UNL     1      -3.709  51.373   0.021  1.00  0.00     0.006 C 
BRANCH  10  11
ATOM     11  C   UNL     1      -2.660  52.125   0.850  1.00  0.00     0.053 C 
BRANCH  11  12
ATOM     12  C   UNL     1      -1.289  52.003   0.256  1.00  0.00     0.041 C 
ATOM     13  O   UNL     1      -0.270  52.101   0.987  1.00  0.00    -0.550 OA
ATOM     14  O   UNL     1      -1.141  51.752  -1.103  1.00  0.00    -0.550 OA
ENDBRANCH  11  12
ENDBRANCH  10  11
ENDBRANCH   9  10
ENDBRANCH   8   9
ENDBRANCH   1   8
TORSDOF 9
ENDMDL
MODEL 5
REMARK VINA RESULT:    -1.135      3.046      3.666
REMARK INTER + INTRA:          -2.031
REMARK INTER:                  -1.865
REMARK INTRA:                  -0.167
REMARK UNBOUND:                -0.299
REMARK SMILES O=C([O-])CCCCCCCCC(=O)[O-]
REMARK SMILES IDX 7 1 6 2 5 3 4 4 2 5 1 6 3 7 8 8 9 9 10 10 11 11 12 12 13 13
REMARK SMILES IDX 14 14
REMARK H PARENT
REMARK Flexibility Score: inf
ROOT
ATOM      1  C   UNL     1      -7.952  50.812  -6.020  1.00  0.00     0.000 C 
ENDROOT
BRANCH   1   2
ATOM      2  C   UNL     1      -7.665  52.123  -6.770  1.00  0.00     0.000 C 
BRANCH   2   3
ATOM      3  C   UNL     1      -6.346  52.078  -7.562  1.00  0.00     0.006 C 
BRANCH   3   4
ATOM      4  C   UNL     1      -6.581  52.006  -9.076  1.00  0.00     0.053 C 
BRANCH   4   5
ATOM      5  C   UNL     1      -7.812  51.220  -9.412  1.00  0.00     0.041 C 
ATOM      6  O   UNL     1      -7.790  49.961  -9.375  1.00  0.00    -0.550 OA
ATOM      7  O   UNL     1      -8.974  51.877  -9.795  1.00  0.00    -0.550 OA
ENDBRANCH   4   5
ENDBRANCH   3   4
ENDBRANCH   2   3
ENDBRANCH   1   2
BRANCH   1   8
ATOM      8  C   UNL     1      -8.038  51.009  -4.497  1.00  0.00     0.000 C 
BRANCH   8   9
ATOM      9  C   UNL     1      -8.863  49.912  -3.805  1.00  0.00     0.000 C 
BRANCH   9  10
ATOM     10  C   UNL     1      -9.122  50.213  -2.318  1.00  0.00     0.006 C 
BRANCH  10  11
ATOM     11  C   UNL     1      -9.041  51.713  -2.009  1.00  0.00     0.053 C 
BRANCH  11  12
ATOM     12  C   UNL     1      -8.221  51.986  -0.785  1.00  0.00     0.041 C 
ATOM     13  O   UNL     1      -8.779  52.125   0.334  1.00  0.00    -0.550 OA
ATOM     14  O   UNL     1      -6.836  52.058  -0.878  1.00  0.00    -0.550 OA
ENDBRANCH  11  12
ENDBRANCH  10  11
ENDBRANCH   9  10
ENDBRANCH   8   9
ENDBRANCH   1   8
TORSDOF 9
ENDMDL
MODEL 6
REMARK VINA RESULT:    -1.001      2.962      4.578
REMARK INTER + INTRA:          -1.826
REMARK INTER:                  -1.051
REMARK INTRA:                  -0.775
REMARK UNBOUND:                -0.299
REMARK SMILES O=C([O-])CCCCCCCCC(=O)[O-]
REMARK SMILES IDX 7 1 6 2 5 3 4 4 2 5 1 6 3 7 8 8 9 9 10 10 11 11 12 12 13 13
REMARK SMILES IDX 14 14
REMARK H PARENT
REMARK Flexibility Score: inf
ROOT
ATOM      1  C   UNL     1      -7.811  49.874  -2.766  1.00  0.00     0.000 C 
ENDROOT
BRANCH   1   2
ATOM      2  C   UNL     1      -8.522  49.799  -4.127  1.00  0.00     0.000 C 
BRANCH   2   3
ATOM      3  C   UNL     1      -9.015  51.172  -4.617  1.00  0.00     0.006 C 
BRANCH   3   4
ATOM      4  C   UNL     1      -7.854  52.112  -4.965  1.00  0.00     0.053 C 
BRANCH   4   5
ATOM      5  C   UNL     1      -7.479  52.021  -6.413  1.00  0.00     0.041 C 
ATOM      6  O   UNL     1      -8.368  51.862  -7.291  1.00  0.00    -0.550 OA
ATOM      7  O   UNL     1      -6.143  52.081  -6.790  1.00  0.00    -0.550 OA
ENDBRANCH   4   5
ENDBRANCH   3   4
ENDBRANCH   2   3
ENDBRANCH   1   2
BRANCH   1   8
ATOM      8  C   UNL     1      -8.792  49.826  -1.583  1.00  0.00     0.000 C 
BRANCH   8   9
ATOM      9  C   UNL     1      -9.103  51.220  -1.016  1.00  0.00     0.000 C 
BRANCH   9  10
ATOM     10  C   UNL     1      -7.860  52.125  -0.946  1.00  0.00     0.006 C 
BRANCH  10  11
ATOM     11  C   UNL     1      -7.196  52.088   0.436  1.00  0.00     0.053 C 
BRANCH  11  12
ATOM     12  C   UNL     1      -5.877  51.377   0.402  1.00  0.00     0.041 C 
ATOM     13  O   UNL     1      -5.834  50.127   0.268  1.00  0.00    -0.550 OA
ATOM     14  O   UNL     1      -4.694  52.102   0.488  1.00  0.00    -0.550 OA
ENDBRANCH  11  12
ENDBRANCH  10  11
ENDBRANCH   9  10
ENDBRANCH   8   9
ENDBRANCH   1   8
TORSDOF 9
ENDMDL
MODEL 7
REMARK VINA RESULT:    -0.339      4.006      6.274
REMARK INTER + INTRA:          -0.816
REMARK INTER:                  -0.465
REMARK INTRA:                  -0.351
REMARK UNBOUND:                -0.299
REMARK SMILES O=C([O-])CCCCCCCCC(=O)[O-]
REMARK SMILES IDX 7 1 6 2 5 3 4 4 2 5 1 6 3 7 8 8 9 9 10 10 11 11 12 12 13 13
REMARK SMILES IDX 14 14
REMARK H PARENT
REMARK Flexibility Score: inf
ROOT
ATOM      1  C   UNL     1      -6.991  51.408  -0.907  1.00  0.00     0.000 C 
ENDROOT
BRANCH   1   2
ATOM      2  C   UNL     1      -6.175  50.987   0.327  1.00  0.00     0.000 C 
BRANCH   2   3
ATOM      3  C   UNL     1      -5.079  52.004   0.690  1.00  0.00     0.006 C 
BRANCH   3   4
ATOM      4  C   UNL     1      -4.014  52.123  -0.408  1.00  0.00     0.053 C 
BRANCH   4   5
ATOM      5  C   UNL     1      -2.735  51.447  -0.018  1.00  0.00     0.041 C 
ATOM      6  O   UNL     1      -1.626  51.969  -0.311  1.00  0.00    -0.550 OA
ATOM      7  O   UNL     1      -2.767  50.225   0.641  1.00  0.00    -0.550 OA
ENDBRANCH   4   5
ENDBRANCH   3   4
ENDBRANCH   2   3
ENDBRANCH   1   2
BRANCH   1   8
ATOM      8  C   UNL     1      -8.337  50.672  -1.004  1.00  0.00     0.000 C 
BRANCH   8   9
ATOM      9  C   UNL     1      -8.771  50.424  -2.458  1.00  0.00     0.000 C 
BRANCH   9  10
ATOM     10  C   UNL     1      -8.607  51.670  -3.348  1.00  0.00     0.006 C 
BRANCH  10  11
ATOM     11  C   UNL     1      -8.783  51.344  -4.836  1.00  0.00     0.053 C 
BRANCH  11  12
ATOM     12  C   UNL     1      -7.616  51.812  -5.651  1.00  0.00     0.041 C 
ATOM     13  O   UNL     1      -6.474  51.901  -5.131  1.00  0.00    -0.550 OA
ATOM     14  O   UNL     1      -7.786  52.122  -6.995  1.00  0.00    -0.550 OA
ENDBRANCH  11  12
ENDBRANCH  10  11
ENDBRANCH   9  10
ENDBRANCH   8   9
ENDBRANCH   1   8
TORSDOF 9
ENDMDL
