MODEL 1
REMARK VINA RESULT:    -3.164      0.000      0.000
REMARK INTER + INTRA:          -4.063
REMARK INTER:                  -3.996
REMARK INTRA:                  -0.067
REMARK UNBOUND:                -0.067
REMARK SMILES CCCCCCO
REMARK SMILES IDX 4 1 3 2 2 3 1 4 5 5 6 6 7 7
REMARK H PARENT 7 8
REMARK Flexibility Score: inf
ROOT
ATOM      1  C   UNL     1     175.859 175.301 151.128  1.00  0.00     0.002 C 
ENDROOT
BRANCH   1   2
ATOM      2  C   UNL     1     174.337 175.323 150.924  1.00  0.00    -0.000 C 
BRANCH   2   3
ATOM      3  C   UNL     1     173.749 176.739 151.019  1.00  0.00    -0.003 C 
ATOM      4  C   UNL     1     174.653 177.799 150.390  1.00  0.00     0.004 C 
ENDBRANCH   2   3
ENDBRANCH   1   2
BRANCH   1   5
ATOM      5  C   UNL     1     176.448 173.944 150.721  1.00  0.00     0.028 C 
BRANCH   5   6
ATOM      6  C   UNL     1     177.904 174.070 150.262  1.00  0.00     0.156 C 
BRANCH   6   7
ATOM      7  O   UNL     1     178.124 173.340 149.085  1.00  0.00    -0.396 OA
ATOM      8  H   UNL     1     177.368 172.702 149.001  1.00  0.00     0.210 HD
ENDBRANCH   6   7
ENDBRANCH   5   6
ENDBRANCH   1   5
TORSDOF 5
ENDMDL
MODEL 2
REMARK VINA RESULT:    -3.146     14.895     15.773
REMARK INTER + INTRA:          -4.041
REMARK INTER:                  -3.941
REMARK INTRA:                  -0.100
REMARK UNBOUND:                -0.067
REMARK SMILES CCCCCCO
REMARK SMILES IDX 4 1 3 2 2 3 1 4 5 5 6 6 7 7
REMARK H PARENT 7 8
REMARK Flexibility Score: inf
ROOT
ATOM      1  C   UNL     1     161.294 177.851 152.680  1.00  0.00     0.002 C 
ENDROOT
BRANCH   1   2
ATOM      2  C   UNL     1     160.395 178.125 151.466  1.00  0.00    -0.000 C 
BRANCH   2   3
ATOM      3  C   UNL     1     160.624 177.124 150.323  1.00  0.00    -0.003 C 
ATOM      4  C   UNL     1     161.633 176.034 150.685  1.00  0.00     0.004 C 
ENDBRANCH   2   3
ENDBRANCH   1   2
BRANCH   1   5
ATOM      5  C   UNL     1     160.467 177.775 153.970  1.00  0.00     0.028 C 
BRANCH   5   6
ATOM      6  C   UNL     1     160.913 176.614 154.864  1.00  0.00     0.156 C 
BRANCH   6   7
ATOM      7  O   UNL     1     159.857 175.717 155.086  1.00  0.00    -0.396 OA
ATOM      8  H   UNL     1     159.953 175.392 156.020  1.00  0.00     0.210 HD
ENDBRANCH   6   7
ENDBRANCH   5   6
ENDBRANCH   1   5
TORSDOF 5
ENDMDL
MODEL 3
REMARK VINA RESULT:    -3.132     13.900     15.451
REMARK INTER + INTRA:          -4.023
REMARK INTER:                  -3.900
REMARK INTRA:                  -0.123
REMARK UNBOUND:                -0.067
REMARK SMILES CCCCCCO
REMARK SMILES IDX 4 1 3 2 2 3 1 4 5 5 6 6 7 7
REMARK H PARENT 7 8
REMARK Flexibility Score: inf
ROOT
ATOM      1  C   UNL     1     160.110 175.869 151.489  1.00  0.00     0.002 C 
ENDROOT
BRANCH   1   2
ATOM      2  C   UNL     1     161.003 176.657 150.518  1.00  0.00    -0.000 C 
BRANCH   2   3
ATOM      3  C   UNL     1     161.782 177.782 151.214  1.00  0.00    -0.003 C 
ATOM      4  C   UNL     1     163.297 177.599 151.119  1.00  0.00     0.004 C 
ENDBRANCH   2   3
ENDBRANCH   1   2
BRANCH   1   5
ATOM      5  C   UNL     1     160.147 176.486 152.893  1.00  0.00     0.028 C 
BRANCH   5   6
ATOM      6  C   UNL     1     160.558 175.460 153.954  1.00  0.00     0.156 C 
BRANCH   6   7
ATOM      7  O   UNL     1     159.869 175.679 155.156  1.00  0.00    -0.396 OA
ATOM      8  H   UNL     1     158.921 175.848 154.913  1.00  0.00     0.210 HD
ENDBRANCH   6   7
ENDBRANCH   5   6
ENDBRANCH   1   5
TORSDOF 5
ENDMDL
MODEL 4
REMARK VINA RESULT:    -3.018     14.604     15.984
REMARK INTER + INTRA:          -3.879
REMARK INTER:                  -3.768
REMARK INTRA:                  -0.111
REMARK UNBOUND:                -0.067
REMARK SMILES CCCCCCO
REMARK SMILES IDX 4 1 3 2 2 3 1 4 5 5 6 6 7 7
REMARK H PARENT 7 8
REMARK Flexibility Score: inf
ROOT
ATOM      1  C   UNL     1     160.001 175.569 152.949  1.00  0.00     0.002 C 
ENDROOT
BRANCH   1   2
ATOM      2  C   UNL     1     160.165 176.993 152.399  1.00  0.00    -0.000 C 
BRANCH   2   3
ATOM      3  C   UNL     1     160.570 177.013 150.918  1.00  0.00    -0.003 C 
ATOM      4  C   UNL     1     162.076 177.190 150.719  1.00  0.00     0.004 C 
ENDBRANCH   2   3
ENDBRANCH   1   2
BRANCH   1   5
ATOM      5  C   UNL     1     159.400 174.636 151.889  1.00  0.00     0.028 C 
BRANCH   5   6
ATOM      6  C   UNL     1     159.844 173.184 152.091  1.00  0.00     0.156 C 
BRANCH   6   7
ATOM      7  O   UNL     1     159.296 172.651 153.267  1.00  0.00    -0.396 OA
ATOM      8  H   UNL     1     159.125 173.418 153.874  1.00  0.00     0.210 HD
ENDBRANCH   6   7
ENDBRANCH   5   6
ENDBRANCH   1   5
TORSDOF 5
ENDMDL
MODEL 5
REMARK VINA RESULT:    -3.013      3.840      5.326
REMARK INTER + INTRA:          -3.873
REMARK INTER:                  -3.755
REMARK INTRA:                  -0.118
REMARK UNBOUND:                -0.067
REMARK SMILES CCCCCCO
REMARK SMILES IDX 4 1 3 2 2 3 1 4 5 5 6 6 7 7
REMARK H PARENT 7 8
REMARK Flexibility Score: inf
ROOT
ATOM      1  C   UNL     1     173.106 177.727 151.139  1.00  0.00     0.002 C 
ENDROOT
BRANCH   1   2
ATOM      2  C   UNL     1     174.439 177.473 150.418  1.00  0.00    -0.000 C 
BRANCH   2   3
ATOM      3  C   UNL     1     175.498 176.848 151.336  1.00  0.00    -0.003 C 
ATOM      4  C   UNL     1     175.645 175.340 151.129  1.00  0.00     0.004 C 
ENDBRANCH   2   3
ENDBRANCH   1   2
BRANCH   1   5
ATOM      5  C   UNL     1     173.340 178.125 152.602  1.00  0.00     0.028 C 
BRANCH   5   6
ATOM      6  C   UNL     1     172.339 177.448 153.543  1.00  0.00     0.156 C 
BRANCH   6   7
ATOM      7  O   UNL     1     172.508 177.895 154.861  1.00  0.00    -0.396 OA
ATOM      8  H   UNL     1     173.385 178.360 154.894  1.00  0.00     0.210 HD
ENDBRANCH   6   7
ENDBRANCH   5   6
ENDBRANCH   1   5
TORSDOF 5
ENDMDL
MODEL 6
REMARK VINA RESULT:    -3.000     11.300     12.722
REMARK INTER + INTRA:          -3.857
REMARK INTER:                  -3.811
REMARK INTRA:                  -0.046
REMARK UNBOUND:                -0.067
REMARK SMILES CCCCCCO
REMARK SMILES IDX 4 1 3 2 2 3 1 4 5 5 6 6 7 7
REMARK H PARENT 7 8
REMARK Flexibility Score: inf
ROOT
ATOM      1  C   UNL     1     176.571 162.906 151.109  1.00  0.00     0.002 C 
ENDROOT
BRANCH   1   2
ATOM      2  C   UNL     1     177.974 163.490 151.331  1.00  0.00    -0.000 C 
BRANCH   2   3
ATOM      3  C   UNL     1     178.124 164.906 150.757  1.00  0.00    -0.003 C 
ATOM      4  C   UNL     1     177.238 165.929 151.469  1.00  0.00     0.004 C 
ENDBRANCH   2   3
ENDBRANCH   1   2
BRANCH   1   5
ATOM      5  C   UNL     1     176.627 161.380 150.959  1.00  0.00     0.028 C 
BRANCH   5   6
ATOM      6  C   UNL     1     175.619 160.873 149.923  1.00  0.00     0.156 C 
BRANCH   6   7
ATOM      7  O   UNL     1     176.246 160.055 148.971  1.00  0.00    -0.396 OA
ATOM      8  H   UNL     1     175.929 159.129 149.140  1.00  0.00     0.210 HD
ENDBRANCH   6   7
ENDBRANCH   5   6
ENDBRANCH   1   5
TORSDOF 5
ENDMDL
MODEL 7
REMARK VINA RESULT:    -2.987     13.917     15.518
REMARK INTER + INTRA:          -3.840
REMARK INTER:                  -3.715
REMARK INTRA:                  -0.126
REMARK UNBOUND:                -0.067
REMARK SMILES CCCCCCO
REMARK SMILES IDX 4 1 3 2 2 3 1 4 5 5 6 6 7 7
REMARK H PARENT 7 8
REMARK Flexibility Score: inf
ROOT
ATOM      1  C   UNL     1     160.310 177.540 151.913  1.00  0.00     0.002 C 
ENDROOT
BRANCH   1   2
ATOM      2  C   UNL     1     161.132 177.256 150.647  1.00  0.00    -0.000 C 
BRANCH   2   3
ATOM      3  C   UNL     1     162.639 177.167 150.928  1.00  0.00    -0.003 C 
ATOM      4  C   UNL     1     163.168 175.733 150.874  1.00  0.00     0.004 C 
ENDBRANCH   2   3
ENDBRANCH   1   2
BRANCH   1   5
ATOM      5  C   UNL     1     160.092 176.257 152.726  1.00  0.00     0.028 C 
BRANCH   5   6
ATOM      6  C   UNL     1     159.585 175.107 151.850  1.00  0.00     0.156 C 
BRANCH   6   7
ATOM      7  O   UNL     1     158.866 174.175 152.612  1.00  0.00    -0.396 OA
ATOM      8  H   UNL     1     157.917 174.251 152.332  1.00  0.00     0.210 HD
ENDBRANCH   6   7
ENDBRANCH   5   6
ENDBRANCH   1   5
TORSDOF 5
ENDMDL
MODEL 8
REMARK VINA RESULT:    -2.970      3.066      3.902
REMARK INTER + INTRA:          -3.818
REMARK INTER:                  -3.630
REMARK INTRA:                  -0.188
REMARK UNBOUND:                -0.067
REMARK SMILES CCCCCCO
REMARK SMILES IDX 4 1 3 2 2 3 1 4 5 5 6 6 7 7
REMARK H PARENT 7 8
REMARK Flexibility Score: inf
ROOT
ATOM      1  C   UNL     1     175.509 178.122 151.336  1.00  0.00     0.002 C 
ENDROOT
BRANCH   1   2
ATOM      2  C   UNL     1     174.478 177.647 150.301  1.00  0.00    -0.000 C 
BRANCH   2   3
ATOM      3  C   UNL     1     173.400 176.741 150.914  1.00  0.00    -0.003 C 
ATOM      4  C   UNL     1     173.737 175.255 150.791  1.00  0.00     0.004 C 
ENDBRANCH   2   3
ENDBRANCH   1   2
BRANCH   1   5
ATOM      5  C   UNL     1     174.909 178.125 152.748  1.00  0.00     0.028 C 
BRANCH   5   6
ATOM      6  C   UNL     1     175.884 177.552 153.781  1.00  0.00     0.156 C 
BRANCH   6   7
ATOM      7  O   UNL     1     176.074 176.177 153.583  1.00  0.00    -0.396 OA
ATOM      8  H   UNL     1     177.051 176.040 153.465  1.00  0.00     0.210 HD
ENDBRANCH   6   7
ENDBRANCH   5   6
ENDBRANCH   1   5
TORSDOF 5
ENDMDL
MODEL 9
REMARK VINA RESULT:    -2.969      2.253      2.436
REMARK INTER + INTRA:          -3.817
REMARK INTER:                  -3.787
REMARK INTRA:                  -0.030
REMARK UNBOUND:                -0.067
REMARK SMILES CCCCCCO
REMARK SMILES IDX 4 1 3 2 2 3 1 4 5 5 6 6 7 7
REMARK H PARENT 7 8
REMARK Flexibility Score: inf
ROOT
ATOM      1  C   UNL     1     175.817 174.610 152.268  1.00  0.00     0.002 C 
ENDROOT
BRANCH   1   2
ATOM      2  C   UNL     1     175.740 175.601 151.097  1.00  0.00    -0.000 C 
BRANCH   2   3
ATOM      3  C   UNL     1     174.331 176.179 150.904  1.00  0.00    -0.003 C 
ATOM      4  C   UNL     1     174.347 177.607 150.358  1.00  0.00     0.004 C 
ENDBRANCH   2   3
ENDBRANCH   1   2
BRANCH   1   5
ATOM      5  C   UNL     1     176.698 173.405 151.912  1.00  0.00     0.028 C 
BRANCH   5   6
ATOM      6  C   UNL     1     176.740 172.375 153.045  1.00  0.00     0.156 C 
BRANCH   6   7
ATOM      7  O   UNL     1     177.897 172.530 153.822  1.00  0.00    -0.396 OA
ATOM      8  H   UNL     1     177.993 173.503 153.997  1.00  0.00     0.210 HD
ENDBRANCH   6   7
ENDBRANCH   5   6
ENDBRANCH   1   5
TORSDOF 5
ENDMDL
