MODEL 1
REMARK VINA RESULT:    -6.102      0.000      0.000
REMARK INTER + INTRA:          -7.473
REMARK INTER:                  -7.173
REMARK INTRA:                  -0.300
REMARK UNBOUND:                -0.300
REMARK SMILES O=c1c(O)c(-c2ccc(O)cc2)oc2cc(O)cc(O)c12
REMARK SMILES IDX 5 1 3 2 2 3 1 4 21 5 19 6 18 7 16 8 15 9 14 10 13 11 6 12
REMARK SMILES IDX 7 13 8 14 9 15 12 16 11 17 10 18 4 20 20 22 17 24
REMARK H PARENT 10 19 4 21 20 23 17 25
REMARK Flexibility Score: inf
ROOT
ATOM      1  C   UNL     1      -2.524   3.910   0.749  1.00  0.00     0.180 A 
ATOM      2  C   UNL     1      -2.828   5.270   0.935  1.00  0.00     0.208 A 
ATOM      3  C   UNL     1      -3.796   5.870   0.112  1.00  0.00     0.238 A 
ATOM      4  O   UNL     1      -4.026   7.099   0.247  1.00  0.00    -0.285 OA
ATOM      5  C   UNL     1      -4.458   5.098  -0.874  1.00  0.00     0.111 A 
ATOM      6  C   UNL     1      -5.483   5.592  -1.736  1.00  0.00     0.134 A 
ATOM      7  C   UNL     1      -5.975   4.776  -2.762  1.00  0.00     0.093 A 
ATOM      8  C   UNL     1      -5.527   3.465  -2.917  1.00  0.00     0.123 A 
ATOM      9  C   UNL     1      -4.568   2.953  -2.042  1.00  0.00     0.094 A 
ATOM     10  C   UNL     1      -4.032   3.754  -1.031  1.00  0.00     0.146 A 
ATOM     11  O   UNL     1      -3.114   3.231  -0.227  1.00  0.00    -0.452 OA
ENDROOT
BRANCH   1  12
ATOM     12  C   UNL     1      -1.534   3.202   1.594  1.00  0.00     0.021 A 
ATOM     13  C   UNL     1      -1.912   2.571   2.792  1.00  0.00     0.016 A 
ATOM     14  C   UNL     1      -0.964   1.888   3.561  1.00  0.00     0.047 A 
ATOM     15  C   UNL     1       0.368   1.816   3.134  1.00  0.00     0.115 A 
ATOM     16  C   UNL     1      -0.200   3.108   1.164  1.00  0.00     0.016 A 
ATOM     17  C   UNL     1       0.745   2.425   1.935  1.00  0.00     0.047 A 
BRANCH  15  18
ATOM     18  O   UNL     1       1.322   1.140   3.893  1.00  0.00    -0.508 OA
ATOM     19  H   UNL     1       1.974   0.491   3.466  1.00  0.00     0.293 HD
ENDBRANCH  15  18
ENDBRANCH   1  12
BRANCH   2  20
ATOM     20  O   UNL     1      -2.148   6.018   1.899  1.00  0.00    -0.502 OA
ATOM     21  H   UNL     1      -1.803   5.609   2.760  1.00  0.00     0.293 HD
ENDBRANCH   2  20
BRANCH   6  22
ATOM     22  O   UNL     1      -6.066   6.857  -1.610  1.00  0.00    -0.507 OA
ATOM     23  H   UNL     1      -5.923   7.622  -2.251  1.00  0.00     0.293 HD
ENDBRANCH   6  22
BRANCH   8  24
ATOM     24  O   UNL     1      -6.050   2.676  -3.939  1.00  0.00    -0.508 OA
ATOM     25  H   UNL     1      -6.579   3.080  -4.704  1.00  0.00     0.293 HD
ENDBRANCH   8  24
TORSDOF 5
ENDMDL
MODEL 2
REMARK VINA RESULT:    -6.015      1.607      6.528
REMARK INTER + INTRA:          -7.370
REMARK INTER:                  -7.078
REMARK INTRA:                  -0.292
REMARK UNBOUND:                -0.300
REMARK SMILES O=c1c(O)c(-c2ccc(O)cc2)oc2cc(O)cc(O)c12
REMARK SMILES IDX 5 1 3 2 2 3 1 4 21 5 19 6 18 7 16 8 15 9 14 10 13 11 6 12
REMARK SMILES IDX 7 13 8 14 9 15 12 16 11 17 10 18 4 20 20 22 17 24
REMARK H PARENT 10 19 4 21 20 23 17 25
REMARK Flexibility Score: inf
ROOT
ATOM      1  C   UNL     1      -3.232   3.958  -0.430  1.00  0.00     0.180 A 
ATOM      2  C   UNL     1      -3.800   4.595   0.687  1.00  0.00     0.208 A 
ATOM      3  C   UNL     1      -3.074   4.637   1.889  1.00  0.00     0.238 A 
ATOM      4  O   UNL     1      -3.610   5.162   2.900  1.00  0.00    -0.285 OA
ATOM      5  C   UNL     1      -1.785   4.056   1.954  1.00  0.00     0.111 A 
ATOM      6  C   UNL     1      -0.945   4.075   3.108  1.00  0.00     0.134 A 
ATOM      7  C   UNL     1       0.256   3.356   3.099  1.00  0.00     0.093 A 
ATOM      8  C   UNL     1       0.678   2.672   1.960  1.00  0.00     0.123 A 
ATOM      9  C   UNL     1      -0.107   2.696   0.806  1.00  0.00     0.094 A 
ATOM     10  C   UNL     1      -1.328   3.375   0.795  1.00  0.00     0.146 A 
ATOM     11  O   UNL     1      -2.049   3.365  -0.319  1.00  0.00    -0.452 OA
ENDROOT
BRANCH   1  12
ATOM     12  C   UNL     1      -3.925   3.895  -1.738  1.00  0.00     0.021 A 
ATOM     13  C   UNL     1      -3.709   4.869  -2.729  1.00  0.00     0.016 A 
ATOM     14  C   UNL     1      -4.356   4.776  -3.965  1.00  0.00     0.047 A 
ATOM     15  C   UNL     1      -5.215   3.701  -4.230  1.00  0.00     0.115 A 
ATOM     16  C   UNL     1      -4.773   2.811  -2.019  1.00  0.00     0.016 A 
ATOM     17  C   UNL     1      -5.419   2.720  -3.256  1.00  0.00     0.047 A 
BRANCH  15  18
ATOM     18  O   UNL     1      -5.867   3.598  -5.457  1.00  0.00    -0.508 OA
ATOM     19  H   UNL     1      -6.775   3.154  -5.539  1.00  0.00     0.293 HD
ENDBRANCH  15  18
ENDBRANCH   1  12
BRANCH   2  20
ATOM     20  O   UNL     1      -5.083   5.143   0.607  1.00  0.00    -0.502 OA
ATOM     21  H   UNL     1      -5.603   5.431   1.427  1.00  0.00     0.293 HD
ENDBRANCH   2  20
BRANCH   6  22
ATOM     22  O   UNL     1      -1.229   4.802   4.268  1.00  0.00    -0.507 OA
ATOM     23  H   UNL     1      -2.107   4.774   4.763  1.00  0.00     0.293 HD
ENDBRANCH   6  22
BRANCH   8  24
ATOM     24  O   UNL     1       1.887   1.980   1.981  1.00  0.00    -0.508 OA
ATOM     25  H   UNL     1       1.956   1.045   2.367  1.00  0.00     0.293 HD
ENDBRANCH   8  24
TORSDOF 5
ENDMDL
MODEL 3
REMARK VINA RESULT:    -5.975      5.360      7.424
REMARK INTER + INTRA:          -7.323
REMARK INTER:                  -7.211
REMARK INTRA:                  -0.112
REMARK UNBOUND:                -0.300
REMARK SMILES O=c1c(O)c(-c2ccc(O)cc2)oc2cc(O)cc(O)c12
REMARK SMILES IDX 5 1 3 2 2 3 1 4 21 5 19 6 18 7 16 8 15 9 14 10 13 11 6 12
REMARK SMILES IDX 7 13 8 14 9 15 12 16 11 17 10 18 4 20 20 22 17 24
REMARK H PARENT 10 19 4 21 20 23 17 25
REMARK Flexibility Score: inf
ROOT
ATOM      1  C   UNL     1      -4.083   4.620  -4.991  1.00  0.00     0.180 A 
ATOM      2  C   UNL     1      -2.786   5.122  -4.784  1.00  0.00     0.208 A 
ATOM      3  C   UNL     1      -1.893   5.169  -5.868  1.00  0.00     0.238 A 
ATOM      4  O   UNL     1      -0.718   5.569  -5.665  1.00  0.00    -0.285 OA
ATOM      5  C   UNL     1      -2.315   4.731  -7.146  1.00  0.00     0.111 A 
ATOM      6  C   UNL     1      -1.508   4.771  -8.323  1.00  0.00     0.134 A 
ATOM      7  C   UNL     1      -1.981   4.189  -9.505  1.00  0.00     0.093 A 
ATOM      8  C   UNL     1      -3.256   3.627  -9.572  1.00  0.00     0.123 A 
ATOM      9  C   UNL     1      -4.076   3.636  -8.443  1.00  0.00     0.094 A 
ATOM     10  C   UNL     1      -3.618   4.176  -7.239  1.00  0.00     0.146 A 
ATOM     11  O   UNL     1      -4.426   4.155  -6.186  1.00  0.00    -0.452 OA
ENDROOT
BRANCH   1  12
ATOM     12  C   UNL     1      -5.087   4.563  -3.904  1.00  0.00     0.021 A 
ATOM     13  C   UNL     1      -5.579   3.335  -3.425  1.00  0.00     0.016 A 
ATOM     14  C   UNL     1      -6.510   3.305  -2.381  1.00  0.00     0.047 A 
ATOM     15  C   UNL     1      -6.948   4.499  -1.795  1.00  0.00     0.115 A 
ATOM     16  C   UNL     1      -5.518   5.754  -3.297  1.00  0.00     0.016 A 
ATOM     17  C   UNL     1      -6.448   5.721  -2.254  1.00  0.00     0.047 A 
BRANCH  15  18
ATOM     18  O   UNL     1      -7.876   4.482  -0.755  1.00  0.00    -0.508 OA
ATOM     19  H   UNL     1      -8.778   4.936  -0.843  1.00  0.00     0.293 HD
ENDBRANCH  15  18
ENDBRANCH   1  12
BRANCH   2  20
ATOM     20  O   UNL     1      -2.384   5.530  -3.509  1.00  0.00    -0.502 OA
ATOM     21  H   UNL     1      -2.408   4.911  -2.708  1.00  0.00     0.293 HD
ENDBRANCH   2  20
BRANCH   6  22
ATOM     22  O   UNL     1      -0.255   5.389  -8.390  1.00  0.00    -0.507 OA
ATOM     23  H   UNL     1       0.593   4.936  -8.692  1.00  0.00     0.293 HD
ENDBRANCH   6  22
BRANCH   8  24
ATOM     24  O   UNL     1      -3.701   3.072 -10.769  1.00  0.00    -0.508 OA
ATOM     25  H   UNL     1      -3.855   2.075 -10.866  1.00  0.00     0.293 HD
ENDBRANCH   8  24
TORSDOF 5
ENDMDL
MODEL 4
REMARK VINA RESULT:    -5.935      4.462      6.224
REMARK INTER + INTRA:          -7.276
REMARK INTER:                  -6.998
REMARK INTRA:                  -0.278
REMARK UNBOUND:                -0.300
REMARK SMILES O=c1c(O)c(-c2ccc(O)cc2)oc2cc(O)cc(O)c12
REMARK SMILES IDX 5 1 3 2 2 3 1 4 21 5 19 6 18 7 16 8 15 9 14 10 13 11 6 12
REMARK SMILES IDX 7 13 8 14 9 15 12 16 11 17 10 18 4 20 20 22 17 24
REMARK H PARENT 10 19 4 21 20 23 17 25
REMARK Flexibility Score: inf
ROOT
ATOM      1  C   UNL     1      -5.245   4.289  -2.523  1.00  0.00     0.180 A 
ATOM      2  C   UNL     1      -5.598   3.768  -3.780  1.00  0.00     0.208 A 
ATOM      3  C   UNL     1      -4.828   4.115  -4.902  1.00  0.00     0.238 A 
ATOM      4  O   UNL     1      -5.180   3.689  -6.033  1.00  0.00    -0.285 OA
ATOM      5  C   UNL     1      -3.706   4.965  -4.750  1.00  0.00     0.111 A 
ATOM      6  C   UNL     1      -2.831   5.351  -5.810  1.00  0.00     0.134 A 
ATOM      7  C   UNL     1      -1.831   6.300  -5.569  1.00  0.00     0.093 A 
ATOM      8  C   UNL     1      -1.631   6.829  -4.295  1.00  0.00     0.123 A 
ATOM      9  C   UNL     1      -2.442   6.415  -3.238  1.00  0.00     0.094 A 
ATOM     10  C   UNL     1      -3.472   5.496  -3.454  1.00  0.00     0.146 A 
ATOM     11  O   UNL     1      -4.228   5.136  -2.424  1.00  0.00    -0.452 OA
ENDROOT
BRANCH   1  12
ATOM     12  C   UNL     1      -5.994   3.948  -1.291  1.00  0.00     0.021 A 
ATOM     13  C   UNL     1      -5.768   2.740  -0.607  1.00  0.00     0.016 A 
ATOM     14  C   UNL     1      -6.470   2.451   0.567  1.00  0.00     0.047 A 
ATOM     15  C   UNL     1      -7.394   3.371   1.080  1.00  0.00     0.115 A 
ATOM     16  C   UNL     1      -6.908   4.873  -0.760  1.00  0.00     0.016 A 
ATOM     17  C   UNL     1      -7.608   4.582   0.415  1.00  0.00     0.047 A 
BRANCH  15  18
ATOM     18  O   UNL     1      -8.100   3.094   2.249  1.00  0.00    -0.508 OA
ATOM     19  H   UNL     1      -8.438   3.835   2.852  1.00  0.00     0.293 HD
ENDBRANCH  15  18
ENDBRANCH   1  12
BRANCH   2  20
ATOM     20  O   UNL     1      -6.722   2.948  -3.911  1.00  0.00    -0.502 OA
ATOM     21  H   UNL     1      -7.618   3.300  -4.226  1.00  0.00     0.293 HD
ENDBRANCH   2  20
BRANCH   6  22
ATOM     22  O   UNL     1      -2.885   4.814  -7.101  1.00  0.00    -0.507 OA
ATOM     23  H   UNL     1      -2.316   5.121  -7.874  1.00  0.00     0.293 HD
ENDBRANCH   6  22
BRANCH   8  24
ATOM     24  O   UNL     1      -0.616   7.760  -4.088  1.00  0.00    -0.508 OA
ATOM     25  H   UNL     1      -0.153   8.222  -4.863  1.00  0.00     0.293 HD
ENDBRANCH   8  24
TORSDOF 5
ENDMDL
MODEL 5
REMARK VINA RESULT:    -5.708      4.038      6.897
REMARK INTER + INTRA:          -7.009
REMARK INTER:                  -6.771
REMARK INTRA:                  -0.238
REMARK UNBOUND:                -0.300
REMARK SMILES O=c1c(O)c(-c2ccc(O)cc2)oc2cc(O)cc(O)c12
REMARK SMILES IDX 5 1 3 2 2 3 1 4 21 5 19 6 18 7 16 8 15 9 14 10 13 11 6 12
REMARK SMILES IDX 7 13 8 14 9 15 12 16 11 17 10 18 4 20 20 22 17 24
REMARK H PARENT 10 19 4 21 20 23 17 25
REMARK Flexibility Score: inf
ROOT
ATOM      1  C   UNL     1      -3.209   5.303  -4.118  1.00  0.00     0.180 A 
ATOM      2  C   UNL     1      -4.177   4.519  -4.771  1.00  0.00     0.208 A 
ATOM      3  C   UNL     1      -5.047   3.730  -4.000  1.00  0.00     0.238 A 
ATOM      4  O   UNL     1      -5.875   2.990  -4.592  1.00  0.00    -0.285 OA
ATOM      5  C   UNL     1      -4.949   3.748  -2.588  1.00  0.00     0.111 A 
ATOM      6  C   UNL     1      -5.804   3.020  -1.707  1.00  0.00     0.134 A 
ATOM      7  C   UNL     1      -5.533   3.009  -0.334  1.00  0.00     0.093 A 
ATOM      8  C   UNL     1      -4.479   3.750   0.198  1.00  0.00     0.123 A 
ATOM      9  C   UNL     1      -3.673   4.514  -0.647  1.00  0.00     0.094 A 
ATOM     10  C   UNL     1      -3.896   4.516  -2.026  1.00  0.00     0.146 A 
ATOM     11  O   UNL     1      -3.099   5.247  -2.796  1.00  0.00    -0.452 OA
ENDROOT
BRANCH   1  12
ATOM     12  C   UNL     1      -2.274   6.180  -4.861  1.00  0.00     0.021 A 
ATOM     13  C   UNL     1      -2.447   7.575  -4.893  1.00  0.00     0.016 A 
ATOM     14  C   UNL     1      -1.537   8.384  -5.581  1.00  0.00     0.047 A 
ATOM     15  C   UNL     1      -0.437   7.810  -6.232  1.00  0.00     0.115 A 
ATOM     16  C   UNL     1      -1.158   5.615  -5.500  1.00  0.00     0.016 A 
ATOM     17  C   UNL     1      -0.250   6.426  -6.187  1.00  0.00     0.047 A 
BRANCH  15  18
ATOM     18  O   UNL     1       0.475   8.606  -6.922  1.00  0.00    -0.508 OA
ATOM     19  H   UNL     1       0.520   9.608  -6.776  1.00  0.00     0.293 HD
ENDBRANCH  15  18
ENDBRANCH   1  12
BRANCH   2  20
ATOM     20  O   UNL     1      -4.242   4.500  -6.167  1.00  0.00    -0.502 OA
ATOM     21  H   UNL     1      -3.802   3.776  -6.721  1.00  0.00     0.293 HD
ENDBRANCH   2  20
BRANCH   6  22
ATOM     22  O   UNL     1      -6.940   2.319  -2.125  1.00  0.00    -0.507 OA
ATOM     23  H   UNL     1      -7.056   1.905  -3.037  1.00  0.00     0.293 HD
ENDBRANCH   6  22
BRANCH   8  24
ATOM     24  O   UNL     1      -4.248   3.729   1.572  1.00  0.00    -0.508 OA
ATOM     25  H   UNL     1      -3.711   4.456   2.031  1.00  0.00     0.293 HD
ENDBRANCH   8  24
TORSDOF 5
ENDMDL
MODEL 6
REMARK VINA RESULT:    -5.706      4.570      6.544
REMARK INTER + INTRA:          -7.007
REMARK INTER:                  -6.799
REMARK INTRA:                  -0.208
REMARK UNBOUND:                -0.300
REMARK SMILES O=c1c(O)c(-c2ccc(O)cc2)oc2cc(O)cc(O)c12
REMARK SMILES IDX 5 1 3 2 2 3 1 4 21 5 19 6 18 7 16 8 15 9 14 10 13 11 6 12
REMARK SMILES IDX 7 13 8 14 9 15 12 16 11 17 10 18 4 20 20 22 17 24
REMARK H PARENT 10 19 4 21 20 23 17 25
REMARK Flexibility Score: inf
ROOT
ATOM      1  C   UNL     1      -3.907   5.316  -4.283  1.00  0.00     0.180 A 
ATOM      2  C   UNL     1      -4.517   6.542  -3.961  1.00  0.00     0.208 A 
ATOM      3  C   UNL     1      -5.397   6.599  -2.868  1.00  0.00     0.238 A 
ATOM      4  O   UNL     1      -5.981   7.685  -2.617  1.00  0.00    -0.285 OA
ATOM      5  C   UNL     1      -5.644   5.434  -2.101  1.00  0.00     0.111 A 
ATOM      6  C   UNL     1      -6.486   5.385  -0.950  1.00  0.00     0.134 A 
ATOM      7  C   UNL     1      -6.760   4.151  -0.347  1.00  0.00     0.093 A 
ATOM      8  C   UNL     1      -6.174   2.975  -0.813  1.00  0.00     0.123 A 
ATOM      9  C   UNL     1      -5.302   3.020  -1.902  1.00  0.00     0.094 A 
ATOM     10  C   UNL     1      -5.037   4.230  -2.547  1.00  0.00     0.146 A 
ATOM     11  O   UNL     1      -4.210   4.228  -3.585  1.00  0.00    -0.452 OA
ENDROOT
BRANCH   1  12
ATOM     12  C   UNL     1      -2.949   5.184  -5.404  1.00  0.00     0.021 A 
ATOM     13  C   UNL     1      -3.313   4.555  -6.608  1.00  0.00     0.016 A 
ATOM     14  C   UNL     1      -2.398   4.463  -7.662  1.00  0.00     0.047 A 
ATOM     15  C   UNL     1      -1.115   5.011  -7.530  1.00  0.00     0.115 A 
ATOM     16  C   UNL     1      -1.667   5.747  -5.288  1.00  0.00     0.016 A 
ATOM     17  C   UNL     1      -0.755   5.654  -6.343  1.00  0.00     0.047 A 
BRANCH  15  18
ATOM     18  O   UNL     1      -0.194   4.924  -8.573  1.00  0.00    -0.508 OA
ATOM     19  H   UNL     1      -0.484   4.689  -9.516  1.00  0.00     0.293 HD
ENDBRANCH  15  18
ENDBRANCH   1  12
BRANCH   2  20
ATOM     20  O   UNL     1      -4.276   7.674  -4.744  1.00  0.00    -0.502 OA
ATOM     21  H   UNL     1      -3.553   7.701  -5.452  1.00  0.00     0.293 HD
ENDBRANCH   2  20
BRANCH   6  22
ATOM     22  O   UNL     1      -7.050   6.514  -0.347  1.00  0.00    -0.507 OA
ATOM     23  H   UNL     1      -6.638   7.434  -0.353  1.00  0.00     0.293 HD
ENDBRANCH   6  22
BRANCH   8  24
ATOM     24  O   UNL     1      -6.457   1.768  -0.179  1.00  0.00    -0.508 OA
ATOM     25  H   UNL     1      -6.335   0.879  -0.652  1.00  0.00     0.293 HD
ENDBRANCH   8  24
TORSDOF 5
ENDMDL
MODEL 7
REMARK VINA RESULT:    -5.680      1.748      6.637
REMARK INTER + INTRA:          -6.977
REMARK INTER:                  -6.748
REMARK INTRA:                  -0.229
REMARK UNBOUND:                -0.300
REMARK SMILES O=c1c(O)c(-c2ccc(O)cc2)oc2cc(O)cc(O)c12
REMARK SMILES IDX 5 1 3 2 2 3 1 4 21 5 19 6 18 7 16 8 15 9 14 10 13 11 6 12
REMARK SMILES IDX 7 13 8 14 9 15 12 16 11 17 10 18 4 20 20 22 17 24
REMARK H PARENT 10 19 4 21 20 23 17 25
REMARK Flexibility Score: inf
ROOT
ATOM      1  C   UNL     1      -2.917   3.823   1.051  1.00  0.00     0.180 A 
ATOM      2  C   UNL     1      -2.963   4.615   2.212  1.00  0.00     0.208 A 
ATOM      3  C   UNL     1      -1.877   4.582   3.103  1.00  0.00     0.238 A 
ATOM      4  O   UNL     1      -1.947   5.252   4.166  1.00  0.00    -0.285 OA
ATOM      5  C   UNL     1      -0.754   3.771   2.814  1.00  0.00     0.111 A 
ATOM      6  C   UNL     1       0.418   3.690   3.625  1.00  0.00     0.134 A 
ATOM      7  C   UNL     1       1.412   2.756   3.311  1.00  0.00     0.093 A 
ATOM      8  C   UNL     1       1.309   1.945   2.182  1.00  0.00     0.123 A 
ATOM      9  C   UNL     1       0.195   2.057   1.349  1.00  0.00     0.094 A 
ATOM     10  C   UNL     1      -0.831   2.954   1.655  1.00  0.00     0.146 A 
ATOM     11  O   UNL     1      -1.878   3.022   0.842  1.00  0.00    -0.452 OA
ENDROOT
BRANCH   1  12
ATOM     12  C   UNL     1      -4.011   3.824   0.053  1.00  0.00     0.021 A 
ATOM     13  C   UNL     1      -3.869   4.469  -1.189  1.00  0.00     0.016 A 
ATOM     14  C   UNL     1      -4.907   4.436  -2.125  1.00  0.00     0.047 A 
ATOM     15  C   UNL     1      -6.093   3.747  -1.837  1.00  0.00     0.115 A 
ATOM     16  C   UNL     1      -5.195   3.119   0.325  1.00  0.00     0.016 A 
ATOM     17  C   UNL     1      -6.232   3.088  -0.613  1.00  0.00     0.047 A 
BRANCH  15  18
ATOM     18  O   UNL     1      -7.135   3.708  -2.762  1.00  0.00    -0.508 OA
ATOM     19  H   UNL     1      -8.085   3.497  -2.479  1.00  0.00     0.293 HD
ENDBRANCH  15  18
ENDBRANCH   1  12
BRANCH   2  20
ATOM     20  O   UNL     1      -4.091   5.392   2.489  1.00  0.00    -0.502 OA
ATOM     21  H   UNL     1      -4.513   5.429   3.408  1.00  0.00     0.293 HD
ENDBRANCH   2  20
BRANCH   6  22
ATOM     22  O   UNL     1       0.665   4.519   4.725  1.00  0.00    -0.507 OA
ATOM     23  H   UNL     1       0.323   5.462   4.820  1.00  0.00     0.293 HD
ENDBRANCH   6  22
BRANCH   8  24
ATOM     24  O   UNL     1       2.325   1.037   1.891  1.00  0.00    -0.508 OA
ATOM     25  H   UNL     1       2.975   0.723   2.602  1.00  0.00     0.293 HD
ENDBRANCH   8  24
TORSDOF 5
ENDMDL
MODEL 8
REMARK VINA RESULT:    -5.559      3.748      7.020
REMARK INTER + INTRA:          -6.834
REMARK INTER:                  -6.546
REMARK INTRA:                  -0.288
REMARK UNBOUND:                -0.300
REMARK SMILES O=c1c(O)c(-c2ccc(O)cc2)oc2cc(O)cc(O)c12
REMARK SMILES IDX 5 1 3 2 2 3 1 4 21 5 19 6 18 7 16 8 15 9 14 10 13 11 6 12
REMARK SMILES IDX 7 13 8 14 9 15 12 16 11 17 10 18 4 20 20 22 17 24
REMARK H PARENT 10 19 4 21 20 23 17 25
REMARK Flexibility Score: inf
ROOT
ATOM      1  C   UNL     1      -2.217   2.829   3.115  1.00  0.00     0.180 A 
ATOM      2  C   UNL     1      -1.118   3.497   2.546  1.00  0.00     0.208 A 
ATOM      3  C   UNL     1       0.061   2.776   2.291  1.00  0.00     0.238 A 
ATOM      4  O   UNL     1       1.058   3.390   1.832  1.00  0.00    -0.285 OA
ATOM      5  C   UNL     1       0.119   1.394   2.595  1.00  0.00     0.111 A 
ATOM      6  C   UNL     1       1.248   0.557   2.343  1.00  0.00     0.134 A 
ATOM      7  C   UNL     1       1.243  -0.765   2.803  1.00  0.00     0.093 A 
ATOM      8  C   UNL     1       0.129  -1.299   3.449  1.00  0.00     0.123 A 
ATOM      9  C   UNL     1      -1.003  -0.507   3.647  1.00  0.00     0.094 A 
ATOM     10  C   UNL     1      -1.015   0.826   3.231  1.00  0.00     0.146 A 
ATOM     11  O   UNL     1      -2.107   1.549   3.449  1.00  0.00    -0.452 OA
ENDROOT
BRANCH   1  12
ATOM     12  C   UNL     1      -3.500   3.516   3.388  1.00  0.00     0.021 A 
ATOM     13  C   UNL     1      -3.726   4.192   4.601  1.00  0.00     0.016 A 
ATOM     14  C   UNL     1      -4.937   4.853   4.826  1.00  0.00     0.047 A 
ATOM     15  C   UNL     1      -5.931   4.859   3.838  1.00  0.00     0.115 A 
ATOM     16  C   UNL     1      -4.494   3.543   2.396  1.00  0.00     0.016 A 
ATOM     17  C   UNL     1      -5.704   4.205   2.624  1.00  0.00     0.047 A 
BRANCH  15  18
ATOM     18  O   UNL     1      -7.142   5.513   4.052  1.00  0.00    -0.508 OA
ATOM     19  H   UNL     1      -7.345   6.407   3.619  1.00  0.00     0.293 HD
ENDBRANCH  15  18
ENDBRANCH   1  12
BRANCH   2  20
ATOM     20  O   UNL     1      -1.191   4.866   2.274  1.00  0.00    -0.502 OA
ATOM     21  H   UNL     1      -1.945   5.448   2.616  1.00  0.00     0.293 HD
ENDBRANCH   2  20
BRANCH   6  22
ATOM     22  O   UNL     1       2.378   0.964   1.626  1.00  0.00    -0.507 OA
ATOM     23  H   UNL     1       2.358   1.355   0.697  1.00  0.00     0.293 HD
ENDBRANCH   6  22
BRANCH   8  24
ATOM     24  O   UNL     1       0.153  -2.624   3.880  1.00  0.00    -0.508 OA
ATOM     25  H   UNL     1      -0.511  -3.307   3.533  1.00  0.00     0.293 HD
ENDBRANCH   8  24
TORSDOF 5
ENDMDL
MODEL 9
REMARK VINA RESULT:    -5.535      1.908      2.424
REMARK INTER + INTRA:          -6.806
REMARK INTER:                  -6.861
REMARK INTRA:                   0.055
REMARK UNBOUND:                -0.300
REMARK SMILES O=c1c(O)c(-c2ccc(O)cc2)oc2cc(O)cc(O)c12
REMARK SMILES IDX 5 1 3 2 2 3 1 4 21 5 19 6 18 7 16 8 15 9 14 10 13 11 6 12
REMARK SMILES IDX 7 13 8 14 9 15 12 16 11 17 10 18 4 20 20 22 17 24
REMARK H PARENT 10 19 4 21 20 23 17 25
REMARK Flexibility Score: inf
ROOT
ATOM      1  C   UNL     1      -2.915   3.867   0.426  1.00  0.00     0.180 A 
ATOM      2  C   UNL     1      -4.229   3.558   0.820  1.00  0.00     0.208 A 
ATOM      3  C   UNL     1      -5.280   3.766  -0.088  1.00  0.00     0.238 A 
ATOM      4  O   UNL     1      -6.458   3.538   0.289  1.00  0.00    -0.285 OA
ATOM      5  C   UNL     1      -5.002   4.265  -1.383  1.00  0.00     0.111 A 
ATOM      6  C   UNL     1      -5.984   4.477  -2.398  1.00  0.00     0.134 A 
ATOM      7  C   UNL     1      -5.615   5.098  -3.597  1.00  0.00     0.093 A 
ATOM      8  C   UNL     1      -4.290   5.456  -3.845  1.00  0.00     0.123 A 
ATOM      9  C   UNL     1      -3.312   5.199  -2.884  1.00  0.00     0.094 A 
ATOM     10  C   UNL     1      -3.655   4.614  -1.663  1.00  0.00     0.146 A 
ATOM     11  O   UNL     1      -2.695   4.396  -0.772  1.00  0.00    -0.452 OA
ENDROOT
BRANCH   1  12
ATOM     12  C   UNL     1      -1.753   3.651   1.318  1.00  0.00     0.021 A 
ATOM     13  C   UNL     1      -0.607   2.966   0.876  1.00  0.00     0.016 A 
ATOM     14  C   UNL     1       0.487   2.795   1.730  1.00  0.00     0.047 A 
ATOM     15  C   UNL     1       0.456   3.319   3.029  1.00  0.00     0.115 A 
ATOM     16  C   UNL     1      -1.768   4.189   2.616  1.00  0.00     0.016 A 
ATOM     17  C   UNL     1      -0.673   4.017   3.467  1.00  0.00     0.047 A 
BRANCH  15  18
ATOM     18  O   UNL     1       1.540   3.153   3.889  1.00  0.00    -0.508 OA
ATOM     19  H   UNL     1       2.438   3.581   3.696  1.00  0.00     0.293 HD
ENDBRANCH  15  18
ENDBRANCH   1  12
BRANCH   2  20
ATOM     20  O   UNL     1      -4.482   3.086   2.111  1.00  0.00    -0.502 OA
ATOM     21  H   UNL     1      -3.741   2.821   2.748  1.00  0.00     0.293 HD
ENDBRANCH   2  20
BRANCH   6  22
ATOM     22  O   UNL     1      -7.319   4.074  -2.289  1.00  0.00    -0.507 OA
ATOM     23  H   UNL     1      -7.904   3.810  -3.066  1.00  0.00     0.293 HD
ENDBRANCH   6  22
BRANCH   8  24
ATOM     24  O   UNL     1      -3.956   6.058  -5.056  1.00  0.00    -0.508 OA
ATOM     25  H   UNL     1      -3.063   6.519  -5.191  1.00  0.00     0.293 HD
ENDBRANCH   8  24
TORSDOF 5
ENDMDL
