MODEL 1
REMARK VINA RESULT:    -6.994      0.000      0.000
REMARK INTER + INTRA:          -8.323
REMARK INTER:                  -8.016
REMARK INTRA:                  -0.307
REMARK UNBOUND:                -0.307
REMARK SMILES O=C1C[C@@H](c2ccc(O)cc2)Oc2cc(O)cc(O)c21
REMARK SMILES IDX 3 1 4 2 12 3 13 4 14 5 15 6 17 7 18 8 20 9 2 10 1 11 5 12
REMARK SMILES IDX 6 13 11 14 7 15 10 16 8 17 9 18 19 20 16 22
REMARK H PARENT 9 19 19 21 16 23
REMARK Flexibility Score: inf
ROOT
ATOM      1  C   UNL     1      20.725 -35.630  -7.503  1.00  0.00     0.131 C 
ATOM      2  C   UNL     1      20.917 -37.137  -7.287  1.00  0.00     0.211 C 
ATOM      3  O   UNL     1      21.335 -37.771  -8.500  1.00  0.00    -0.484 OA
ATOM      4  C   UNL     1      22.247 -37.180  -9.386  1.00  0.00     0.138 A 
ATOM      5  C   UNL     1      22.815 -37.963 -10.393  1.00  0.00     0.093 A 
ATOM      6  C   UNL     1      23.739 -37.406 -11.283  1.00  0.00     0.123 A 
ATOM      7  C   UNL     1      24.071 -36.054 -11.180  1.00  0.00     0.093 A 
ATOM      8  C   UNL     1      23.484 -35.241 -10.203  1.00  0.00     0.133 A 
ATOM      9  C   UNL     1      22.582 -35.813  -9.268  1.00  0.00     0.102 A 
ATOM     10  C   UNL     1      21.955 -35.065  -8.149  1.00  0.00     0.174 C 
ATOM     11  O   UNL     1      22.458 -34.004  -7.698  1.00  0.00    -0.294 OA
ENDROOT
BRANCH   2  12
ATOM     12  C   UNL     1      19.643 -37.771  -6.785  1.00  0.00    -0.007 A 
ATOM     13  C   UNL     1      19.501 -39.170  -6.760  1.00  0.00     0.011 A 
ATOM     14  C   UNL     1      18.561 -36.967  -6.389  1.00  0.00     0.011 A 
ATOM     15  C   UNL     1      18.307 -39.752  -6.323  1.00  0.00     0.046 A 
ATOM     16  C   UNL     1      17.368 -37.551  -5.952  1.00  0.00     0.046 A 
ATOM     17  C   UNL     1      17.239 -38.946  -5.917  1.00  0.00     0.115 A 
BRANCH  17  18
ATOM     18  O   UNL     1      16.055 -39.539  -5.484  1.00  0.00    -0.508 OA
ATOM     19  H   UNL     1      15.864 -40.521  -5.648  1.00  0.00     0.293 HD
ENDBRANCH  17  18
ENDBRANCH   2  12
BRANCH   8  20
ATOM     20  O   UNL     1      23.798 -33.881 -10.225  1.00  0.00    -0.507 OA
ATOM     21  H   UNL     1      23.377 -33.214 -10.855  1.00  0.00     0.293 HD
ENDBRANCH   8  20
BRANCH   6  22
ATOM     22  O   UNL     1      24.326 -38.185 -12.276  1.00  0.00    -0.508 OA
ATOM     23  H   UNL     1      24.691 -37.773 -13.128  1.00  0.00     0.293 HD
ENDBRANCH   6  22
TORSDOF 4
ENDMDL
MODEL 2
REMARK VINA RESULT:    -6.700      3.358      7.591
REMARK INTER + INTRA:          -7.986
REMARK INTER:                  -7.699
REMARK INTRA:                  -0.287
REMARK UNBOUND:                -0.307
REMARK SMILES O=C1C[C@@H](c2ccc(O)cc2)Oc2cc(O)cc(O)c21
REMARK SMILES IDX 3 1 4 2 12 3 13 4 14 5 15 6 17 7 18 8 20 9 2 10 1 11 5 12
REMARK SMILES IDX 6 13 11 14 7 15 10 16 8 17 9 18 19 20 16 22
REMARK H PARENT 9 19 19 21 16 23
REMARK Flexibility Score: inf
ROOT
ATOM      1  C   UNL     1      22.833 -32.625  -7.881  1.00  0.00     0.131 C 
ATOM      2  C   UNL     1      22.926 -32.551  -9.412  1.00  0.00     0.211 C 
ATOM      3  O   UNL     1      23.237 -33.836  -9.960  1.00  0.00    -0.484 OA
ATOM      4  C   UNL     1      22.688 -35.025  -9.457  1.00  0.00     0.138 A 
ATOM      5  C   UNL     1      22.814 -36.196 -10.206  1.00  0.00     0.093 A 
ATOM      6  C   UNL     1      22.264 -37.394  -9.739  1.00  0.00     0.123 A 
ATOM      7  C   UNL     1      21.612 -37.422  -8.504  1.00  0.00     0.093 A 
ATOM      8  C   UNL     1      21.510 -36.268  -7.718  1.00  0.00     0.133 A 
ATOM      9  C   UNL     1      22.024 -35.040  -8.211  1.00  0.00     0.102 A 
ATOM     10  C   UNL     1      21.909 -33.743  -7.498  1.00  0.00     0.174 C 
ATOM     11  O   UNL     1      21.027 -33.543  -6.624  1.00  0.00    -0.294 OA
ENDROOT
BRANCH   2  12
ATOM     12  C   UNL     1      23.966 -31.543  -9.835  1.00  0.00    -0.007 A 
ATOM     13  C   UNL     1      23.882 -30.910 -11.088  1.00  0.00     0.011 A 
ATOM     14  C   UNL     1      25.064 -31.268  -9.002  1.00  0.00     0.011 A 
ATOM     15  C   UNL     1      24.864 -30.001 -11.488  1.00  0.00     0.046 A 
ATOM     16  C   UNL     1      26.046 -30.358  -9.405  1.00  0.00     0.046 A 
ATOM     17  C   UNL     1      25.948 -29.720 -10.649  1.00  0.00     0.115 A 
BRANCH  17  18
ATOM     18  O   UNL     1      26.920 -28.811 -11.061  1.00  0.00    -0.508 OA
ATOM     19  H   UNL     1      27.058 -28.592 -12.041  1.00  0.00     0.293 HD
ENDBRANCH  17  18
ENDBRANCH   2  12
BRANCH   8  20
ATOM     20  O   UNL     1      20.927 -36.400  -6.457  1.00  0.00    -0.507 OA
ATOM     21  H   UNL     1      19.936 -36.507  -6.301  1.00  0.00     0.293 HD
ENDBRANCH   8  20
BRANCH   6  22
ATOM     22  O   UNL     1      22.366 -38.563 -10.490  1.00  0.00    -0.508 OA
ATOM     23  H   UNL     1      21.883 -39.411 -10.219  1.00  0.00     0.293 HD
ENDBRANCH   6  22
TORSDOF 4
ENDMDL
MODEL 3
REMARK VINA RESULT:    -6.628      4.692      7.747
REMARK INTER + INTRA:          -7.903
REMARK INTER:                  -7.597
REMARK INTRA:                  -0.306
REMARK UNBOUND:                -0.307
REMARK SMILES O=C1C[C@@H](c2ccc(O)cc2)Oc2cc(O)cc(O)c21
REMARK SMILES IDX 3 1 4 2 12 3 13 4 14 5 15 6 17 7 18 8 20 9 2 10 1 11 5 12
REMARK SMILES IDX 6 13 11 14 7 15 10 16 8 17 9 18 19 20 16 22
REMARK H PARENT 9 19 19 21 16 23
REMARK Flexibility Score: inf
ROOT
ATOM      1  C   UNL     1      21.931 -33.869  -8.147  1.00  0.00     0.131 C 
ATOM      2  C   UNL     1      22.856 -32.668  -7.907  1.00  0.00     0.211 C 
ATOM      3  O   UNL     1      22.605 -31.638  -8.869  1.00  0.00    -0.484 OA
ATOM      4  C   UNL     1      21.314 -31.311  -9.305  1.00  0.00     0.138 A 
ATOM      5  C   UNL     1      21.122 -30.128 -10.022  1.00  0.00     0.093 A 
ATOM      6  C   UNL     1      19.843 -29.766 -10.457  1.00  0.00     0.123 A 
ATOM      7  C   UNL     1      18.760 -30.608 -10.199  1.00  0.00     0.093 A 
ATOM      8  C   UNL     1      18.936 -31.819  -9.518  1.00  0.00     0.133 A 
ATOM      9  C   UNL     1      20.224 -32.166  -9.032  1.00  0.00     0.102 A 
ATOM     10  C   UNL     1      20.513 -33.386  -8.238  1.00  0.00     0.174 C 
ATOM     11  O   UNL     1      19.613 -33.990  -7.598  1.00  0.00    -0.294 OA
ENDROOT
BRANCH   2  12
ATOM     12  C   UNL     1      24.304 -33.090  -7.968  1.00  0.00    -0.007 A 
ATOM     13  C   UNL     1      24.663 -34.442  -7.821  1.00  0.00     0.011 A 
ATOM     14  C   UNL     1      25.316 -32.126  -8.118  1.00  0.00     0.011 A 
ATOM     15  C   UNL     1      26.007 -34.823  -7.847  1.00  0.00     0.046 A 
ATOM     16  C   UNL     1      26.660 -32.511  -8.144  1.00  0.00     0.046 A 
ATOM     17  C   UNL     1      27.009 -33.862  -8.011  1.00  0.00     0.115 A 
BRANCH  17  18
ATOM     18  O   UNL     1      28.344 -34.256  -8.036  1.00  0.00    -0.508 OA
ATOM     19  H   UNL     1      28.811 -34.493  -8.904  1.00  0.00     0.293 HD
ENDBRANCH  17  18
ENDBRANCH   2  12
BRANCH   8  20
ATOM     20  O   UNL     1      17.820 -32.647  -9.382  1.00  0.00    -0.507 OA
ATOM     21  H   UNL     1      16.879 -32.309  -9.250  1.00  0.00     0.293 HD
ENDBRANCH   8  20
BRANCH   6  22
ATOM     22  O   UNL     1      19.640 -28.577 -11.153  1.00  0.00    -0.508 OA
ATOM     23  H   UNL     1      18.709 -28.253 -11.389  1.00  0.00     0.293 HD
ENDBRANCH   6  22
TORSDOF 4
ENDMDL
MODEL 4
REMARK VINA RESULT:    -6.445      3.504      5.364
REMARK INTER + INTRA:          -7.693
REMARK INTER:                  -7.393
REMARK INTRA:                  -0.300
REMARK UNBOUND:                -0.307
REMARK SMILES O=C1C[C@@H](c2ccc(O)cc2)Oc2cc(O)cc(O)c21
REMARK SMILES IDX 3 1 4 2 12 3 13 4 14 5 15 6 17 7 18 8 20 9 2 10 1 11 5 12
REMARK SMILES IDX 6 13 11 14 7 15 10 16 8 17 9 18 19 20 16 22
REMARK H PARENT 9 19 19 21 16 23
REMARK Flexibility Score: inf
ROOT
ATOM      1  C   UNL     1      21.322 -33.168 -10.240  1.00  0.00     0.131 C 
ATOM      2  C   UNL     1      21.710 -32.894  -8.780  1.00  0.00     0.211 C 
ATOM      3  O   UNL     1      23.088 -32.521  -8.686  1.00  0.00    -0.484 OA
ATOM      4  C   UNL     1      23.712 -31.691  -9.629  1.00  0.00     0.138 A 
ATOM      5  C   UNL     1      24.964 -31.149  -9.330  1.00  0.00     0.093 A 
ATOM      6  C   UNL     1      25.604 -30.306 -10.244  1.00  0.00     0.123 A 
ATOM      7  C   UNL     1      25.001 -30.031 -11.473  1.00  0.00     0.093 A 
ATOM      8  C   UNL     1      23.765 -30.597 -11.810  1.00  0.00     0.133 A 
ATOM      9  C   UNL     1      23.090 -31.414 -10.866  1.00  0.00     0.102 A 
ATOM     10  C   UNL     1      21.747 -32.006 -11.088  1.00  0.00     0.174 C 
ATOM     11  O   UNL     1      20.941 -31.527 -11.927  1.00  0.00    -0.294 OA
ENDROOT
BRANCH   2  12
ATOM     12  C   UNL     1      21.444 -34.105  -7.920  1.00  0.00    -0.007 A 
ATOM     13  C   UNL     1      22.355 -35.177  -7.891  1.00  0.00     0.011 A 
ATOM     14  C   UNL     1      20.252 -34.200  -7.181  1.00  0.00     0.011 A 
ATOM     15  C   UNL     1      22.088 -36.310  -7.117  1.00  0.00     0.046 A 
ATOM     16  C   UNL     1      19.988 -35.335  -6.408  1.00  0.00     0.046 A 
ATOM     17  C   UNL     1      20.907 -36.392  -6.373  1.00  0.00     0.115 A 
BRANCH  17  18
ATOM     18  O   UNL     1      20.655 -37.527  -5.606  1.00  0.00    -0.508 OA
ATOM     19  H   UNL     1      20.112 -38.302  -5.970  1.00  0.00     0.293 HD
ENDBRANCH  17  18
ENDBRANCH   2  12
BRANCH   8  20
ATOM     20  O   UNL     1      23.275 -30.348 -13.093  1.00  0.00    -0.507 OA
ATOM     21  H   UNL     1      23.561 -29.568 -13.666  1.00  0.00     0.293 HD
ENDBRANCH   8  20
BRANCH   6  22
ATOM     22  O   UNL     1      26.842 -29.744  -9.943  1.00  0.00    -0.508 OA
ATOM     23  H   UNL     1      27.438 -30.129  -9.219  1.00  0.00     0.293 HD
ENDBRANCH   6  22
TORSDOF 4
ENDMDL
MODEL 5
REMARK VINA RESULT:    -6.439      5.919      7.512
REMARK INTER + INTRA:          -7.687
REMARK INTER:                  -7.371
REMARK INTRA:                  -0.316
REMARK UNBOUND:                -0.307
REMARK SMILES O=C1C[C@@H](c2ccc(O)cc2)Oc2cc(O)cc(O)c21
REMARK SMILES IDX 3 1 4 2 12 3 13 4 14 5 15 6 17 7 18 8 20 9 2 10 1 11 5 12
REMARK SMILES IDX 6 13 11 14 7 15 10 16 8 17 9 18 19 20 16 22
REMARK H PARENT 9 19 19 21 16 23
REMARK Flexibility Score: inf
ROOT
ATOM      1  C   UNL     1      22.024 -32.385  -9.546  1.00  0.00     0.131 C 
ATOM      2  C   UNL     1      22.046 -32.096 -11.054  1.00  0.00     0.211 C 
ATOM      3  O   UNL     1      22.897 -30.983 -11.341  1.00  0.00    -0.484 OA
ATOM      4  C   UNL     1      24.117 -30.774 -10.682  1.00  0.00     0.138 A 
ATOM      5  C   UNL     1      25.014 -29.837 -11.200  1.00  0.00     0.093 A 
ATOM      6  C   UNL     1      26.245 -29.618 -10.573  1.00  0.00     0.123 A 
ATOM      7  C   UNL     1      26.563 -30.318  -9.408  1.00  0.00     0.093 A 
ATOM      8  C   UNL     1      25.662 -31.232  -8.848  1.00  0.00     0.133 A 
ATOM      9  C   UNL     1      24.432 -31.493  -9.508  1.00  0.00     0.102 A 
ATOM     10  C   UNL     1      23.435 -32.490  -9.046  1.00  0.00     0.174 C 
ATOM     11  O   UNL     1      23.753 -33.446  -8.292  1.00  0.00    -0.294 OA
ENDROOT
BRANCH   2  12
ATOM     12  C   UNL     1      20.652 -31.827 -11.566  1.00  0.00    -0.007 A 
ATOM     13  C   UNL     1      19.567 -32.612 -11.136  1.00  0.00     0.011 A 
ATOM     14  C   UNL     1      20.432 -30.821 -12.522  1.00  0.00     0.011 A 
ATOM     15  C   UNL     1      18.284 -32.378 -11.636  1.00  0.00     0.046 A 
ATOM     16  C   UNL     1      19.147 -30.590 -13.021  1.00  0.00     0.046 A 
ATOM     17  C   UNL     1      18.068 -31.367 -12.578  1.00  0.00     0.115 A 
BRANCH  17  18
ATOM     18  O   UNL     1      16.783 -31.145 -13.067  1.00  0.00    -0.508 OA
ATOM     19  H   UNL     1      15.961 -31.420 -12.542  1.00  0.00     0.293 HD
ENDBRANCH  17  18
ENDBRANCH   2  12
BRANCH   8  20
ATOM     20  O   UNL     1      26.015 -31.820  -7.633  1.00  0.00    -0.507 OA
ATOM     21  H   UNL     1      26.194 -31.302  -6.785  1.00  0.00     0.293 HD
ENDBRANCH   8  20
BRANCH   6  22
ATOM     22  O   UNL     1      27.154 -28.702 -11.096  1.00  0.00    -0.508 OA
ATOM     23  H   UNL     1      28.154 -28.820 -10.977  1.00  0.00     0.293 HD
ENDBRANCH   6  22
TORSDOF 4
ENDMDL
MODEL 6
REMARK VINA RESULT:    -6.425      3.993      6.631
REMARK INTER + INTRA:          -7.670
REMARK INTER:                  -7.386
REMARK INTRA:                  -0.285
REMARK UNBOUND:                -0.307
REMARK SMILES O=C1C[C@@H](c2ccc(O)cc2)Oc2cc(O)cc(O)c21
REMARK SMILES IDX 3 1 4 2 12 3 13 4 14 5 15 6 17 7 18 8 20 9 2 10 1 11 5 12
REMARK SMILES IDX 6 13 11 14 7 15 10 16 8 17 9 18 19 20 16 22
REMARK H PARENT 9 19 19 21 16 23
REMARK Flexibility Score: inf
ROOT
ATOM      1  C   UNL     1      22.163 -33.974  -7.809  1.00  0.00     0.131 C 
ATOM      2  C   UNL     1      22.819 -33.790  -9.185  1.00  0.00     0.211 C 
ATOM      3  O   UNL     1      21.974 -33.021 -10.046  1.00  0.00    -0.484 OA
ATOM      4  C   UNL     1      21.234 -31.919  -9.592  1.00  0.00     0.138 A 
ATOM      5  C   UNL     1      20.660 -31.058 -10.529  1.00  0.00     0.093 A 
ATOM      6  C   UNL     1      19.929 -29.943 -10.107  1.00  0.00     0.123 A 
ATOM      7  C   UNL     1      19.749 -29.709  -8.743  1.00  0.00     0.093 A 
ATOM      8  C   UNL     1      20.282 -30.582  -7.786  1.00  0.00     0.133 A 
ATOM      9  C   UNL     1      21.065 -31.688  -8.210  1.00  0.00     0.102 A 
ATOM     10  C   UNL     1      21.736 -32.635  -7.285  1.00  0.00     0.174 C 
ATOM     11  O   UNL     1      22.003 -32.324  -6.095  1.00  0.00    -0.294 OA
ENDROOT
BRANCH   2  12
ATOM     12  C   UNL     1      23.119 -35.128  -9.816  1.00  0.00    -0.007 A 
ATOM     13  C   UNL     1      24.028 -35.227 -10.885  1.00  0.00     0.011 A 
ATOM     14  C   UNL     1      22.449 -36.283  -9.378  1.00  0.00     0.011 A 
ATOM     15  C   UNL     1      24.280 -36.464 -11.486  1.00  0.00     0.046 A 
ATOM     16  C   UNL     1      22.702 -37.518  -9.982  1.00  0.00     0.046 A 
ATOM     17  C   UNL     1      23.620 -37.612 -11.037  1.00  0.00     0.115 A 
BRANCH  17  18
ATOM     18  O   UNL     1      23.880 -38.838 -11.645  1.00  0.00    -0.508 OA
ATOM     19  H   UNL     1      23.350 -39.153 -12.449  1.00  0.00     0.293 HD
ENDBRANCH  17  18
ENDBRANCH   2  12
BRANCH   8  20
ATOM     20  O   UNL     1      19.979 -30.329  -6.447  1.00  0.00    -0.507 OA
ATOM     21  H   UNL     1      19.222 -29.737  -6.142  1.00  0.00     0.293 HD
ENDBRANCH   8  20
BRANCH   6  22
ATOM     22  O   UNL     1      19.371 -29.067 -11.036  1.00  0.00    -0.508 OA
ATOM     23  H   UNL     1      19.226 -29.340 -12.001  1.00  0.00     0.293 HD
ENDBRANCH   6  22
TORSDOF 4
ENDMDL
MODEL 7
REMARK VINA RESULT:    -6.261      3.002      7.158
REMARK INTER + INTRA:          -7.483
REMARK INTER:                  -7.162
REMARK INTRA:                  -0.321
REMARK UNBOUND:                -0.307
REMARK SMILES O=C1C[C@@H](c2ccc(O)cc2)Oc2cc(O)cc(O)c21
REMARK SMILES IDX 3 1 4 2 12 3 13 4 14 5 15 6 17 7 18 8 20 9 2 10 1 11 5 12
REMARK SMILES IDX 6 13 11 14 7 15 10 16 8 17 9 18 19 20 16 22
REMARK H PARENT 9 19 19 21 16 23
REMARK Flexibility Score: inf
ROOT
ATOM      1  C   UNL     1      22.592 -33.113  -7.277  1.00  0.00     0.131 C 
ATOM      2  C   UNL     1      23.330 -34.018  -8.274  1.00  0.00     0.211 C 
ATOM      3  O   UNL     1      23.105 -35.397  -7.965  1.00  0.00    -0.484 OA
ATOM      4  C   UNL     1      21.861 -35.882  -7.536  1.00  0.00     0.138 A 
ATOM      5  C   UNL     1      21.642 -37.261  -7.522  1.00  0.00     0.093 A 
ATOM      6  C   UNL     1      20.407 -37.774  -7.115  1.00  0.00     0.123 A 
ATOM      7  C   UNL     1      19.400 -36.904  -6.692  1.00  0.00     0.093 A 
ATOM      8  C   UNL     1      19.612 -35.520  -6.659  1.00  0.00     0.133 A 
ATOM      9  C   UNL     1      20.848 -34.992  -7.118  1.00  0.00     0.102 A 
ATOM     10  C   UNL     1      21.156 -33.543  -7.195  1.00  0.00     0.174 C 
ATOM     11  O   UNL     1      20.248 -32.673  -7.247  1.00  0.00    -0.294 OA
ENDROOT
BRANCH   2  12
ATOM     12  C   UNL     1      24.810 -33.722  -8.267  1.00  0.00    -0.007 A 
ATOM     13  C   UNL     1      25.749 -34.769  -8.260  1.00  0.00     0.011 A 
ATOM     14  C   UNL     1      25.265 -32.394  -8.212  1.00  0.00     0.011 A 
ATOM     15  C   UNL     1      27.118 -34.490  -8.223  1.00  0.00     0.046 A 
ATOM     16  C   UNL     1      26.636 -32.118  -8.174  1.00  0.00     0.046 A 
ATOM     17  C   UNL     1      27.566 -33.165  -8.182  1.00  0.00     0.115 A 
BRANCH  17  18
ATOM     18  O   UNL     1      28.933 -32.902  -8.145  1.00  0.00    -0.508 OA
ATOM     19  H   UNL     1      29.339 -32.309  -7.431  1.00  0.00     0.293 HD
ENDBRANCH  17  18
ENDBRANCH   2  12
BRANCH   8  20
ATOM     20  O   UNL     1      18.591 -34.726  -6.135  1.00  0.00    -0.507 OA
ATOM     21  H   UNL     1      18.720 -34.058  -5.390  1.00  0.00     0.293 HD
ENDBRANCH   8  20
BRANCH   6  22
ATOM     22  O   UNL     1      20.172 -39.147  -7.119  1.00  0.00    -0.508 OA
ATOM     23  H   UNL     1      19.523 -39.577  -6.470  1.00  0.00     0.293 HD
ENDBRANCH   6  22
TORSDOF 4
ENDMDL
MODEL 8
REMARK VINA RESULT:    -6.061      1.826      7.182
REMARK INTER + INTRA:          -7.253
REMARK INTER:                  -6.949
REMARK INTRA:                  -0.304
REMARK UNBOUND:                -0.307
REMARK SMILES O=C1C[C@@H](c2ccc(O)cc2)Oc2cc(O)cc(O)c21
REMARK SMILES IDX 3 1 4 2 12 3 13 4 14 5 15 6 17 7 18 8 20 9 2 10 1 11 5 12
REMARK SMILES IDX 6 13 11 14 7 15 10 16 8 17 9 18 19 20 16 22
REMARK H PARENT 9 19 19 21 16 23
REMARK Flexibility Score: inf
ROOT
ATOM      1  C   UNL     1      20.422 -38.570  -7.290  1.00  0.00     0.131 C 
ATOM      2  C   UNL     1      20.854 -37.098  -7.220  1.00  0.00     0.211 C 
ATOM      3  O   UNL     1      19.710 -36.242  -7.143  1.00  0.00    -0.484 OA
ATOM      4  C   UNL     1      18.576 -36.562  -6.383  1.00  0.00     0.138 A 
ATOM      5  C   UNL     1      17.628 -35.568  -6.132  1.00  0.00     0.093 A 
ATOM      6  C   UNL     1      16.494 -35.853  -5.365  1.00  0.00     0.123 A 
ATOM      7  C   UNL     1      16.297 -37.144  -4.874  1.00  0.00     0.093 A 
ATOM      8  C   UNL     1      17.214 -38.166  -5.147  1.00  0.00     0.133 A 
ATOM      9  C   UNL     1      18.390 -37.870  -5.885  1.00  0.00     0.102 A 
ATOM     10  C   UNL     1      19.463 -38.854  -6.173  1.00  0.00     0.174 C 
ATOM     11  O   UNL     1      19.619 -39.888  -5.473  1.00  0.00    -0.294 OA
ENDROOT
BRANCH   2  12
ATOM     12  C   UNL     1      21.694 -36.732  -8.419  1.00  0.00    -0.007 A 
ATOM     13  C   UNL     1      22.261 -37.732  -9.230  1.00  0.00     0.011 A 
ATOM     14  C   UNL     1      21.966 -35.383  -8.706  1.00  0.00     0.011 A 
ATOM     15  C   UNL     1      23.063 -37.387 -10.320  1.00  0.00     0.046 A 
ATOM     16  C   UNL     1      22.770 -35.041  -9.798  1.00  0.00     0.046 A 
ATOM     17  C   UNL     1      23.319 -36.043 -10.610  1.00  0.00     0.115 A 
BRANCH  17  18
ATOM     18  O   UNL     1      24.121 -35.714 -11.700  1.00  0.00    -0.508 OA
ATOM     19  H   UNL     1      24.604 -34.824 -11.753  1.00  0.00     0.293 HD
ENDBRANCH  17  18
ENDBRANCH   2  12
BRANCH   8  20
ATOM     20  O   UNL     1      16.897 -39.450  -4.700  1.00  0.00    -0.507 OA
ATOM     21  H   UNL     1      16.030 -39.922  -4.906  1.00  0.00     0.293 HD
ENDBRANCH   8  20
BRANCH   6  22
ATOM     22  O   UNL     1      15.555 -34.861  -5.092  1.00  0.00    -0.508 OA
ATOM     23  H   UNL     1      15.639 -33.929  -5.481  1.00  0.00     0.293 HD
ENDBRANCH   6  22
TORSDOF 4
ENDMDL
MODEL 9
REMARK VINA RESULT:    -6.034      2.514      7.186
REMARK INTER + INTRA:          -7.223
REMARK INTER:                  -6.907
REMARK INTRA:                  -0.316
REMARK UNBOUND:                -0.307
REMARK SMILES O=C1C[C@@H](c2ccc(O)cc2)Oc2cc(O)cc(O)c21
REMARK SMILES IDX 3 1 4 2 12 3 13 4 14 5 15 6 17 7 18 8 20 9 2 10 1 11 5 12
REMARK SMILES IDX 6 13 11 14 7 15 10 16 8 17 9 18 19 20 16 22
REMARK H PARENT 9 19 19 21 16 23
REMARK Flexibility Score: inf
ROOT
ATOM      1  C   UNL     1      21.056 -37.336  -7.740  1.00  0.00     0.131 C 
ATOM      2  C   UNL     1      21.173 -36.105  -6.831  1.00  0.00     0.211 C 
ATOM      3  O   UNL     1      19.891 -35.499  -6.636  1.00  0.00    -0.484 OA
ATOM      4  C   UNL     1      18.719 -36.249  -6.466  1.00  0.00     0.138 A 
ATOM      5  C   UNL     1      17.566 -35.608  -6.008  1.00  0.00     0.093 A 
ATOM      6  C   UNL     1      16.386 -36.333  -5.815  1.00  0.00     0.123 A 
ATOM      7  C   UNL     1      16.354 -37.697  -6.111  1.00  0.00     0.093 A 
ATOM      8  C   UNL     1      17.487 -38.351  -6.610  1.00  0.00     0.133 A 
ATOM      9  C   UNL     1      18.700 -37.630  -6.761  1.00  0.00     0.102 A 
ATOM     10  C   UNL     1      19.977 -38.235  -7.213  1.00  0.00     0.174 C 
ATOM     11  O   UNL     1      20.197 -39.471  -7.114  1.00  0.00    -0.294 OA
ENDROOT
BRANCH   2  12
ATOM     12  C   UNL     1      22.135 -35.100  -7.415  1.00  0.00    -0.007 A 
ATOM     13  C   UNL     1      23.398 -35.506  -7.884  1.00  0.00     0.011 A 
ATOM     14  C   UNL     1      21.802 -33.735  -7.444  1.00  0.00     0.011 A 
ATOM     15  C   UNL     1      24.297 -34.567  -8.395  1.00  0.00     0.046 A 
ATOM     16  C   UNL     1      22.704 -32.798  -7.957  1.00  0.00     0.046 A 
ATOM     17  C   UNL     1      23.954 -33.212  -8.436  1.00  0.00     0.115 A 
BRANCH  17  18
ATOM     18  O   UNL     1      24.861 -32.287  -8.948  1.00  0.00    -0.508 OA
ATOM     19  H   UNL     1      25.716 -32.582  -9.405  1.00  0.00     0.293 HD
ENDBRANCH  17  18
ENDBRANCH   2  12
BRANCH   8  20
ATOM     20  O   UNL     1      17.347 -39.693  -6.969  1.00  0.00    -0.507 OA
ATOM     21  H   UNL     1      18.117 -40.292  -7.225  1.00  0.00     0.293 HD
ENDBRANCH   8  20
BRANCH   6  22
ATOM     22  O   UNL     1      15.238 -35.705  -5.337  1.00  0.00    -0.508 OA
ATOM     23  H   UNL     1      15.076 -35.579  -4.345  1.00  0.00     0.293 HD
ENDBRANCH   6  22
TORSDOF 4
ENDMDL
