MODEL 1
REMARK VINA RESULT:    -3.553      0.000      0.000
REMARK INTER + INTRA:          -8.885
REMARK INTER:                  -6.668
REMARK INTRA:                  -2.217
REMARK UNBOUND:                -2.217
REMARK SMILES CCCCCCCCC=CCCCCCCCC(=O)[O-]
REMARK SMILES IDX 10 1 9 2 11 3 12 4 13 5 14 6 15 7 16 8 17 9 18 10 19 11
REMARK SMILES IDX 20 12 8 13 7 14 6 15 5 16 4 17 3 18 2 19 1 20
REMARK H PARENT
REMARK Flexibility Score: inf
ROOT
ATOM      1  C   UNL     1      -6.839  42.708  82.811  1.00  0.00    -0.031 C 
ATOM      2  C   UNL     1      -7.345  41.936  81.836  1.00  0.00    -0.031 C 
ENDROOT
BRANCH   1   3
ATOM      3  C   UNL     1      -5.362  42.757  83.090  1.00  0.00     0.027 C 
BRANCH   3   4
ATOM      4  C   UNL     1      -4.798  44.160  82.834  1.00  0.00     0.004 C 
BRANCH   4   5
ATOM      5  C   UNL     1      -5.428  45.187  83.782  1.00  0.00     0.000 C 
BRANCH   5   6
ATOM      6  C   UNL     1      -4.774  46.564  83.615  1.00  0.00     0.000 C 
BRANCH   6   7
ATOM      7  C   UNL     1      -3.642  46.514  82.581  1.00  0.00     0.000 C 
BRANCH   7   8
ATOM      8  C   UNL     1      -2.299  46.904  83.215  1.00  0.00     0.006 C 
BRANCH   8   9
ATOM      9  C   UNL     1      -1.337  45.713  83.315  1.00  0.00     0.053 C 
BRANCH   9  10
ATOM     10  C   UNL     1      -1.533  44.945  84.587  1.00  0.00     0.041 C 
ATOM     11  O   UNL     1      -1.226  43.725  84.644  1.00  0.00    -0.550 OA
ATOM     12  O   UNL     1      -2.084  45.570  85.698  1.00  0.00    -0.550 OA
ENDBRANCH   9  10
ENDBRANCH   8   9
ENDBRANCH   7   8
ENDBRANCH   6   7
ENDBRANCH   5   6
ENDBRANCH   4   5
ENDBRANCH   3   4
ENDBRANCH   1   3
BRANCH   2  13
ATOM     13  C   UNL     1      -8.820  41.902  81.548  1.00  0.00     0.027 C 
BRANCH  13  14
ATOM     14  C   UNL     1      -9.323  40.457  81.420  1.00  0.00     0.004 C 
BRANCH  14  15
ATOM     15  C   UNL     1      -8.326  39.540  80.691  1.00  0.00     0.000 C 
BRANCH  15  16
ATOM     16  C   UNL     1      -8.045  38.194  81.391  1.00  0.00     0.000 C 
BRANCH  16  17
ATOM     17  C   UNL     1      -8.004  38.248  82.929  1.00  0.00    -0.000 C 
BRANCH  17  18
ATOM     18  C   UNL     1      -6.630  38.673  83.475  1.00  0.00    -0.000 C 
BRANCH  18  19
ATOM     19  C   UNL     1      -6.740  39.496  84.768  1.00  0.00    -0.003 C 
ATOM     20  C   UNL     1      -8.145  40.051  85.001  1.00  0.00     0.004 C 
ENDBRANCH  18  19
ENDBRANCH  17  18
ENDBRANCH  16  17
ENDBRANCH  15  16
ENDBRANCH  14  15
ENDBRANCH  13  14
ENDBRANCH   2  13
TORSDOF 15
ENDMDL
MODEL 2
REMARK VINA RESULT:    -3.524      2.111      3.160
REMARK INTER + INTRA:          -8.830
REMARK INTER:                  -6.093
REMARK INTRA:                  -2.737
REMARK UNBOUND:                -2.217
REMARK SMILES CCCCCCCCC=CCCCCCCCC(=O)[O-]
REMARK SMILES IDX 10 1 9 2 11 3 12 4 13 5 14 6 15 7 16 8 17 9 18 10 19 11
REMARK SMILES IDX 20 12 8 13 7 14 6 15 5 16 4 17 3 18 2 19 1 20
REMARK H PARENT
REMARK Flexibility Score: inf
ROOT
ATOM      1  C   UNL     1      -9.265  42.663  84.956  1.00  0.00    -0.031 C 
ATOM      2  C   UNL     1      -9.047  42.928  83.658  1.00  0.00    -0.031 C 
ENDROOT
BRANCH   1   3
ATOM      3  C   UNL     1      -8.148  42.682  85.962  1.00  0.00     0.027 C 
BRANCH   3   4
ATOM      4  C   UNL     1      -6.960  41.841  85.485  1.00  0.00     0.004 C 
BRANCH   4   5
ATOM      5  C   UNL     1      -5.754  42.729  85.156  1.00  0.00     0.000 C 
BRANCH   5   6
ATOM      6  C   UNL     1      -5.176  42.385  83.777  1.00  0.00     0.000 C 
BRANCH   6   7
ATOM      7  C   UNL     1      -5.437  43.514  82.773  1.00  0.00     0.000 C 
BRANCH   7   8
ATOM      8  C   UNL     1      -5.042  44.877  83.362  1.00  0.00     0.006 C 
BRANCH   8   9
ATOM      9  C   UNL     1      -3.588  45.247  83.043  1.00  0.00     0.053 C 
BRANCH   9  10
ATOM     10  C   UNL     1      -3.436  46.712  82.765  1.00  0.00     0.041 C 
ATOM     11  O   UNL     1      -2.289  47.217  82.637  1.00  0.00    -0.550 OA
ATOM     12  O   UNL     1      -4.559  47.524  82.680  1.00  0.00    -0.550 OA
ENDBRANCH   9  10
ENDBRANCH   8   9
ENDBRANCH   7   8
ENDBRANCH   6   7
ENDBRANCH   5   6
ENDBRANCH   4   5
ENDBRANCH   3   4
ENDBRANCH   1   3
BRANCH   2  13
ATOM     13  C   UNL     1     -10.169  42.925  82.657  1.00  0.00     0.027 C 
BRANCH  13  14
ATOM     14  C   UNL     1      -9.763  42.180  81.377  1.00  0.00     0.004 C 
BRANCH  14  15
ATOM     15  C   UNL     1      -8.305  41.691  81.408  1.00  0.00     0.000 C 
BRANCH  15  16
ATOM     16  C   UNL     1      -8.123  40.170  81.220  1.00  0.00     0.000 C 
BRANCH  16  17
ATOM     17  C   UNL     1      -9.145  39.288  81.960  1.00  0.00    -0.000 C 
BRANCH  17  18
ATOM     18  C   UNL     1      -8.789  39.077  83.442  1.00  0.00    -0.000 C 
BRANCH  18  19
ATOM     19  C   UNL     1     -10.014  39.184  84.362  1.00  0.00    -0.003 C 
ATOM     20  C   UNL     1     -11.289  39.569  83.611  1.00  0.00     0.004 C 
ENDBRANCH  18  19
ENDBRANCH  17  18
ENDBRANCH  16  17
ENDBRANCH  15  16
ENDBRANCH  14  15
ENDBRANCH  13  14
ENDBRANCH   2  13
TORSDOF 15
ENDMDL
MODEL 3
REMARK VINA RESULT:    -3.516      1.968      2.843
REMARK INTER + INTRA:          -8.816
REMARK INTER:                  -6.473
REMARK INTRA:                  -2.342
REMARK UNBOUND:                -2.217
REMARK SMILES CCCCCCCCC=CCCCCCCCC(=O)[O-]
REMARK SMILES IDX 10 1 9 2 11 3 12 4 13 5 14 6 15 7 16 8 17 9 18 10 19 11
REMARK SMILES IDX 20 12 8 13 7 14 6 15 5 16 4 17 3 18 2 19 1 20
REMARK H PARENT
REMARK Flexibility Score: inf
ROOT
ATOM      1  C   UNL     1      -6.255  41.448  81.995  1.00  0.00    -0.031 C 
ATOM      2  C   UNL     1      -7.447  41.398  81.381  1.00  0.00    -0.031 C 
ENDROOT
BRANCH   1   3
ATOM      3  C   UNL     1      -5.578  42.756  82.296  1.00  0.00     0.027 C 
BRANCH   3   4
ATOM      4  C   UNL     1      -6.381  43.573  83.315  1.00  0.00     0.004 C 
BRANCH   4   5
ATOM      5  C   UNL     1      -5.454  44.420  84.195  1.00  0.00     0.000 C 
BRANCH   5   6
ATOM      6  C   UNL     1      -3.984  44.060  83.952  1.00  0.00     0.000 C 
BRANCH   6   7
ATOM      7  C   UNL     1      -3.092  45.305  84.031  1.00  0.00     0.000 C 
BRANCH   7   8
ATOM      8  C   UNL     1      -3.048  46.037  82.682  1.00  0.00     0.006 C 
BRANCH   8   9
ATOM      9  C   UNL     1      -3.924  47.297  82.676  1.00  0.00     0.053 C 
BRANCH   9  10
ATOM     10  C   UNL     1      -3.633  48.181  83.850  1.00  0.00     0.041 C 
ATOM     11  O   UNL     1      -2.539  48.800  83.922  1.00  0.00    -0.550 OA
ATOM     12  O   UNL     1      -4.558  48.296  84.880  1.00  0.00    -0.550 OA
ENDBRANCH   9  10
ENDBRANCH   8   9
ENDBRANCH   7   8
ENDBRANCH   6   7
ENDBRANCH   5   6
ENDBRANCH   4   5
ENDBRANCH   3   4
ENDBRANCH   1   3
BRANCH   2  13
ATOM     13  C   UNL     1      -8.130  40.089  81.097  1.00  0.00     0.027 C 
BRANCH  13  14
ATOM     14  C   UNL     1      -9.643  40.194  81.334  1.00  0.00     0.004 C 
BRANCH  14  15
ATOM     15  C   UNL     1     -10.122  41.647  81.496  1.00  0.00     0.000 C 
BRANCH  15  16
ATOM     16  C   UNL     1     -10.872  41.944  82.811  1.00  0.00     0.000 C 
BRANCH  16  17
ATOM     17  C   UNL     1     -10.420  41.116  84.028  1.00  0.00    -0.000 C 
BRANCH  17  18
ATOM     18  C   UNL     1      -9.252  41.765  84.791  1.00  0.00    -0.000 C 
BRANCH  18  19
ATOM     19  C   UNL     1      -8.123  40.768  85.096  1.00  0.00    -0.003 C 
ATOM     20  C   UNL     1      -8.493  39.327  84.743  1.00  0.00     0.004 C 
ENDBRANCH  18  19
ENDBRANCH  17  18
ENDBRANCH  16  17
ENDBRANCH  15  16
ENDBRANCH  14  15
ENDBRANCH  13  14
ENDBRANCH   2  13
TORSDOF 15
ENDMDL
MODEL 4
REMARK VINA RESULT:    -3.487      2.119      7.591
REMARK INTER + INTRA:          -8.762
REMARK INTER:                  -6.846
REMARK INTRA:                  -1.916
REMARK UNBOUND:                -2.217
REMARK SMILES CCCCCCCCC=CCCCCCCCC(=O)[O-]
REMARK SMILES IDX 10 1 9 2 11 3 12 4 13 5 14 6 15 7 16 8 17 9 18 10 19 11
REMARK SMILES IDX 20 12 8 13 7 14 6 15 5 16 4 17 3 18 2 19 1 20
REMARK H PARENT
REMARK Flexibility Score: inf
ROOT
ATOM      1  C   UNL     1      -7.244  42.430  82.443  1.00  0.00    -0.031 C 
ATOM      2  C   UNL     1      -5.906  42.470  82.349  1.00  0.00    -0.031 C 
ENDROOT
BRANCH   1   3
ATOM      3  C   UNL     1      -8.087  41.739  81.406  1.00  0.00     0.027 C 
BRANCH   3   4
ATOM      4  C   UNL     1      -9.361  41.156  82.028  1.00  0.00     0.004 C 
BRANCH   4   5
ATOM      5  C   UNL     1      -9.465  39.650  81.757  1.00  0.00     0.000 C 
BRANCH   5   6
ATOM      6  C   UNL     1      -8.486  39.219  80.659  1.00  0.00     0.000 C 
BRANCH   6   7
ATOM      7  C   UNL     1      -7.761  37.923  81.045  1.00  0.00     0.000 C 
BRANCH   7   8
ATOM      8  C   UNL     1      -7.540  37.847  82.563  1.00  0.00     0.006 C 
BRANCH   8   9
ATOM      9  C   UNL     1      -6.117  38.257  82.964  1.00  0.00     0.053 C 
BRANCH   9  10
ATOM     10  C   UNL     1      -6.121  39.264  84.074  1.00  0.00     0.041 C 
ATOM     11  O   UNL     1      -7.211  39.662  84.564  1.00  0.00    -0.550 OA
ATOM     12  O   UNL     1      -4.923  39.785  84.543  1.00  0.00    -0.550 OA
ENDBRANCH   9  10
ENDBRANCH   8   9
ENDBRANCH   7   8
ENDBRANCH   6   7
ENDBRANCH   5   6
ENDBRANCH   4   5
ENDBRANCH   3   4
ENDBRANCH   1   3
BRANCH   2  13
ATOM     13  C   UNL     1      -5.065  43.146  83.396  1.00  0.00     0.027 C 
BRANCH  13  14
ATOM     14  C   UNL     1      -4.535  44.495  82.891  1.00  0.00     0.004 C 
BRANCH  14  15
ATOM     15  C   UNL     1      -5.064  45.688  83.706  1.00  0.00     0.000 C 
BRANCH  15  16
ATOM     16  C   UNL     1      -4.518  47.065  83.277  1.00  0.00     0.000 C 
BRANCH  16  17
ATOM     17  C   UNL     1      -3.175  47.036  82.526  1.00  0.00    -0.000 C 
BRANCH  17  18
ATOM     18  C   UNL     1      -1.961  47.070  83.471  1.00  0.00    -0.000 C 
BRANCH  18  19
ATOM     19  C   UNL     1      -1.161  45.758  83.449  1.00  0.00    -0.003 C 
ATOM     20  C   UNL     1      -1.253  44.984  84.764  1.00  0.00     0.004 C 
ENDBRANCH  18  19
ENDBRANCH  17  18
ENDBRANCH  16  17
ENDBRANCH  15  16
ENDBRANCH  14  15
ENDBRANCH  13  14
ENDBRANCH   2  13
TORSDOF 15
ENDMDL
MODEL 5
REMARK VINA RESULT:    -3.486      2.519      3.579
REMARK INTER + INTRA:          -8.759
REMARK INTER:                  -6.592
REMARK INTRA:                  -2.167
REMARK UNBOUND:                -2.217
REMARK SMILES CCCCCCCCC=CCCCCCCCC(=O)[O-]
REMARK SMILES IDX 10 1 9 2 11 3 12 4 13 5 14 6 15 7 16 8 17 9 18 10 19 11
REMARK SMILES IDX 20 12 8 13 7 14 6 15 5 16 4 17 3 18 2 19 1 20
REMARK H PARENT
REMARK Flexibility Score: inf
ROOT
ATOM      1  C   UNL     1      -5.981  41.557  82.564  1.00  0.00    -0.031 C 
ATOM      2  C   UNL     1      -6.521  41.077  83.696  1.00  0.00    -0.031 C 
ENDROOT
BRANCH   1   3
ATOM      3  C   UNL     1      -5.652  43.015  82.405  1.00  0.00     0.027 C 
BRANCH   3   4
ATOM      4  C   UNL     1      -6.297  43.852  83.517  1.00  0.00     0.004 C 
BRANCH   4   5
ATOM      5  C   UNL     1      -5.470  45.110  83.807  1.00  0.00     0.000 C 
BRANCH   5   6
ATOM      6  C   UNL     1      -4.073  45.008  83.183  1.00  0.00     0.000 C 
BRANCH   6   7
ATOM      7  C   UNL     1      -3.611  46.366  82.643  1.00  0.00     0.000 C 
BRANCH   7   8
ATOM      8  C   UNL     1      -4.520  47.498  83.145  1.00  0.00     0.006 C 
BRANCH   8   9
ATOM      9  C   UNL     1      -3.733  48.597  83.871  1.00  0.00     0.053 C 
BRANCH   9  10
ATOM     10  C   UNL     1      -4.293  49.958  83.591  1.00  0.00     0.041 C 
ATOM     11  O   UNL     1      -5.155  50.115  82.686  1.00  0.00    -0.550 OA
ATOM     12  O   UNL     1      -3.840  51.057  84.309  1.00  0.00    -0.550 OA
ENDBRANCH   9  10
ENDBRANCH   8   9
ENDBRANCH   7   8
ENDBRANCH   6   7
ENDBRANCH   5   6
ENDBRANCH   4   5
ENDBRANCH   3   4
ENDBRANCH   1   3
BRANCH   2  13
ATOM     13  C   UNL     1      -6.833  39.616  83.858  1.00  0.00     0.027 C 
BRANCH  13  14
ATOM     14  C   UNL     1      -6.664  38.866  82.529  1.00  0.00     0.004 C 
BRANCH  14  15
ATOM     15  C   UNL     1      -8.008  38.483  81.885  1.00  0.00     0.000 C 
BRANCH  15  16
ATOM     16  C   UNL     1      -8.610  39.551  80.949  1.00  0.00     0.000 C 
BRANCH  16  17
ATOM     17  C   UNL     1      -9.780  40.359  81.539  1.00  0.00    -0.000 C 
BRANCH  17  18
ATOM     18  C   UNL     1      -9.580  41.879  81.411  1.00  0.00    -0.000 C 
BRANCH  18  19
ATOM     19  C   UNL     1      -9.715  42.606  82.758  1.00  0.00    -0.003 C 
ATOM     20  C   UNL     1     -10.225  41.696  83.875  1.00  0.00     0.004 C 
ENDBRANCH  18  19
ENDBRANCH  17  18
ENDBRANCH  16  17
ENDBRANCH  15  16
ENDBRANCH  14  15
ENDBRANCH  13  14
ENDBRANCH   2  13
TORSDOF 15
ENDMDL
MODEL 6
REMARK VINA RESULT:    -3.479      1.393      2.461
REMARK INTER + INTRA:          -8.747
REMARK INTER:                  -6.772
REMARK INTRA:                  -1.975
REMARK UNBOUND:                -2.217
REMARK SMILES CCCCCCCCC=CCCCCCCCC(=O)[O-]
REMARK SMILES IDX 10 1 9 2 11 3 12 4 13 5 14 6 15 7 16 8 17 9 18 10 19 11
REMARK SMILES IDX 20 12 8 13 7 14 6 15 5 16 4 17 3 18 2 19 1 20
REMARK H PARENT
REMARK Flexibility Score: inf
ROOT
ATOM      1  C   UNL     1      -6.053  42.472  83.624  1.00  0.00    -0.031 C 
ATOM      2  C   UNL     1      -5.874  42.471  82.293  1.00  0.00    -0.031 C 
ENDROOT
BRANCH   1   3
ATOM      3  C   UNL     1      -5.578  43.612  84.481  1.00  0.00     0.027 C 
BRANCH   3   4
ATOM      4  C   UNL     1      -6.053  44.959  83.923  1.00  0.00     0.004 C 
BRANCH   4   5
ATOM      5  C   UNL     1      -4.900  45.968  83.867  1.00  0.00     0.000 C 
BRANCH   5   6
ATOM      6  C   UNL     1      -3.840  45.538  82.846  1.00  0.00     0.000 C 
BRANCH   6   7
ATOM      7  C   UNL     1      -2.685  46.545  82.795  1.00  0.00     0.000 C 
BRANCH   7   8
ATOM      8  C   UNL     1      -1.363  45.887  83.220  1.00  0.00     0.006 C 
BRANCH   8   9
ATOM      9  C   UNL     1      -1.378  45.451  84.690  1.00  0.00     0.053 C 
BRANCH   9  10
ATOM     10  C   UNL     1      -1.236  43.966  84.831  1.00  0.00     0.041 C 
ATOM     11  O   UNL     1      -2.148  43.292  85.380  1.00  0.00    -0.550 OA
ATOM     12  O   UNL     1      -0.084  43.332  84.384  1.00  0.00    -0.550 OA
ENDBRANCH   9  10
ENDBRANCH   8   9
ENDBRANCH   7   8
ENDBRANCH   6   7
ENDBRANCH   5   6
ENDBRANCH   4   5
ENDBRANCH   3   4
ENDBRANCH   1   3
BRANCH   2  13
ATOM     13  C   UNL     1      -6.365  41.337  81.437  1.00  0.00     0.027 C 
BRANCH  13  14
ATOM     14  C   UNL     1      -6.461  40.036  82.246  1.00  0.00     0.004 C 
BRANCH  14  15
ATOM     15  C   UNL     1      -7.586  39.109  81.755  1.00  0.00     0.000 C 
BRANCH  15  16
ATOM     16  C   UNL     1      -8.740  38.894  82.757  1.00  0.00     0.000 C 
BRANCH  16  17
ATOM     17  C   UNL     1      -9.835  39.976  82.740  1.00  0.00    -0.000 C 
BRANCH  17  18
ATOM     18  C   UNL     1     -10.010  40.628  81.358  1.00  0.00    -0.000 C 
BRANCH  18  19
ATOM     19  C   UNL     1     -10.030  42.163  81.430  1.00  0.00    -0.003 C 
ATOM     20  C   UNL     1      -9.634  42.698  82.807  1.00  0.00     0.004 C 
ENDBRANCH  18  19
ENDBRANCH  17  18
ENDBRANCH  16  17
ENDBRANCH  15  16
ENDBRANCH  14  15
ENDBRANCH  13  14
ENDBRANCH   2  13
TORSDOF 15
ENDMDL
MODEL 7
REMARK VINA RESULT:    -3.461      1.690      2.616
REMARK INTER + INTRA:          -8.713
REMARK INTER:                  -6.323
REMARK INTRA:                  -2.391
REMARK UNBOUND:                -2.217
REMARK SMILES CCCCCCCCC=CCCCCCCCC(=O)[O-]
REMARK SMILES IDX 10 1 9 2 11 3 12 4 13 5 14 6 15 7 16 8 17 9 18 10 19 11
REMARK SMILES IDX 20 12 8 13 7 14 6 15 5 16 4 17 3 18 2 19 1 20
REMARK H PARENT
REMARK Flexibility Score: inf
ROOT
ATOM      1  C   UNL     1      -6.217  41.583  82.109  1.00  0.00    -0.031 C 
ATOM      2  C   UNL     1      -7.342  41.442  81.389  1.00  0.00    -0.031 C 
ENDROOT
BRANCH   1   3
ATOM      3  C   UNL     1      -5.694  42.939  82.495  1.00  0.00     0.027 C 
BRANCH   3   4
ATOM      4  C   UNL     1      -4.973  42.888  83.847  1.00  0.00     0.004 C 
BRANCH   4   5
ATOM      5  C   UNL     1      -5.481  43.993  84.782  1.00  0.00     0.000 C 
BRANCH   5   6
ATOM      6  C   UNL     1      -5.832  45.262  83.996  1.00  0.00     0.000 C 
BRANCH   6   7
ATOM      7  C   UNL     1      -4.763  46.344  84.192  1.00  0.00     0.000 C 
BRANCH   7   8
ATOM      8  C   UNL     1      -4.153  46.765  82.846  1.00  0.00     0.006 C 
BRANCH   8   9
ATOM      9  C   UNL     1      -2.960  45.887  82.449  1.00  0.00     0.053 C 
BRANCH   9  10
ATOM     10  C   UNL     1      -1.697  46.329  83.122  1.00  0.00     0.041 C 
ATOM     11  O   UNL     1      -1.495  47.551  83.352  1.00  0.00    -0.550 OA
ATOM     12  O   UNL     1      -0.729  45.394  83.468  1.00  0.00    -0.550 OA
ENDBRANCH   9  10
ENDBRANCH   8   9
ENDBRANCH   7   8
ENDBRANCH   6   7
ENDBRANCH   5   6
ENDBRANCH   4   5
ENDBRANCH   3   4
ENDBRANCH   1   3
BRANCH   2  13
ATOM     13  C   UNL     1      -7.872  40.084  81.020  1.00  0.00     0.027 C 
BRANCH  13  14
ATOM     14  C   UNL     1      -9.346  39.940  81.425  1.00  0.00     0.004 C 
BRANCH  14  15
ATOM     15  C   UNL     1      -9.522  39.383  82.848  1.00  0.00     0.000 C 
BRANCH  15  16
ATOM     16  C   UNL     1     -10.760  39.907  83.605  1.00  0.00     0.000 C 
BRANCH  16  17
ATOM     17  C   UNL     1     -10.456  40.806  84.818  1.00  0.00    -0.000 C 
BRANCH  17  18
ATOM     18  C   UNL     1      -8.998  41.296  84.849  1.00  0.00    -0.000 C 
BRANCH  18  19
ATOM     19  C   UNL     1      -8.893  42.819  85.024  1.00  0.00    -0.003 C 
ATOM     20  C   UNL     1      -9.204  43.587  83.739  1.00  0.00     0.004 C 
ENDBRANCH  18  19
ENDBRANCH  17  18
ENDBRANCH  16  17
ENDBRANCH  15  16
ENDBRANCH  14  15
ENDBRANCH  13  14
ENDBRANCH   2  13
TORSDOF 15
ENDMDL
MODEL 8
REMARK VINA RESULT:    -3.406      2.011      2.551
REMARK INTER + INTRA:          -8.610
REMARK INTER:                  -6.698
REMARK INTRA:                  -1.911
REMARK UNBOUND:                -2.217
REMARK SMILES CCCCCCCCC=CCCCCCCCC(=O)[O-]
REMARK SMILES IDX 10 1 9 2 11 3 12 4 13 5 14 6 15 7 16 8 17 9 18 10 19 11
REMARK SMILES IDX 20 12 8 13 7 14 6 15 5 16 4 17 3 18 2 19 1 20
REMARK H PARENT
REMARK Flexibility Score: inf
ROOT
ATOM      1  C   UNL     1      -8.058  42.595  83.146  1.00  0.00    -0.031 C 
ATOM      2  C   UNL     1      -8.277  42.120  81.909  1.00  0.00    -0.031 C 
ENDROOT
BRANCH   1   3
ATOM      3  C   UNL     1      -6.666  42.842  83.660  1.00  0.00     0.027 C 
BRANCH   3   4
ATOM      4  C   UNL     1      -5.642  42.808  82.519  1.00  0.00     0.004 C 
BRANCH   4   5
ATOM      5  C   UNL     1      -4.784  44.079  82.514  1.00  0.00     0.000 C 
BRANCH   5   6
ATOM      6  C   UNL     1      -4.459  44.531  83.942  1.00  0.00     0.000 C 
BRANCH   6   7
ATOM      7  C   UNL     1      -3.054  45.140  84.022  1.00  0.00     0.000 C 
BRANCH   7   8
ATOM      8  C   UNL     1      -2.706  45.891  82.728  1.00  0.00     0.006 C 
BRANCH   8   9
ATOM      9  C   UNL     1      -2.548  47.399  82.956  1.00  0.00     0.053 C 
BRANCH   9  10
ATOM     10  C   UNL     1      -3.868  48.066  83.197  1.00  0.00     0.041 C 
ATOM     11  O   UNL     1      -4.757  48.052  82.305  1.00  0.00    -0.550 OA
ATOM     12  O   UNL     1      -4.104  48.729  84.395  1.00  0.00    -0.550 OA
ENDBRANCH   9  10
ENDBRANCH   8   9
ENDBRANCH   7   8
ENDBRANCH   6   7
ENDBRANCH   5   6
ENDBRANCH   4   5
ENDBRANCH   3   4
ENDBRANCH   1   3
BRANCH   2  13
ATOM     13  C   UNL     1      -9.670  41.891  81.392  1.00  0.00     0.027 C 
BRANCH  13  14
ATOM     14  C   UNL     1     -10.591  41.371  82.505  1.00  0.00     0.004 C 
BRANCH  14  15
ATOM     15  C   UNL     1     -10.666  39.835  82.549  1.00  0.00     0.000 C 
BRANCH  15  16
ATOM     16  C   UNL     1      -9.533  39.149  83.340  1.00  0.00     0.000 C 
BRANCH  16  17
ATOM     17  C   UNL     1      -8.497  38.395  82.486  1.00  0.00    -0.000 C 
BRANCH  17  18
ATOM     18  C   UNL     1      -7.178  38.137  83.235  1.00  0.00    -0.000 C 
BRANCH  18  19
ATOM     19  C   UNL     1      -6.103  39.186  82.911  1.00  0.00    -0.003 C 
ATOM     20  C   UNL     1      -5.142  39.430  84.074  1.00  0.00     0.004 C 
ENDBRANCH  18  19
ENDBRANCH  17  18
ENDBRANCH  16  17
ENDBRANCH  15  16
ENDBRANCH  14  15
ENDBRANCH  13  14
ENDBRANCH   2  13
TORSDOF 15
ENDMDL
MODEL 9
REMARK VINA RESULT:    -3.353      2.132      4.152
REMARK INTER + INTRA:          -8.509
REMARK INTER:                  -5.796
REMARK INTRA:                  -2.714
REMARK UNBOUND:                -2.217
REMARK SMILES CCCCCCCCC=CCCCCCCCC(=O)[O-]
REMARK SMILES IDX 10 1 9 2 11 3 12 4 13 5 14 6 15 7 16 8 17 9 18 10 19 11
REMARK SMILES IDX 20 12 8 13 7 14 6 15 5 16 4 17 3 18 2 19 1 20
REMARK H PARENT
REMARK Flexibility Score: inf
ROOT
ATOM      1  C   UNL     1      -9.083  39.318  82.413  1.00  0.00    -0.031 C 
ATOM      2  C   UNL     1     -10.046  40.249  82.318  1.00  0.00    -0.031 C 
ENDROOT
BRANCH   1   3
ATOM      3  C   UNL     1      -7.942  39.264  81.435  1.00  0.00     0.027 C 
BRANCH   3   4
ATOM      4  C   UNL     1      -6.698  39.960  81.999  1.00  0.00     0.004 C 
BRANCH   4   5
ATOM      5  C   UNL     1      -6.464  41.310  81.311  1.00  0.00     0.000 C 
BRANCH   5   6
ATOM      6  C   UNL     1      -6.618  42.468  82.304  1.00  0.00     0.000 C 
BRANCH   6   7
ATOM      7  C   UNL     1      -5.300  43.235  82.465  1.00  0.00     0.000 C 
BRANCH   7   8
ATOM      8  C   UNL     1      -5.166  43.808  83.884  1.00  0.00     0.006 C 
BRANCH   8   9
ATOM      9  C   UNL     1      -5.218  45.341  83.898  1.00  0.00     0.053 C 
BRANCH   9  10
ATOM     10  C   UNL     1      -3.987  45.945  83.294  1.00  0.00     0.041 C 
ATOM     11  O   UNL     1      -4.083  46.916  82.497  1.00  0.00    -0.550 OA
ATOM     12  O   UNL     1      -2.737  45.415  83.586  1.00  0.00    -0.550 OA
ENDBRANCH   9  10
ENDBRANCH   8   9
ENDBRANCH   7   8
ENDBRANCH   6   7
ENDBRANCH   5   6
ENDBRANCH   4   5
ENDBRANCH   3   4
ENDBRANCH   1   3
BRANCH   2  13
ATOM     13  C   UNL     1     -11.176  40.312  83.307  1.00  0.00     0.027 C 
BRANCH  13  14
ATOM     14  C   UNL     1     -11.542  41.767  83.634  1.00  0.00     0.004 C 
BRANCH  14  15
ATOM     15  C   UNL     1     -10.736  42.784  82.808  1.00  0.00     0.000 C 
BRANCH  15  16
ATOM     16  C   UNL     1      -9.752  43.651  83.621  1.00  0.00     0.000 C 
BRANCH  16  17
ATOM     17  C   UNL     1      -9.677  43.327  85.124  1.00  0.00    -0.000 C 
BRANCH  17  18
ATOM     18  C   UNL     1      -8.332  42.706  85.535  1.00  0.00    -0.000 C 
BRANCH  18  19
ATOM     19  C   UNL     1      -8.430  41.189  85.764  1.00  0.00    -0.003 C 
ATOM     20  C   UNL     1      -7.100  40.468  85.542  1.00  0.00     0.004 C 
ENDBRANCH  18  19
ENDBRANCH  17  18
ENDBRANCH  16  17
ENDBRANCH  15  16
ENDBRANCH  14  15
ENDBRANCH  13  14
ENDBRANCH   2  13
TORSDOF 15
ENDMDL
