MODEL 1
REMARK VINA RESULT:    -3.703      0.000      0.000
REMARK INTER + INTRA:          -8.342
REMARK INTER:                  -6.735
REMARK INTRA:                  -1.608
REMARK UNBOUND:                -1.608
REMARK SMILES CCCCCCCCCCCCCCCC(=O)[O-]
REMARK SMILES IDX 9 1 10 2 11 3 12 4 13 5 14 6 15 7 16 8 17 9 18 10 8 11 7 12
REMARK SMILES IDX 6 13 5 14 4 15 3 16 2 17 1 18
REMARK H PARENT
REMARK Flexibility Score: inf
ROOT
ATOM      1  C   UNL     1     156.156 153.703 164.112  1.00  0.00     0.000 C 
ENDROOT
BRANCH   1   2
ATOM      2  C   UNL     1     157.329 153.018 163.396  1.00  0.00     0.000 C 
BRANCH   2   3
ATOM      3  C   UNL     1     158.593 153.885 163.458  1.00  0.00     0.000 C 
BRANCH   3   4
ATOM      4  C   UNL     1     159.761 153.112 164.088  1.00  0.00     0.000 C 
BRANCH   4   5
ATOM      5  C   UNL     1     159.516 152.773 165.567  1.00  0.00     0.000 C 
BRANCH   5   6
ATOM      6  C   UNL     1     160.762 152.187 166.255  1.00  0.00     0.006 C 
BRANCH   6   7
ATOM      7  C   UNL     1     161.987 153.097 166.110  1.00  0.00     0.053 C 
BRANCH   7   8
ATOM      8  C   UNL     1     162.608 153.405 167.439  1.00  0.00     0.041 C 
ATOM      9  O   UNL     1     162.873 152.476 168.246  1.00  0.00    -0.550 OA
ATOM     10  O   UNL     1     162.927 154.716 167.769  1.00  0.00    -0.550 OA
ENDBRANCH   7   8
ENDBRANCH   6   7
ENDBRANCH   5   6
ENDBRANCH   4   5
ENDBRANCH   3   4
ENDBRANCH   2   3
ENDBRANCH   1   2
BRANCH   1  11
ATOM     11  C   UNL     1     156.591 154.944 164.907  1.00  0.00     0.000 C 
BRANCH  11  12
ATOM     12  C   UNL     1     156.259 154.832 166.406  1.00  0.00    -0.000 C 
BRANCH  12  13
ATOM     13  C   UNL     1     154.782 154.490 166.662  1.00  0.00    -0.000 C 
BRANCH  13  14
ATOM     14  C   UNL     1     153.964 155.712 167.114  1.00  0.00    -0.000 C 
BRANCH  14  15
ATOM     15  C   UNL     1     153.182 156.358 165.959  1.00  0.00    -0.000 C 
BRANCH  15  16
ATOM     16  C   UNL     1     153.953 157.506 165.290  1.00  0.00    -0.000 C 
BRANCH  16  17
ATOM     17  C   UNL     1     153.901 157.383 163.762  1.00  0.00    -0.003 C 
ATOM     18  C   UNL     1     153.363 156.018 163.336  1.00  0.00     0.004 C 
ENDBRANCH  16  17
ENDBRANCH  15  16
ENDBRANCH  14  15
ENDBRANCH  13  14
ENDBRANCH  12  13
ENDBRANCH  11  12
ENDBRANCH   1  11
TORSDOF 14
ENDMDL
MODEL 2
REMARK VINA RESULT:    -3.670      1.061      2.040
REMARK INTER + INTRA:          -8.281
REMARK INTER:                  -6.640
REMARK INTRA:                  -1.641
REMARK UNBOUND:                -1.608
REMARK SMILES CCCCCCCCCCCCCCCC(=O)[O-]
REMARK SMILES IDX 9 1 10 2 11 3 12 4 13 5 14 6 15 7 16 8 17 9 18 10 8 11 7 12
REMARK SMILES IDX 6 13 5 14 4 15 3 16 2 17 1 18
REMARK H PARENT
REMARK Flexibility Score: inf
ROOT
ATOM      1  C   UNL     1     158.505 154.143 163.317  1.00  0.00     0.000 C 
ENDROOT
BRANCH   1   2
ATOM      2  C   UNL     1     159.460 153.467 162.322  1.00  0.00     0.000 C 
BRANCH   2   3
ATOM      3  C   UNL     1     160.543 152.666 163.055  1.00  0.00     0.000 C 
BRANCH   3   4
ATOM      4  C   UNL     1     159.925 151.766 164.135  1.00  0.00     0.000 C 
BRANCH   4   5
ATOM      5  C   UNL     1     160.756 151.735 165.426  1.00  0.00     0.000 C 
BRANCH   5   6
ATOM      6  C   UNL     1     160.290 152.777 166.458  1.00  0.00     0.006 C 
BRANCH   6   7
ATOM      7  C   UNL     1     161.275 152.919 167.625  1.00  0.00     0.053 C 
BRANCH   7   8
ATOM      8  C   UNL     1     162.657 153.247 167.147  1.00  0.00     0.041 C 
ATOM      9  O   UNL     1     162.899 154.368 166.627  1.00  0.00    -0.550 OA
ATOM     10  O   UNL     1     163.684 152.325 167.308  1.00  0.00    -0.550 OA
ENDBRANCH   7   8
ENDBRANCH   6   7
ENDBRANCH   5   6
ENDBRANCH   4   5
ENDBRANCH   3   4
ENDBRANCH   2   3
ENDBRANCH   1   2
BRANCH   1  11
ATOM     11  C   UNL     1     157.031 153.802 163.047  1.00  0.00     0.000 C 
BRANCH  11  12
ATOM     12  C   UNL     1     156.256 153.469 164.335  1.00  0.00    -0.000 C 
BRANCH  12  13
ATOM     13  C   UNL     1     157.053 153.800 165.608  1.00  0.00    -0.000 C 
BRANCH  13  14
ATOM     14  C   UNL     1     156.244 154.646 166.605  1.00  0.00    -0.000 C 
BRANCH  14  15
ATOM     15  C   UNL     1     155.935 156.054 166.071  1.00  0.00    -0.000 C 
BRANCH  15  16
ATOM     16  C   UNL     1     154.429 156.351 166.017  1.00  0.00    -0.000 C 
BRANCH  16  17
ATOM     17  C   UNL     1     154.091 157.251 164.822  1.00  0.00    -0.003 C 
ATOM     18  C   UNL     1     154.259 156.502 163.502  1.00  0.00     0.004 C 
ENDBRANCH  16  17
ENDBRANCH  15  16
ENDBRANCH  14  15
ENDBRANCH  13  14
ENDBRANCH  12  13
ENDBRANCH  11  12
ENDBRANCH   1  11
TORSDOF 14
ENDMDL
MODEL 3
REMARK VINA RESULT:    -3.668     12.913     16.291
REMARK INTER + INTRA:          -8.278
REMARK INTER:                  -6.002
REMARK INTRA:                  -2.276
REMARK UNBOUND:                -1.608
REMARK SMILES CCCCCCCCCCCCCCCC(=O)[O-]
REMARK SMILES IDX 9 1 10 2 11 3 12 4 13 5 14 6 15 7 16 8 17 9 18 10 8 11 7 12
REMARK SMILES IDX 6 13 5 14 4 15 3 16 2 17 1 18
REMARK H PARENT
REMARK Flexibility Score: inf
ROOT
ATOM      1  C   UNL     1     167.280 153.155 180.556  1.00  0.00     0.000 C 
ENDROOT
BRANCH   1   2
ATOM      2  C   UNL     1     166.288 154.315 180.392  1.00  0.00     0.000 C 
BRANCH   2   3
ATOM      3  C   UNL     1     166.967 155.535 179.758  1.00  0.00     0.000 C 
BRANCH   3   4
ATOM      4  C   UNL     1     165.996 156.290 178.839  1.00  0.00     0.000 C 
BRANCH   4   5
ATOM      5  C   UNL     1     164.526 156.088 179.238  1.00  0.00     0.000 C 
BRANCH   5   6
ATOM      6  C   UNL     1     163.640 155.677 178.049  1.00  0.00     0.006 C 
BRANCH   6   7
ATOM      7  C   UNL     1     162.772 156.837 177.545  1.00  0.00     0.053 C 
BRANCH   7   8
ATOM      8  C   UNL     1     163.189 157.287 176.177  1.00  0.00     0.041 C 
ATOM      9  O   UNL     1     162.523 158.164 175.567  1.00  0.00    -0.550 OA
ATOM     10  O   UNL     1     164.334 156.761 175.593  1.00  0.00    -0.550 OA
ENDBRANCH   7   8
ENDBRANCH   6   7
ENDBRANCH   5   6
ENDBRANCH   4   5
ENDBRANCH   3   4
ENDBRANCH   2   3
ENDBRANCH   1   2
BRANCH   1  11
ATOM     11  C   UNL     1     168.601 153.396 179.808  1.00  0.00     0.000 C 
BRANCH  11  12
ATOM     12  C   UNL     1     169.005 152.203 178.923  1.00  0.00    -0.000 C 
BRANCH  12  13
ATOM     13  C   UNL     1     167.828 151.259 178.627  1.00  0.00    -0.000 C 
BRANCH  13  14
ATOM     14  C   UNL     1     167.266 151.444 177.208  1.00  0.00    -0.000 C 
BRANCH  14  15
ATOM     15  C   UNL     1     166.041 152.372 177.174  1.00  0.00    -0.000 C 
BRANCH  15  16
ATOM     16  C   UNL     1     166.327 153.707 176.471  1.00  0.00    -0.000 C 
BRANCH  16  17
ATOM     17  C   UNL     1     167.758 153.740 175.921  1.00  0.00    -0.003 C 
ATOM     18  C   UNL     1     168.134 155.142 175.444  1.00  0.00     0.004 C 
ENDBRANCH  16  17
ENDBRANCH  15  16
ENDBRANCH  14  15
ENDBRANCH  13  14
ENDBRANCH  12  13
ENDBRANCH  11  12
ENDBRANCH   1  11
TORSDOF 14
ENDMDL
MODEL 4
REMARK VINA RESULT:    -3.640     12.867     16.468
REMARK INTER + INTRA:          -8.227
REMARK INTER:                  -5.734
REMARK INTRA:                  -2.493
REMARK UNBOUND:                -1.608
REMARK SMILES CCCCCCCCCCCCCCCC(=O)[O-]
REMARK SMILES IDX 9 1 10 2 11 3 12 4 13 5 14 6 15 7 16 8 17 9 18 10 8 11 7 12
REMARK SMILES IDX 6 13 5 14 4 15 3 16 2 17 1 18
REMARK H PARENT
REMARK Flexibility Score: inf
ROOT
ATOM      1  C   UNL     1     167.309 151.594 177.187  1.00  0.00     0.000 C 
ENDROOT
BRANCH   1   2
ATOM      2  C   UNL     1     166.175 152.629 177.192  1.00  0.00     0.000 C 
BRANCH   2   3
ATOM      3  C   UNL     1     166.548 153.858 176.353  1.00  0.00     0.000 C 
BRANCH   3   4
ATOM      4  C   UNL     1     165.531 154.991 176.555  1.00  0.00     0.000 C 
BRANCH   4   5
ATOM      5  C   UNL     1     164.353 154.575 177.448  1.00  0.00     0.000 C 
BRANCH   5   6
ATOM      6  C   UNL     1     163.542 155.779 177.959  1.00  0.00     0.006 C 
BRANCH   6   7
ATOM      7  C   UNL     1     163.716 157.016 177.069  1.00  0.00     0.053 C 
BRANCH   7   8
ATOM      8  C   UNL     1     162.417 157.446 176.458  1.00  0.00     0.041 C 
ATOM      9  O   UNL     1     162.409 158.125 175.398  1.00  0.00    -0.550 OA
ATOM     10  O   UNL     1     161.216 157.066 177.043  1.00  0.00    -0.550 OA
ENDBRANCH   7   8
ENDBRANCH   6   7
ENDBRANCH   5   6
ENDBRANCH   4   5
ENDBRANCH   3   4
ENDBRANCH   2   3
ENDBRANCH   1   2
BRANCH   1  11
ATOM     11  C   UNL     1     167.590 151.018 178.584  1.00  0.00     0.000 C 
BRANCH  11  12
ATOM     12  C   UNL     1     168.767 151.719 179.286  1.00  0.00    -0.000 C 
BRANCH  12  13
ATOM     13  C   UNL     1     169.702 152.440 178.301  1.00  0.00    -0.000 C 
BRANCH  13  14
ATOM     14  C   UNL     1     169.922 153.916 178.670  1.00  0.00    -0.000 C 
BRANCH  14  15
ATOM     15  C   UNL     1     168.956 154.403 179.762  1.00  0.00    -0.000 C 
BRANCH  15  16
ATOM     16  C   UNL     1     168.001 155.498 179.264  1.00  0.00    -0.000 C 
BRANCH  16  17
ATOM     17  C   UNL     1     166.735 155.554 180.128  1.00  0.00    -0.003 C 
ATOM     18  C   UNL     1     166.294 154.155 180.552  1.00  0.00     0.004 C 
ENDBRANCH  16  17
ENDBRANCH  15  16
ENDBRANCH  14  15
ENDBRANCH  13  14
ENDBRANCH  12  13
ENDBRANCH  11  12
ENDBRANCH   1  11
TORSDOF 14
ENDMDL
MODEL 5
REMARK VINA RESULT:    -3.593     12.980     15.652
REMARK INTER + INTRA:          -8.142
REMARK INTER:                  -5.784
REMARK INTRA:                  -2.358
REMARK UNBOUND:                -1.608
REMARK SMILES CCCCCCCCCCCCCCCC(=O)[O-]
REMARK SMILES IDX 9 1 10 2 11 3 12 4 13 5 14 6 15 7 16 8 17 9 18 10 8 11 7 12
REMARK SMILES IDX 6 13 5 14 4 15 3 16 2 17 1 18
REMARK H PARENT
REMARK Flexibility Score: inf
ROOT
ATOM      1  C   UNL     1     168.678 153.483 179.670  1.00  0.00     0.000 C 
ENDROOT
BRANCH   1   2
ATOM      2  C   UNL     1     169.061 152.156 178.998  1.00  0.00     0.000 C 
BRANCH   2   3
ATOM      3  C   UNL     1     167.822 151.288 178.748  1.00  0.00     0.000 C 
BRANCH   3   4
ATOM      4  C   UNL     1     167.331 151.435 177.299  1.00  0.00     0.000 C 
BRANCH   4   5
ATOM      5  C   UNL     1     166.113 152.362 177.179  1.00  0.00     0.000 C 
BRANCH   5   6
ATOM      6  C   UNL     1     166.409 153.627 176.354  1.00  0.00     0.006 C 
BRANCH   6   7
ATOM      7  C   UNL     1     167.870 153.690 175.894  1.00  0.00     0.053 C 
BRANCH   7   8
ATOM      8  C   UNL     1     168.402 155.091 175.931  1.00  0.00     0.041 C 
ATOM      9  O   UNL     1     169.499 155.339 176.497  1.00  0.00    -0.550 OA
ATOM     10  O   UNL     1     167.700 156.116 175.308  1.00  0.00    -0.550 OA
ENDBRANCH   7   8
ENDBRANCH   6   7
ENDBRANCH   5   6
ENDBRANCH   4   5
ENDBRANCH   3   4
ENDBRANCH   2   3
ENDBRANCH   1   2
BRANCH   1  11
ATOM     11  C   UNL     1     167.417 153.362 180.541  1.00  0.00     0.000 C 
BRANCH  11  12
ATOM     12  C   UNL     1     166.370 154.442 180.218  1.00  0.00    -0.000 C 
BRANCH  12  13
ATOM     13  C   UNL     1     166.947 155.596 179.381  1.00  0.00    -0.000 C 
BRANCH  13  14
ATOM     14  C   UNL     1     165.859 156.374 178.621  1.00  0.00    -0.000 C 
BRANCH  14  15
ATOM     15  C   UNL     1     164.439 155.932 179.006  1.00  0.00    -0.000 C 
BRANCH  15  16
ATOM     16  C   UNL     1     163.596 155.518 177.790  1.00  0.00    -0.000 C 
BRANCH  16  17
ATOM     17  C   UNL     1     163.399 156.699 176.833  1.00  0.00    -0.003 C 
ATOM     18  C   UNL     1     161.960 157.208 176.871  1.00  0.00     0.004 C 
ENDBRANCH  16  17
ENDBRANCH  15  16
ENDBRANCH  14  15
ENDBRANCH  13  14
ENDBRANCH  12  13
ENDBRANCH  11  12
ENDBRANCH   1  11
TORSDOF 14
ENDMDL
MODEL 6
REMARK VINA RESULT:    -3.590     13.578     16.395
REMARK INTER + INTRA:          -8.137
REMARK INTER:                  -5.430
REMARK INTRA:                  -2.707
REMARK UNBOUND:                -1.608
REMARK SMILES CCCCCCCCCCCCCCCC(=O)[O-]
REMARK SMILES IDX 9 1 10 2 11 3 12 4 13 5 14 6 15 7 16 8 17 9 18 10 8 11 7 12
REMARK SMILES IDX 6 13 5 14 4 15 3 16 2 17 1 18
REMARK H PARENT
REMARK Flexibility Score: inf
ROOT
ATOM      1  C   UNL     1     169.303 152.445 178.878  1.00  0.00     0.000 C 
ENDROOT
BRANCH   1   2
ATOM      2  C   UNL     1     168.979 153.898 179.252  1.00  0.00     0.000 C 
BRANCH   2   3
ATOM      3  C   UNL     1     167.821 153.962 180.257  1.00  0.00     0.000 C 
BRANCH   3   4
ATOM      4  C   UNL     1     167.096 155.314 180.175  1.00  0.00     0.000 C 
BRANCH   4   5
ATOM      5  C   UNL     1     165.590 155.162 179.913  1.00  0.00     0.000 C 
BRANCH   5   6
ATOM      6  C   UNL     1     165.028 156.278 179.015  1.00  0.00     0.006 C 
BRANCH   6   7
ATOM      7  C   UNL     1     163.840 155.801 178.171  1.00  0.00     0.053 C 
BRANCH   7   8
ATOM      8  C   UNL     1     163.592 156.706 177.003  1.00  0.00     0.041 C 
ATOM      9  O   UNL     1     162.911 157.755 177.146  1.00  0.00    -0.550 OA
ATOM     10  O   UNL     1     164.144 156.406 175.763  1.00  0.00    -0.550 OA
ENDBRANCH   7   8
ENDBRANCH   6   7
ENDBRANCH   5   6
ENDBRANCH   4   5
ENDBRANCH   3   4
ENDBRANCH   2   3
ENDBRANCH   1   2
BRANCH   1  11
ATOM     11  C   UNL     1     168.045 151.574 178.740  1.00  0.00     0.000 C 
BRANCH  11  12
ATOM     12  C   UNL     1     167.452 151.612 177.320  1.00  0.00    -0.000 C 
BRANCH  12  13
ATOM     13  C   UNL     1     166.167 152.452 177.236  1.00  0.00    -0.000 C 
BRANCH  13  14
ATOM     14  C   UNL     1     166.382 153.788 176.504  1.00  0.00    -0.000 C 
BRANCH  14  15
ATOM     15  C   UNL     1     167.742 153.858 175.791  1.00  0.00    -0.000 C 
BRANCH  15  16
ATOM     16  C   UNL     1     168.171 155.297 175.470  1.00  0.00    -0.000 C 
BRANCH  16  17
ATOM     17  C   UNL     1     167.654 156.272 176.534  1.00  0.00    -0.003 C 
ATOM     18  C   UNL     1     168.808 156.980 177.242  1.00  0.00     0.004 C 
ENDBRANCH  16  17
ENDBRANCH  15  16
ENDBRANCH  14  15
ENDBRANCH  13  14
ENDBRANCH  12  13
ENDBRANCH  11  12
ENDBRANCH   1  11
TORSDOF 14
ENDMDL
MODEL 7
REMARK VINA RESULT:    -3.554     14.307     16.978
REMARK INTER + INTRA:          -8.071
REMARK INTER:                  -5.465
REMARK INTRA:                  -2.606
REMARK UNBOUND:                -1.608
REMARK SMILES CCCCCCCCCCCCCCCC(=O)[O-]
REMARK SMILES IDX 9 1 10 2 11 3 12 4 13 5 14 6 15 7 16 8 17 9 18 10 8 11 7 12
REMARK SMILES IDX 6 13 5 14 4 15 3 16 2 17 1 18
REMARK H PARENT
REMARK Flexibility Score: inf
ROOT
ATOM      1  C   UNL     1     167.855 153.713 176.149  1.00  0.00     0.000 C 
ENDROOT
BRANCH   1   2
ATOM      2  C   UNL     1     168.505 155.047 176.544  1.00  0.00     0.000 C 
BRANCH   2   3
ATOM      3  C   UNL     1     167.598 155.841 177.493  1.00  0.00     0.000 C 
BRANCH   3   4
ATOM      4  C   UNL     1     168.146 155.816 178.928  1.00  0.00     0.000 C 
BRANCH   4   5
ATOM      5  C   UNL     1     167.038 155.932 179.985  1.00  0.00     0.000 C 
BRANCH   5   6
ATOM      6  C   UNL     1     165.678 155.417 179.480  1.00  0.00     0.006 C 
BRANCH   6   7
ATOM      7  C   UNL     1     164.617 156.524 179.443  1.00  0.00     0.053 C 
BRANCH   7   8
ATOM      8  C   UNL     1     163.817 156.482 178.176  1.00  0.00     0.041 C 
ATOM      9  O   UNL     1     163.468 157.550 177.610  1.00  0.00    -0.550 OA
ATOM     10  O   UNL     1     163.488 155.259 177.603  1.00  0.00    -0.550 OA
ENDBRANCH   7   8
ENDBRANCH   6   7
ENDBRANCH   5   6
ENDBRANCH   4   5
ENDBRANCH   3   4
ENDBRANCH   2   3
ENDBRANCH   1   2
BRANCH   1  11
ATOM     11  C   UNL     1     166.351 153.673 176.461  1.00  0.00     0.000 C 
BRANCH  11  12
ATOM     12  C   UNL     1     165.953 152.439 177.291  1.00  0.00    -0.000 C 
BRANCH  12  13
ATOM     13  C   UNL     1     166.993 151.309 177.210  1.00  0.00    -0.000 C 
BRANCH  13  14
ATOM     14  C   UNL     1     167.554 150.925 178.590  1.00  0.00    -0.000 C 
BRANCH  14  15
ATOM     15  C   UNL     1     167.671 152.130 179.536  1.00  0.00    -0.000 C 
BRANCH  15  16
ATOM     16  C   UNL     1     169.125 152.440 179.925  1.00  0.00    -0.000 C 
BRANCH  16  17
ATOM     17  C   UNL     1     170.050 152.340 178.706  1.00  0.00    -0.003 C 
ATOM     18  C   UNL     1     171.095 153.453 178.714  1.00  0.00     0.004 C 
ENDBRANCH  16  17
ENDBRANCH  15  16
ENDBRANCH  14  15
ENDBRANCH  13  14
ENDBRANCH  12  13
ENDBRANCH  11  12
ENDBRANCH   1  11
TORSDOF 14
ENDMDL
MODEL 8
REMARK VINA RESULT:    -3.548     13.382     16.258
REMARK INTER + INTRA:          -8.059
REMARK INTER:                  -5.500
REMARK INTRA:                  -2.559
REMARK UNBOUND:                -1.608
REMARK SMILES CCCCCCCCCCCCCCCC(=O)[O-]
REMARK SMILES IDX 9 1 10 2 11 3 12 4 13 5 14 6 15 7 16 8 17 9 18 10 8 11 7 12
REMARK SMILES IDX 6 13 5 14 4 15 3 16 2 17 1 18
REMARK H PARENT
REMARK Flexibility Score: inf
ROOT
ATOM      1  C   UNL     1     166.352 153.553 176.890  1.00  0.00     0.000 C 
ENDROOT
BRANCH   1   2
ATOM      2  C   UNL     1     167.551 153.656 175.937  1.00  0.00     0.000 C 
BRANCH   2   3
ATOM      3  C   UNL     1     168.249 155.015 176.077  1.00  0.00     0.000 C 
BRANCH   3   4
ATOM      4  C   UNL     1     167.339 156.154 175.593  1.00  0.00     0.000 C 
BRANCH   4   5
ATOM      5  C   UNL     1     167.142 157.245 176.656  1.00  0.00     0.000 C 
BRANCH   5   6
ATOM      6  C   UNL     1     165.697 157.305 177.184  1.00  0.00     0.006 C 
BRANCH   6   7
ATOM      7  C   UNL     1     164.682 156.795 176.154  1.00  0.00     0.053 C 
BRANCH   7   8
ATOM      8  C   UNL     1     163.405 156.358 176.804  1.00  0.00     0.041 C 
ATOM      9  O   UNL     1     162.362 157.052 176.684  1.00  0.00    -0.550 OA
ATOM     10  O   UNL     1     163.361 155.165 177.515  1.00  0.00    -0.550 OA
ENDBRANCH   7   8
ENDBRANCH   6   7
ENDBRANCH   5   6
ENDBRANCH   4   5
ENDBRANCH   3   4
ENDBRANCH   2   3
ENDBRANCH   1   2
BRANCH   1  11
ATOM     11  C   UNL     1     165.999 152.099 177.242  1.00  0.00     0.000 C 
BRANCH  11  12
ATOM     12  C   UNL     1     167.246 151.240 177.522  1.00  0.00    -0.000 C 
BRANCH  12  13
ATOM     13  C   UNL     1     167.804 151.450 178.939  1.00  0.00    -0.000 C 
BRANCH  13  14
ATOM     14  C   UNL     1     169.213 152.068 178.932  1.00  0.00    -0.000 C 
BRANCH  14  15
ATOM     15  C   UNL     1     169.222 153.522 179.430  1.00  0.00    -0.000 C 
BRANCH  15  16
ATOM     16  C   UNL     1     168.041 153.839 180.360  1.00  0.00    -0.000 C 
BRANCH  16  17
ATOM     17  C   UNL     1     167.368 155.157 179.959  1.00  0.00    -0.003 C 
ATOM     18  C   UNL     1     165.864 155.110 180.219  1.00  0.00     0.004 C 
ENDBRANCH  16  17
ENDBRANCH  15  16
ENDBRANCH  14  15
ENDBRANCH  13  14
ENDBRANCH  12  13
ENDBRANCH  11  12
ENDBRANCH   1  11
TORSDOF 14
ENDMDL
MODEL 9
REMARK VINA RESULT:    -3.541     13.752     16.441
REMARK INTER + INTRA:          -8.047
REMARK INTER:                  -5.614
REMARK INTRA:                  -2.434
REMARK UNBOUND:                -1.608
REMARK SMILES CCCCCCCCCCCCCCCC(=O)[O-]
REMARK SMILES IDX 9 1 10 2 11 3 12 4 13 5 14 6 15 7 16 8 17 9 18 10 8 11 7 12
REMARK SMILES IDX 6 13 5 14 4 15 3 16 2 17 1 18
REMARK H PARENT
REMARK Flexibility Score: inf
ROOT
ATOM      1  C   UNL     1     167.900 151.900 176.942  1.00  0.00     0.000 C 
ENDROOT
BRANCH   1   2
ATOM      2  C   UNL     1     166.395 151.739 177.199  1.00  0.00     0.000 C 
BRANCH   2   3
ATOM      3  C   UNL     1     165.679 153.094 177.140  1.00  0.00     0.000 C 
BRANCH   3   4
ATOM      4  C   UNL     1     166.448 154.084 176.252  1.00  0.00     0.000 C 
BRANCH   4   5
ATOM      5  C   UNL     1     165.644 155.360 175.957  1.00  0.00     0.000 C 
BRANCH   5   6
ATOM      6  C   UNL     1     164.529 155.610 176.987  1.00  0.00     0.006 C 
BRANCH   6   7
ATOM      7  C   UNL     1     164.012 157.053 176.943  1.00  0.00     0.053 C 
BRANCH   7   8
ATOM      8  C   UNL     1     162.936 157.287 177.960  1.00  0.00     0.041 C 
ATOM      9  O   UNL     1     162.145 158.258 177.834  1.00  0.00    -0.550 OA
ATOM     10  O   UNL     1     162.786 156.410 179.027  1.00  0.00    -0.550 OA
ENDBRANCH   7   8
ENDBRANCH   6   7
ENDBRANCH   5   6
ENDBRANCH   4   5
ENDBRANCH   3   4
ENDBRANCH   2   3
ENDBRANCH   1   2
BRANCH   1  11
ATOM     11  C   UNL     1     168.715 152.008 178.241  1.00  0.00     0.000 C 
BRANCH  11  12
ATOM     12  C   UNL     1     168.176 151.091 179.354  1.00  0.00    -0.000 C 
BRANCH  12  13
ATOM     13  C   UNL     1     167.803 151.864 180.630  1.00  0.00    -0.000 C 
BRANCH  13  14
ATOM     14  C   UNL     1     167.831 153.388 180.425  1.00  0.00    -0.000 C 
BRANCH  14  15
ATOM     15  C   UNL     1     166.439 154.028 180.555  1.00  0.00    -0.000 C 
BRANCH  15  16
ATOM     16  C   UNL     1     166.379 155.445 179.966  1.00  0.00    -0.000 C 
BRANCH  16  17
ATOM     17  C   UNL     1     167.666 155.774 179.200  1.00  0.00    -0.003 C 
ATOM     18  C   UNL     1     167.634 157.199 178.653  1.00  0.00     0.004 C 
ENDBRANCH  16  17
ENDBRANCH  15  16
ENDBRANCH  14  15
ENDBRANCH  13  14
ENDBRANCH  12  13
ENDBRANCH  11  12
ENDBRANCH   1  11
TORSDOF 14
ENDMDL
