MODEL 1
REMARK VINA RESULT:    -3.831      0.000      0.000
REMARK INTER + INTRA:          -6.819
REMARK INTER:                  -5.847
REMARK INTRA:                  -0.972
REMARK UNBOUND:                -0.972
REMARK SMILES CCCCCCCCCCC(=O)[O-]
REMARK SMILES IDX 7 1 8 2 9 3 10 4 11 5 12 6 13 7 6 8 5 9 4 10 3 11 2 12 1 13
REMARK H PARENT
REMARK Flexibility Score: inf
ROOT
ATOM      1  C   UNL     1      15.276  32.265  66.753  1.00  0.00     0.000 C 
ENDROOT
BRANCH   1   2
ATOM      2  C   UNL     1      16.162  32.361  68.009  1.00  0.00     0.000 C 
BRANCH   2   3
ATOM      3  C   UNL     1      16.327  31.016  68.730  1.00  0.00     0.006 C 
BRANCH   3   4
ATOM      4  C   UNL     1      15.863  31.114  70.186  1.00  0.00     0.053 C 
BRANCH   4   5
ATOM      5  C   UNL     1      16.931  30.623  71.111  1.00  0.00     0.041 C 
ATOM      6  O   UNL     1      18.072  31.154  71.100  1.00  0.00    -0.550 OA
ATOM      7  O   UNL     1      16.681  29.545  71.952  1.00  0.00    -0.550 OA
ENDBRANCH   4   5
ENDBRANCH   3   4
ENDBRANCH   2   3
ENDBRANCH   1   2
BRANCH   1   8
ATOM      8  C   UNL     1      13.969  33.074  66.815  1.00  0.00     0.000 C 
BRANCH   8   9
ATOM      9  C   UNL     1      13.939  34.078  67.978  1.00  0.00    -0.000 C 
BRANCH   9  10
ATOM     10  C   UNL     1      14.039  35.519  67.462  1.00  0.00    -0.000 C 
BRANCH  10  11
ATOM     11  C   UNL     1      15.500  35.992  67.433  1.00  0.00    -0.000 C 
BRANCH  11  12
ATOM     12  C   UNL     1      16.102  35.968  66.021  1.00  0.00    -0.003 C 
ATOM     13  C   UNL     1      17.466  35.278  65.971  1.00  0.00     0.004 C 
ENDBRANCH  11  12
ENDBRANCH  10  11
ENDBRANCH   9  10
ENDBRANCH   8   9
ENDBRANCH   1   8
TORSDOF 9
ENDMDL
MODEL 2
REMARK VINA RESULT:    -3.754     12.490     13.388
REMARK INTER + INTRA:          -6.700
REMARK INTER:                  -6.089
REMARK INTRA:                  -0.611
REMARK UNBOUND:                -0.972
REMARK SMILES CCCCCCCCCCC(=O)[O-]
REMARK SMILES IDX 7 1 8 2 9 3 10 4 11 5 12 6 13 7 6 8 5 9 4 10 3 11 2 12 1 13
REMARK H PARENT
REMARK Flexibility Score: inf
ROOT
ATOM      1  C   UNL     1      15.747  44.063  59.875  1.00  0.00     0.000 C 
ENDROOT
BRANCH   1   2
ATOM      2  C   UNL     1      14.769  42.903  60.136  1.00  0.00     0.000 C 
BRANCH   2   3
ATOM      3  C   UNL     1      14.043  43.023  61.484  1.00  0.00     0.006 C 
BRANCH   3   4
ATOM      4  C   UNL     1      14.210  44.426  62.073  1.00  0.00     0.053 C 
BRANCH   4   5
ATOM      5  C   UNL     1      14.482  44.350  63.542  1.00  0.00     0.041 C 
ATOM      6  O   UNL     1      13.573  44.623  64.370  1.00  0.00    -0.550 OA
ATOM      7  O   UNL     1      15.753  44.025  63.998  1.00  0.00    -0.550 OA
ENDBRANCH   4   5
ENDBRANCH   3   4
ENDBRANCH   2   3
ENDBRANCH   1   2
BRANCH   1   8
ATOM      8  C   UNL     1      17.237  43.688  59.953  1.00  0.00     0.000 C 
BRANCH   8   9
ATOM      9  C   UNL     1      17.912  44.179  61.243  1.00  0.00    -0.000 C 
BRANCH   9  10
ATOM     10  C   UNL     1      19.379  43.734  61.299  1.00  0.00    -0.000 C 
BRANCH  10  11
ATOM     11  C   UNL     1      19.513  42.238  60.978  1.00  0.00    -0.000 C 
BRANCH  11  12
ATOM     12  C   UNL     1      20.947  41.721  61.163  1.00  0.00    -0.003 C 
ATOM     13  C   UNL     1      22.004  42.756  60.775  1.00  0.00     0.004 C 
ENDBRANCH  11  12
ENDBRANCH  10  11
ENDBRANCH   9  10
ENDBRANCH   8   9
ENDBRANCH   1   8
TORSDOF 9
ENDMDL
MODEL 3
REMARK VINA RESULT:    -3.753     12.264     12.985
REMARK INTER + INTRA:          -6.699
REMARK INTER:                  -5.666
REMARK INTRA:                  -1.033
REMARK UNBOUND:                -0.972
REMARK SMILES CCCCCCCCCCC(=O)[O-]
REMARK SMILES IDX 7 1 8 2 9 3 10 4 11 5 12 6 13 7 6 8 5 9 4 10 3 11 2 12 1 13
REMARK H PARENT
REMARK Flexibility Score: inf
ROOT
ATOM      1  C   UNL     1      15.926  44.005  59.877  1.00  0.00     0.000 C 
ENDROOT
BRANCH   1   2
ATOM      2  C   UNL     1      17.391  43.533  59.875  1.00  0.00     0.000 C 
BRANCH   2   3
ATOM      3  C   UNL     1      17.901  43.155  61.273  1.00  0.00     0.006 C 
BRANCH   3   4
ATOM      4  C   UNL     1      19.390  43.478  61.420  1.00  0.00     0.053 C 
BRANCH   4   5
ATOM      5  C   UNL     1      20.174  42.231  61.685  1.00  0.00     0.041 C 
ATOM      6  O   UNL     1      20.567  41.514  60.727  1.00  0.00    -0.550 OA
ATOM      7  O   UNL     1      20.428  41.833  62.991  1.00  0.00    -0.550 OA
ENDBRANCH   4   5
ENDBRANCH   3   4
ENDBRANCH   2   3
ENDBRANCH   1   2
BRANCH   1   8
ATOM      8  C   UNL     1      14.880  42.880  59.975  1.00  0.00     0.000 C 
BRANCH   8   9
ATOM      9  C   UNL     1      13.978  43.006  61.212  1.00  0.00    -0.000 C 
BRANCH   9  10
ATOM     10  C   UNL     1      14.095  44.401  61.838  1.00  0.00    -0.000 C 
BRANCH  10  11
ATOM     11  C   UNL     1      14.151  44.314  63.370  1.00  0.00    -0.000 C 
BRANCH  11  12
ATOM     12  C   UNL     1      15.557  44.584  63.926  1.00  0.00    -0.003 C 
ATOM     13  C   UNL     1      16.233  45.787  63.267  1.00  0.00     0.004 C 
ENDBRANCH  11  12
ENDBRANCH  10  11
ENDBRANCH   9  10
ENDBRANCH   8   9
ENDBRANCH   1   8
TORSDOF 9
ENDMDL
MODEL 4
REMARK VINA RESULT:    -3.723      3.493      6.595
REMARK INTER + INTRA:          -6.654
REMARK INTER:                  -6.137
REMARK INTRA:                  -0.517
REMARK UNBOUND:                -0.972
REMARK SMILES CCCCCCCCCCC(=O)[O-]
REMARK SMILES IDX 7 1 8 2 9 3 10 4 11 5 12 6 13 7 6 8 5 9 4 10 3 11 2 12 1 13
REMARK H PARENT
REMARK Flexibility Score: inf
ROOT
ATOM      1  C   UNL     1      16.934  31.519  68.213  1.00  0.00     0.000 C 
ENDROOT
BRANCH   1   2
ATOM      2  C   UNL     1      15.525  32.018  67.843  1.00  0.00     0.000 C 
BRANCH   2   3
ATOM      3  C   UNL     1      15.529  33.429  67.240  1.00  0.00     0.006 C 
BRANCH   3   4
ATOM      4  C   UNL     1      14.314  34.232  67.715  1.00  0.00     0.053 C 
BRANCH   4   5
ATOM      5  C   UNL     1      14.304  35.590  67.088  1.00  0.00     0.041 C 
ATOM      6  O   UNL     1      13.680  36.537  67.636  1.00  0.00    -0.550 OA
ATOM      7  O   UNL     1      14.941  35.799  65.872  1.00  0.00    -0.550 OA
ENDBRANCH   4   5
ENDBRANCH   3   4
ENDBRANCH   2   3
ENDBRANCH   1   2
BRANCH   1   8
ATOM      8  C   UNL     1      16.972  30.191  68.990  1.00  0.00     0.000 C 
BRANCH   8   9
ATOM      9  C   UNL     1      17.707  30.303  70.333  1.00  0.00    -0.000 C 
BRANCH   9  10
ATOM     10  C   UNL     1      16.718  30.527  71.484  1.00  0.00    -0.000 C 
BRANCH  10  11
ATOM     11  C   UNL     1      15.352  29.903  71.165  1.00  0.00    -0.000 C 
BRANCH  11  12
ATOM     12  C   UNL     1      15.167  28.523  71.813  1.00  0.00    -0.003 C 
ATOM     13  C   UNL     1      16.072  28.314  73.027  1.00  0.00     0.004 C 
ENDBRANCH  11  12
ENDBRANCH  10  11
ENDBRANCH   9  10
ENDBRANCH   8   9
ENDBRANCH   1   8
TORSDOF 9
ENDMDL
MODEL 5
REMARK VINA RESULT:    -3.712     11.903     13.234
REMARK INTER + INTRA:          -6.637
REMARK INTER:                  -5.349
REMARK INTRA:                  -1.288
REMARK UNBOUND:                -0.972
REMARK SMILES CCCCCCCCCCC(=O)[O-]
REMARK SMILES IDX 7 1 8 2 9 3 10 4 11 5 12 6 13 7 6 8 5 9 4 10 3 11 2 12 1 13
REMARK H PARENT
REMARK Flexibility Score: inf
ROOT
ATOM      1  C   UNL     1      18.723  42.281  61.766  1.00  0.00     0.000 C 
ENDROOT
BRANCH   1   2
ATOM      2  C   UNL     1      17.502  42.082  62.683  1.00  0.00     0.000 C 
BRANCH   2   3
ATOM      3  C   UNL     1      17.564  42.937  63.957  1.00  0.00     0.006 C 
BRANCH   3   4
ATOM      4  C   UNL     1      16.424  43.960  63.987  1.00  0.00     0.053 C 
BRANCH   4   5
ATOM      5  C   UNL     1      16.970  45.352  64.007  1.00  0.00     0.041 C 
ATOM      6  O   UNL     1      18.150  45.576  63.631  1.00  0.00    -0.550 OA
ATOM      7  O   UNL     1      16.191  46.397  64.488  1.00  0.00    -0.550 OA
ENDBRANCH   4   5
ENDBRANCH   3   4
ENDBRANCH   2   3
ENDBRANCH   1   2
BRANCH   1   8
ATOM      8  C   UNL     1      18.648  43.506  60.838  1.00  0.00     0.000 C 
BRANCH   8   9
ATOM      9  C   UNL     1      17.418  43.486  59.917  1.00  0.00    -0.000 C 
BRANCH   9  10
ATOM     10  C   UNL     1      16.493  44.673  60.210  1.00  0.00    -0.000 C 
BRANCH  10  11
ATOM     11  C   UNL     1      15.031  44.321  59.898  1.00  0.00    -0.000 C 
BRANCH  11  12
ATOM     12  C   UNL     1      14.652  42.907  60.362  1.00  0.00    -0.003 C 
ATOM     13  C   UNL     1      13.785  42.910  61.622  1.00  0.00     0.004 C 
ENDBRANCH  11  12
ENDBRANCH  10  11
ENDBRANCH   9  10
ENDBRANCH   8   9
ENDBRANCH   1   8
TORSDOF 9
ENDMDL
MODEL 6
REMARK VINA RESULT:    -3.674      3.275      5.817
REMARK INTER + INTRA:          -6.579
REMARK INTER:                  -5.890
REMARK INTRA:                  -0.688
REMARK UNBOUND:                -0.972
REMARK SMILES CCCCCCCCCCC(=O)[O-]
REMARK SMILES IDX 7 1 8 2 9 3 10 4 11 5 12 6 13 7 6 8 5 9 4 10 3 11 2 12 1 13
REMARK H PARENT
REMARK Flexibility Score: inf
ROOT
ATOM      1  C   UNL     1      14.512  30.773  69.615  1.00  0.00     0.000 C 
ENDROOT
BRANCH   1   2
ATOM      2  C   UNL     1      15.344  31.782  68.801  1.00  0.00     0.000 C 
BRANCH   2   3
ATOM      3  C   UNL     1      14.491  32.888  68.166  1.00  0.00     0.006 C 
BRANCH   3   4
ATOM      4  C   UNL     1      15.326  33.744  67.210  1.00  0.00     0.053 C 
BRANCH   4   5
ATOM      5  C   UNL     1      14.670  35.069  66.982  1.00  0.00     0.041 C 
ATOM      6  O   UNL     1      13.749  35.460  67.747  1.00  0.00    -0.550 OA
ATOM      7  O   UNL     1      15.041  35.852  65.896  1.00  0.00    -0.550 OA
ENDBRANCH   4   5
ENDBRANCH   3   4
ENDBRANCH   2   3
ENDBRANCH   1   2
BRANCH   1   8
ATOM      8  C   UNL     1      15.267  30.085  70.766  1.00  0.00     0.000 C 
BRANCH   8   9
ATOM      9  C   UNL     1      16.565  30.810  71.150  1.00  0.00    -0.000 C 
BRANCH   9  10
ATOM     10  C   UNL     1      17.794  29.980  70.759  1.00  0.00    -0.000 C 
BRANCH  10  11
ATOM     11  C   UNL     1      19.025  30.878  70.565  1.00  0.00    -0.000 C 
BRANCH  11  12
ATOM     12  C   UNL     1      19.376  31.088  69.085  1.00  0.00    -0.003 C 
ATOM     13  C   UNL     1      18.632  30.126  68.158  1.00  0.00     0.004 C 
ENDBRANCH  11  12
ENDBRANCH  10  11
ENDBRANCH   9  10
ENDBRANCH   8   9
ENDBRANCH   1   8
TORSDOF 9
ENDMDL
MODEL 7
REMARK VINA RESULT:    -3.629      3.202      5.827
REMARK INTER + INTRA:          -6.511
REMARK INTER:                  -5.234
REMARK INTRA:                  -1.276
REMARK UNBOUND:                -0.972
REMARK SMILES CCCCCCCCCCC(=O)[O-]
REMARK SMILES IDX 7 1 8 2 9 3 10 4 11 5 12 6 13 7 6 8 5 9 4 10 3 11 2 12 1 13
REMARK H PARENT
REMARK Flexibility Score: inf
ROOT
ATOM      1  C   UNL     1      18.445  30.691  67.258  1.00  0.00     0.000 C 
ENDROOT
BRANCH   1   2
ATOM      2  C   UNL     1      16.919  30.897  67.267  1.00  0.00     0.000 C 
BRANCH   2   3
ATOM      3  C   UNL     1      16.514  32.354  67.534  1.00  0.00     0.006 C 
BRANCH   3   4
ATOM      4  C   UNL     1      15.236  32.422  68.376  1.00  0.00     0.053 C 
BRANCH   4   5
ATOM      5  C   UNL     1      14.169  33.179  67.651  1.00  0.00     0.041 C 
ATOM      6  O   UNL     1      13.993  33.001  66.417  1.00  0.00    -0.550 OA
ATOM      7  O   UNL     1      13.402  34.120  68.327  1.00  0.00    -0.550 OA
ENDBRANCH   4   5
ENDBRANCH   3   4
ENDBRANCH   2   3
ENDBRANCH   1   2
BRANCH   1   8
ATOM      8  C   UNL     1      19.231  31.601  68.219  1.00  0.00     0.000 C 
BRANCH   8   9
ATOM      9  C   UNL     1      20.009  30.816  69.285  1.00  0.00    -0.000 C 
BRANCH   9  10
ATOM     10  C   UNL     1      19.054  30.070  70.225  1.00  0.00    -0.000 C 
BRANCH  10  11
ATOM     11  C   UNL     1      18.209  31.055  71.046  1.00  0.00    -0.000 C 
BRANCH  11  12
ATOM     12  C   UNL     1      16.754  30.593  71.210  1.00  0.00    -0.003 C 
ATOM     13  C   UNL     1      16.503  29.208  70.611  1.00  0.00     0.004 C 
ENDBRANCH  11  12
ENDBRANCH  10  11
ENDBRANCH   9  10
ENDBRANCH   8   9
ENDBRANCH   1   8
TORSDOF 9
ENDMDL
MODEL 8
REMARK VINA RESULT:    -3.619      3.220      5.543
REMARK INTER + INTRA:          -6.494
REMARK INTER:                  -5.429
REMARK INTRA:                  -1.065
REMARK UNBOUND:                -0.972
REMARK SMILES CCCCCCCCCCC(=O)[O-]
REMARK SMILES IDX 7 1 8 2 9 3 10 4 11 5 12 6 13 7 6 8 5 9 4 10 3 11 2 12 1 13
REMARK H PARENT
REMARK Flexibility Score: inf
ROOT
ATOM      1  C   UNL     1      15.239  30.452  70.349  1.00  0.00     0.000 C 
ENDROOT
BRANCH   1   2
ATOM      2  C   UNL     1      14.594  31.347  69.275  1.00  0.00     0.000 C 
BRANCH   2   3
ATOM      3  C   UNL     1      15.505  31.576  68.061  1.00  0.00     0.006 C 
BRANCH   3   4
ATOM      4  C   UNL     1      15.623  33.068  67.736  1.00  0.00     0.053 C 
BRANCH   4   5
ATOM      5  C   UNL     1      14.327  33.594  67.207  1.00  0.00     0.041 C 
ATOM      6  O   UNL     1      13.775  33.043  66.218  1.00  0.00    -0.550 OA
ATOM      7  O   UNL     1      13.751  34.724  67.774  1.00  0.00    -0.550 OA
ENDBRANCH   4   5
ENDBRANCH   3   4
ENDBRANCH   2   3
ENDBRANCH   1   2
BRANCH   1   8
ATOM      8  C   UNL     1      16.465  31.059  71.054  1.00  0.00     0.000 C 
BRANCH   8   9
ATOM      9  C   UNL     1      17.670  30.108  71.085  1.00  0.00    -0.000 C 
BRANCH   9  10
ATOM     10  C   UNL     1      18.967  30.852  70.742  1.00  0.00    -0.000 C 
BRANCH  10  11
ATOM     11  C   UNL     1      18.997  31.248  69.258  1.00  0.00    -0.000 C 
BRANCH  11  12
ATOM     12  C   UNL     1      18.883  30.037  68.321  1.00  0.00    -0.003 C 
ATOM     13  C   UNL     1      18.945  30.426  66.843  1.00  0.00     0.004 C 
ENDBRANCH  11  12
ENDBRANCH  10  11
ENDBRANCH   9  10
ENDBRANCH   8   9
ENDBRANCH   1   8
TORSDOF 9
ENDMDL
MODEL 9
REMARK VINA RESULT:    -3.593     11.901     12.700
REMARK INTER + INTRA:          -6.456
REMARK INTER:                  -5.531
REMARK INTRA:                  -0.924
REMARK UNBOUND:                -0.972
REMARK SMILES CCCCCCCCCCC(=O)[O-]
REMARK SMILES IDX 7 1 8 2 9 3 10 4 11 5 12 6 13 7 6 8 5 9 4 10 3 11 2 12 1 13
REMARK H PARENT
REMARK Flexibility Score: inf
ROOT
ATOM      1  C   UNL     1      17.275  43.708  59.875  1.00  0.00     0.000 C 
ENDROOT
BRANCH   1   2
ATOM      2  C   UNL     1      18.069  43.966  61.168  1.00  0.00     0.000 C 
BRANCH   2   3
ATOM      3  C   UNL     1      18.373  42.681  61.951  1.00  0.00     0.006 C 
BRANCH   3   4
ATOM      4  C   UNL     1      19.752  42.127  61.583  1.00  0.00     0.053 C 
BRANCH   4   5
ATOM      5  C   UNL     1      20.647  42.106  62.782  1.00  0.00     0.041 C 
ATOM      6  O   UNL     1      20.550  43.002  63.661  1.00  0.00    -0.550 OA
ATOM      7  O   UNL     1      21.622  41.124  62.905  1.00  0.00    -0.550 OA
ENDBRANCH   4   5
ENDBRANCH   3   4
ENDBRANCH   2   3
ENDBRANCH   1   2
BRANCH   1   8
ATOM      8  C   UNL     1      15.786  44.091  59.938  1.00  0.00     0.000 C 
BRANCH   8   9
ATOM      9  C   UNL     1      14.861  42.878  60.124  1.00  0.00    -0.000 C 
BRANCH   9  10
ATOM     10  C   UNL     1      13.931  43.077  61.326  1.00  0.00    -0.000 C 
BRANCH  10  11
ATOM     11  C   UNL     1      14.153  44.451  61.974  1.00  0.00    -0.000 C 
BRANCH  11  12
ATOM     12  C   UNL     1      14.209  44.381  63.507  1.00  0.00    -0.003 C 
ATOM     13  C   UNL     1      15.615  44.094  64.035  1.00  0.00     0.004 C 
ENDBRANCH  11  12
ENDBRANCH  10  11
ENDBRANCH   9  10
ENDBRANCH   8   9
ENDBRANCH   1   8
TORSDOF 9
ENDMDL
