MODEL 1
REMARK VINA RESULT:    -4.078      0.000      0.000
REMARK INTER + INTRA:          -8.681
REMARK INTER:                  -7.177
REMARK INTRA:                  -1.504
REMARK UNBOUND:                -1.504
REMARK SMILES CCCCCCC=CCCCCCCCC(=O)[O-]
REMARK SMILES IDX 10 1 11 2 12 3 13 4 14 5 15 6 16 7 17 8 18 9 9 10 8 11 7 12
REMARK SMILES IDX 6 13 5 14 4 15 3 16 2 17 1 18
REMARK H PARENT
REMARK Flexibility Score: inf
ROOT
ATOM      1  C   UNL     1      30.812 166.357 161.103  1.00  0.00     0.004 C 
ENDROOT
BRANCH   1   2
ATOM      2  C   UNL     1      30.150 167.589 160.451  1.00  0.00     0.000 C 
BRANCH   2   3
ATOM      3  C   UNL     1      28.728 167.913 160.951  1.00  0.00     0.000 C 
BRANCH   3   4
ATOM      4  C   UNL     1      28.557 167.925 162.482  1.00  0.00     0.000 C 
BRANCH   4   5
ATOM      5  C   UNL     1      28.915 169.283 163.111  1.00  0.00     0.006 C 
BRANCH   5   6
ATOM      6  C   UNL     1      28.575 170.457 162.183  1.00  0.00     0.053 C 
BRANCH   6   7
ATOM      7  C   UNL     1      27.400 171.240 162.684  1.00  0.00     0.041 C 
ATOM      8  O   UNL     1      26.485 171.590 161.891  1.00  0.00    -0.550 OA
ATOM      9  O   UNL     1      27.308 171.570 164.031  1.00  0.00    -0.550 OA
ENDBRANCH   6   7
ENDBRANCH   5   6
ENDBRANCH   4   5
ENDBRANCH   3   4
ENDBRANCH   2   3
ENDBRANCH   1   2
BRANCH   1  10
ATOM     10  C   UNL     1      31.659 165.509 160.139  1.00  0.00     0.027 C 
BRANCH  10  11
ATOM     11  C   UNL     1      32.070 166.280 158.912  1.00  0.00    -0.031 C 
ATOM     12  C   UNL     1      33.221 166.003 158.283  1.00  0.00    -0.031 C 
BRANCH  12  13
ATOM     13  C   UNL     1      33.635 166.745 157.038  1.00  0.00     0.027 C 
BRANCH  13  14
ATOM     14  C   UNL     1      32.480 167.561 156.440  1.00  0.00     0.004 C 
BRANCH  14  15
ATOM     15  C   UNL     1      31.799 166.828 155.271  1.00  0.00     0.000 C 
BRANCH  15  16
ATOM     16  C   UNL     1      30.302 166.573 155.523  1.00  0.00    -0.000 C 
BRANCH  16  17
ATOM     17  C   UNL     1      29.628 167.604 156.447  1.00  0.00    -0.003 C 
ATOM     18  C   UNL     1      28.443 167.026 157.223  1.00  0.00     0.004 C 
ENDBRANCH  16  17
ENDBRANCH  15  16
ENDBRANCH  14  15
ENDBRANCH  13  14
ENDBRANCH  12  13
ENDBRANCH  10  11
ENDBRANCH   1  10
TORSDOF 13
ENDMDL
MODEL 2
REMARK VINA RESULT:    -4.009      2.957      6.542
REMARK INTER + INTRA:          -8.559
REMARK INTER:                  -7.499
REMARK INTRA:                  -1.060
REMARK UNBOUND:                -1.504
REMARK SMILES CCCCCCC=CCCCCCCCC(=O)[O-]
REMARK SMILES IDX 10 1 11 2 12 3 13 4 14 5 15 6 16 7 17 8 18 9 9 10 8 11 7 12
REMARK SMILES IDX 6 13 5 14 4 15 3 16 2 17 1 18
REMARK H PARENT
REMARK Flexibility Score: inf
ROOT
ATOM      1  C   UNL     1      33.570 166.264 158.183  1.00  0.00     0.004 C 
ENDROOT
BRANCH   1   2
ATOM      2  C   UNL     1      33.652 166.857 156.761  1.00  0.00     0.000 C 
BRANCH   2   3
ATOM      3  C   UNL     1      32.374 167.564 156.267  1.00  0.00     0.000 C 
BRANCH   3   4
ATOM      4  C   UNL     1      31.627 166.848 155.127  1.00  0.00     0.000 C 
BRANCH   4   5
ATOM      5  C   UNL     1      30.181 167.347 154.955  1.00  0.00     0.006 C 
BRANCH   5   6
ATOM      6  C   UNL     1      29.912 168.625 155.762  1.00  0.00     0.053 C 
BRANCH   6   7
ATOM      7  C   UNL     1      28.746 169.391 155.218  1.00  0.00     0.041 C 
ATOM      8  O   UNL     1      28.825 170.638 155.054  1.00  0.00    -0.550 OA
ATOM      9  O   UNL     1      27.575 168.725 154.876  1.00  0.00    -0.550 OA
ENDBRANCH   6   7
ENDBRANCH   5   6
ENDBRANCH   4   5
ENDBRANCH   3   4
ENDBRANCH   2   3
ENDBRANCH   1   2
BRANCH   1  10
ATOM     10  C   UNL     1      32.252 165.534 158.488  1.00  0.00     0.027 C 
BRANCH  10  11
ATOM     11  C   UNL     1      31.522 166.138 159.659  1.00  0.00    -0.031 C 
ATOM     12  C   UNL     1      30.411 166.864 159.474  1.00  0.00    -0.031 C 
BRANCH  12  13
ATOM     13  C   UNL     1      29.652 167.452 160.635  1.00  0.00     0.027 C 
BRANCH  13  14
ATOM     14  C   UNL     1      28.203 167.798 160.263  1.00  0.00     0.004 C 
BRANCH  14  15
ATOM     15  C   UNL     1      27.529 168.684 161.325  1.00  0.00     0.000 C 
BRANCH  15  16
ATOM     16  C   UNL     1      28.489 169.732 161.918  1.00  0.00    -0.000 C 
BRANCH  16  17
ATOM     17  C   UNL     1      27.790 170.963 162.525  1.00  0.00    -0.003 C 
ATOM     18  C   UNL     1      27.996 171.081 164.036  1.00  0.00     0.004 C 
ENDBRANCH  16  17
ENDBRANCH  15  16
ENDBRANCH  14  15
ENDBRANCH  13  14
ENDBRANCH  12  13
ENDBRANCH  10  11
ENDBRANCH   1  10
TORSDOF 13
ENDMDL
MODEL 3
REMARK VINA RESULT:    -3.965      0.986      1.673
REMARK INTER + INTRA:          -8.481
REMARK INTER:                  -7.243
REMARK INTRA:                  -1.239
REMARK UNBOUND:                -1.504
REMARK SMILES CCCCCCC=CCCCCCCCC(=O)[O-]
REMARK SMILES IDX 10 1 11 2 12 3 13 4 14 5 15 6 16 7 17 8 18 9 9 10 8 11 7 12
REMARK SMILES IDX 6 13 5 14 4 15 3 16 2 17 1 18
REMARK H PARENT
REMARK Flexibility Score: inf
ROOT
ATOM      1  C   UNL     1      30.004 167.474 160.419  1.00  0.00     0.004 C 
ENDROOT
BRANCH   1   2
ATOM      2  C   UNL     1      28.470 167.455 160.247  1.00  0.00     0.000 C 
BRANCH   2   3
ATOM      3  C   UNL     1      27.705 168.522 161.055  1.00  0.00     0.000 C 
BRANCH   3   4
ATOM      4  C   UNL     1      28.396 168.985 162.351  1.00  0.00     0.000 C 
BRANCH   4   5
ATOM      5  C   UNL     1      28.722 170.488 162.349  1.00  0.00     0.006 C 
BRANCH   5   6
ATOM      6  C   UNL     1      27.554 171.333 162.877  1.00  0.00     0.053 C 
BRANCH   6   7
ATOM      7  C   UNL     1      27.415 171.223 164.364  1.00  0.00     0.041 C 
ATOM      8  O   UNL     1      26.273 171.212 164.897  1.00  0.00    -0.550 OA
ATOM      9  O   UNL     1      28.548 171.117 165.162  1.00  0.00    -0.550 OA
ENDBRANCH   6   7
ENDBRANCH   5   6
ENDBRANCH   4   5
ENDBRANCH   3   4
ENDBRANCH   2   3
ENDBRANCH   1   2
BRANCH   1  10
ATOM     10  C   UNL     1      30.590 166.184 161.015  1.00  0.00     0.027 C 
BRANCH  10  11
ATOM     11  C   UNL     1      31.799 165.702 160.258  1.00  0.00    -0.031 C 
ATOM     12  C   UNL     1      32.033 166.117 159.005  1.00  0.00    -0.031 C 
BRANCH  12  13
ATOM     13  C   UNL     1      33.252 165.667 158.242  1.00  0.00     0.027 C 
BRANCH  13  14
ATOM     14  C   UNL     1      33.641 166.660 157.137  1.00  0.00     0.004 C 
BRANCH  14  15
ATOM     15  C   UNL     1      32.453 167.537 156.703  1.00  0.00     0.000 C 
BRANCH  15  16
ATOM     16  C   UNL     1      31.955 167.201 155.285  1.00  0.00    -0.000 C 
BRANCH  16  17
ATOM     17  C   UNL     1      30.429 167.026 155.172  1.00  0.00    -0.003 C 
ATOM     18  C   UNL     1      29.681 167.487 156.424  1.00  0.00     0.004 C 
ENDBRANCH  16  17
ENDBRANCH  15  16
ENDBRANCH  14  15
ENDBRANCH  13  14
ENDBRANCH  12  13
ENDBRANCH  10  11
ENDBRANCH   1  10
TORSDOF 13
ENDMDL
MODEL 4
REMARK VINA RESULT:    -3.818      2.833      6.958
REMARK INTER + INTRA:          -8.224
REMARK INTER:                  -7.158
REMARK INTRA:                  -1.066
REMARK UNBOUND:                -1.504
REMARK SMILES CCCCCCC=CCCCCCCCC(=O)[O-]
REMARK SMILES IDX 10 1 11 2 12 3 13 4 14 5 15 6 16 7 17 8 18 9 9 10 8 11 7 12
REMARK SMILES IDX 6 13 5 14 4 15 3 16 2 17 1 18
REMARK H PARENT
REMARK Flexibility Score: inf
ROOT
ATOM      1  C   UNL     1      31.568 165.600 159.155  1.00  0.00     0.004 C 
ENDROOT
BRANCH   1   2
ATOM      2  C   UNL     1      32.820 165.381 158.279  1.00  0.00     0.000 C 
BRANCH   2   3
ATOM      3  C   UNL     1      33.604 166.660 157.920  1.00  0.00     0.000 C 
BRANCH   3   4
ATOM      4  C   UNL     1      33.517 167.091 156.445  1.00  0.00     0.000 C 
BRANCH   4   5
ATOM      5  C   UNL     1      32.132 166.828 155.827  1.00  0.00     0.006 C 
BRANCH   5   6
ATOM      6  C   UNL     1      31.225 168.064 155.894  1.00  0.00     0.053 C 
BRANCH   6   7
ATOM      7  C   UNL     1      29.776 167.696 155.802  1.00  0.00     0.041 C 
ATOM      8  O   UNL     1      28.885 168.565 156.006  1.00  0.00    -0.550 OA
ATOM      9  O   UNL     1      29.408 166.397 155.475  1.00  0.00    -0.550 OA
ENDBRANCH   6   7
ENDBRANCH   5   6
ENDBRANCH   4   5
ENDBRANCH   3   4
ENDBRANCH   2   3
ENDBRANCH   1   2
BRANCH   1  10
ATOM     10  C   UNL     1      31.191 167.076 159.361  1.00  0.00     0.027 C 
BRANCH  10  11
ATOM     11  C   UNL     1      29.801 167.238 159.918  1.00  0.00    -0.031 C 
ATOM     12  C   UNL     1      29.598 167.323 161.240  1.00  0.00    -0.031 C 
BRANCH  12  13
ATOM     13  C   UNL     1      28.218 167.512 161.814  1.00  0.00     0.027 C 
BRANCH  13  14
ATOM     14  C   UNL     1      27.666 168.919 161.539  1.00  0.00     0.004 C 
BRANCH  14  15
ATOM     15  C   UNL     1      28.587 170.020 162.092  1.00  0.00     0.000 C 
BRANCH  15  16
ATOM     16  C   UNL     1      27.804 171.166 162.761  1.00  0.00    -0.000 C 
BRANCH  16  17
ATOM     17  C   UNL     1      26.403 171.408 162.171  1.00  0.00    -0.003 C 
ATOM     18  C   UNL     1      25.507 172.249 163.083  1.00  0.00     0.004 C 
ENDBRANCH  16  17
ENDBRANCH  15  16
ENDBRANCH  14  15
ENDBRANCH  13  14
ENDBRANCH  12  13
ENDBRANCH  10  11
ENDBRANCH   1  10
TORSDOF 13
ENDMDL
MODEL 5
REMARK VINA RESULT:    -3.807      2.806      5.920
REMARK INTER + INTRA:          -8.204
REMARK INTER:                  -6.937
REMARK INTRA:                  -1.267
REMARK UNBOUND:                -1.504
REMARK SMILES CCCCCCC=CCCCCCCCC(=O)[O-]
REMARK SMILES IDX 10 1 11 2 12 3 13 4 14 5 15 6 16 7 17 8 18 9 9 10 8 11 7 12
REMARK SMILES IDX 6 13 5 14 4 15 3 16 2 17 1 18
REMARK H PARENT
REMARK Flexibility Score: inf
ROOT
ATOM      1  C   UNL     1      32.418 167.497 156.681  1.00  0.00     0.004 C 
ENDROOT
BRANCH   1   2
ATOM      2  C   UNL     1      31.971 167.243 155.226  1.00  0.00     0.000 C 
BRANCH   2   3
ATOM      3  C   UNL     1      30.462 166.991 155.035  1.00  0.00     0.000 C 
BRANCH   3   4
ATOM      4  C   UNL     1      29.650 166.854 156.336  1.00  0.00     0.000 C 
BRANCH   4   5
ATOM      5  C   UNL     1      28.709 168.047 156.580  1.00  0.00     0.006 C 
BRANCH   5   6
ATOM      6  C   UNL     1      28.104 168.582 155.274  1.00  0.00     0.053 C 
BRANCH   6   7
ATOM      7  C   UNL     1      28.418 170.031 155.067  1.00  0.00     0.041 C 
ATOM      8  O   UNL     1      27.496 170.890 155.082  1.00  0.00    -0.550 OA
ATOM      9  O   UNL     1      29.733 170.437 154.875  1.00  0.00    -0.550 OA
ENDBRANCH   6   7
ENDBRANCH   5   6
ENDBRANCH   4   5
ENDBRANCH   3   4
ENDBRANCH   2   3
ENDBRANCH   1   2
BRANCH   1  10
ATOM     10  C   UNL     1      33.526 166.554 157.176  1.00  0.00     0.027 C 
BRANCH  10  11
ATOM     11  C   UNL     1      33.109 165.772 158.395  1.00  0.00    -0.031 C 
ATOM     12  C   UNL     1      32.097 166.194 159.166  1.00  0.00    -0.031 C 
BRANCH  12  13
ATOM     13  C   UNL     1      31.649 165.411 160.372  1.00  0.00     0.027 C 
BRANCH  13  14
ATOM     14  C   UNL     1      30.821 166.267 161.342  1.00  0.00     0.004 C 
BRANCH  14  15
ATOM     15  C   UNL     1      29.316 166.205 161.028  1.00  0.00     0.000 C 
BRANCH  15  16
ATOM     16  C   UNL     1      28.504 167.252 161.814  1.00  0.00    -0.000 C 
BRANCH  16  17
ATOM     17  C   UNL     1      28.494 168.655 161.180  1.00  0.00    -0.003 C 
ATOM     18  C   UNL     1      28.683 169.775 162.205  1.00  0.00     0.004 C 
ENDBRANCH  16  17
ENDBRANCH  15  16
ENDBRANCH  14  15
ENDBRANCH  13  14
ENDBRANCH  12  13
ENDBRANCH  10  11
ENDBRANCH   1  10
TORSDOF 13
ENDMDL
MODEL 6
REMARK VINA RESULT:    -3.791      1.189      2.597
REMARK INTER + INTRA:          -8.175
REMARK INTER:                  -6.225
REMARK INTRA:                  -1.950
REMARK UNBOUND:                -1.504
REMARK SMILES CCCCCCC=CCCCCCCCC(=O)[O-]
REMARK SMILES IDX 10 1 11 2 12 3 13 4 14 5 15 6 16 7 17 8 18 9 9 10 8 11 7 12
REMARK SMILES IDX 6 13 5 14 4 15 3 16 2 17 1 18
REMARK H PARENT
REMARK Flexibility Score: inf
ROOT
ATOM      1  C   UNL     1      31.124 166.063 162.482  1.00  0.00     0.004 C 
ENDROOT
BRANCH   1   2
ATOM      2  C   UNL     1      29.638 165.803 162.808  1.00  0.00     0.000 C 
BRANCH   2   3
ATOM      3  C   UNL     1      28.796 167.063 163.095  1.00  0.00     0.000 C 
BRANCH   3   4
ATOM      4  C   UNL     1      27.800 167.453 161.987  1.00  0.00     0.000 C 
BRANCH   4   5
ATOM      5  C   UNL     1      28.259 168.676 161.175  1.00  0.00     0.006 C 
BRANCH   5   6
ATOM      6  C   UNL     1      28.813 169.791 162.073  1.00  0.00     0.053 C 
BRANCH   6   7
ATOM      7  C   UNL     1      27.718 170.546 162.761  1.00  0.00     0.041 C 
ATOM      8  O   UNL     1      27.515 170.388 163.995  1.00  0.00    -0.550 OA
ATOM      9  O   UNL     1      26.931 171.438 162.043  1.00  0.00    -0.550 OA
ENDBRANCH   6   7
ENDBRANCH   5   6
ENDBRANCH   4   5
ENDBRANCH   3   4
ENDBRANCH   2   3
ENDBRANCH   1   2
BRANCH   1  10
ATOM     10  C   UNL     1      31.555 165.598 161.082  1.00  0.00     0.027 C 
BRANCH  10  11
ATOM     11  C   UNL     1      31.081 166.530 159.998  1.00  0.00    -0.031 C 
ATOM     12  C   UNL     1      30.210 166.112 159.068  1.00  0.00    -0.031 C 
BRANCH  12  13
ATOM     13  C   UNL     1      29.704 167.038 157.994  1.00  0.00     0.027 C 
BRANCH  13  14
ATOM     14  C   UNL     1      29.829 166.421 156.593  1.00  0.00     0.004 C 
BRANCH  14  15
ATOM     15  C   UNL     1      31.252 165.906 156.313  1.00  0.00     0.000 C 
BRANCH  15  16
ATOM     16  C   UNL     1      32.183 167.005 155.768  1.00  0.00    -0.000 C 
BRANCH  16  17
ATOM     17  C   UNL     1      33.407 167.298 156.654  1.00  0.00    -0.003 C 
ATOM     18  C   UNL     1      33.755 166.142 157.594  1.00  0.00     0.004 C 
ENDBRANCH  16  17
ENDBRANCH  15  16
ENDBRANCH  14  15
ENDBRANCH  13  14
ENDBRANCH  12  13
ENDBRANCH  10  11
ENDBRANCH   1  10
TORSDOF 13
ENDMDL
MODEL 7
REMARK VINA RESULT:    -3.781      3.105      7.436
REMARK INTER + INTRA:          -8.158
REMARK INTER:                  -7.362
REMARK INTRA:                  -0.796
REMARK UNBOUND:                -1.504
REMARK SMILES CCCCCCC=CCCCCCCCC(=O)[O-]
REMARK SMILES IDX 10 1 11 2 12 3 13 4 14 5 15 6 16 7 17 8 18 9 9 10 8 11 7 12
REMARK SMILES IDX 6 13 5 14 4 15 3 16 2 17 1 18
REMARK H PARENT
REMARK Flexibility Score: inf
ROOT
ATOM      1  C   UNL     1      31.133 166.872 159.367  1.00  0.00     0.004 C 
ENDROOT
BRANCH   1   2
ATOM      2  C   UNL     1      32.158 165.975 158.639  1.00  0.00     0.000 C 
BRANCH   2   3
ATOM      3  C   UNL     1      33.408 166.704 158.105  1.00  0.00     0.000 C 
BRANCH   3   4
ATOM      4  C   UNL     1      33.362 167.078 156.612  1.00  0.00     0.000 C 
BRANCH   4   5
ATOM      5  C   UNL     1      31.992 166.800 155.969  1.00  0.00     0.006 C 
BRANCH   5   6
ATOM      6  C   UNL     1      31.623 167.856 154.918  1.00  0.00     0.053 C 
BRANCH   6   7
ATOM      7  C   UNL     1      30.316 168.519 155.231  1.00  0.00     0.041 C 
ATOM      8  O   UNL     1      30.183 169.763 155.083  1.00  0.00    -0.550 OA
ATOM      9  O   UNL     1      29.239 167.758 155.670  1.00  0.00    -0.550 OA
ENDBRANCH   6   7
ENDBRANCH   5   6
ENDBRANCH   4   5
ENDBRANCH   3   4
ENDBRANCH   2   3
ENDBRANCH   1   2
BRANCH   1  10
ATOM     10  C   UNL     1      29.669 166.588 158.997  1.00  0.00     0.027 C 
BRANCH  10  11
ATOM     11  C   UNL     1      28.705 167.143 160.012  1.00  0.00    -0.031 C 
ATOM     12  C   UNL     1      29.048 168.182 160.786  1.00  0.00    -0.031 C 
BRANCH  12  13
ATOM     13  C   UNL     1      28.088 168.768 161.788  1.00  0.00     0.027 C 
BRANCH  13  14
ATOM     14  C   UNL     1      28.586 170.106 162.352  1.00  0.00     0.004 C 
BRANCH  14  15
ATOM     15  C   UNL     1      27.476 171.172 162.381  1.00  0.00     0.000 C 
BRANCH  15  16
ATOM     16  C   UNL     1      27.116 171.614 163.811  1.00  0.00    -0.000 C 
BRANCH  16  17
ATOM     17  C   UNL     1      27.584 170.645 164.913  1.00  0.00    -0.003 C 
ATOM     18  C   UNL     1      28.507 171.307 165.938  1.00  0.00     0.004 C 
ENDBRANCH  16  17
ENDBRANCH  15  16
ENDBRANCH  14  15
ENDBRANCH  13  14
ENDBRANCH  12  13
ENDBRANCH  10  11
ENDBRANCH   1  10
TORSDOF 13
ENDMDL
MODEL 8
REMARK VINA RESULT:    -3.742      1.197      3.170
REMARK INTER + INTRA:          -8.090
REMARK INTER:                  -6.708
REMARK INTRA:                  -1.381
REMARK UNBOUND:                -1.504
REMARK SMILES CCCCCCC=CCCCCCCCC(=O)[O-]
REMARK SMILES IDX 10 1 11 2 12 3 13 4 14 5 15 6 16 7 17 8 18 9 9 10 8 11 7 12
REMARK SMILES IDX 6 13 5 14 4 15 3 16 2 17 1 18
REMARK H PARENT
REMARK Flexibility Score: inf
ROOT
ATOM      1  C   UNL     1      27.343 167.601 159.041  1.00  0.00     0.004 C 
ENDROOT
BRANCH   1   2
ATOM      2  C   UNL     1      28.699 167.045 159.526  1.00  0.00     0.000 C 
BRANCH   2   3
ATOM      3  C   UNL     1      29.318 167.779 160.733  1.00  0.00     0.000 C 
BRANCH   3   4
ATOM      4  C   UNL     1      28.321 168.565 161.604  1.00  0.00     0.000 C 
BRANCH   4   5
ATOM      5  C   UNL     1      28.889 169.907 162.098  1.00  0.00     0.006 C 
BRANCH   5   6
ATOM      6  C   UNL     1      27.786 170.949 162.336  1.00  0.00     0.053 C 
BRANCH   6   7
ATOM      7  C   UNL     1      27.530 171.165 163.796  1.00  0.00     0.041 C 
ATOM      8  O   UNL     1      28.403 170.847 164.648  1.00  0.00    -0.550 OA
ATOM      9  O   UNL     1      26.334 171.734 164.215  1.00  0.00    -0.550 OA
ENDBRANCH   6   7
ENDBRANCH   5   6
ENDBRANCH   4   5
ENDBRANCH   3   4
ENDBRANCH   2   3
ENDBRANCH   1   2
BRANCH   1  10
ATOM     10  C   UNL     1      27.172 167.607 157.514  1.00  0.00     0.027 C 
BRANCH  10  11
ATOM     11  C   UNL     1      28.493 167.596 156.790  1.00  0.00    -0.031 C 
ATOM     12  C   UNL     1      28.763 168.505 155.843  1.00  0.00    -0.031 C 
BRANCH  12  13
ATOM     13  C   UNL     1      30.089 168.526 155.129  1.00  0.00     0.027 C 
BRANCH  13  14
ATOM     14  C   UNL     1      30.892 167.237 155.361  1.00  0.00     0.004 C 
BRANCH  14  15
ATOM     15  C   UNL     1      32.410 167.486 155.318  1.00  0.00     0.000 C 
BRANCH  15  16
ATOM     16  C   UNL     1      33.068 167.371 156.705  1.00  0.00    -0.000 C 
BRANCH  16  17
ATOM     17  C   UNL     1      32.072 167.282 157.877  1.00  0.00    -0.003 C 
ATOM     18  C   UNL     1      32.212 165.989 158.682  1.00  0.00     0.004 C 
ENDBRANCH  16  17
ENDBRANCH  15  16
ENDBRANCH  14  15
ENDBRANCH  13  14
ENDBRANCH  12  13
ENDBRANCH  10  11
ENDBRANCH   1  10
TORSDOF 13
ENDMDL
MODEL 9
REMARK VINA RESULT:    -3.698      1.107      3.289
REMARK INTER + INTRA:          -8.011
REMARK INTER:                  -6.678
REMARK INTRA:                  -1.333
REMARK UNBOUND:                -1.504
REMARK SMILES CCCCCCC=CCCCCCCCC(=O)[O-]
REMARK SMILES IDX 10 1 11 2 12 3 13 4 14 5 15 6 16 7 17 8 18 9 9 10 8 11 7 12
REMARK SMILES IDX 6 13 5 14 4 15 3 16 2 17 1 18
REMARK H PARENT
REMARK Flexibility Score: inf
ROOT
ATOM      1  C   UNL     1      27.637 167.907 156.941  1.00  0.00     0.004 C 
ENDROOT
BRANCH   1   2
ATOM      2  C   UNL     1      28.173 167.131 158.163  1.00  0.00     0.000 C 
BRANCH   2   3
ATOM      3  C   UNL     1      27.630 167.598 159.529  1.00  0.00     0.000 C 
BRANCH   3   4
ATOM      4  C   UNL     1      28.702 167.926 160.584  1.00  0.00     0.000 C 
BRANCH   4   5
ATOM      5  C   UNL     1      28.104 168.480 161.889  1.00  0.00     0.006 C 
BRANCH   5   6
ATOM      6  C   UNL     1      28.214 170.009 161.971  1.00  0.00     0.053 C 
BRANCH   6   7
ATOM      7  C   UNL     1      28.296 170.486 163.389  1.00  0.00     0.041 C 
ATOM      8  O   UNL     1      27.793 171.594 163.717  1.00  0.00    -0.550 OA
ATOM      9  O   UNL     1      28.914 169.698 164.352  1.00  0.00    -0.550 OA
ENDBRANCH   6   7
ENDBRANCH   5   6
ENDBRANCH   4   5
ENDBRANCH   3   4
ENDBRANCH   2   3
ENDBRANCH   1   2
BRANCH   1  10
ATOM     10  C   UNL     1      28.715 168.295 155.916  1.00  0.00     0.027 C 
BRANCH  10  11
ATOM     11  C   UNL     1      30.079 167.785 156.301  1.00  0.00    -0.031 C 
ATOM     12  C   UNL     1      31.049 167.662 155.383  1.00  0.00    -0.031 C 
BRANCH  12  13
ATOM     13  C   UNL     1      32.427 167.181 155.755  1.00  0.00     0.027 C 
BRANCH  13  14
ATOM     14  C   UNL     1      32.746 167.427 157.237  1.00  0.00     0.004 C 
BRANCH  14  15
ATOM     15  C   UNL     1      33.698 166.362 157.808  1.00  0.00     0.000 C 
BRANCH  15  16
ATOM     16  C   UNL     1      32.948 165.191 158.470  1.00  0.00    -0.000 C 
BRANCH  16  17
ATOM     17  C   UNL     1      31.569 165.563 159.044  1.00  0.00    -0.003 C 
ATOM     18  C   UNL     1      31.586 165.752 160.562  1.00  0.00     0.004 C 
ENDBRANCH  16  17
ENDBRANCH  15  16
ENDBRANCH  14  15
ENDBRANCH  13  14
ENDBRANCH  12  13
ENDBRANCH  10  11
ENDBRANCH   1  10
TORSDOF 13
ENDMDL
