MODEL 1
REMARK VINA RESULT:    -5.386      0.000      0.000
REMARK INTER + INTRA:          -8.081
REMARK INTER:                  -7.275
REMARK INTRA:                  -0.806
REMARK UNBOUND:                -0.806
REMARK SMILES O=c1c(-c2ccc(O)cc2)coc2c([C@@H]3O[C@H](CO)[C@H](O)[C@H](O)[C@@H]3O)c(O)ccc12
REMARK SMILES IDX 3 1 11 2 12 3 13 4 30 5 2 6 1 7 29 8 28 9 26 10 14 11 4 12
REMARK SMILES IDX 5 13 6 14 7 15 10 16 9 17 8 18 15 20 24 21 16 22 22 23 17 24
REMARK SMILES IDX 20 25 25 26 23 28 18 30 19 31 21 33 27 35
REMARK H PARENT 8 19 25 27 23 29 19 32 21 34 27 36
REMARK Flexibility Score: inf
ROOT
ATOM      1  C   UNL     1     -30.300  17.456  57.047  1.00  0.00     0.065 A 
ATOM      2  C   UNL     1     -31.697  17.533  57.119  1.00  0.00     0.208 A 
ATOM      3  O   UNL     1     -32.446  16.441  57.018  1.00  0.00    -0.463 OA
ATOM      4  C   UNL     1     -31.941  15.222  56.848  1.00  0.00     0.147 A 
ATOM      5  C   UNL     1     -30.538  15.052  56.775  1.00  0.00     0.066 A 
ATOM      6  C   UNL     1     -29.714  16.188  56.881  1.00  0.00     0.200 A 
ATOM      7  O   UNL     1     -28.457  16.069  56.847  1.00  0.00    -0.288 OA
ATOM      8  C   UNL     1     -30.001  13.766  56.613  1.00  0.00     0.020 A 
ATOM      9  C   UNL     1     -30.843  12.660  56.533  1.00  0.00     0.047 A 
ATOM     10  C   UNL     1     -32.233  12.814  56.606  1.00  0.00     0.125 A 
ATOM     11  C   UNL     1     -32.801  14.100  56.744  1.00  0.00     0.069 A 
ENDROOT
BRANCH   1  12
ATOM     12  C   UNL     1     -29.484  18.693  57.154  1.00  0.00    -0.011 A 
ATOM     13  C   UNL     1     -29.194  19.451  56.007  1.00  0.00     0.013 A 
ATOM     14  C   UNL     1     -28.419  20.611  56.103  1.00  0.00     0.047 A 
ATOM     15  C   UNL     1     -27.921  21.024  57.347  1.00  0.00     0.115 A 
ATOM     16  C   UNL     1     -28.974  19.110  58.396  1.00  0.00     0.013 A 
ATOM     17  C   UNL     1     -28.200  20.270  58.490  1.00  0.00     0.047 A 
BRANCH  15  18
ATOM     18  O   UNL     1     -27.147  22.177  57.455  1.00  0.00    -0.508 OA
ATOM     19  H   UNL     1     -27.132  22.726  58.307  1.00  0.00     0.293 HD
ENDBRANCH  15  18
ENDBRANCH   1  12
BRANCH  11  20
ATOM     20  C   UNL     1     -34.318  14.238  56.850  1.00  0.00     0.188 C 
ATOM     21  C   UNL     1     -34.974  14.161  55.446  1.00  0.00     0.179 C 
ATOM     22  O   UNL     1     -34.855  13.252  57.718  1.00  0.00    -0.362 OA
ATOM     23  C   UNL     1     -36.513  14.243  55.567  1.00  0.00     0.177 C 
ATOM     24  C   UNL     1     -36.231  13.495  57.964  1.00  0.00     0.176 C 
ATOM     25  C   UNL     1     -37.057  13.310  56.665  1.00  0.00     0.177 C 
BRANCH  21  26
ATOM     26  O   UNL     1     -34.570  13.019  54.728  1.00  0.00    -0.387 OA
ATOM     27  H   UNL     1     -34.769  12.221  55.279  1.00  0.00     0.211 HD
ENDBRANCH  21  26
BRANCH  23  28
ATOM     28  O   UNL     1     -37.125  13.940  54.339  1.00  0.00    -0.387 OA
ATOM     29  H   UNL     1     -37.996  14.416  54.329  1.00  0.00     0.211 HD
ENDBRANCH  23  28
BRANCH  24  30
ATOM     30  C   UNL     1     -36.699  12.553  59.083  1.00  0.00     0.191 C 
BRANCH  30  31
ATOM     31  O   UNL     1     -35.616  12.123  59.866  1.00  0.00    -0.394 OA
ATOM     32  H   UNL     1     -34.954  12.863  59.866  1.00  0.00     0.210 HD
ENDBRANCH  30  31
ENDBRANCH  24  30
BRANCH  25  33
ATOM     33  O   UNL     1     -37.006  11.973  56.230  1.00  0.00    -0.388 OA
ATOM     34  H   UNL     1     -36.067  11.668  56.323  1.00  0.00     0.211 HD
ENDBRANCH  25  33
ENDBRANCH  11  20
BRANCH  10  35
ATOM     35  O   UNL     1     -33.050  11.685  56.547  1.00  0.00    -0.507 OA
ATOM     36  H   UNL     1     -32.681  10.751  56.685  1.00  0.00     0.293 HD
ENDBRANCH  10  35
TORSDOF 9
ENDMDL
MODEL 2
REMARK VINA RESULT:    -4.372      1.939      3.392
REMARK INTER + INTRA:          -6.711
REMARK INTER:                  -6.462
REMARK INTRA:                  -0.250
REMARK UNBOUND:                -0.806
REMARK SMILES O=c1c(-c2ccc(O)cc2)coc2c([C@@H]3O[C@H](CO)[C@H](O)[C@H](O)[C@@H]3O)c(O)ccc12
REMARK SMILES IDX 3 1 11 2 12 3 13 4 30 5 2 6 1 7 29 8 28 9 26 10 14 11 4 12
REMARK SMILES IDX 5 13 6 14 7 15 10 16 9 17 8 18 15 20 24 21 16 22 22 23 17 24
REMARK SMILES IDX 20 25 25 26 23 28 18 30 19 31 21 33 27 35
REMARK H PARENT 8 19 25 27 23 29 19 32 21 34 27 36
REMARK Flexibility Score: inf
ROOT
ATOM      1  C   UNL     1     -30.363  16.656  57.104  1.00  0.00     0.065 A 
ATOM      2  C   UNL     1     -30.690  15.370  57.553  1.00  0.00     0.208 A 
ATOM      3  O   UNL     1     -31.840  14.801  57.215  1.00  0.00    -0.463 OA
ATOM      4  C   UNL     1     -32.748  15.391  56.440  1.00  0.00     0.147 A 
ATOM      5  C   UNL     1     -32.494  16.688  55.934  1.00  0.00     0.066 A 
ATOM      6  C   UNL     1     -31.282  17.320  56.271  1.00  0.00     0.200 A 
ATOM      7  O   UNL     1     -31.012  18.465  55.814  1.00  0.00    -0.288 OA
ATOM      8  C   UNL     1     -33.440  17.307  55.104  1.00  0.00     0.020 A 
ATOM      9  C   UNL     1     -34.620  16.646  54.771  1.00  0.00     0.047 A 
ATOM     10  C   UNL     1     -34.882  15.362  55.264  1.00  0.00     0.125 A 
ATOM     11  C   UNL     1     -33.958  14.725  56.122  1.00  0.00     0.069 A 
ENDROOT
BRANCH   1  12
ATOM     12  C   UNL     1     -29.074  17.275  57.503  1.00  0.00    -0.011 A 
ATOM     13  C   UNL     1     -27.860  16.620  57.232  1.00  0.00     0.013 A 
ATOM     14  C   UNL     1     -26.645  17.196  57.616  1.00  0.00     0.047 A 
ATOM     15  C   UNL     1     -26.629  18.431  58.278  1.00  0.00     0.115 A 
ATOM     16  C   UNL     1     -29.049  18.510  58.174  1.00  0.00     0.013 A 
ATOM     17  C   UNL     1     -27.833  19.084  58.556  1.00  0.00     0.047 A 
BRANCH  15  18
ATOM     18  O   UNL     1     -25.424  19.014  58.664  1.00  0.00    -0.508 OA
ATOM     19  H   UNL     1     -25.396  19.784  59.323  1.00  0.00     0.293 HD
ENDBRANCH  15  18
ENDBRANCH   1  12
BRANCH  11  20
ATOM     20  C   UNL     1     -34.255  13.315  56.623  1.00  0.00     0.188 C 
ATOM     21  C   UNL     1     -34.341  13.290  58.171  1.00  0.00     0.179 C 
ATOM     22  O   UNL     1     -35.446  12.811  56.038  1.00  0.00    -0.362 OA
ATOM     23  C   UNL     1     -34.699  11.869  58.667  1.00  0.00     0.177 C 
ATOM     24  C   UNL     1     -35.621  11.439  56.355  1.00  0.00     0.176 C 
ATOM     25  C   UNL     1     -35.869  11.259  57.874  1.00  0.00     0.177 C 
BRANCH  21  26
ATOM     26  O   UNL     1     -35.235  14.254  58.674  1.00  0.00    -0.387 OA
ATOM     27  H   UNL     1     -35.544  13.955  59.566  1.00  0.00     0.211 HD
ENDBRANCH  21  26
BRANCH  23  28
ATOM     28  O   UNL     1     -35.010  11.885  60.038  1.00  0.00    -0.387 OA
ATOM     29  H   UNL     1     -35.219  12.826  60.272  1.00  0.00     0.211 HD
ENDBRANCH  23  28
BRANCH  24  30
ATOM     30  C   UNL     1     -36.781  10.890  55.511  1.00  0.00     0.191 C 
BRANCH  30  31
ATOM     31  O   UNL     1     -37.125  11.782  54.484  1.00  0.00    -0.394 OA
ATOM     32  H   UNL     1     -37.969  11.443  54.084  1.00  0.00     0.210 HD
ENDBRANCH  30  31
ENDBRANCH  24  30
BRANCH  25  33
ATOM     33  O   UNL     1     -37.080  11.866  58.255  1.00  0.00    -0.388 OA
ATOM     34  H   UNL     1     -36.927  12.299  59.135  1.00  0.00     0.211 HD
ENDBRANCH  25  33
ENDBRANCH  11  20
BRANCH  10  35
ATOM     35  O   UNL     1     -36.062  14.715  54.895  1.00  0.00    -0.507 OA
ATOM     36  H   UNL     1     -36.971  15.138  55.042  1.00  0.00     0.293 HD
ENDBRANCH  10  35
TORSDOF 9
ENDMDL
MODEL 3
REMARK VINA RESULT:    -4.188      2.026      3.539
REMARK INTER + INTRA:          -6.462
REMARK INTER:                  -6.392
REMARK INTRA:                  -0.070
REMARK UNBOUND:                -0.806
REMARK SMILES O=c1c(-c2ccc(O)cc2)coc2c([C@@H]3O[C@H](CO)[C@H](O)[C@H](O)[C@@H]3O)c(O)ccc12
REMARK SMILES IDX 3 1 11 2 12 3 13 4 30 5 2 6 1 7 29 8 28 9 26 10 14 11 4 12
REMARK SMILES IDX 5 13 6 14 7 15 10 16 9 17 8 18 15 20 24 21 16 22 22 23 17 24
REMARK SMILES IDX 20 25 25 26 23 28 18 30 19 31 21 33 27 35
REMARK H PARENT 8 19 25 27 23 29 19 32 21 34 27 36
REMARK Flexibility Score: inf
ROOT
ATOM      1  C   UNL     1     -30.878  16.852  56.937  1.00  0.00     0.065 A 
ATOM      2  C   UNL     1     -31.088  15.582  56.382  1.00  0.00     0.208 A 
ATOM      3  O   UNL     1     -31.936  14.726  56.940  1.00  0.00    -0.463 OA
ATOM      4  C   UNL     1     -32.634  15.001  58.039  1.00  0.00     0.147 A 
ATOM      5  C   UNL     1     -32.490  16.265  58.659  1.00  0.00     0.066 A 
ATOM      6  C   UNL     1     -31.602  17.198  58.092  1.00  0.00     0.200 A 
ATOM      7  O   UNL     1     -31.470  18.344  58.603  1.00  0.00    -0.288 OA
ATOM      8  C   UNL     1     -33.238  16.565  59.807  1.00  0.00     0.020 A 
ATOM      9  C   UNL     1     -34.124  15.628  60.331  1.00  0.00     0.047 A 
ATOM     10  C   UNL     1     -34.278  14.374  59.726  1.00  0.00     0.125 A 
ATOM     11  C   UNL     1     -33.519  14.036  58.583  1.00  0.00     0.069 A 
ENDROOT
BRANCH   1  12
ATOM     12  C   UNL     1     -29.918  17.788  56.298  1.00  0.00    -0.011 A 
ATOM     13  C   UNL     1     -28.591  17.864  56.757  1.00  0.00     0.013 A 
ATOM     14  C   UNL     1     -27.688  18.752  56.163  1.00  0.00     0.047 A 
ATOM     15  C   UNL     1     -28.101  19.577  55.109  1.00  0.00     0.115 A 
ATOM     16  C   UNL     1     -30.326  18.625  55.245  1.00  0.00     0.013 A 
ATOM     17  C   UNL     1     -29.421  19.511  54.654  1.00  0.00     0.047 A 
BRANCH  15  18
ATOM     18  O   UNL     1     -27.210  20.465  54.510  1.00  0.00    -0.508 OA
ATOM     19  H   UNL     1     -26.461  20.899  55.038  1.00  0.00     0.293 HD
ENDBRANCH  15  18
ENDBRANCH   1  12
BRANCH  11  20
ATOM     20  C   UNL     1     -33.725  12.674  57.927  1.00  0.00     0.188 C 
ATOM     21  C   UNL     1     -35.169  12.544  57.376  1.00  0.00     0.179 C 
ATOM     22  O   UNL     1     -32.767  12.456  56.903  1.00  0.00    -0.362 OA
ATOM     23  C   UNL     1     -35.352  11.185  56.661  1.00  0.00     0.177 C 
ATOM     24  C   UNL     1     -32.838  11.123  56.423  1.00  0.00     0.176 C 
ATOM     25  C   UNL     1     -34.187  10.875  55.703  1.00  0.00     0.177 C 
BRANCH  21  26
ATOM     26  O   UNL     1     -35.521  13.621  56.539  1.00  0.00    -0.387 OA
ATOM     27  H   UNL     1     -35.969  13.254  55.735  1.00  0.00     0.211 HD
ENDBRANCH  21  26
BRANCH  23  28
ATOM     28  O   UNL     1     -36.568  11.152  55.959  1.00  0.00    -0.387 OA
ATOM     29  H   UNL     1     -36.696  10.216  55.653  1.00  0.00     0.211 HD
ENDBRANCH  23  28
BRANCH  24  30
ATOM     30  C   UNL     1     -31.636  10.875  55.498  1.00  0.00     0.191 C 
BRANCH  30  31
ATOM     31  O   UNL     1     -30.768  11.978  55.492  1.00  0.00    -0.394 OA
ATOM     32  H   UNL     1     -29.845  11.613  55.544  1.00  0.00     0.210 HD
ENDBRANCH  30  31
ENDBRANCH  24  30
BRANCH  25  33
ATOM     33  O   UNL     1     -34.288  11.671  54.548  1.00  0.00    -0.388 OA
ATOM     34  H   UNL     1     -35.165  11.471  54.128  1.00  0.00     0.211 HD
ENDBRANCH  25  33
ENDBRANCH  11  20
BRANCH  10  35
ATOM     35  O   UNL     1     -35.191  13.464  60.260  1.00  0.00    -0.507 OA
ATOM     36  H   UNL     1     -35.931  13.059  59.698  1.00  0.00     0.293 HD
ENDBRANCH  10  35
TORSDOF 9
ENDMDL
MODEL 4
REMARK VINA RESULT:    -3.961      2.053      3.195
REMARK INTER + INTRA:          -6.157
REMARK INTER:                  -6.429
REMARK INTRA:                   0.272
REMARK UNBOUND:                -0.806
REMARK SMILES O=c1c(-c2ccc(O)cc2)coc2c([C@@H]3O[C@H](CO)[C@H](O)[C@H](O)[C@@H]3O)c(O)ccc12
REMARK SMILES IDX 3 1 11 2 12 3 13 4 30 5 2 6 1 7 29 8 28 9 26 10 14 11 4 12
REMARK SMILES IDX 5 13 6 14 7 15 10 16 9 17 8 18 15 20 24 21 16 22 22 23 17 24
REMARK SMILES IDX 20 25 25 26 23 28 18 30 19 31 21 33 27 35
REMARK H PARENT 8 19 25 27 23 29 19 32 21 34 27 36
REMARK Flexibility Score: inf
ROOT
ATOM      1  C   UNL     1     -31.310  16.805  57.403  1.00  0.00     0.065 A 
ATOM      2  C   UNL     1     -32.079  16.194  58.402  1.00  0.00     0.208 A 
ATOM      3  O   UNL     1     -33.259  15.655  58.121  1.00  0.00    -0.463 OA
ATOM      4  C   UNL     1     -33.787  15.651  56.900  1.00  0.00     0.147 A 
ATOM      5  C   UNL     1     -33.073  16.238  55.829  1.00  0.00     0.066 A 
ATOM      6  C   UNL     1     -31.817  16.816  56.091  1.00  0.00     0.200 A 
ATOM      7  O   UNL     1     -31.141  17.324  55.153  1.00  0.00    -0.288 OA
ATOM      8  C   UNL     1     -33.620  16.221  54.537  1.00  0.00     0.020 A 
ATOM      9  C   UNL     1     -34.855  15.622  54.306  1.00  0.00     0.047 A 
ATOM     10  C   UNL     1     -35.572  15.035  55.357  1.00  0.00     0.125 A 
ATOM     11  C   UNL     1     -35.056  15.060  56.673  1.00  0.00     0.069 A 
ENDROOT
BRANCH   1  12
ATOM     12  C   UNL     1     -29.996  17.408  57.744  1.00  0.00    -0.011 A 
ATOM     13  C   UNL     1     -29.935  18.671  58.359  1.00  0.00     0.013 A 
ATOM     14  C   UNL     1     -28.699  19.245  58.673  1.00  0.00     0.047 A 
ATOM     15  C   UNL     1     -27.511  18.566  58.373  1.00  0.00     0.115 A 
ATOM     16  C   UNL     1     -28.799  16.738  57.440  1.00  0.00     0.013 A 
ATOM     17  C   UNL     1     -27.565  17.314  57.755  1.00  0.00     0.047 A 
BRANCH  15  18
ATOM     18  O   UNL     1     -26.274  19.129  58.681  1.00  0.00    -0.508 OA
ATOM     19  H   UNL     1     -26.197  19.938  59.287  1.00  0.00     0.293 HD
ENDBRANCH  15  18
ENDBRANCH   1  12
BRANCH  11  20
ATOM     20  C   UNL     1     -35.843  14.390  57.795  1.00  0.00     0.188 C 
ATOM     21  C   UNL     1     -36.231  12.941  57.403  1.00  0.00     0.179 C 
ATOM     22  O   UNL     1     -35.109  14.411  59.009  1.00  0.00    -0.362 OA
ATOM     23  C   UNL     1     -36.978  12.250  58.568  1.00  0.00     0.177 C 
ATOM     24  C   UNL     1     -35.910  13.960  60.090  1.00  0.00     0.176 C 
ATOM     25  C   UNL     1     -36.265  12.462  59.917  1.00  0.00     0.177 C 
BRANCH  21  26
ATOM     26  O   UNL     1     -35.122  12.186  56.978  1.00  0.00    -0.387 OA
ATOM     27  H   UNL     1     -35.332  11.227  57.108  1.00  0.00     0.211 HD
ENDBRANCH  21  26
BRANCH  23  28
ATOM     28  O   UNL     1     -37.125  10.875  58.318  1.00  0.00    -0.387 OA
ATOM     29  H   UNL     1     -37.736  10.522  59.016  1.00  0.00     0.211 HD
ENDBRANCH  23  28
BRANCH  24  30
ATOM     30  C   UNL     1     -35.153  14.226  61.400  1.00  0.00     0.191 C 
BRANCH  30  31
ATOM     31  O   UNL     1     -34.133  15.170  61.211  1.00  0.00    -0.394 OA
ATOM     32  H   UNL     1     -33.960  15.210  60.233  1.00  0.00     0.210 HD
ENDBRANCH  30  31
ENDBRANCH  24  30
BRANCH  25  33
ATOM     33  O   UNL     1     -35.108  11.666  59.981  1.00  0.00    -0.388 OA
ATOM     34  H   UNL     1     -34.904  11.367  59.056  1.00  0.00     0.211 HD
ENDBRANCH  25  33
ENDBRANCH  11  20
BRANCH  10  35
ATOM     35  O   UNL     1     -36.796  14.421  55.092  1.00  0.00    -0.507 OA
ATOM     36  H   UNL     1     -37.637  14.666  55.602  1.00  0.00     0.293 HD
ENDBRANCH  10  35
TORSDOF 9
ENDMDL
MODEL 5
REMARK VINA RESULT:    -2.806      1.756      3.101
REMARK INTER + INTRA:          -4.596
REMARK INTER:                  -4.138
REMARK INTRA:                  -0.457
REMARK UNBOUND:                -0.806
REMARK SMILES O=c1c(-c2ccc(O)cc2)coc2c([C@@H]3O[C@H](CO)[C@H](O)[C@H](O)[C@@H]3O)c(O)ccc12
REMARK SMILES IDX 3 1 11 2 12 3 13 4 30 5 2 6 1 7 29 8 28 9 26 10 14 11 4 12
REMARK SMILES IDX 5 13 6 14 7 15 10 16 9 17 8 18 15 20 24 21 16 22 22 23 17 24
REMARK SMILES IDX 20 25 25 26 23 28 18 30 19 31 21 33 27 35
REMARK H PARENT 8 19 25 27 23 29 19 32 21 34 27 36
REMARK Flexibility Score: inf
ROOT
ATOM      1  C   UNL     1     -29.909  18.313  56.992  1.00  0.00     0.065 A 
ATOM      2  C   UNL     1     -30.248  17.381  56.001  1.00  0.00     0.208 A 
ATOM      3  O   UNL     1     -31.193  16.474  56.213  1.00  0.00    -0.463 OA
ATOM      4  C   UNL     1     -31.876  16.383  57.352  1.00  0.00     0.147 A 
ATOM      5  C   UNL     1     -31.604  17.291  58.403  1.00  0.00     0.066 A 
ATOM      6  C   UNL     1     -30.609  18.268  58.210  1.00  0.00     0.200 A 
ATOM      7  O   UNL     1     -30.361  19.111  59.117  1.00  0.00    -0.288 OA
ATOM      8  C   UNL     1     -32.334  17.209  59.598  1.00  0.00     0.020 A 
ATOM      9  C   UNL     1     -33.326  16.244  59.749  1.00  0.00     0.047 A 
ATOM     10  C   UNL     1     -33.607  15.341  58.716  1.00  0.00     0.125 A 
ATOM     11  C   UNL     1     -32.871  15.385  57.511  1.00  0.00     0.069 A 
ENDROOT
BRANCH   1  12
ATOM     12  C   UNL     1     -28.841  19.313  56.734  1.00  0.00    -0.011 A 
ATOM     13  C   UNL     1     -28.795  19.999  55.508  1.00  0.00     0.013 A 
ATOM     14  C   UNL     1     -27.785  20.934  55.258  1.00  0.00     0.047 A 
ATOM     15  C   UNL     1     -26.809  21.191  56.230  1.00  0.00     0.115 A 
ATOM     16  C   UNL     1     -27.853  19.571  57.699  1.00  0.00     0.013 A 
ATOM     17  C   UNL     1     -26.845  20.507  57.448  1.00  0.00     0.047 A 
BRANCH  15  18
ATOM     18  O   UNL     1     -25.798  22.121  55.993  1.00  0.00    -0.508 OA
ATOM     19  H   UNL     1     -26.009  23.079  55.738  1.00  0.00     0.293 HD
ENDBRANCH  15  18
ENDBRANCH   1  12
BRANCH  11  20
ATOM     20  C   UNL     1     -33.214  14.408  56.391  1.00  0.00     0.188 C 
ATOM     21  C   UNL     1     -32.341  13.130  56.492  1.00  0.00     0.179 C 
ATOM     22  O   UNL     1     -34.596  14.084  56.409  1.00  0.00    -0.362 OA
ATOM     23  C   UNL     1     -32.736  12.120  55.389  1.00  0.00     0.177 C 
ATOM     24  C   UNL     1     -34.951  13.328  55.262  1.00  0.00     0.176 C 
ATOM     25  C   UNL     1     -34.263  11.941  55.290  1.00  0.00     0.177 C 
BRANCH  21  26
ATOM     26  O   UNL     1     -32.394  12.545  57.771  1.00  0.00    -0.387 OA
ATOM     27  H   UNL     1     -33.150  12.951  58.266  1.00  0.00     0.211 HD
ENDBRANCH  21  26
BRANCH  23  28
ATOM     28  O   UNL     1     -32.124  10.875  55.612  1.00  0.00    -0.387 OA
ATOM     29  H   UNL     1     -31.372  11.035  56.240  1.00  0.00     0.211 HD
ENDBRANCH  23  28
BRANCH  24  30
ATOM     30  C   UNL     1     -36.482  13.212  55.211  1.00  0.00     0.191 C 
BRANCH  30  31
ATOM     31  O   UNL     1     -37.092  14.271  55.901  1.00  0.00    -0.394 OA
ATOM     32  H   UNL     1     -36.358  14.835  56.262  1.00  0.00     0.210 HD
ENDBRANCH  30  31
ENDBRANCH  24  30
BRANCH  25  33
ATOM     33  O   UNL     1     -34.730  11.175  56.374  1.00  0.00    -0.388 OA
ATOM     34  H   UNL     1     -33.959  11.023  56.980  1.00  0.00     0.211 HD
ENDBRANCH  25  33
ENDBRANCH  11  20
BRANCH  10  35
ATOM     35  O   UNL     1     -34.624  14.401  58.887  1.00  0.00    -0.507 OA
ATOM     36  H   UNL     1     -34.570  13.477  58.474  1.00  0.00     0.293 HD
ENDBRANCH  10  35
TORSDOF 9
ENDMDL
MODEL 6
REMARK VINA RESULT:    -2.587      2.113      8.599
REMARK INTER + INTRA:          -4.301
REMARK INTER:                  -3.726
REMARK INTRA:                  -0.575
REMARK UNBOUND:                -0.806
REMARK SMILES O=c1c(-c2ccc(O)cc2)coc2c([C@@H]3O[C@H](CO)[C@H](O)[C@H](O)[C@@H]3O)c(O)ccc12
REMARK SMILES IDX 3 1 11 2 12 3 13 4 30 5 2 6 1 7 29 8 28 9 26 10 14 11 4 12
REMARK SMILES IDX 5 13 6 14 7 15 10 16 9 17 8 18 15 20 24 21 16 22 22 23 17 24
REMARK SMILES IDX 20 25 25 26 23 28 18 30 19 31 21 33 27 35
REMARK H PARENT 8 19 25 27 23 29 19 32 21 34 27 36
REMARK Flexibility Score: inf
ROOT
ATOM      1  C   UNL     1     -33.054  14.820  56.841  1.00  0.00     0.065 A 
ATOM      2  C   UNL     1     -33.411  16.162  57.026  1.00  0.00     0.208 A 
ATOM      3  O   UNL     1     -32.484  17.103  57.158  1.00  0.00    -0.463 OA
ATOM      4  C   UNL     1     -31.178  16.850  57.124  1.00  0.00     0.147 A 
ATOM      5  C   UNL     1     -30.729  15.522  56.932  1.00  0.00     0.066 A 
ATOM      6  C   UNL     1     -31.686  14.501  56.785  1.00  0.00     0.200 A 
ATOM      7  O   UNL     1     -31.320  13.309  56.584  1.00  0.00    -0.288 OA
ATOM      8  C   UNL     1     -29.353  15.255  56.878  1.00  0.00     0.020 A 
ATOM      9  C   UNL     1     -28.432  16.291  57.005  1.00  0.00     0.047 A 
ATOM     10  C   UNL     1     -28.862  17.610  57.194  1.00  0.00     0.125 A 
ATOM     11  C   UNL     1     -30.242  17.905  57.277  1.00  0.00     0.069 A 
ENDROOT
BRANCH   1  12
ATOM     12  C   UNL     1     -34.111  13.785  56.704  1.00  0.00    -0.011 A 
ATOM     13  C   UNL     1     -34.451  13.284  55.436  1.00  0.00     0.013 A 
ATOM     14  C   UNL     1     -35.452  12.316  55.304  1.00  0.00     0.047 A 
ATOM     15  C   UNL     1     -36.126  11.841  56.436  1.00  0.00     0.115 A 
ATOM     16  C   UNL     1     -34.798  13.309  57.835  1.00  0.00     0.013 A 
ATOM     17  C   UNL     1     -35.798  12.341  57.700  1.00  0.00     0.047 A 
BRANCH  15  18
ATOM     18  O   UNL     1     -37.125  10.877  56.316  1.00  0.00    -0.508 OA
ATOM     19  H   UNL     1     -38.106  11.131  56.289  1.00  0.00     0.293 HD
ENDBRANCH  15  18
ENDBRANCH   1  12
BRANCH  11  20
ATOM     20  C   UNL     1     -30.686  19.354  57.455  1.00  0.00     0.188 C 
ATOM     21  C   UNL     1     -30.476  19.814  58.921  1.00  0.00     0.179 C 
ATOM     22  O   UNL     1     -30.003  20.207  56.549  1.00  0.00    -0.362 OA
ATOM     23  C   UNL     1     -30.873  21.300  59.080  1.00  0.00     0.177 C 
ATOM     24  C   UNL     1     -30.547  21.516  56.584  1.00  0.00     0.176 C 
ATOM     25  C   UNL     1     -30.284  22.179  57.960  1.00  0.00     0.177 C 
BRANCH  21  26
ATOM     26  O   UNL     1     -29.164  19.578  59.374  1.00  0.00    -0.387 OA
ATOM     27  H   UNL     1     -28.849  20.389  59.847  1.00  0.00     0.211 HD
ENDBRANCH  21  26
BRANCH  23  28
ATOM     28  O   UNL     1     -30.469  21.792  60.333  1.00  0.00    -0.387 OA
ATOM     29  H   UNL     1     -31.097  21.415  61.003  1.00  0.00     0.211 HD
ENDBRANCH  23  28
BRANCH  24  30
ATOM     30  C   UNL     1     -29.939  22.326  55.429  1.00  0.00     0.191 C 
BRANCH  30  31
ATOM     31  O   UNL     1     -29.512  21.483  54.391  1.00  0.00    -0.394 OA
ATOM     32  H   UNL     1     -30.239  20.822  54.245  1.00  0.00     0.210 HD
ENDBRANCH  30  31
ENDBRANCH  24  30
BRANCH  25  33
ATOM     33  O   UNL     1     -28.905  22.364  58.168  1.00  0.00    -0.388 OA
ATOM     34  H   UNL     1     -28.498  22.562  57.284  1.00  0.00     0.211 HD
ENDBRANCH  25  33
ENDBRANCH  11  20
BRANCH  10  35
ATOM     35  O   UNL     1     -27.917  18.631  57.294  1.00  0.00    -0.507 OA
ATOM     36  H   UNL     1     -28.089  19.557  56.918  1.00  0.00     0.293 HD
ENDBRANCH  10  35
TORSDOF 9
ENDMDL
MODEL 7
REMARK VINA RESULT:    -2.417      2.403      8.691
REMARK INTER + INTRA:          -4.070
REMARK INTER:                  -3.322
REMARK INTRA:                  -0.749
REMARK UNBOUND:                -0.806
REMARK SMILES O=c1c(-c2ccc(O)cc2)coc2c([C@@H]3O[C@H](CO)[C@H](O)[C@H](O)[C@@H]3O)c(O)ccc12
REMARK SMILES IDX 3 1 11 2 12 3 13 4 30 5 2 6 1 7 29 8 28 9 26 10 14 11 4 12
REMARK SMILES IDX 5 13 6 14 7 15 10 16 9 17 8 18 15 20 24 21 16 22 22 23 17 24
REMARK SMILES IDX 20 25 25 26 23 28 18 30 19 31 21 33 27 35
REMARK H PARENT 8 19 25 27 23 29 19 32 21 34 27 36
REMARK Flexibility Score: inf
ROOT
ATOM      1  C   UNL     1     -33.222  15.000  57.281  1.00  0.00     0.065 A 
ATOM      2  C   UNL     1     -32.513  15.173  56.084  1.00  0.00     0.208 A 
ATOM      3  O   UNL     1     -31.603  16.132  55.963  1.00  0.00    -0.463 OA
ATOM      4  C   UNL     1     -31.301  16.980  56.943  1.00  0.00     0.147 A 
ATOM      5  C   UNL     1     -31.962  16.870  58.189  1.00  0.00     0.066 A 
ATOM      6  C   UNL     1     -32.931  15.862  58.353  1.00  0.00     0.200 A 
ATOM      7  O   UNL     1     -33.520  15.719  59.461  1.00  0.00    -0.288 OA
ATOM      8  C   UNL     1     -31.633  17.751  59.230  1.00  0.00     0.020 A 
ATOM      9  C   UNL     1     -30.655  18.724  59.042  1.00  0.00     0.047 A 
ATOM     10  C   UNL     1     -29.991  18.842  57.815  1.00  0.00     0.125 A 
ATOM     11  C   UNL     1     -30.320  17.984  56.741  1.00  0.00     0.069 A 
ENDROOT
BRANCH   1  12
ATOM     12  C   UNL     1     -34.241  13.925  57.389  1.00  0.00    -0.011 A 
ATOM     13  C   UNL     1     -33.855  12.614  57.719  1.00  0.00     0.013 A 
ATOM     14  C   UNL     1     -34.812  11.598  57.813  1.00  0.00     0.047 A 
ATOM     15  C   UNL     1     -36.164  11.880  57.574  1.00  0.00     0.115 A 
ATOM     16  C   UNL     1     -35.598  14.197  57.144  1.00  0.00     0.013 A 
ATOM     17  C   UNL     1     -36.552  13.180  57.239  1.00  0.00     0.047 A 
BRANCH  15  18
ATOM     18  O   UNL     1     -37.125  10.876  57.665  1.00  0.00    -0.508 OA
ATOM     19  H   UNL     1     -36.927   9.926  57.372  1.00  0.00     0.293 HD
ENDBRANCH  15  18
ENDBRANCH   1  12
BRANCH  11  20
ATOM     20  C   UNL     1     -29.563  18.114  55.423  1.00  0.00     0.188 C 
ATOM     21  C   UNL     1     -30.092  19.321  54.604  1.00  0.00     0.179 C 
ATOM     22  O   UNL     1     -28.166  18.226  55.651  1.00  0.00    -0.362 OA
ATOM     23  C   UNL     1     -29.281  19.481  53.298  1.00  0.00     0.177 C 
ATOM     24  C   UNL     1     -27.449  18.159  54.429  1.00  0.00     0.176 C 
ATOM     25  C   UNL     1     -27.763  19.392  53.545  1.00  0.00     0.177 C 
BRANCH  21  26
ATOM     26  O   UNL     1     -30.106  20.512  55.355  1.00  0.00    -0.387 OA
ATOM     27  H   UNL     1     -29.174  20.729  55.608  1.00  0.00     0.211 HD
ENDBRANCH  21  26
BRANCH  23  28
ATOM     28  O   UNL     1     -29.590  20.698  52.667  1.00  0.00    -0.387 OA
ATOM     29  H   UNL     1     -29.608  20.517  51.691  1.00  0.00     0.211 HD
ENDBRANCH  23  28
BRANCH  24  30
ATOM     30  C   UNL     1     -25.951  18.045  54.750  1.00  0.00     0.191 C 
BRANCH  30  31
ATOM     31  O   UNL     1     -25.739  17.926  56.132  1.00  0.00    -0.394 OA
ATOM     32  H   UNL     1     -24.971  18.516  56.353  1.00  0.00     0.210 HD
ENDBRANCH  30  31
ENDBRANCH  24  30
BRANCH  25  33
ATOM     33  O   UNL     1     -27.304  20.573  54.158  1.00  0.00    -0.388 OA
ATOM     34  H   UNL     1     -26.327  20.471  54.299  1.00  0.00     0.211 HD
ENDBRANCH  25  33
ENDBRANCH  11  20
BRANCH  10  35
ATOM     35  O   UNL     1     -28.998  19.811  57.663  1.00  0.00    -0.507 OA
ATOM     36  H   UNL     1     -29.143  20.638  57.096  1.00  0.00     0.293 HD
ENDBRANCH  10  35
TORSDOF 9
ENDMDL
MODEL 8
REMARK VINA RESULT:    -2.409      2.243      9.173
REMARK INTER + INTRA:          -4.060
REMARK INTER:                  -3.803
REMARK INTRA:                  -0.257
REMARK UNBOUND:                -0.806
REMARK SMILES O=c1c(-c2ccc(O)cc2)coc2c([C@@H]3O[C@H](CO)[C@H](O)[C@H](O)[C@@H]3O)c(O)ccc12
REMARK SMILES IDX 3 1 11 2 12 3 13 4 30 5 2 6 1 7 29 8 28 9 26 10 14 11 4 12
REMARK SMILES IDX 5 13 6 14 7 15 10 16 9 17 8 18 15 20 24 21 16 22 22 23 17 24
REMARK SMILES IDX 20 25 25 26 23 28 18 30 19 31 21 33 27 35
REMARK H PARENT 8 19 25 27 23 29 19 32 21 34 27 36
REMARK Flexibility Score: inf
ROOT
ATOM      1  C   UNL     1     -31.470  15.676  56.744  1.00  0.00     0.065 A 
ATOM      2  C   UNL     1     -30.324  16.073  56.043  1.00  0.00     0.208 A 
ATOM      3  O   UNL     1     -29.637  17.147  56.413  1.00  0.00    -0.463 OA
ATOM      4  C   UNL     1     -29.974  17.908  57.452  1.00  0.00     0.147 A 
ATOM      5  C   UNL     1     -31.114  17.573  58.221  1.00  0.00     0.066 A 
ATOM      6  C   UNL     1     -31.863  16.438  57.858  1.00  0.00     0.200 A 
ATOM      7  O   UNL     1     -32.869  16.095  58.540  1.00  0.00    -0.288 OA
ATOM      8  C   UNL     1     -31.462  18.362  59.327  1.00  0.00     0.020 A 
ATOM      9  C   UNL     1     -30.687  19.466  59.672  1.00  0.00     0.047 A 
ATOM     10  C   UNL     1     -29.556  19.808  58.921  1.00  0.00     0.125 A 
ATOM     11  C   UNL     1     -29.196  19.045  57.787  1.00  0.00     0.069 A 
ENDROOT
BRANCH   1  12
ATOM     12  C   UNL     1     -32.227  14.475  56.305  1.00  0.00    -0.011 A 
ATOM     13  C   UNL     1     -33.444  14.617  55.617  1.00  0.00     0.013 A 
ATOM     14  C   UNL     1     -34.163  13.488  55.211  1.00  0.00     0.047 A 
ATOM     15  C   UNL     1     -33.675  12.204  55.492  1.00  0.00     0.115 A 
ATOM     16  C   UNL     1     -31.749  13.184  56.589  1.00  0.00     0.013 A 
ATOM     17  C   UNL     1     -32.469  12.057  56.182  1.00  0.00     0.047 A 
BRANCH  15  18
ATOM     18  O   UNL     1     -34.382  11.073  55.092  1.00  0.00    -0.508 OA
ATOM     19  H   UNL     1     -34.134  10.562  54.252  1.00  0.00     0.293 HD
ENDBRANCH  15  18
ENDBRANCH   1  12
BRANCH  11  20
ATOM     20  C   UNL     1     -27.943  19.421  57.002  1.00  0.00     0.188 C 
ATOM     21  C   UNL     1     -28.266  19.563  55.491  1.00  0.00     0.179 C 
ATOM     22  O   UNL     1     -27.365  20.613  57.513  1.00  0.00    -0.362 OA
ATOM     23  C   UNL     1     -27.004  20.002  54.711  1.00  0.00     0.177 C 
ATOM     24  C   UNL     1     -26.105  20.860  56.910  1.00  0.00     0.176 C 
ATOM     25  C   UNL     1     -26.275  21.169  55.402  1.00  0.00     0.177 C 
BRANCH  21  26
ATOM     26  O   UNL     1     -29.349  20.430  55.254  1.00  0.00    -0.387 OA
ATOM     27  H   UNL     1     -29.451  21.021  56.042  1.00  0.00     0.211 HD
ENDBRANCH  21  26
BRANCH  23  28
ATOM     28  O   UNL     1     -27.335  20.359  53.393  1.00  0.00    -0.387 OA
ATOM     29  H   UNL     1     -26.536  20.166  52.836  1.00  0.00     0.211 HD
ENDBRANCH  23  28
BRANCH  24  30
ATOM     30  C   UNL     1     -25.424  22.013  57.663  1.00  0.00     0.191 C 
BRANCH  30  31
ATOM     31  O   UNL     1     -26.272  23.128  57.752  1.00  0.00    -0.394 OA
ATOM     32  H   UNL     1     -25.696  23.907  57.969  1.00  0.00     0.210 HD
ENDBRANCH  30  31
ENDBRANCH  24  30
BRANCH  25  33
ATOM     33  O   UNL     1     -26.995  22.364  55.217  1.00  0.00    -0.388 OA
ATOM     34  H   UNL     1     -27.874  22.121  54.827  1.00  0.00     0.211 HD
ENDBRANCH  25  33
ENDBRANCH  11  20
BRANCH  10  35
ATOM     35  O   UNL     1     -28.785  20.906  59.305  1.00  0.00    -0.507 OA
ATOM     36  H   UNL     1     -29.002  21.447  60.134  1.00  0.00     0.293 HD
ENDBRANCH  10  35
TORSDOF 9
ENDMDL
