MODEL 1
REMARK VINA RESULT:    -4.766      0.000      0.000
REMARK INTER + INTRA:          -5.296
REMARK INTER:                  -5.184
REMARK INTRA:                  -0.112
REMARK UNBOUND:                -0.112
REMARK SMILES C[C@H]1[C@@H](C)CC[C@@]2(C(=O)[O-])CC[C@@]3(C)C(=CC[C@@H]4[C@@]5(C)CC[C@@H](O)C(C)(C)[C@H]5CC[C@]43C)[C@@H]12
REMARK SMILES IDX 7 1 6 2 11 3 33 4 5 5 12 6 15 7 2 8 3 9 13 10 16 11 1 12
REMARK SMILES IDX 4 13 14 14 31 15 17 16 18 17 30 18 32 19 19 20 29 21 28 22
REMARK SMILES IDX 21 23 20 24 25 25 22 26 23 27 26 28 27 29 8 30 9 31 10 32
REMARK SMILES IDX 24 33
REMARK H PARENT 24 34
REMARK Flexibility Score: inf
ROOT
ATOM      1  C   UNL     1      41.371  12.586  -4.847  1.00  0.00     0.017 C 
ATOM      2  C   UNL     1      41.984  12.571  -3.411  1.00  0.00     0.014 C 
ATOM      3  C   UNL     1      41.377  11.131  -5.373  1.00  0.00     0.014 C 
ATOM      4  C   UNL     1      39.907  13.180  -4.835  1.00  0.00     0.030 C 
ATOM      5  C   UNL     1      41.648  13.814  -2.580  1.00  0.00     0.004 C 
ATOM      6  C   UNL     1      40.625  10.954  -6.705  1.00  0.00     0.013 C 
ATOM      7  C   UNL     1      38.989  12.721  -5.996  1.00  0.00    -0.063 C 
ATOM      8  C   UNL     1      39.219  13.286  -3.438  1.00  0.00    -0.003 C 
ATOM      9  C   UNL     1      40.128  14.117  -2.469  1.00  0.00    -0.011 C 
ATOM     10  C   UNL     1      39.103  11.308  -6.653  1.00  0.00    -0.006 C 
ATOM     11  C   UNL     1      38.270  13.718  -6.575  1.00  0.00    -0.027 C 
ATOM     12  C   UNL     1      38.724  11.947  -2.864  1.00  0.00     0.008 C 
ATOM     13  C   UNL     1      39.658  14.108  -1.005  1.00  0.00     0.008 C 
ATOM     14  C   UNL     1      38.426  10.242  -5.737  1.00  0.00     0.017 C 
ATOM     15  C   UNL     1      38.404  11.258  -8.135  1.00  0.00    -0.020 C 
ATOM     16  C   UNL     1      37.842  13.723  -8.010  1.00  0.00     0.032 C 
ATOM     17  C   UNL     1      38.599  12.655  -8.829  1.00  0.00     0.006 C 
ATOM     18  C   UNL     1      39.028  10.145  -9.033  1.00  0.00     0.008 C 
ATOM     19  C   UNL     1      36.875  10.928  -7.993  1.00  0.00     0.012 C 
ATOM     20  C   UNL     1      38.383  12.795 -10.411  1.00  0.00    -0.025 C 
ATOM     21  C   UNL     1      38.611  10.208 -10.503  1.00  0.00     0.005 C 
ATOM     22  C   UNL     1      38.951  11.549 -11.207  1.00  0.00     0.003 C 
ATOM     23  C   UNL     1      39.100  14.111 -10.881  1.00  0.00     0.010 C 
ATOM     24  C   UNL     1      36.875  12.966 -10.796  1.00  0.00     0.012 C 
ATOM     25  C   UNL     1      40.413  11.712 -11.819  1.00  0.00    -0.006 C 
ATOM     26  C   UNL     1      39.450  14.116 -12.369  1.00  0.00     0.033 C 
ATOM     27  C   UNL     1      40.429  12.983 -12.761  1.00  0.00     0.120 C 
ATOM     28  C   UNL     1      40.759  10.490 -12.717  1.00  0.00     0.014 C 
ATOM     29  C   UNL     1      41.539  11.793 -10.749  1.00  0.00     0.014 C 
ENDROOT
BRANCH   1  30
ATOM     30  C   UNL     1      42.291  13.444  -5.733  1.00  0.00     0.048 C 
ATOM     31  O   UNL     1      41.842  14.005  -6.770  1.00  0.00    -0.550 OA
ATOM     32  O   UNL     1      43.611  13.699  -5.373  1.00  0.00    -0.550 OA
ENDBRANCH   1  30
BRANCH  27  33
ATOM     33  O   UNL     1      41.729  13.487 -12.959  1.00  0.00    -0.393 OA
ATOM     34  H   UNL     1      41.718  14.047 -13.780  1.00  0.00     0.210 HD
ENDBRANCH  27  33
TORSDOF 2
ENDMDL
