MODEL 1
REMARK VINA RESULT:    -3.237      0.000      0.000
REMARK INTER + INTRA:          -5.237
REMARK INTER:                  -4.941
REMARK INTRA:                  -0.297
REMARK UNBOUND:                -0.297
REMARK SMILES O=C([O-])CCCCCCCCC(=O)[O-]
REMARK SMILES IDX 7 1 6 2 5 3 4 4 2 5 1 6 3 7 8 8 9 9 10 10 11 11 12 12 13 13
REMARK SMILES IDX 14 14
REMARK H PARENT
REMARK Flexibility Score: inf
ROOT
ATOM      1  C   UNL     1       4.197   4.112   3.335  1.00  0.00     0.000 C 
ENDROOT
BRANCH   1   2
ATOM      2  C   UNL     1       4.171   5.162   2.213  1.00  0.00     0.000 C 
BRANCH   2   3
ATOM      3  C   UNL     1       5.574   5.652   1.826  1.00  0.00     0.006 C 
BRANCH   3   4
ATOM      4  C   UNL     1       6.008   5.058   0.482  1.00  0.00     0.053 C 
BRANCH   4   5
ATOM      5  C   UNL     1       7.492   5.163   0.317  1.00  0.00     0.041 C 
ATOM      6  O   UNL     1       8.103   6.185   0.723  1.00  0.00    -0.550 OA
ATOM      7  O   UNL     1       8.192   4.153  -0.331  1.00  0.00    -0.550 OA
ENDBRANCH   4   5
ENDBRANCH   3   4
ENDBRANCH   2   3
ENDBRANCH   1   2
BRANCH   1   8
ATOM      8  C   UNL     1       2.921   3.254   3.372  1.00  0.00     0.000 C 
BRANCH   8   9
ATOM      9  C   UNL     1       1.803   3.893   4.213  1.00  0.00     0.000 C 
BRANCH   9  10
ATOM     10  C   UNL     1       1.578   3.166   5.550  1.00  0.00     0.006 C 
BRANCH  10  11
ATOM     11  C   UNL     1       1.960   1.681   5.473  1.00  0.00     0.053 C 
BRANCH  11  12
ATOM     12  C   UNL     1       0.786   0.789   5.734  1.00  0.00     0.041 C 
ATOM     13  O   UNL     1       0.640  -0.276   5.075  1.00  0.00    -0.550 OA
ATOM     14  O   UNL     1      -0.132   1.114   6.725  1.00  0.00    -0.550 OA
ENDBRANCH  11  12
ENDBRANCH  10  11
ENDBRANCH   9  10
ENDBRANCH   8   9
ENDBRANCH   1   8
TORSDOF 9
ENDMDL
MODEL 2
REMARK VINA RESULT:    -3.182      1.806      2.067
REMARK INTER + INTRA:          -5.152
REMARK INTER:                  -4.805
REMARK INTRA:                  -0.347
REMARK UNBOUND:                -0.297
REMARK SMILES O=C([O-])CCCCCCCCC(=O)[O-]
REMARK SMILES IDX 7 1 6 2 5 3 4 4 2 5 1 6 3 7 8 8 9 9 10 10 11 11 12 12 13 13
REMARK SMILES IDX 14 14
REMARK H PARENT
REMARK Flexibility Score: inf
ROOT
ATOM      1  C   UNL     1       3.938   4.693   3.200  1.00  0.00     0.000 C 
ENDROOT
BRANCH   1   2
ATOM      2  C   UNL     1       4.377   5.105   1.785  1.00  0.00     0.000 C 
BRANCH   2   3
ATOM      3  C   UNL     1       5.840   5.568   1.729  1.00  0.00     0.006 C 
BRANCH   3   4
ATOM      4  C   UNL     1       6.456   5.269   0.359  1.00  0.00     0.053 C 
BRANCH   4   5
ATOM      5  C   UNL     1       7.917   4.973   0.493  1.00  0.00     0.041 C 
ATOM      6  O   UNL     1       8.477   4.177  -0.305  1.00  0.00    -0.550 OA
ATOM      7  O   UNL     1       8.648   5.537   1.531  1.00  0.00    -0.550 OA
ENDBRANCH   4   5
ENDBRANCH   3   4
ENDBRANCH   2   3
ENDBRANCH   1   2
BRANCH   1   8
ATOM      8  C   UNL     1       3.307   3.291   3.238  1.00  0.00     0.000 C 
BRANCH   8   9
ATOM      9  C   UNL     1       2.897   2.865   4.658  1.00  0.00     0.000 C 
BRANCH   9  10
ATOM     10  C   UNL     1       3.996   3.138   5.699  1.00  0.00     0.006 C 
BRANCH  10  11
ATOM     11  C   UNL     1       4.580   1.841   6.277  1.00  0.00     0.053 C 
BRANCH  11  12
ATOM     12  C   UNL     1       3.572   1.086   7.086  1.00  0.00     0.041 C 
ATOM     13  O   UNL     1       3.466  -0.163   6.962  1.00  0.00    -0.550 OA
ATOM     14  O   UNL     1       2.768   1.757   8.000  1.00  0.00    -0.550 OA
ENDBRANCH  11  12
ENDBRANCH  10  11
ENDBRANCH   9  10
ENDBRANCH   8   9
ENDBRANCH   1   8
TORSDOF 9
ENDMDL
MODEL 3
REMARK VINA RESULT:    -3.176      2.012      7.296
REMARK INTER + INTRA:          -5.144
REMARK INTER:                  -4.723
REMARK INTRA:                  -0.421
REMARK UNBOUND:                -0.297
REMARK SMILES O=C([O-])CCCCCCCCC(=O)[O-]
REMARK SMILES IDX 7 1 6 2 5 3 4 4 2 5 1 6 3 7 8 8 9 9 10 10 11 11 12 12 13 13
REMARK SMILES IDX 14 14
REMARK H PARENT
REMARK Flexibility Score: inf
ROOT
ATOM      1  C   UNL     1       4.262   4.378   3.081  1.00  0.00     0.000 C 
ENDROOT
BRANCH   1   2
ATOM      2  C   UNL     1       3.141   3.336   3.222  1.00  0.00     0.000 C 
BRANCH   2   3
ATOM      3  C   UNL     1       2.733   3.098   4.684  1.00  0.00     0.006 C 
BRANCH   3   4
ATOM      4  C   UNL     1       3.954   3.146   5.608  1.00  0.00     0.053 C 
BRANCH   4   5
ATOM      5  C   UNL     1       4.072   1.875   6.389  1.00  0.00     0.041 C 
ATOM      6  O   UNL     1       5.139   1.604   6.999  1.00  0.00    -0.550 OA
ATOM      7  O   UNL     1       3.020   0.968   6.402  1.00  0.00    -0.550 OA
ENDBRANCH   4   5
ENDBRANCH   3   4
ENDBRANCH   2   3
ENDBRANCH   1   2
BRANCH   1   8
ATOM      8  C   UNL     1       3.760   5.712   2.502  1.00  0.00     0.000 C 
BRANCH   8   9
ATOM      9  C   UNL     1       4.645   6.230   1.356  1.00  0.00     0.000 C 
BRANCH   9  10
ATOM     10  C   UNL     1       5.720   5.214   0.932  1.00  0.00     0.006 C 
BRANCH  10  11
ATOM     11  C   UNL     1       7.063   5.888   0.622  1.00  0.00     0.053 C 
BRANCH  11  12
ATOM     12  C   UNL     1       8.183   4.896   0.553  1.00  0.00     0.041 C 
ATOM     13  O   UNL     1       8.302   4.144  -0.451  1.00  0.00    -0.550 OA
ATOM     14  O   UNL     1       9.114   4.822   1.581  1.00  0.00    -0.550 OA
ENDBRANCH  11  12
ENDBRANCH  10  11
ENDBRANCH   9  10
ENDBRANCH   8   9
ENDBRANCH   1   8
TORSDOF 9
ENDMDL
MODEL 4
REMARK VINA RESULT:    -3.152      1.824      2.946
REMARK INTER + INTRA:          -5.108
REMARK INTER:                  -4.597
REMARK INTRA:                  -0.511
REMARK UNBOUND:                -0.297
REMARK SMILES O=C([O-])CCCCCCCCC(=O)[O-]
REMARK SMILES IDX 7 1 6 2 5 3 4 4 2 5 1 6 3 7 8 8 9 9 10 10 11 11 12 12 13 13
REMARK SMILES IDX 14 14
REMARK H PARENT
REMARK Flexibility Score: inf
ROOT
ATOM      1  C   UNL     1       5.252   6.257   1.287  1.00  0.00     0.000 C 
ENDROOT
BRANCH   1   2
ATOM      2  C   UNL     1       5.884   5.136   0.446  1.00  0.00     0.000 C 
BRANCH   2   3
ATOM      3  C   UNL     1       7.417   5.128   0.523  1.00  0.00     0.006 C 
BRANCH   3   4
ATOM      4  C   UNL     1       7.902   5.737   1.843  1.00  0.00     0.053 C 
BRANCH   4   5
ATOM      5  C   UNL     1       9.357   5.454   2.049  1.00  0.00     0.041 C 
ATOM      6  O   UNL     1       9.837   4.338   1.720  1.00  0.00    -0.550 OA
ATOM      7  O   UNL     1      10.172   6.405   2.649  1.00  0.00    -0.550 OA
ENDBRANCH   4   5
ENDBRANCH   3   4
ENDBRANCH   2   3
ENDBRANCH   1   2
BRANCH   1   8
ATOM      8  C   UNL     1       3.998   5.792   2.047  1.00  0.00     0.000 C 
BRANCH   8   9
ATOM      9  C   UNL     1       4.327   4.822   3.194  1.00  0.00     0.000 C 
BRANCH   9  10
ATOM     10  C   UNL     1       3.568   3.488   3.079  1.00  0.00     0.006 C 
BRANCH  10  11
ATOM     11  C   UNL     1       2.287   3.477   3.923  1.00  0.00     0.053 C 
BRANCH  11  12
ATOM     12  C   UNL     1       2.402   2.559   5.101  1.00  0.00     0.041 C 
ATOM     13  O   UNL     1       3.181   2.840   6.050  1.00  0.00    -0.550 OA
ATOM     14  O   UNL     1       1.627   1.407   5.166  1.00  0.00    -0.550 OA
ENDBRANCH  11  12
ENDBRANCH  10  11
ENDBRANCH   9  10
ENDBRANCH   8   9
ENDBRANCH   1   8
TORSDOF 9
ENDMDL
MODEL 5
REMARK VINA RESULT:    -3.149      8.977     11.311
REMARK INTER + INTRA:          -5.103
REMARK INTER:                  -4.363
REMARK INTRA:                  -0.740
REMARK UNBOUND:                -0.297
REMARK SMILES O=C([O-])CCCCCCCCC(=O)[O-]
REMARK SMILES IDX 7 1 6 2 5 3 4 4 2 5 1 6 3 7 8 8 9 9 10 10 11 11 12 12 13 13
REMARK SMILES IDX 14 14
REMARK H PARENT
REMARK Flexibility Score: inf
ROOT
ATOM      1  C   UNL     1       6.336  -1.706  -6.906  1.00  0.00     0.000 C 
ENDROOT
BRANCH   1   2
ATOM      2  C   UNL     1       7.217  -1.785  -5.649  1.00  0.00     0.000 C 
BRANCH   2   3
ATOM      3  C   UNL     1       6.592  -2.642  -4.539  1.00  0.00     0.006 C 
BRANCH   3   4
ATOM      4  C   UNL     1       5.064  -2.645  -4.644  1.00  0.00     0.053 C 
BRANCH   4   5
ATOM      5  C   UNL     1       4.535  -4.042  -4.571  1.00  0.00     0.041 C 
ATOM      6  O   UNL     1       3.551  -4.385  -5.277  1.00  0.00    -0.550 OA
ATOM      7  O   UNL     1       5.098  -4.953  -3.686  1.00  0.00    -0.550 OA
ENDBRANCH   4   5
ENDBRANCH   3   4
ENDBRANCH   2   3
ENDBRANCH   1   2
BRANCH   1   8
ATOM      8  C   UNL     1       6.396  -0.328  -7.586  1.00  0.00     0.000 C 
BRANCH   8   9
ATOM      9  C   UNL     1       6.279   0.832  -6.581  1.00  0.00     0.000 C 
BRANCH   9  10
ATOM     10  C   UNL     1       4.870   1.448  -6.548  1.00  0.00     0.006 C 
BRANCH  10  11
ATOM     11  C   UNL     1       3.995   0.832  -5.448  1.00  0.00     0.053 C 
BRANCH  11  12
ATOM     12  C   UNL     1       3.041   1.831  -4.868  1.00  0.00     0.041 C 
ATOM     13  O   UNL     1       2.858   1.883  -3.623  1.00  0.00    -0.550 OA
ATOM     14  O   UNL     1       2.377   2.725  -5.699  1.00  0.00    -0.550 OA
ENDBRANCH  11  12
ENDBRANCH  10  11
ENDBRANCH   9  10
ENDBRANCH   8   9
ENDBRANCH   1   8
TORSDOF 9
ENDMDL
MODEL 6
REMARK VINA RESULT:    -3.138      2.091      3.509
REMARK INTER + INTRA:          -5.086
REMARK INTER:                  -4.606
REMARK INTRA:                  -0.480
REMARK UNBOUND:                -0.297
REMARK SMILES O=C([O-])CCCCCCCCC(=O)[O-]
REMARK SMILES IDX 7 1 6 2 5 3 4 4 2 5 1 6 3 7 8 8 9 9 10 10 11 11 12 12 13 13
REMARK SMILES IDX 14 14
REMARK H PARENT
REMARK Flexibility Score: inf
ROOT
ATOM      1  C   UNL     1       6.785   5.976   2.470  1.00  0.00     0.000 C 
ENDROOT
BRANCH   1   2
ATOM      2  C   UNL     1       8.177   6.373   1.953  1.00  0.00     0.000 C 
BRANCH   2   3
ATOM      3  C   UNL     1       9.212   5.250   2.111  1.00  0.00     0.006 C 
BRANCH   3   4
ATOM      4  C   UNL     1      10.160   5.205   0.908  1.00  0.00     0.053 C 
BRANCH   4   5
ATOM      5  C   UNL     1       9.391   4.996  -0.358  1.00  0.00     0.041 C 
ATOM      6  O   UNL     1       9.434   5.859  -1.274  1.00  0.00    -0.550 OA
ATOM      7  O   UNL     1       8.588   3.873  -0.507  1.00  0.00    -0.550 OA
ENDBRANCH   4   5
ENDBRANCH   3   4
ENDBRANCH   2   3
ENDBRANCH   1   2
BRANCH   1   8
ATOM      8  C   UNL     1       5.841   5.529   1.341  1.00  0.00     0.000 C 
BRANCH   8   9
ATOM      9  C   UNL     1       4.392   5.338   1.823  1.00  0.00     0.000 C 
BRANCH   9  10
ATOM     10  C   UNL     1       4.312   4.673   3.208  1.00  0.00     0.006 C 
BRANCH  10  11
ATOM     11  C   UNL     1       3.418   3.425   3.199  1.00  0.00     0.053 C 
BRANCH  11  12
ATOM     12  C   UNL     1       2.388   3.468   4.286  1.00  0.00     0.041 C 
ATOM     13  O   UNL     1       1.453   4.311   4.240  1.00  0.00    -0.550 OA
ATOM     14  O   UNL     1       2.441   2.557   5.334  1.00  0.00    -0.550 OA
ENDBRANCH  11  12
ENDBRANCH  10  11
ENDBRANCH   9  10
ENDBRANCH   8   9
ENDBRANCH   1   8
TORSDOF 9
ENDMDL
MODEL 7
REMARK VINA RESULT:    -3.115      1.990      7.650
REMARK INTER + INTRA:          -5.050
REMARK INTER:                  -4.592
REMARK INTRA:                  -0.458
REMARK UNBOUND:                -0.297
REMARK SMILES O=C([O-])CCCCCCCCC(=O)[O-]
REMARK SMILES IDX 7 1 6 2 5 3 4 4 2 5 1 6 3 7 8 8 9 9 10 10 11 11 12 12 13 13
REMARK SMILES IDX 14 14
REMARK H PARENT
REMARK Flexibility Score: inf
ROOT
ATOM      1  C   UNL     1       4.171   5.946   1.880  1.00  0.00     0.000 C 
ENDROOT
BRANCH   1   2
ATOM      2  C   UNL     1       3.424   5.281   3.047  1.00  0.00     0.000 C 
BRANCH   2   3
ATOM      3  C   UNL     1       3.675   3.768   3.128  1.00  0.00     0.006 C 
BRANCH   3   4
ATOM      4  C   UNL     1       2.434   3.033   3.643  1.00  0.00     0.053 C 
BRANCH   4   5
ATOM      5  C   UNL     1       2.096   3.482   5.030  1.00  0.00     0.041 C 
ATOM      6  O   UNL     1       2.897   3.269   5.977  1.00  0.00    -0.550 OA
ATOM      7  O   UNL     1       0.873   4.090   5.285  1.00  0.00    -0.550 OA
ENDBRANCH   4   5
ENDBRANCH   3   4
ENDBRANCH   2   3
ENDBRANCH   1   2
BRANCH   1   8
ATOM      8  C   UNL     1       5.486   5.227   1.533  1.00  0.00     0.000 C 
BRANCH   8   9
ATOM      9  C   UNL     1       5.898   5.422   0.064  1.00  0.00     0.000 C 
BRANCH   9  10
ATOM     10  C   UNL     1       7.253   6.136  -0.081  1.00  0.00     0.006 C 
BRANCH  10  11
ATOM     11  C   UNL     1       8.205   5.813   1.078  1.00  0.00     0.053 C 
BRANCH  11  12
ATOM     12  C   UNL     1       9.182   4.738   0.715  1.00  0.00     0.041 C 
ATOM     13  O   UNL     1       9.167   4.231  -0.439  1.00  0.00    -0.550 OA
ATOM     14  O   UNL     1      10.130   4.315   1.638  1.00  0.00    -0.550 OA
ENDBRANCH  11  12
ENDBRANCH  10  11
ENDBRANCH   9  10
ENDBRANCH   8   9
ENDBRANCH   1   8
TORSDOF 9
ENDMDL
MODEL 8
REMARK VINA RESULT:    -3.065      8.959     10.478
REMARK INTER + INTRA:          -4.974
REMARK INTER:                  -4.432
REMARK INTRA:                  -0.542
REMARK UNBOUND:                -0.297
REMARK SMILES O=C([O-])CCCCCCCCC(=O)[O-]
REMARK SMILES IDX 7 1 6 2 5 3 4 4 2 5 1 6 3 7 8 8 9 9 10 10 11 11 12 12 13 13
REMARK SMILES IDX 14 14
REMARK H PARENT
REMARK Flexibility Score: inf
ROOT
ATOM      1  C   UNL     1       5.668  -2.934  -5.379  1.00  0.00     0.000 C 
ENDROOT
BRANCH   1   2
ATOM      2  C   UNL     1       6.707  -2.624  -4.289  1.00  0.00     0.000 C 
BRANCH   2   3
ATOM      3  C   UNL     1       8.128  -3.052  -4.685  1.00  0.00     0.006 C 
BRANCH   3   4
ATOM      4  C   UNL     1       8.869  -1.908  -5.384  1.00  0.00     0.053 C 
BRANCH   4   5
ATOM      5  C   UNL     1       9.693  -1.138  -4.401  1.00  0.00     0.041 C 
ATOM      6  O   UNL     1       9.929  -1.615  -3.261  1.00  0.00    -0.550 OA
ATOM      7  O   UNL     1      10.160   0.129  -4.728  1.00  0.00    -0.550 OA
ENDBRANCH   4   5
ENDBRANCH   3   4
ENDBRANCH   2   3
ENDBRANCH   1   2
BRANCH   1   8
ATOM      8  C   UNL     1       4.759  -1.732  -5.687  1.00  0.00     0.000 C 
BRANCH   8   9
ATOM      9  C   UNL     1       5.514  -0.577  -6.367  1.00  0.00     0.000 C 
BRANCH   9  10
ATOM     10  C   UNL     1       4.953   0.804  -5.986  1.00  0.00     0.006 C 
BRANCH  10  11
ATOM     11  C   UNL     1       3.424   0.792  -5.859  1.00  0.00     0.053 C 
BRANCH  11  12
ATOM     12  C   UNL     1       2.930   1.880  -4.956  1.00  0.00     0.041 C 
ATOM     13  O   UNL     1       2.433   2.930  -5.444  1.00  0.00    -0.550 OA
ATOM     14  O   UNL     1       2.990   1.724  -3.577  1.00  0.00    -0.550 OA
ENDBRANCH  11  12
ENDBRANCH  10  11
ENDBRANCH   9  10
ENDBRANCH   8   9
ENDBRANCH   1   8
TORSDOF 9
ENDMDL
MODEL 9
REMARK VINA RESULT:    -3.059      3.020      3.603
REMARK INTER + INTRA:          -4.966
REMARK INTER:                  -4.504
REMARK INTRA:                  -0.461
REMARK UNBOUND:                -0.297
REMARK SMILES O=C([O-])CCCCCCCCC(=O)[O-]
REMARK SMILES IDX 7 1 6 2 5 3 4 4 2 5 1 6 3 7 8 8 9 9 10 10 11 11 12 12 13 13
REMARK SMILES IDX 14 14
REMARK H PARENT
REMARK Flexibility Score: inf
ROOT
ATOM      1  C   UNL     1       4.074   4.449   3.298  1.00  0.00     0.000 C 
ENDROOT
BRANCH   1   2
ATOM      2  C   UNL     1       4.351   4.919   1.861  1.00  0.00     0.000 C 
BRANCH   2   3
ATOM      3  C   UNL     1       5.788   5.425   1.669  1.00  0.00     0.006 C 
BRANCH   3   4
ATOM      4  C   UNL     1       6.269   5.178   0.235  1.00  0.00     0.053 C 
BRANCH   4   5
ATOM      5  C   UNL     1       7.763   5.117   0.185  1.00  0.00     0.041 C 
ATOM      6  O   UNL     1       8.450   6.079   0.618  1.00  0.00    -0.550 OA
ATOM      7  O   UNL     1       8.395   4.020  -0.386  1.00  0.00    -0.550 OA
ENDBRANCH   4   5
ENDBRANCH   3   4
ENDBRANCH   2   3
ENDBRANCH   1   2
BRANCH   1   8
ATOM      8  C   UNL     1       3.101   3.260   3.354  1.00  0.00     0.000 C 
BRANCH   8   9
ATOM      9  C   UNL     1       2.101   3.368   4.518  1.00  0.00     0.000 C 
BRANCH   9  10
ATOM     10  C   UNL     1       1.698   4.822   4.820  1.00  0.00     0.006 C 
BRANCH  10  11
ATOM     11  C   UNL     1       0.539   5.297   3.933  1.00  0.00     0.053 C 
BRANCH  11  12
ATOM     12  C   UNL     1       0.696   6.730   3.528  1.00  0.00     0.041 C 
ATOM     13  O   UNL     1      -0.133   7.594   3.920  1.00  0.00    -0.550 OA
ATOM     14  O   UNL     1       1.775   7.119   2.744  1.00  0.00    -0.550 OA
ENDBRANCH  11  12
ENDBRANCH  10  11
ENDBRANCH   9  10
ENDBRANCH   8   9
ENDBRANCH   1   8
TORSDOF 9
ENDMDL
