MODEL 1
REMARK VINA RESULT:    -4.937      0.000      0.000
REMARK INTER + INTRA:         -11.878
REMARK INTER:                  -9.265
REMARK INTRA:                  -2.613
REMARK UNBOUND:                -2.613
REMARK SMILES O=C([O-])CCCCCCCCCCCCCCC(=O)[O-]
REMARK SMILES IDX 10 1 9 2 8 3 7 4 6 5 5 6 4 7 2 8 1 9 3 10 11 11 12 12 13 13
REMARK SMILES IDX 14 14 15 15 16 16 17 17 18 18 19 19 20 20
REMARK H PARENT
REMARK Flexibility Score: inf
ROOT
ATOM      1  C   UNL     1       8.696 -30.186  21.273  1.00  0.00     0.000 C 
ENDROOT
BRANCH   1   2
ATOM      2  C   UNL     1       8.096 -31.601  21.261  1.00  0.00     0.000 C 
BRANCH   2   3
ATOM      3  C   UNL     1       9.169 -32.700  21.204  1.00  0.00     0.000 C 
BRANCH   3   4
ATOM      4  C   UNL     1      10.575 -32.090  21.107  1.00  0.00     0.000 C 
BRANCH   4   5
ATOM      5  C   UNL     1      11.569 -32.706  22.107  1.00  0.00     0.000 C 
BRANCH   5   6
ATOM      6  C   UNL     1      12.690 -31.762  22.575  1.00  0.00     0.006 C 
BRANCH   6   7
ATOM      7  C   UNL     1      12.196 -30.337  22.853  1.00  0.00     0.053 C 
BRANCH   7   8
ATOM      8  C   UNL     1      13.083 -29.661  23.851  1.00  0.00     0.041 C 
ATOM      9  O   UNL     1      13.027 -29.981  25.067  1.00  0.00    -0.550 OA
ATOM     10  O   UNL     1      13.935 -28.642  23.446  1.00  0.00    -0.550 OA
ENDBRANCH   7   8
ENDBRANCH   6   7
ENDBRANCH   5   6
ENDBRANCH   4   5
ENDBRANCH   3   4
ENDBRANCH   2   3
ENDBRANCH   1   2
BRANCH   1  11
ATOM     11  C   UNL     1       8.245 -29.362  22.489  1.00  0.00     0.000 C 
BRANCH  11  12
ATOM     12  C   UNL     1       7.931 -30.275  23.683  1.00  0.00     0.000 C 
BRANCH  12  13
ATOM     13  C   UNL     1       9.144 -30.490  24.607  1.00  0.00     0.000 C 
BRANCH  13  14
ATOM     14  C   UNL     1       9.391 -31.951  25.034  1.00  0.00     0.000 C 
BRANCH  14  15
ATOM     15  C   UNL     1      10.592 -32.164  25.972  1.00  0.00     0.000 C 
BRANCH  15  16
ATOM     16  C   UNL     1      11.278 -33.525  25.763  1.00  0.00     0.006 C 
BRANCH  16  17
ATOM     17  C   UNL     1      12.801 -33.437  25.929  1.00  0.00     0.053 C 
BRANCH  17  18
ATOM     18  C   UNL     1      13.509 -34.487  25.129  1.00  0.00     0.041 C 
ATOM     19  O   UNL     1      12.877 -35.170  24.281  1.00  0.00    -0.550 OA
ATOM     20  O   UNL     1      14.859 -34.733  25.343  1.00  0.00    -0.550 OA
ENDBRANCH  17  18
ENDBRANCH  16  17
ENDBRANCH  15  16
ENDBRANCH  14  15
ENDBRANCH  13  14
ENDBRANCH  12  13
ENDBRANCH  11  12
ENDBRANCH   1  11
TORSDOF 15
ENDMDL
MODEL 2
REMARK VINA RESULT:    -4.907      2.096      5.693
REMARK INTER + INTRA:         -11.824
REMARK INTER:                  -9.844
REMARK INTRA:                  -1.979
REMARK UNBOUND:                -2.613
REMARK SMILES O=C([O-])CCCCCCCCCCCCCCC(=O)[O-]
REMARK SMILES IDX 10 1 9 2 8 3 7 4 6 5 5 6 4 7 2 8 1 9 3 10 11 11 12 12 13 13
REMARK SMILES IDX 14 14 15 15 16 16 17 17 18 18 19 19 20 20
REMARK H PARENT
REMARK Flexibility Score: inf
ROOT
ATOM      1  C   UNL     1      12.696 -30.302  23.131  1.00  0.00     0.000 C 
ENDROOT
BRANCH   1   2
ATOM      2  C   UNL     1      12.292 -30.144  24.605  1.00  0.00     0.000 C 
BRANCH   2   3
ATOM      3  C   UNL     1      12.375 -31.464  25.388  1.00  0.00     0.000 C 
BRANCH   3   4
ATOM      4  C   UNL     1      10.973 -32.008  25.698  1.00  0.00     0.000 C 
BRANCH   4   5
ATOM      5  C   UNL     1      10.774 -33.461  25.232  1.00  0.00     0.000 C 
BRANCH   5   6
ATOM      6  C   UNL     1      11.796 -33.955  24.193  1.00  0.00     0.006 C 
BRANCH   6   7
ATOM      7  C   UNL     1      12.338 -35.356  24.506  1.00  0.00     0.053 C 
BRANCH   7   8
ATOM      8  C   UNL     1      13.829 -35.326  24.621  1.00  0.00     0.041 C 
ATOM      9  O   UNL     1      14.439 -34.226  24.662  1.00  0.00    -0.550 OA
ATOM     10  O   UNL     1      14.550 -36.513  24.630  1.00  0.00    -0.550 OA
ENDBRANCH   7   8
ENDBRANCH   6   7
ENDBRANCH   5   6
ENDBRANCH   4   5
ENDBRANCH   3   4
ENDBRANCH   2   3
ENDBRANCH   1   2
BRANCH   1  11
ATOM     11  C   UNL     1      11.499 -30.605  22.217  1.00  0.00     0.000 C 
BRANCH  11  12
ATOM     12  C   UNL     1      11.802 -31.797  21.296  1.00  0.00     0.000 C 
BRANCH  12  13
ATOM     13  C   UNL     1      10.532 -32.536  20.837  1.00  0.00     0.000 C 
BRANCH  13  14
ATOM     14  C   UNL     1       9.253 -31.676  20.795  1.00  0.00     0.000 C 
BRANCH  14  15
ATOM     15  C   UNL     1       7.973 -32.382  21.278  1.00  0.00     0.000 C 
BRANCH  15  16
ATOM     16  C   UNL     1       7.140 -31.515  22.237  1.00  0.00     0.006 C 
BRANCH  16  17
ATOM     17  C   UNL     1       7.959 -31.033  23.441  1.00  0.00     0.053 C 
BRANCH  17  18
ATOM     18  C   UNL     1       7.870 -29.547  23.614  1.00  0.00     0.041 C 
ATOM     19  O   UNL     1       8.164 -28.780  22.660  1.00  0.00    -0.550 OA
ATOM     20  O   UNL     1       7.493 -29.010  24.838  1.00  0.00    -0.550 OA
ENDBRANCH  17  18
ENDBRANCH  16  17
ENDBRANCH  15  16
ENDBRANCH  14  15
ENDBRANCH  13  14
ENDBRANCH  12  13
ENDBRANCH  11  12
ENDBRANCH   1  11
TORSDOF 15
ENDMDL
MODEL 3
REMARK VINA RESULT:    -4.840      5.252      7.290
REMARK INTER + INTRA:         -11.696
REMARK INTER:                 -10.559
REMARK INTRA:                  -1.137
REMARK UNBOUND:                -2.613
REMARK SMILES O=C([O-])CCCCCCCCCCCCCCC(=O)[O-]
REMARK SMILES IDX 10 1 9 2 8 3 7 4 6 5 5 6 4 7 2 8 1 9 3 10 11 11 12 12 13 13
REMARK SMILES IDX 14 14 15 15 16 16 17 17 18 18 19 19 20 20
REMARK H PARENT
REMARK Flexibility Score: inf
ROOT
ATOM      1  C   UNL     1       7.524 -30.742  23.743  1.00  0.00     0.000 C 
ENDROOT
BRANCH   1   2
ATOM      2  C   UNL     1       8.163 -29.707  22.804  1.00  0.00     0.000 C 
BRANCH   2   3
ATOM      3  C   UNL     1       8.465 -30.277  21.409  1.00  0.00     0.000 C 
BRANCH   3   4
ATOM      4  C   UNL     1       8.093 -31.766  21.333  1.00  0.00     0.000 C 
BRANCH   4   5
ATOM      5  C   UNL     1       9.244 -32.647  20.816  1.00  0.00     0.000 C 
BRANCH   5   6
ATOM      6  C   UNL     1      10.636 -31.992  20.862  1.00  0.00     0.006 C 
BRANCH   6   7
ATOM      7  C   UNL     1      11.607 -32.718  21.801  1.00  0.00     0.053 C 
BRANCH   7   8
ATOM      8  C   UNL     1      11.901 -31.876  23.003  1.00  0.00     0.041 C 
ATOM      9  O   UNL     1      11.000 -31.650  23.853  1.00  0.00    -0.550 OA
ATOM     10  O   UNL     1      13.153 -31.297  23.158  1.00  0.00    -0.550 OA
ENDBRANCH   7   8
ENDBRANCH   6   7
ENDBRANCH   5   6
ENDBRANCH   4   5
ENDBRANCH   3   4
ENDBRANCH   2   3
ENDBRANCH   1   2
BRANCH   1  11
ATOM     11  C   UNL     1       7.863 -30.492  25.220  1.00  0.00     0.000 C 
BRANCH  11  12
ATOM     12  C   UNL     1       6.585 -30.277  26.046  1.00  0.00     0.000 C 
BRANCH  12  13
ATOM     13  C   UNL     1       5.580 -29.335  25.358  1.00  0.00     0.000 C 
BRANCH  13  14
ATOM     14  C   UNL     1       4.217 -29.202  26.066  1.00  0.00     0.000 C 
BRANCH  14  15
ATOM     15  C   UNL     1       3.080 -28.639  25.196  1.00  0.00     0.000 C 
BRANCH  15  16
ATOM     16  C   UNL     1       2.855 -29.452  23.909  1.00  0.00     0.006 C 
BRANCH  16  17
ATOM     17  C   UNL     1       1.469 -29.201  23.302  1.00  0.00     0.053 C 
BRANCH  17  18
ATOM     18  C   UNL     1       0.497 -30.279  23.672  1.00  0.00     0.041 C 
ATOM     19  O   UNL     1       0.198 -31.176  22.841  1.00  0.00    -0.550 OA
ATOM     20  O   UNL     1      -0.103 -30.274  24.926  1.00  0.00    -0.550 OA
ENDBRANCH  17  18
ENDBRANCH  16  17
ENDBRANCH  15  16
ENDBRANCH  14  15
ENDBRANCH  13  14
ENDBRANCH  12  13
ENDBRANCH  11  12
ENDBRANCH   1  11
TORSDOF 15
ENDMDL
MODEL 4
REMARK VINA RESULT:    -4.840      4.992      7.398
REMARK INTER + INTRA:         -11.696
REMARK INTER:                 -10.475
REMARK INTRA:                  -1.221
REMARK UNBOUND:                -2.613
REMARK SMILES O=C([O-])CCCCCCCCCCCCCCC(=O)[O-]
REMARK SMILES IDX 10 1 9 2 8 3 7 4 6 5 5 6 4 7 2 8 1 9 3 10 11 11 12 12 13 13
REMARK SMILES IDX 14 14 15 15 16 16 17 17 18 18 19 19 20 20
REMARK H PARENT
REMARK Flexibility Score: inf
ROOT
ATOM      1  C   UNL     1       8.377 -30.242  24.145  1.00  0.00     0.000 C 
ENDROOT
BRANCH   1   2
ATOM      2  C   UNL     1       7.362 -29.963  25.265  1.00  0.00     0.000 C 
BRANCH   2   3
ATOM      3  C   UNL     1       5.930 -29.783  24.737  1.00  0.00     0.000 C 
BRANCH   3   4
ATOM      4  C   UNL     1       4.971 -29.402  25.874  1.00  0.00     0.000 C 
BRANCH   4   5
ATOM      5  C   UNL     1       3.605 -28.904  25.368  1.00  0.00     0.000 C 
BRANCH   5   6
ATOM      6  C   UNL     1       3.183 -29.452  23.993  1.00  0.00     0.006 C 
BRANCH   6   7
ATOM      7  C   UNL     1       1.778 -29.001  23.575  1.00  0.00     0.053 C 
BRANCH   7   8
ATOM      8  C   UNL     1       0.782 -30.089  23.830  1.00  0.00     0.041 C 
ATOM      9  O   UNL     1       0.171 -30.143  24.930  1.00  0.00    -0.550 OA
ATOM     10  O   UNL     1       0.567 -31.073  22.875  1.00  0.00    -0.550 OA
ENDBRANCH   7   8
ENDBRANCH   6   7
ENDBRANCH   5   6
ENDBRANCH   4   5
ENDBRANCH   3   4
ENDBRANCH   2   3
ENDBRANCH   1   2
BRANCH   1  11
ATOM     11  C   UNL     1       8.094 -29.429  22.873  1.00  0.00     0.000 C 
BRANCH  11  12
ATOM     12  C   UNL     1       7.661 -30.349  21.721  1.00  0.00     0.000 C 
BRANCH  12  13
ATOM     13  C   UNL     1       8.844 -30.823  20.858  1.00  0.00     0.000 C 
BRANCH  13  14
ATOM     14  C   UNL     1       9.105 -32.343  20.881  1.00  0.00     0.000 C 
BRANCH  14  15
ATOM     15  C   UNL     1      10.570 -32.752  21.110  1.00  0.00     0.000 C 
BRANCH  15  16
ATOM     16  C   UNL     1      11.011 -32.597  22.576  1.00  0.00     0.006 C 
BRANCH  16  17
ATOM     17  C   UNL     1      12.285 -31.754  22.711  1.00  0.00     0.053 C 
BRANCH  17  18
ATOM     18  C   UNL     1      11.987 -30.370  23.203  1.00  0.00     0.041 C 
ATOM     19  O   UNL     1      11.797 -29.433  22.384  1.00  0.00    -0.550 OA
ATOM     20  O   UNL     1      11.950 -30.111  24.568  1.00  0.00    -0.550 OA
ENDBRANCH  17  18
ENDBRANCH  16  17
ENDBRANCH  15  16
ENDBRANCH  14  15
ENDBRANCH  13  14
ENDBRANCH  12  13
ENDBRANCH  11  12
ENDBRANCH   1  11
TORSDOF 15
ENDMDL
MODEL 5
REMARK VINA RESULT:    -4.804      4.829      6.948
REMARK INTER + INTRA:         -11.629
REMARK INTER:                 -10.209
REMARK INTRA:                  -1.420
REMARK UNBOUND:                -2.613
REMARK SMILES O=C([O-])CCCCCCCCCCCCCCC(=O)[O-]
REMARK SMILES IDX 10 1 9 2 8 3 7 4 6 5 5 6 4 7 2 8 1 9 3 10 11 11 12 12 13 13
REMARK SMILES IDX 14 14 15 15 16 16 17 17 18 18 19 19 20 20
REMARK H PARENT
REMARK Flexibility Score: inf
ROOT
ATOM      1  C   UNL     1       7.653 -30.207  21.673  1.00  0.00     0.000 C 
ENDROOT
BRANCH   1   2
ATOM      2  C   UNL     1       7.310 -31.700  21.796  1.00  0.00     0.000 C 
BRANCH   2   3
ATOM      3  C   UNL     1       8.297 -32.601  21.037  1.00  0.00     0.000 C 
BRANCH   3   4
ATOM      4  C   UNL     1       9.419 -31.768  20.398  1.00  0.00     0.000 C 
BRANCH   4   5
ATOM      5  C   UNL     1      10.819 -32.157  20.903  1.00  0.00     0.000 C 
BRANCH   5   6
ATOM      6  C   UNL     1      11.276 -31.426  22.178  1.00  0.00     0.006 C 
BRANCH   6   7
ATOM      7  C   UNL     1      11.137 -32.283  23.442  1.00  0.00     0.053 C 
BRANCH   7   8
ATOM      8  C   UNL     1      12.161 -33.374  23.449  1.00  0.00     0.041 C 
ATOM      9  O   UNL     1      13.358 -33.121  23.152  1.00  0.00    -0.550 OA
ATOM     10  O   UNL     1      11.784 -34.680  23.734  1.00  0.00    -0.550 OA
ENDBRANCH   7   8
ENDBRANCH   6   7
ENDBRANCH   5   6
ENDBRANCH   4   5
ENDBRANCH   3   4
ENDBRANCH   2   3
ENDBRANCH   1   2
BRANCH   1  11
ATOM     11  C   UNL     1       7.749 -29.507  23.037  1.00  0.00     0.000 C 
BRANCH  11  12
ATOM     12  C   UNL     1       7.811 -30.535  24.177  1.00  0.00     0.000 C 
BRANCH  12  13
ATOM     13  C   UNL     1       6.480 -30.665  24.939  1.00  0.00     0.000 C 
BRANCH  13  14
ATOM     14  C   UNL     1       5.361 -29.714  24.468  1.00  0.00     0.000 C 
BRANCH  14  15
ATOM     15  C   UNL     1       4.529 -29.076  25.595  1.00  0.00     0.000 C 
BRANCH  15  16
ATOM     16  C   UNL     1       3.040 -28.941  25.233  1.00  0.00     0.006 C 
BRANCH  16  17
ATOM     17  C   UNL     1       2.709 -29.601  23.888  1.00  0.00     0.053 C 
BRANCH  17  18
ATOM     18  C   UNL     1       1.234 -29.620  23.626  1.00  0.00     0.041 C 
ATOM     19  O   UNL     1       0.695 -30.634  23.110  1.00  0.00    -0.550 OA
ATOM     20  O   UNL     1       0.461 -28.504  23.923  1.00  0.00    -0.550 OA
ENDBRANCH  17  18
ENDBRANCH  16  17
ENDBRANCH  15  16
ENDBRANCH  14  15
ENDBRANCH  13  14
ENDBRANCH  12  13
ENDBRANCH  11  12
ENDBRANCH   1  11
TORSDOF 15
ENDMDL
MODEL 6
REMARK VINA RESULT:    -4.804      2.499      5.625
REMARK INTER + INTRA:         -11.629
REMARK INTER:                  -9.801
REMARK INTRA:                  -1.828
REMARK UNBOUND:                -2.613
REMARK SMILES O=C([O-])CCCCCCCCCCCCCCC(=O)[O-]
REMARK SMILES IDX 10 1 9 2 8 3 7 4 6 5 5 6 4 7 2 8 1 9 3 10 11 11 12 12 13 13
REMARK SMILES IDX 14 14 15 15 16 16 17 17 18 18 19 19 20 20
REMARK H PARENT
REMARK Flexibility Score: inf
ROOT
ATOM      1  C   UNL     1      10.980 -31.923  21.032  1.00  0.00     0.000 C 
ENDROOT
BRANCH   1   2
ATOM      2  C   UNL     1      11.674 -32.904  21.989  1.00  0.00     0.000 C 
BRANCH   2   3
ATOM      3  C   UNL     1      13.203 -32.746  21.996  1.00  0.00     0.000 C 
BRANCH   3   4
ATOM      4  C   UNL     1      13.700 -32.286  23.375  1.00  0.00     0.000 C 
BRANCH   4   5
ATOM      5  C   UNL     1      12.573 -32.184  24.417  1.00  0.00     0.000 C 
BRANCH   5   6
ATOM      6  C   UNL     1      12.591 -33.273  25.504  1.00  0.00     0.006 C 
BRANCH   6   7
ATOM      7  C   UNL     1      11.471 -34.307  25.333  1.00  0.00     0.053 C 
BRANCH   7   8
ATOM      8  C   UNL     1      12.021 -35.591  24.797  1.00  0.00     0.041 C 
ATOM      9  O   UNL     1      11.303 -36.624  24.767  1.00  0.00    -0.550 OA
ATOM     10  O   UNL     1      13.343 -35.660  24.377  1.00  0.00    -0.550 OA
ENDBRANCH   7   8
ENDBRANCH   6   7
ENDBRANCH   5   6
ENDBRANCH   4   5
ENDBRANCH   3   4
ENDBRANCH   2   3
ENDBRANCH   1   2
BRANCH   1  11
ATOM     11  C   UNL     1      11.131 -30.459  21.473  1.00  0.00     0.000 C 
BRANCH  11  12
ATOM     12  C   UNL     1      10.083 -30.096  22.535  1.00  0.00     0.000 C 
BRANCH  12  13
ATOM     13  C   UNL     1       8.969 -29.185  21.990  1.00  0.00     0.000 C 
BRANCH  13  14
ATOM     14  C   UNL     1       7.744 -29.922  21.412  1.00  0.00     0.000 C 
BRANCH  14  15
ATOM     15  C   UNL     1       7.458 -31.300  22.033  1.00  0.00     0.000 C 
BRANCH  15  16
ATOM     16  C   UNL     1       6.381 -31.248  23.130  1.00  0.00     0.006 C 
BRANCH  16  17
ATOM     17  C   UNL     1       6.989 -31.082  24.529  1.00  0.00     0.053 C 
BRANCH  17  18
ATOM     18  C   UNL     1       6.714 -29.723  25.097  1.00  0.00     0.041 C 
ATOM     19  O   UNL     1       7.658 -28.912  25.286  1.00  0.00    -0.550 OA
ATOM     20  O   UNL     1       5.418 -29.364  25.446  1.00  0.00    -0.550 OA
ENDBRANCH  17  18
ENDBRANCH  16  17
ENDBRANCH  15  16
ENDBRANCH  14  15
ENDBRANCH  13  14
ENDBRANCH  12  13
ENDBRANCH  11  12
ENDBRANCH   1  11
TORSDOF 15
ENDMDL
MODEL 7
REMARK VINA RESULT:    -4.789      1.294      3.532
REMARK INTER + INTRA:         -11.601
REMARK INTER:                  -9.550
REMARK INTRA:                  -2.051
REMARK UNBOUND:                -2.613
REMARK SMILES O=C([O-])CCCCCCCCCCCCCCC(=O)[O-]
REMARK SMILES IDX 10 1 9 2 8 3 7 4 6 5 5 6 4 7 2 8 1 9 3 10 11 11 12 12 13 13
REMARK SMILES IDX 14 14 15 15 16 16 17 17 18 18 19 19 20 20
REMARK H PARENT
REMARK Flexibility Score: inf
ROOT
ATOM      1  C   UNL     1       7.975 -30.306  21.454  1.00  0.00     0.000 C 
ENDROOT
BRANCH   1   2
ATOM      2  C   UNL     1       9.249 -30.964  20.901  1.00  0.00     0.000 C 
BRANCH   2   3
ATOM      3  C   UNL     1       9.194 -32.499  20.950  1.00  0.00     0.000 C 
BRANCH   3   4
ATOM      4  C   UNL     1      10.605 -33.101  20.891  1.00  0.00     0.000 C 
BRANCH   4   5
ATOM      5  C   UNL     1      11.526 -32.585  22.011  1.00  0.00     0.000 C 
BRANCH   5   6
ATOM      6  C   UNL     1      11.887 -33.624  23.087  1.00  0.00     0.006 C 
BRANCH   6   7
ATOM      7  C   UNL     1      13.364 -33.573  23.496  1.00  0.00     0.053 C 
BRANCH   7   8
ATOM      8  C   UNL     1      13.558 -34.208  24.837  1.00  0.00     0.041 C 
ATOM      9  O   UNL     1      12.935 -33.771  25.840  1.00  0.00    -0.550 OA
ATOM     10  O   UNL     1      14.463 -35.249  24.990  1.00  0.00    -0.550 OA
ENDBRANCH   7   8
ENDBRANCH   6   7
ENDBRANCH   5   6
ENDBRANCH   4   5
ENDBRANCH   3   4
ENDBRANCH   2   3
ENDBRANCH   1   2
BRANCH   1  11
ATOM     11  C   UNL     1       7.256 -31.184  22.489  1.00  0.00     0.000 C 
BRANCH  11  12
ATOM     12  C   UNL     1       7.041 -30.417  23.802  1.00  0.00     0.000 C 
BRANCH  12  13
ATOM     13  C   UNL     1       7.789 -31.046  24.992  1.00  0.00     0.000 C 
BRANCH  13  14
ATOM     14  C   UNL     1       9.125 -31.729  24.638  1.00  0.00     0.000 C 
BRANCH  14  15
ATOM     15  C   UNL     1      10.349 -31.213  25.414  1.00  0.00     0.000 C 
BRANCH  15  16
ATOM     16  C   UNL     1      11.218 -30.250  24.587  1.00  0.00     0.006 C 
BRANCH  16  17
ATOM     17  C   UNL     1      12.704 -30.353  24.952  1.00  0.00     0.053 C 
BRANCH  17  18
ATOM     18  C   UNL     1      13.436 -29.077  24.667  1.00  0.00     0.041 C 
ATOM     19  O   UNL     1      13.599 -28.691  23.480  1.00  0.00    -0.550 OA
ATOM     20  O   UNL     1      13.965 -28.330  25.713  1.00  0.00    -0.550 OA
ENDBRANCH  17  18
ENDBRANCH  16  17
ENDBRANCH  15  16
ENDBRANCH  14  15
ENDBRANCH  13  14
ENDBRANCH  12  13
ENDBRANCH  11  12
ENDBRANCH   1  11
TORSDOF 15
ENDMDL
MODEL 8
REMARK VINA RESULT:    -4.778      2.145      4.265
REMARK INTER + INTRA:         -11.580
REMARK INTER:                  -9.585
REMARK INTRA:                  -1.995
REMARK UNBOUND:                -2.613
REMARK SMILES O=C([O-])CCCCCCCCCCCCCCC(=O)[O-]
REMARK SMILES IDX 10 1 9 2 8 3 7 4 6 5 5 6 4 7 2 8 1 9 3 10 11 11 12 12 13 13
REMARK SMILES IDX 14 14 15 15 16 16 17 17 18 18 19 19 20 20
REMARK H PARENT
REMARK Flexibility Score: inf
ROOT
ATOM      1  C   UNL     1       9.590 -31.980  25.082  1.00  0.00     0.000 C 
ENDROOT
BRANCH   1   2
ATOM      2  C   UNL     1      10.352 -33.053  25.875  1.00  0.00     0.000 C 
BRANCH   2   3
ATOM      3  C   UNL     1      11.424 -33.764  25.033  1.00  0.00     0.000 C 
BRANCH   3   4
ATOM      4  C   UNL     1      12.737 -32.967  25.031  1.00  0.00     0.000 C 
BRANCH   4   5
ATOM      5  C   UNL     1      13.124 -32.451  23.634  1.00  0.00     0.000 C 
BRANCH   5   6
ATOM      6  C   UNL     1      12.834 -30.960  23.387  1.00  0.00     0.006 C 
BRANCH   6   7
ATOM      7  C   UNL     1      12.703 -30.154  24.685  1.00  0.00     0.053 C 
BRANCH   7   8
ATOM      8  C   UNL     1      13.642 -28.989  24.674  1.00  0.00     0.041 C 
ATOM      9  O   UNL     1      14.032 -28.480  25.758  1.00  0.00    -0.550 OA
ATOM     10  O   UNL     1      14.047 -28.433  23.469  1.00  0.00    -0.550 OA
ENDBRANCH   7   8
ENDBRANCH   6   7
ENDBRANCH   5   6
ENDBRANCH   4   5
ENDBRANCH   3   4
ENDBRANCH   2   3
ENDBRANCH   1   2
BRANCH   1  11
ATOM     11  C   UNL     1       8.972 -30.902  25.985  1.00  0.00     0.000 C 
BRANCH  11  12
ATOM     12  C   UNL     1       7.757 -30.251  25.308  1.00  0.00     0.000 C 
BRANCH  12  13
ATOM     13  C   UNL     1       6.952 -31.240  24.446  1.00  0.00     0.000 C 
BRANCH  13  14
ATOM     14  C   UNL     1       6.643 -30.759  23.014  1.00  0.00     0.000 C 
BRANCH  14  15
ATOM     15  C   UNL     1       7.475 -29.557  22.534  1.00  0.00     0.000 C 
BRANCH  15  16
ATOM     16  C   UNL     1       8.301 -29.869  21.273  1.00  0.00     0.006 C 
BRANCH  16  17
ATOM     17  C   UNL     1       9.647 -30.523  21.611  1.00  0.00     0.053 C 
BRANCH  17  18
ATOM     18  C   UNL     1       9.778 -31.878  20.985  1.00  0.00     0.041 C 
ATOM     19  O   UNL     1       8.759 -32.598  20.814  1.00  0.00    -0.550 OA
ATOM     20  O   UNL     1      11.030 -32.358  20.620  1.00  0.00    -0.550 OA
ENDBRANCH  17  18
ENDBRANCH  16  17
ENDBRANCH  15  16
ENDBRANCH  14  15
ENDBRANCH  13  14
ENDBRANCH  12  13
ENDBRANCH  11  12
ENDBRANCH   1  11
TORSDOF 15
ENDMDL
MODEL 9
REMARK VINA RESULT:    -4.768      1.214      3.211
REMARK INTER + INTRA:         -11.562
REMARK INTER:                  -9.438
REMARK INTRA:                  -2.124
REMARK UNBOUND:                -2.613
REMARK SMILES O=C([O-])CCCCCCCCCCCCCCC(=O)[O-]
REMARK SMILES IDX 10 1 9 2 8 3 7 4 6 5 5 6 4 7 2 8 1 9 3 10 11 11 12 12 13 13
REMARK SMILES IDX 14 14 15 15 16 16 17 17 18 18 19 19 20 20
REMARK H PARENT
REMARK Flexibility Score: inf
ROOT
ATOM      1  C   UNL     1       7.663 -30.612  22.259  1.00  0.00     0.000 C 
ENDROOT
BRANCH   1   2
ATOM      2  C   UNL     1       6.615 -30.121  23.269  1.00  0.00     0.000 C 
BRANCH   2   3
ATOM      3  C   UNL     1       6.804 -30.734  24.666  1.00  0.00     0.000 C 
BRANCH   3   4
ATOM      4  C   UNL     1       8.211 -30.441  25.207  1.00  0.00     0.000 C 
BRANCH   4   5
ATOM      5  C   UNL     1       8.953 -31.707  25.670  1.00  0.00     0.000 C 
BRANCH   5   6
ATOM      6  C   UNL     1      10.456 -31.737  25.340  1.00  0.00     0.006 C 
BRANCH   6   7
ATOM      7  C   UNL     1      10.911 -30.528  24.513  1.00  0.00     0.053 C 
BRANCH   7   8
ATOM      8  C   UNL     1      12.380 -30.300  24.686  1.00  0.00     0.041 C 
ATOM      9  O   UNL     1      13.012 -30.902  25.594  1.00  0.00    -0.550 OA
ATOM     10  O   UNL     1      13.042 -29.384  23.880  1.00  0.00    -0.550 OA
ENDBRANCH   7   8
ENDBRANCH   6   7
ENDBRANCH   5   6
ENDBRANCH   4   5
ENDBRANCH   3   4
ENDBRANCH   2   3
ENDBRANCH   1   2
BRANCH   1  11
ATOM     11  C   UNL     1       7.301 -31.972  21.642  1.00  0.00     0.000 C 
BRANCH  11  12
ATOM     12  C   UNL     1       8.503 -32.573  20.898  1.00  0.00     0.000 C 
BRANCH  12  13
ATOM     13  C   UNL     1       9.824 -32.420  21.674  1.00  0.00     0.000 C 
BRANCH  13  14
ATOM     14  C   UNL     1      11.089 -32.316  20.798  1.00  0.00     0.000 C 
BRANCH  14  15
ATOM     15  C   UNL     1      12.422 -32.372  21.565  1.00  0.00     0.000 C 
BRANCH  15  16
ATOM     16  C   UNL     1      12.410 -33.404  22.706  1.00  0.00     0.006 C 
BRANCH  16  17
ATOM     17  C   UNL     1      13.777 -33.522  23.393  1.00  0.00     0.053 C 
BRANCH  17  18
ATOM     18  C   UNL     1      13.690 -34.296  24.673  1.00  0.00     0.041 C 
ATOM     19  O   UNL     1      14.739 -34.666  25.263  1.00  0.00    -0.550 OA
ATOM     20  O   UNL     1      12.449 -34.636  25.198  1.00  0.00    -0.550 OA
ENDBRANCH  17  18
ENDBRANCH  16  17
ENDBRANCH  15  16
ENDBRANCH  14  15
ENDBRANCH  13  14
ENDBRANCH  12  13
ENDBRANCH  11  12
ENDBRANCH   1  11
TORSDOF 15
ENDMDL
