MODEL 1
REMARK VINA RESULT:     1.989      0.000      0.000
REMARK INTER + INTRA:           2.593
REMARK INTER:                   3.267
REMARK INTRA:                  -0.674
REMARK UNBOUND:                -0.674
REMARK SMILES CCCCCCCCCCCCCC
REMARK SMILES IDX 7 1 6 2 5 3 4 4 3 5 2 6 1 7 8 8 9 9 10 10 11 11 12 12 13 13
REMARK SMILES IDX 14 14
REMARK H PARENT
REMARK Flexibility Score: inf
ROOT
ATOM      1  C   UNL     1       9.577   4.561  19.492  1.00  0.00    -0.000 C 
ENDROOT
BRANCH   1   2
ATOM      2  C   UNL     1       9.182   3.073  19.509  1.00  0.00    -0.000 C 
BRANCH   2   3
ATOM      3  C   UNL     1       8.770   2.487  18.143  1.00  0.00    -0.000 C 
BRANCH   3   4
ATOM      4  C   UNL     1       7.714   1.366  18.202  1.00  0.00    -0.000 C 
BRANCH   4   5
ATOM      5  C   UNL     1       6.276   1.811  17.875  1.00  0.00    -0.000 C 
BRANCH   5   6
ATOM      6  C   UNL     1       5.257   1.349  18.925  1.00  0.00    -0.003 C 
ATOM      7  C   UNL     1       5.945   0.994  20.240  1.00  0.00     0.004 C 
ENDBRANCH   5   6
ENDBRANCH   4   5
ENDBRANCH   3   4
ENDBRANCH   2   3
ENDBRANCH   1   2
BRANCH   1   8
ATOM      8  C   UNL     1       9.300   5.236  18.139  1.00  0.00    -0.000 C 
BRANCH   8   9
ATOM      9  C   UNL     1       9.676   6.730  18.129  1.00  0.00    -0.000 C 
BRANCH   9  10
ATOM     10  C   UNL     1       8.507   7.703  17.875  1.00  0.00    -0.000 C 
BRANCH  10  11
ATOM     11  C   UNL     1       7.252   7.462  18.733  1.00  0.00    -0.000 C 
BRANCH  11  12
ATOM     12  C   UNL     1       6.256   6.494  18.072  1.00  0.00    -0.000 C 
BRANCH  12  13
ATOM     13  C   UNL     1       6.317   5.083  18.678  1.00  0.00    -0.003 C 
ATOM     14  C   UNL     1       5.461   4.940  19.937  1.00  0.00     0.004 C 
ENDBRANCH  12  13
ENDBRANCH  11  12
ENDBRANCH  10  11
ENDBRANCH   9  10
ENDBRANCH   8   9
ENDBRANCH   1   8
TORSDOF 11
ENDMDL
MODEL 2
REMARK VINA RESULT:     2.799      0.893      2.226
REMARK INTER + INTRA:           3.925
REMARK INTER:                   2.909
REMARK INTRA:                   1.016
REMARK UNBOUND:                -0.674
REMARK SMILES CCCCCCCCCCCCCC
REMARK SMILES IDX 7 1 6 2 5 3 4 4 3 5 2 6 1 7 8 8 9 9 10 10 11 11 12 12 13 13
REMARK SMILES IDX 14 14
REMARK H PARENT
REMARK Flexibility Score: inf
ROOT
ATOM      1  C   UNL     1       9.004   3.782  20.183  1.00  0.00    -0.000 C 
ENDROOT
BRANCH   1   2
ATOM      2  C   UNL     1       9.308   2.333  19.758  1.00  0.00    -0.000 C 
BRANCH   2   3
ATOM      3  C   UNL     1       8.980   1.997  18.289  1.00  0.00    -0.000 C 
BRANCH   3   4
ATOM      4  C   UNL     1       7.608   1.332  18.060  1.00  0.00    -0.000 C 
BRANCH   4   5
ATOM      5  C   UNL     1       6.476   1.850  18.965  1.00  0.00    -0.000 C 
BRANCH   5   6
ATOM      6  C   UNL     1       5.353   0.822  19.162  1.00  0.00    -0.003 C 
ATOM      7  C   UNL     1       4.309   0.930  18.055  1.00  0.00     0.004 C 
ENDBRANCH   5   6
ENDBRANCH   4   5
ENDBRANCH   3   4
ENDBRANCH   2   3
ENDBRANCH   1   2
BRANCH   1   8
ATOM      8  C   UNL     1       9.213   4.793  19.045  1.00  0.00    -0.000 C 
BRANCH   8   9
ATOM      9  C   UNL     1       7.997   4.894  18.104  1.00  0.00    -0.000 C 
BRANCH   9  10
ATOM     10  C   UNL     1       6.621   4.779  18.789  1.00  0.00    -0.000 C 
BRANCH  10  11
ATOM     11  C   UNL     1       5.830   6.095  18.902  1.00  0.00    -0.000 C 
BRANCH  11  12
ATOM     12  C   UNL     1       6.306   7.163  17.903  1.00  0.00    -0.000 C 
BRANCH  12  13
ATOM     13  C   UNL     1       7.413   8.058  18.482  1.00  0.00    -0.003 C 
ATOM     14  C   UNL     1       8.787   7.769  17.875  1.00  0.00     0.004 C 
ENDBRANCH  12  13
ENDBRANCH  11  12
ENDBRANCH  10  11
ENDBRANCH   9  10
ENDBRANCH   8   9
ENDBRANCH   1   8
TORSDOF 11
ENDMDL
MODEL 3
REMARK VINA RESULT:     3.132      1.045      2.267
REMARK INTER + INTRA:           4.472
REMARK INTER:                   1.691
REMARK INTRA:                   2.782
REMARK UNBOUND:                -0.674
REMARK SMILES CCCCCCCCCCCCCC
REMARK SMILES IDX 7 1 6 2 5 3 4 4 3 5 2 6 1 7 8 8 9 9 10 10 11 11 12 12 13 13
REMARK SMILES IDX 14 14
REMARK H PARENT
REMARK Flexibility Score: inf
ROOT
ATOM      1  C   UNL     1       9.072   3.022  19.879  1.00  0.00    -0.000 C 
ENDROOT
BRANCH   1   2
ATOM      2  C   UNL     1       7.704   3.643  20.218  1.00  0.00    -0.000 C 
BRANCH   2   3
ATOM      3  C   UNL     1       6.909   4.182  19.011  1.00  0.00    -0.000 C 
BRANCH   3   4
ATOM      4  C   UNL     1       6.675   3.166  17.875  1.00  0.00    -0.000 C 
BRANCH   4   5
ATOM      5  C   UNL     1       6.435   1.718  18.339  1.00  0.00    -0.000 C 
BRANCH   5   6
ATOM      6  C   UNL     1       5.262   1.595  19.322  1.00  0.00    -0.003 C 
ATOM      7  C   UNL     1       4.236   0.579  18.830  1.00  0.00     0.004 C 
ENDBRANCH   5   6
ENDBRANCH   4   5
ENDBRANCH   3   4
ENDBRANCH   2   3
ENDBRANCH   1   2
BRANCH   1   8
ATOM      8  C   UNL     1       9.356   2.996  18.368  1.00  0.00    -0.000 C 
BRANCH   8   9
ATOM      9  C   UNL     1      10.562   3.868  17.972  1.00  0.00    -0.000 C 
BRANCH   9  10
ATOM     10  C   UNL     1      10.294   5.385  17.929  1.00  0.00    -0.000 C 
BRANCH  10  11
ATOM     11  C   UNL     1       8.810   5.790  17.875  1.00  0.00    -0.000 C 
BRANCH  11  12
ATOM     12  C   UNL     1       8.596   7.297  18.092  1.00  0.00    -0.000 C 
BRANCH  12  13
ATOM     13  C   UNL     1       7.118   7.704  17.976  1.00  0.00    -0.003 C 
ATOM     14  C   UNL     1       6.164   6.515  18.093  1.00  0.00     0.004 C 
ENDBRANCH  12  13
ENDBRANCH  11  12
ENDBRANCH  10  11
ENDBRANCH   9  10
ENDBRANCH   8   9
ENDBRANCH   1   8
TORSDOF 11
ENDMDL
MODEL 4
REMARK VINA RESULT:     4.127      0.917      4.623
REMARK INTER + INTRA:           6.106
REMARK INTER:                   6.781
REMARK INTRA:                  -0.675
REMARK UNBOUND:                -0.674
REMARK SMILES CCCCCCCCCCCCCC
REMARK SMILES IDX 7 1 6 2 5 3 4 4 3 5 2 6 1 7 8 8 9 9 10 10 11 11 12 12 13 13
REMARK SMILES IDX 14 14
REMARK H PARENT
REMARK Flexibility Score: inf
ROOT
ATOM      1  C   UNL     1       8.702   2.751  19.768  1.00  0.00    -0.000 C 
ENDROOT
BRANCH   1   2
ATOM      2  C   UNL     1       9.339   4.153  19.764  1.00  0.00    -0.000 C 
BRANCH   2   3
ATOM      3  C   UNL     1       9.917   4.608  18.408  1.00  0.00    -0.000 C 
BRANCH   3   4
ATOM      4  C   UNL     1       9.365   5.945  17.875  1.00  0.00    -0.000 C 
BRANCH   4   5
ATOM      5  C   UNL     1       7.834   6.091  17.953  1.00  0.00    -0.000 C 
BRANCH   5   6
ATOM      6  C   UNL     1       7.387   7.537  18.210  1.00  0.00    -0.003 C 
ATOM      7  C   UNL     1       7.477   7.885  19.693  1.00  0.00     0.004 C 
ENDBRANCH   5   6
ENDBRANCH   4   5
ENDBRANCH   3   4
ENDBRANCH   2   3
ENDBRANCH   1   2
BRANCH   1   8
ATOM      8  C   UNL     1       9.134   1.896  18.565  1.00  0.00    -0.000 C 
BRANCH   8   9
ATOM      9  C   UNL     1       8.038   0.919  18.102  1.00  0.00    -0.000 C 
BRANCH   9  10
ATOM     10  C   UNL     1       6.637   1.536  17.922  1.00  0.00    -0.000 C 
BRANCH  10  11
ATOM     11  C   UNL     1       5.698   1.405  19.135  1.00  0.00    -0.000 C 
BRANCH  11  12
ATOM     12  C   UNL     1       4.879   2.680  19.395  1.00  0.00    -0.000 C 
BRANCH  12  13
ATOM     13  C   UNL     1       5.768   3.905  19.665  1.00  0.00    -0.003 C 
ATOM     14  C   UNL     1       5.034   5.229  19.452  1.00  0.00     0.004 C 
ENDBRANCH  12  13
ENDBRANCH  11  12
ENDBRANCH  10  11
ENDBRANCH   9  10
ENDBRANCH   8   9
ENDBRANCH   1   8
TORSDOF 11
ENDMDL
MODEL 5
REMARK VINA RESULT:     4.153      1.038      4.732
REMARK INTER + INTRA:           6.149
REMARK INTER:                   5.659
REMARK INTRA:                   0.490
REMARK UNBOUND:                -0.674
REMARK SMILES CCCCCCCCCCCCCC
REMARK SMILES IDX 7 1 6 2 5 3 4 4 3 5 2 6 1 7 8 8 9 9 10 10 11 11 12 12 13 13
REMARK SMILES IDX 14 14
REMARK H PARENT
REMARK Flexibility Score: inf
ROOT
ATOM      1  C   UNL     1       6.666   6.864  19.371  1.00  0.00    -0.000 C 
ENDROOT
BRANCH   1   2
ATOM      2  C   UNL     1       7.659   7.999  19.061  1.00  0.00    -0.000 C 
BRANCH   2   3
ATOM      3  C   UNL     1       8.610   7.735  17.876  1.00  0.00    -0.000 C 
BRANCH   3   4
ATOM      4  C   UNL     1       9.770   6.763  18.170  1.00  0.00    -0.000 C 
BRANCH   4   5
ATOM      5  C   UNL     1       9.394   5.271  18.118  1.00  0.00    -0.000 C 
BRANCH   5   6
ATOM      6  C   UNL     1      10.606   4.361  17.875  1.00  0.00    -0.003 C 
ATOM      7  C   UNL     1      10.517   3.091  18.716  1.00  0.00     0.004 C 
ENDBRANCH   5   6
ENDBRANCH   4   5
ENDBRANCH   3   4
ENDBRANCH   2   3
ENDBRANCH   1   2
BRANCH   1   8
ATOM      8  C   UNL     1       6.145   6.166  18.104  1.00  0.00    -0.000 C 
BRANCH   8   9
ATOM      9  C   UNL     1       6.636   4.711  17.978  1.00  0.00    -0.000 C 
BRANCH   9  10
ATOM     10  C   UNL     1       6.694   3.918  19.298  1.00  0.00    -0.000 C 
BRANCH  10  11
ATOM     11  C   UNL     1       7.459   2.583  19.231  1.00  0.00    -0.000 C 
BRANCH  11  12
ATOM     12  C   UNL     1       7.192   1.809  17.930  1.00  0.00    -0.000 C 
BRANCH  12  13
ATOM     13  C   UNL     1       5.801   1.156  17.909  1.00  0.00    -0.003 C 
ATOM     14  C   UNL     1       5.239   0.911  19.310  1.00  0.00     0.004 C 
ENDBRANCH  12  13
ENDBRANCH  11  12
ENDBRANCH  10  11
ENDBRANCH   9  10
ENDBRANCH   8   9
ENDBRANCH   1   8
TORSDOF 11
ENDMDL
MODEL 6
REMARK VINA RESULT:     4.294      0.753      4.427
REMARK INTER + INTRA:           6.381
REMARK INTER:                   7.190
REMARK INTRA:                  -0.809
REMARK UNBOUND:                -0.674
REMARK SMILES CCCCCCCCCCCCCC
REMARK SMILES IDX 7 1 6 2 5 3 4 4 3 5 2 6 1 7 8 8 9 9 10 10 11 11 12 12 13 13
REMARK SMILES IDX 14 14
REMARK H PARENT
REMARK Flexibility Score: inf
ROOT
ATOM      1  C   UNL     1       9.378   5.367  19.549  1.00  0.00    -0.000 C 
ENDROOT
BRANCH   1   2
ATOM      2  C   UNL     1       9.288   5.914  18.112  1.00  0.00    -0.000 C 
BRANCH   2   3
ATOM      3  C   UNL     1       8.670   7.321  17.982  1.00  0.00    -0.000 C 
BRANCH   3   4
ATOM      4  C   UNL     1       7.130   7.356  17.920  1.00  0.00    -0.000 C 
BRANCH   4   5
ATOM      5  C   UNL     1       6.450   5.975  17.875  1.00  0.00    -0.000 C 
BRANCH   5   6
ATOM      6  C   UNL     1       6.144   5.417  19.271  1.00  0.00    -0.003 C 
ATOM      7  C   UNL     1       4.673   5.033  19.399  1.00  0.00     0.004 C 
ENDBRANCH   5   6
ENDBRANCH   4   5
ENDBRANCH   3   4
ENDBRANCH   2   3
ENDBRANCH   1   2
BRANCH   1   8
ATOM      8  C   UNL     1       9.364   3.830  19.603  1.00  0.00    -0.000 C 
BRANCH   8   9
ATOM      9  C   UNL     1       9.260   3.183  18.210  1.00  0.00    -0.000 C 
BRANCH   9  10
ATOM     10  C   UNL     1       9.222   1.642  18.198  1.00  0.00    -0.000 C 
BRANCH  10  11
ATOM     11  C   UNL     1       7.826   1.019  18.016  1.00  0.00    -0.000 C 
BRANCH  11  12
ATOM     12  C   UNL     1       6.688   2.019  18.282  1.00  0.00    -0.000 C 
BRANCH  12  13
ATOM     13  C   UNL     1       5.647   1.475  19.272  1.00  0.00    -0.003 C 
ATOM     14  C   UNL     1       4.450   0.824  18.577  1.00  0.00     0.004 C 
ENDBRANCH  12  13
ENDBRANCH  11  12
ENDBRANCH  10  11
ENDBRANCH   9  10
ENDBRANCH   8   9
ENDBRANCH   1   8
TORSDOF 11
ENDMDL
MODEL 7
REMARK VINA RESULT:     4.642      1.030      5.464
REMARK INTER + INTRA:           6.953
REMARK INTER:                   6.249
REMARK INTRA:                   0.704
REMARK UNBOUND:                -0.674
REMARK SMILES CCCCCCCCCCCCCC
REMARK SMILES IDX 7 1 6 2 5 3 4 4 3 5 2 6 1 7 8 8 9 9 10 10 11 11 12 12 13 13
REMARK SMILES IDX 14 14
REMARK H PARENT
REMARK Flexibility Score: inf
ROOT
ATOM      1  C   UNL     1       5.795   2.618  20.395  1.00  0.00    -0.000 C 
ENDROOT
BRANCH   1   2
ATOM      2  C   UNL     1       5.314   3.899  19.690  1.00  0.00    -0.000 C 
BRANCH   2   3
ATOM      3  C   UNL     1       6.146   4.326  18.463  1.00  0.00    -0.000 C 
BRANCH   3   4
ATOM      4  C   UNL     1       6.572   5.808  18.444  1.00  0.00    -0.000 C 
BRANCH   4   5
ATOM      5  C   UNL     1       7.982   6.069  17.884  1.00  0.00    -0.000 C 
BRANCH   5   6
ATOM      6  C   UNL     1       8.355   7.558  17.882  1.00  0.00    -0.003 C 
ATOM      7  C   UNL     1       7.109   8.437  17.915  1.00  0.00     0.004 C 
ENDBRANCH   5   6
ENDBRANCH   4   5
ENDBRANCH   3   4
ENDBRANCH   2   3
ENDBRANCH   1   2
BRANCH   1   8
ATOM      8  C   UNL     1       5.305   1.336  19.701  1.00  0.00    -0.000 C 
BRANCH   8   9
ATOM      9  C   UNL     1       5.707   1.269  18.216  1.00  0.00    -0.000 C 
BRANCH   9  10
ATOM     10  C   UNL     1       7.078   1.885  17.875  1.00  0.00    -0.000 C 
BRANCH  10  11
ATOM     11  C   UNL     1       8.298   1.015  18.229  1.00  0.00    -0.000 C 
BRANCH  11  12
ATOM     12  C   UNL     1       9.592   1.833  18.370  1.00  0.00    -0.000 C 
BRANCH  12  13
ATOM     13  C   UNL     1       9.321   3.324  18.623  1.00  0.00    -0.003 C 
ATOM     14  C   UNL     1       9.316   3.682  20.110  1.00  0.00     0.004 C 
ENDBRANCH  12  13
ENDBRANCH  11  12
ENDBRANCH  10  11
ENDBRANCH   9  10
ENDBRANCH   8   9
ENDBRANCH   1   8
TORSDOF 11
ENDMDL
