MODEL 1
REMARK VINA RESULT:    -5.509      0.000      0.000
REMARK INTER + INTRA:          -9.666
REMARK INTER:                  -8.568
REMARK INTRA:                  -1.098
REMARK UNBOUND:                -1.098
REMARK SMILES COc1cc(CNC(=O)CCCCC=CC(C)C)ccc1O
REMARK SMILES IDX 11 1 12 2 13 3 14 4 15 5 16 6 17 7 18 8 10 9 8 10 9 11 7 12
REMARK SMILES IDX 6 14 5 15 4 16 19 17 3 18 20 19 21 20 2 21 1 22 22 23
REMARK H PARENT 7 13 22 24
REMARK Flexibility Score: inf
ROOT
ATOM      1  C   UNL     1       6.856  26.435  59.473  1.00  0.00     0.010 C 
ENDROOT
BRANCH   1   2
ATOM      2  C   UNL     1       6.160  27.806  59.553  1.00  0.00     0.005 C 
BRANCH   2   3
ATOM      3  C   UNL     1       4.705  27.740  59.062  1.00  0.00     0.027 C 
BRANCH   3   4
ATOM      4  C   UNL     1       4.592  27.138  57.683  1.00  0.00    -0.031 C 
ATOM      5  C   UNL     1       4.914  27.766  56.536  1.00  0.00    -0.028 C 
BRANCH   5   6
ATOM      6  C   UNL     1       5.359  29.209  56.432  1.00  0.00     0.005 C 
ATOM      7  C   UNL     1       4.566  29.915  55.329  1.00  0.00     0.012 C 
ATOM      8  C   UNL     1       6.861  29.271  56.143  1.00  0.00     0.012 C 
ENDBRANCH   5   6
ENDBRANCH   3   4
ENDBRANCH   2   3
ENDBRANCH   1   2
BRANCH   1   9
ATOM      9  C   UNL     1       8.103  26.462  58.577  1.00  0.00     0.100 C 
BRANCH   9  10
ATOM     10  C   UNL     1       9.363  26.076  59.301  1.00  0.00     0.220 C 
ATOM     11  O   UNL     1       9.298  25.359  60.339  1.00  0.00    -0.275 OA
ATOM     12  N   UNL     1      10.626  26.590  58.855  1.00  0.00    -0.352 N 
ATOM     13  H   UNL     1      10.645  27.247  58.042  1.00  0.00     0.163 HD
BRANCH  12  14
ATOM     14  C   UNL     1      11.907  26.143  59.398  1.00  0.00     0.151 C 
BRANCH  14  15
ATOM     15  C   UNL     1      12.318  24.859  58.735  1.00  0.00    -0.025 A 
ATOM     16  C   UNL     1      12.452  23.686  59.495  1.00  0.00     0.056 A 
ATOM     17  C   UNL     1      12.519  24.810  57.347  1.00  0.00     0.009 A 
ATOM     18  C   UNL     1      12.809  22.468  58.879  1.00  0.00     0.160 A 
ATOM     19  C   UNL     1      12.882  23.611  56.731  1.00  0.00     0.050 A 
ATOM     20  C   UNL     1      13.031  22.443  57.488  1.00  0.00     0.157 A 
BRANCH  18  21
ATOM     21  O   UNL     1      12.944  21.277  59.610  1.00  0.00    -0.493 OA
ATOM     22  C   UNL     1      11.864  20.407  59.942  1.00  0.00     0.278 C 
ENDBRANCH  18  21
BRANCH  20  23
ATOM     23  O   UNL     1      13.396  21.262  56.840  1.00  0.00    -0.504 OA
ATOM     24  H   UNL     1      14.228  21.193  56.270  1.00  0.00     0.293 HD
ENDBRANCH  20  23
ENDBRANCH  14  15
ENDBRANCH  12  14
ENDBRANCH   9  10
ENDBRANCH   1   9
TORSDOF 10
ENDMDL
MODEL 2
REMARK VINA RESULT:    -5.058      1.762      2.608
REMARK INTER + INTRA:          -8.965
REMARK INTER:                  -8.083
REMARK INTRA:                  -0.882
REMARK UNBOUND:                -1.098
REMARK SMILES COc1cc(CNC(=O)CCCCC=CC(C)C)ccc1O
REMARK SMILES IDX 11 1 12 2 13 3 14 4 15 5 16 6 17 7 18 8 10 9 8 10 9 11 7 12
REMARK SMILES IDX 6 14 5 15 4 16 19 17 3 18 20 19 21 20 2 21 1 22 22 23
REMARK H PARENT 7 13 22 24
REMARK Flexibility Score: inf
ROOT
ATOM      1  C   UNL     1       6.046  25.319  59.049  1.00  0.00     0.010 C 
ENDROOT
BRANCH   1   2
ATOM      2  C   UNL     1       5.061  26.100  59.936  1.00  0.00     0.005 C 
BRANCH   2   3
ATOM      3  C   UNL     1       4.256  27.132  59.130  1.00  0.00     0.027 C 
BRANCH   3   4
ATOM      4  C   UNL     1       4.858  28.514  59.206  1.00  0.00    -0.031 C 
ATOM      5  C   UNL     1       5.396  29.181  58.167  1.00  0.00    -0.028 C 
BRANCH   5   6
ATOM      6  C   UNL     1       5.566  28.622  56.770  1.00  0.00     0.005 C 
ATOM      7  C   UNL     1       6.780  29.271  56.099  1.00  0.00     0.012 C 
ATOM      8  C   UNL     1       4.296  28.872  55.951  1.00  0.00     0.012 C 
ENDBRANCH   5   6
ENDBRANCH   3   4
ENDBRANCH   2   3
ENDBRANCH   1   2
BRANCH   1   9
ATOM      9  C   UNL     1       7.439  25.200  59.685  1.00  0.00     0.100 C 
BRANCH   9  10
ATOM     10  C   UNL     1       8.517  25.876  58.883  1.00  0.00     0.220 C 
ATOM     11  O   UNL     1       8.237  26.885  58.178  1.00  0.00    -0.275 OA
ATOM     12  N   UNL     1       9.841  25.323  58.863  1.00  0.00    -0.352 N 
ATOM     13  H   UNL     1      10.028  24.440  59.391  1.00  0.00     0.163 HD
BRANCH  12  14
ATOM     14  C   UNL     1      10.979  26.000  58.244  1.00  0.00     0.151 C 
BRANCH  14  15
ATOM     15  C   UNL     1      12.198  25.126  58.336  1.00  0.00    -0.025 A 
ATOM     16  C   UNL     1      12.698  24.492  57.187  1.00  0.00     0.056 A 
ATOM     17  C   UNL     1      12.876  24.980  59.556  1.00  0.00     0.009 A 
ATOM     18  C   UNL     1      13.859  23.694  57.256  1.00  0.00     0.160 A 
ATOM     19  C   UNL     1      14.020  24.184  59.634  1.00  0.00     0.050 A 
ATOM     20  C   UNL     1      14.512  23.539  58.494  1.00  0.00     0.157 A 
BRANCH  18  21
ATOM     21  O   UNL     1      14.387  23.052  56.124  1.00  0.00    -0.493 OA
ATOM     22  C   UNL     1      15.283  23.661  55.196  1.00  0.00     0.278 C 
ENDBRANCH  18  21
BRANCH  20  23
ATOM     23  O   UNL     1      15.657  22.749  58.608  1.00  0.00    -0.504 OA
ATOM     24  H   UNL     1      15.752  22.032  59.315  1.00  0.00     0.293 HD
ENDBRANCH  20  23
ENDBRANCH  14  15
ENDBRANCH  12  14
ENDBRANCH   9  10
ENDBRANCH   1   9
TORSDOF 10
ENDMDL
MODEL 3
REMARK VINA RESULT:    -5.026      3.965      7.655
REMARK INTER + INTRA:          -8.915
REMARK INTER:                  -7.337
REMARK INTRA:                  -1.578
REMARK UNBOUND:                -1.098
REMARK SMILES COc1cc(CNC(=O)CCCCC=CC(C)C)ccc1O
REMARK SMILES IDX 11 1 12 2 13 3 14 4 15 5 16 6 17 7 18 8 10 9 8 10 9 11 7 12
REMARK SMILES IDX 6 14 5 15 4 16 19 17 3 18 20 19 21 20 2 21 1 22 22 23
REMARK H PARENT 7 13 22 24
REMARK Flexibility Score: inf
ROOT
ATOM      1  C   UNL     1       7.416  23.857  61.902  1.00  0.00     0.010 C 
ENDROOT
BRANCH   1   2
ATOM      2  C   UNL     1       7.850  24.264  60.483  1.00  0.00     0.005 C 
BRANCH   2   3
ATOM      3  C   UNL     1       8.395  25.701  60.438  1.00  0.00     0.027 C 
BRANCH   3   4
ATOM      4  C   UNL     1       8.659  26.170  59.028  1.00  0.00    -0.031 C 
ATOM      5  C   UNL     1       9.846  26.089  58.397  1.00  0.00    -0.028 C 
BRANCH   5   6
ATOM      6  C   UNL     1      11.132  25.598  59.024  1.00  0.00     0.005 C 
ATOM      7  C   UNL     1      11.902  26.780  59.618  1.00  0.00     0.012 C 
ATOM      8  C   UNL     1      11.979  24.872  57.975  1.00  0.00     0.012 C 
ENDBRANCH   5   6
ENDBRANCH   3   4
ENDBRANCH   2   3
ENDBRANCH   1   2
BRANCH   1   9
ATOM      9  C   UNL     1       5.940  23.438  61.965  1.00  0.00     0.100 C 
BRANCH   9  10
ATOM     10  C   UNL     1       4.992  24.550  61.606  1.00  0.00     0.220 C 
ATOM     11  O   UNL     1       4.684  25.418  62.470  1.00  0.00    -0.275 OA
ATOM     12  N   UNL     1       4.383  24.573  60.307  1.00  0.00    -0.352 N 
ATOM     13  H   UNL     1       4.591  23.797  59.638  1.00  0.00     0.163 HD
BRANCH  12  14
ATOM     14  C   UNL     1       3.580  25.693  59.822  1.00  0.00     0.151 C 
BRANCH  14  15
ATOM     15  C   UNL     1       4.461  26.671  59.096  1.00  0.00    -0.025 A 
ATOM     16  C   UNL     1       4.733  27.927  59.661  1.00  0.00     0.056 A 
ATOM     17  C   UNL     1       5.059  26.317  57.877  1.00  0.00     0.009 A 
ATOM     18  C   UNL     1       5.582  28.841  59.002  1.00  0.00     0.160 A 
ATOM     19  C   UNL     1       5.893  27.219  57.214  1.00  0.00     0.050 A 
ATOM     20  C   UNL     1       6.154  28.478  57.768  1.00  0.00     0.157 A 
BRANCH  18  21
ATOM     21  O   UNL     1       5.880  30.102  59.544  1.00  0.00    -0.493 OA
ATOM     22  C   UNL     1       5.718  30.448  60.917  1.00  0.00     0.278 C 
ENDBRANCH  18  21
BRANCH  20  23
ATOM     23  O   UNL     1       6.991  29.356  57.078  1.00  0.00    -0.504 OA
ATOM     24  H   UNL     1       7.256  29.206  56.113  1.00  0.00     0.293 HD
ENDBRANCH  20  23
ENDBRANCH  14  15
ENDBRANCH  12  14
ENDBRANCH   9  10
ENDBRANCH   1   9
TORSDOF 10
ENDMDL
MODEL 4
REMARK VINA RESULT:    -5.019      6.407      8.075
REMARK INTER + INTRA:          -8.904
REMARK INTER:                  -7.952
REMARK INTRA:                  -0.952
REMARK UNBOUND:                -1.098
REMARK SMILES COc1cc(CNC(=O)CCCCC=CC(C)C)ccc1O
REMARK SMILES IDX 11 1 12 2 13 3 14 4 15 5 16 6 17 7 18 8 10 9 8 10 9 11 7 12
REMARK SMILES IDX 6 14 5 15 4 16 19 17 3 18 20 19 21 20 2 21 1 22 22 23
REMARK H PARENT 7 13 22 24
REMARK Flexibility Score: inf
ROOT
ATOM      1  C   UNL     1       4.961  28.805  61.131  1.00  0.00     0.010 C 
ENDROOT
BRANCH   1   2
ATOM      2  C   UNL     1       4.631  27.702  60.110  1.00  0.00     0.005 C 
BRANCH   2   3
ATOM      3  C   UNL     1       5.816  27.410  59.176  1.00  0.00     0.027 C 
BRANCH   3   4
ATOM      4  C   UNL     1       5.373  26.850  57.846  1.00  0.00    -0.031 C 
ATOM      5  C   UNL     1       5.273  27.558  56.705  1.00  0.00    -0.028 C 
BRANCH   5   6
ATOM      6  C   UNL     1       5.503  29.049  56.584  1.00  0.00     0.005 C 
ATOM      7  C   UNL     1       4.529  29.641  55.561  1.00  0.00     0.012 C 
ATOM      8  C   UNL     1       6.953  29.320  56.170  1.00  0.00     0.012 C 
ENDBRANCH   5   6
ENDBRANCH   3   4
ENDBRANCH   2   3
ENDBRANCH   1   2
BRANCH   1   9
ATOM      9  C   UNL     1       5.485  30.085  60.463  1.00  0.00     0.100 C 
BRANCH   9  10
ATOM     10  C   UNL     1       5.956  31.118  61.449  1.00  0.00     0.220 C 
ATOM     11  O   UNL     1       5.623  31.027  62.664  1.00  0.00    -0.275 OA
ATOM     12  N   UNL     1       6.717  32.245  60.990  1.00  0.00    -0.352 N 
ATOM     13  H   UNL     1       6.910  32.340  59.967  1.00  0.00     0.163 HD
BRANCH  12  14
ATOM     14  C   UNL     1       7.345  33.205  61.894  1.00  0.00     0.151 C 
BRANCH  14  15
ATOM     15  C   UNL     1       8.800  32.867  62.061  1.00  0.00    -0.025 A 
ATOM     16  C   UNL     1       9.779  33.630  61.405  1.00  0.00     0.056 A 
ATOM     17  C   UNL     1       9.193  31.823  62.912  1.00  0.00     0.009 A 
ATOM     18  C   UNL     1      11.149  33.339  61.577  1.00  0.00     0.160 A 
ATOM     19  C   UNL     1      10.546  31.523  63.080  1.00  0.00     0.050 A 
ATOM     20  C   UNL     1      11.523  32.273  62.416  1.00  0.00     0.157 A 
BRANCH  18  21
ATOM     21  O   UNL     1      12.153  34.087  60.940  1.00  0.00    -0.493 OA
ATOM     22  C   UNL     1      11.946  34.897  59.785  1.00  0.00     0.278 C 
ENDBRANCH  18  21
BRANCH  20  23
ATOM     23  O   UNL     1      12.867  31.945  62.606  1.00  0.00    -0.504 OA
ATOM     24  H   UNL     1      13.330  31.225  62.067  1.00  0.00     0.293 HD
ENDBRANCH  20  23
ENDBRANCH  14  15
ENDBRANCH  12  14
ENDBRANCH   9  10
ENDBRANCH   1   9
TORSDOF 10
ENDMDL
MODEL 5
REMARK VINA RESULT:    -4.971      4.062      7.569
REMARK INTER + INTRA:          -8.829
REMARK INTER:                  -7.542
REMARK INTRA:                  -1.287
REMARK UNBOUND:                -1.098
REMARK SMILES COc1cc(CNC(=O)CCCCC=CC(C)C)ccc1O
REMARK SMILES IDX 11 1 12 2 13 3 14 4 15 5 16 6 17 7 18 8 10 9 8 10 9 11 7 12
REMARK SMILES IDX 6 14 5 15 4 16 19 17 3 18 20 19 21 20 2 21 1 22 22 23
REMARK H PARENT 7 13 22 24
REMARK Flexibility Score: inf
ROOT
ATOM      1  C   UNL     1       7.060  25.172  59.295  1.00  0.00     0.010 C 
ENDROOT
BRANCH   1   2
ATOM      2  C   UNL     1       6.337  25.830  58.106  1.00  0.00     0.005 C 
BRANCH   2   3
ATOM      3  C   UNL     1       4.904  26.254  58.468  1.00  0.00     0.027 C 
BRANCH   3   4
ATOM      4  C   UNL     1       4.819  27.709  58.859  1.00  0.00    -0.031 C 
ATOM      5  C   UNL     1       4.996  28.746  58.019  1.00  0.00    -0.028 C 
BRANCH   5   6
ATOM      6  C   UNL     1       5.395  28.627  56.563  1.00  0.00     0.005 C 
ATOM      7  C   UNL     1       6.839  29.103  56.383  1.00  0.00     0.012 C 
ATOM      8  C   UNL     1       4.441  29.451  55.693  1.00  0.00     0.012 C 
ENDBRANCH   5   6
ENDBRANCH   3   4
ENDBRANCH   2   3
ENDBRANCH   1   2
BRANCH   1   9
ATOM      9  C   UNL     1       8.395  25.858  59.621  1.00  0.00     0.100 C 
BRANCH   9  10
ATOM     10  C   UNL     1       8.393  26.555  60.953  1.00  0.00     0.220 C 
ATOM     11  O   UNL     1       9.456  26.619  61.631  1.00  0.00    -0.275 OA
ATOM     12  N   UNL     1       7.165  27.076  61.482  1.00  0.00    -0.352 N 
ATOM     13  H   UNL     1       6.282  26.938  60.938  1.00  0.00     0.163 HD
BRANCH  12  14
ATOM     14  C   UNL     1       7.100  27.901  62.686  1.00  0.00     0.151 C 
BRANCH  14  15
ATOM     15  C   UNL     1       6.875  29.337  62.304  1.00  0.00    -0.025 A 
ATOM     16  C   UNL     1       7.812  30.318  62.667  1.00  0.00     0.056 A 
ATOM     17  C   UNL     1       5.756  29.700  61.538  1.00  0.00     0.009 A 
ATOM     18  C   UNL     1       7.624  31.664  62.289  1.00  0.00     0.160 A 
ATOM     19  C   UNL     1       5.559  31.031  61.168  1.00  0.00     0.050 A 
ATOM     20  C   UNL     1       6.484  32.013  61.541  1.00  0.00     0.157 A 
BRANCH  18  21
ATOM     21  O   UNL     1       8.546  32.667  62.631  1.00  0.00    -0.493 OA
ATOM     22  C   UNL     1       9.729  32.961  61.891  1.00  0.00     0.278 C 
ENDBRANCH  18  21
BRANCH  20  23
ATOM     23  O   UNL     1       6.255  33.335  61.155  1.00  0.00    -0.504 OA
ATOM     24  H   UNL     1       6.986  33.923  60.779  1.00  0.00     0.293 HD
ENDBRANCH  20  23
ENDBRANCH  14  15
ENDBRANCH  12  14
ENDBRANCH   9  10
ENDBRANCH   1   9
TORSDOF 10
ENDMDL
MODEL 6
REMARK VINA RESULT:    -4.907      5.720      8.609
REMARK INTER + INTRA:          -8.730
REMARK INTER:                  -7.478
REMARK INTRA:                  -1.253
REMARK UNBOUND:                -1.098
REMARK SMILES COc1cc(CNC(=O)CCCCC=CC(C)C)ccc1O
REMARK SMILES IDX 11 1 12 2 13 3 14 4 15 5 16 6 17 7 18 8 10 9 8 10 9 11 7 12
REMARK SMILES IDX 6 14 5 15 4 16 19 17 3 18 20 19 21 20 2 21 1 22 22 23
REMARK H PARENT 7 13 22 24
REMARK Flexibility Score: inf
ROOT
ATOM      1  C   UNL     1       6.877  27.339  60.985  1.00  0.00     0.010 C 
ENDROOT
BRANCH   1   2
ATOM      2  C   UNL     1       7.288  26.150  60.099  1.00  0.00     0.005 C 
BRANCH   2   3
ATOM      3  C   UNL     1       7.380  26.543  58.616  1.00  0.00     0.027 C 
BRANCH   3   4
ATOM      4  C   UNL     1       6.111  26.233  57.861  1.00  0.00    -0.031 C 
ATOM      5  C   UNL     1       5.331  27.147  57.252  1.00  0.00    -0.028 C 
BRANCH   5   6
ATOM      6  C   UNL     1       5.549  28.644  57.297  1.00  0.00     0.005 C 
ATOM      7  C   UNL     1       4.866  29.228  58.537  1.00  0.00     0.012 C 
ATOM      8  C   UNL     1       4.999  29.288  56.022  1.00  0.00     0.012 C 
ENDBRANCH   5   6
ENDBRANCH   3   4
ENDBRANCH   2   3
ENDBRANCH   1   2
BRANCH   1   9
ATOM      9  C   UNL     1       5.680  27.011  61.889  1.00  0.00     0.100 C 
BRANCH   9  10
ATOM     10  C   UNL     1       5.010  28.233  62.453  1.00  0.00     0.220 C 
ATOM     11  O   UNL     1       3.950  28.115  63.129  1.00  0.00    -0.275 OA
ATOM     12  N   UNL     1       5.535  29.535  62.153  1.00  0.00    -0.352 N 
ATOM     13  H   UNL     1       6.367  29.611  61.523  1.00  0.00     0.163 HD
BRANCH  12  14
ATOM     14  C   UNL     1       5.045  30.758  62.784  1.00  0.00     0.151 C 
BRANCH  14  15
ATOM     15  C   UNL     1       5.920  31.916  62.391  1.00  0.00    -0.025 A 
ATOM     16  C   UNL     1       7.304  31.731  62.238  1.00  0.00     0.056 A 
ATOM     17  C   UNL     1       5.356  33.173  62.124  1.00  0.00     0.009 A 
ATOM     18  C   UNL     1       8.130  32.804  61.842  1.00  0.00     0.160 A 
ATOM     19  C   UNL     1       6.169  34.241  61.741  1.00  0.00     0.050 A 
ATOM     20  C   UNL     1       7.550  34.064  61.602  1.00  0.00     0.157 A 
BRANCH  18  21
ATOM     21  O   UNL     1       9.516  32.651  61.674  1.00  0.00    -0.493 OA
ATOM     22  C   UNL     1      10.361  31.925  62.563  1.00  0.00     0.278 C 
ENDBRANCH  18  21
BRANCH  20  23
ATOM     23  O   UNL     1       8.333  35.154  61.218  1.00  0.00    -0.504 OA
ATOM     24  H   UNL     1       9.088  35.507  61.791  1.00  0.00     0.293 HD
ENDBRANCH  20  23
ENDBRANCH  14  15
ENDBRANCH  12  14
ENDBRANCH   9  10
ENDBRANCH   1   9
TORSDOF 10
ENDMDL
MODEL 7
REMARK VINA RESULT:    -4.902      5.439      9.175
REMARK INTER + INTRA:          -8.721
REMARK INTER:                  -7.405
REMARK INTRA:                  -1.317
REMARK UNBOUND:                -1.098
REMARK SMILES COc1cc(CNC(=O)CCCCC=CC(C)C)ccc1O
REMARK SMILES IDX 11 1 12 2 13 3 14 4 15 5 16 6 17 7 18 8 10 9 8 10 9 11 7 12
REMARK SMILES IDX 6 14 5 15 4 16 19 17 3 18 20 19 21 20 2 21 1 22 22 23
REMARK H PARENT 7 13 22 24
REMARK Flexibility Score: inf
ROOT
ATOM      1  C   UNL     1       5.967  26.463  60.717  1.00  0.00     0.010 C 
ENDROOT
BRANCH   1   2
ATOM      2  C   UNL     1       7.361  26.243  60.103  1.00  0.00     0.005 C 
BRANCH   2   3
ATOM      3  C   UNL     1       7.407  26.651  58.621  1.00  0.00     0.027 C 
BRANCH   3   4
ATOM      4  C   UNL     1       6.153  26.257  57.879  1.00  0.00    -0.031 C 
ATOM      5  C   UNL     1       5.310  27.116  57.276  1.00  0.00    -0.028 C 
BRANCH   5   6
ATOM      6  C   UNL     1       5.431  28.624  57.315  1.00  0.00     0.005 C 
ATOM      7  C   UNL     1       4.687  29.170  58.537  1.00  0.00     0.012 C 
ATOM      8  C   UNL     1       4.866  29.225  56.024  1.00  0.00     0.012 C 
ENDBRANCH   5   6
ENDBRANCH   3   4
ENDBRANCH   2   3
ENDBRANCH   1   2
BRANCH   1   9
ATOM      9  C   UNL     1       5.868  25.924  62.152  1.00  0.00     0.100 C 
BRANCH   9  10
ATOM     10  C   UNL     1       5.583  26.995  63.169  1.00  0.00     0.220 C 
ATOM     11  O   UNL     1       5.959  26.844  64.364  1.00  0.00    -0.275 OA
ATOM     12  N   UNL     1       4.817  28.149  62.792  1.00  0.00    -0.352 N 
ATOM     13  H   UNL     1       4.446  28.212  61.816  1.00  0.00     0.163 HD
BRANCH  12  14
ATOM     14  C   UNL     1       4.630  29.304  63.667  1.00  0.00     0.151 C 
BRANCH  14  15
ATOM     15  C   UNL     1       5.036  30.557  62.944  1.00  0.00    -0.025 A 
ATOM     16  C   UNL     1       4.605  31.810  63.410  1.00  0.00     0.056 A 
ATOM     17  C   UNL     1       5.891  30.490  61.833  1.00  0.00     0.009 A 
ATOM     18  C   UNL     1       5.004  32.994  62.756  1.00  0.00     0.160 A 
ATOM     19  C   UNL     1       6.282  31.657  61.175  1.00  0.00     0.050 A 
ATOM     20  C   UNL     1       5.842  32.906  61.628  1.00  0.00     0.157 A 
BRANCH  18  21
ATOM     21  O   UNL     1       4.595  34.262  63.201  1.00  0.00    -0.493 OA
ATOM     22  C   UNL     1       3.303  34.554  63.729  1.00  0.00     0.278 C 
ENDBRANCH  18  21
BRANCH  20  23
ATOM     23  O   UNL     1       6.252  34.053  60.946  1.00  0.00    -0.504 OA
ATOM     24  H   UNL     1       7.177  34.446  61.055  1.00  0.00     0.293 HD
ENDBRANCH  20  23
ENDBRANCH  14  15
ENDBRANCH  12  14
ENDBRANCH   9  10
ENDBRANCH   1   9
TORSDOF 10
ENDMDL
MODEL 8
REMARK VINA RESULT:    -4.874      1.609      2.742
REMARK INTER + INTRA:          -8.678
REMARK INTER:                  -7.742
REMARK INTRA:                  -0.936
REMARK UNBOUND:                -1.098
REMARK SMILES COc1cc(CNC(=O)CCCCC=CC(C)C)ccc1O
REMARK SMILES IDX 11 1 12 2 13 3 14 4 15 5 16 6 17 7 18 8 10 9 8 10 9 11 7 12
REMARK SMILES IDX 6 14 5 15 4 16 19 17 3 18 20 19 21 20 2 21 1 22 22 23
REMARK H PARENT 7 13 22 24
REMARK Flexibility Score: inf
ROOT
ATOM      1  C   UNL     1       8.286  25.351  59.681  1.00  0.00     0.010 C 
ENDROOT
BRANCH   1   2
ATOM      2  C   UNL     1       6.985  26.050  60.113  1.00  0.00     0.005 C 
BRANCH   2   3
ATOM      3  C   UNL     1       5.821  25.740  59.157  1.00  0.00     0.027 C 
BRANCH   3   4
ATOM      4  C   UNL     1       4.732  26.782  59.225  1.00  0.00    -0.031 C 
ATOM      5  C   UNL     1       4.483  27.703  58.274  1.00  0.00    -0.028 C 
BRANCH   5   6
ATOM      6  C   UNL     1       5.308  27.903  57.022  1.00  0.00     0.005 C 
ATOM      7  C   UNL     1       6.516  28.791  57.335  1.00  0.00     0.012 C 
ATOM      8  C   UNL     1       4.445  28.531  55.924  1.00  0.00     0.012 C 
ENDBRANCH   5   6
ENDBRANCH   3   4
ENDBRANCH   2   3
ENDBRANCH   1   2
BRANCH   1   9
ATOM      9  C   UNL     1       9.074  26.167  58.646  1.00  0.00     0.100 C 
BRANCH   9  10
ATOM     10  C   UNL     1      10.535  25.810  58.599  1.00  0.00     0.220 C 
ATOM     11  O   UNL     1      11.301  26.402  57.788  1.00  0.00    -0.275 OA
ATOM     12  N   UNL     1      11.035  24.745  59.420  1.00  0.00    -0.352 N 
ATOM     13  H   UNL     1      10.364  24.216  60.024  1.00  0.00     0.163 HD
BRANCH  12  14
ATOM     14  C   UNL     1      12.457  24.440  59.553  1.00  0.00     0.151 C 
BRANCH  14  15
ATOM     15  C   UNL     1      12.816  23.295  58.649  1.00  0.00    -0.025 A 
ATOM     16  C   UNL     1      13.350  23.545  57.374  1.00  0.00     0.056 A 
ATOM     17  C   UNL     1      12.671  21.970  59.090  1.00  0.00     0.009 A 
ATOM     18  C   UNL     1      13.717  22.478  56.529  1.00  0.00     0.160 A 
ATOM     19  C   UNL     1      13.024  20.909  58.255  1.00  0.00     0.050 A 
ATOM     20  C   UNL     1      13.542  21.155  56.978  1.00  0.00     0.157 A 
BRANCH  18  21
ATOM     21  O   UNL     1      14.260  22.695  55.251  1.00  0.00    -0.493 OA
ATOM     22  C   UNL     1      15.609  23.085  55.004  1.00  0.00     0.278 C 
ENDBRANCH  18  21
BRANCH  20  23
ATOM     23  O   UNL     1      13.884  20.070  56.169  1.00  0.00    -0.504 OA
ATOM     24  H   UNL     1      13.691  19.114  56.437  1.00  0.00     0.293 HD
ENDBRANCH  20  23
ENDBRANCH  14  15
ENDBRANCH  12  14
ENDBRANCH   9  10
ENDBRANCH   1   9
TORSDOF 10
ENDMDL
MODEL 9
REMARK VINA RESULT:    -4.872      5.365      9.401
REMARK INTER + INTRA:          -8.676
REMARK INTER:                  -7.573
REMARK INTRA:                  -1.103
REMARK UNBOUND:                -1.098
REMARK SMILES COc1cc(CNC(=O)CCCCC=CC(C)C)ccc1O
REMARK SMILES IDX 11 1 12 2 13 3 14 4 15 5 16 6 17 7 18 8 10 9 8 10 9 11 7 12
REMARK SMILES IDX 6 14 5 15 4 16 19 17 3 18 20 19 21 20 2 21 1 22 22 23
REMARK H PARENT 7 13 22 24
REMARK Flexibility Score: inf
ROOT
ATOM      1  C   UNL     1       6.325  28.175  57.670  1.00  0.00     0.010 C 
ENDROOT
BRANCH   1   2
ATOM      2  C   UNL     1       5.744  26.770  57.429  1.00  0.00     0.005 C 
BRANCH   2   3
ATOM      3  C   UNL     1       6.420  25.709  58.314  1.00  0.00     0.027 C 
BRANCH   3   4
ATOM      4  C   UNL     1       7.834  26.087  58.682  1.00  0.00    -0.031 C 
ATOM      5  C   UNL     1       8.287  26.253  59.940  1.00  0.00    -0.028 C 
BRANCH   5   6
ATOM      6  C   UNL     1       7.434  26.173  61.188  1.00  0.00     0.005 C 
ATOM      7  C   UNL     1       7.741  27.364  62.100  1.00  0.00     0.012 C 
ATOM      8  C   UNL     1       7.699  24.851  61.915  1.00  0.00     0.012 C 
ENDBRANCH   5   6
ENDBRANCH   3   4
ENDBRANCH   2   3
ENDBRANCH   1   2
BRANCH   1   9
ATOM      9  C   UNL     1       5.266  29.168  58.170  1.00  0.00     0.100 C 
BRANCH   9  10
ATOM     10  C   UNL     1       5.306  29.378  59.659  1.00  0.00     0.220 C 
ATOM     11  O   UNL     1       4.894  28.470  60.434  1.00  0.00    -0.275 OA
ATOM     12  N   UNL     1       5.739  30.640  60.188  1.00  0.00    -0.352 N 
ATOM     13  H   UNL     1       5.998  31.404  59.523  1.00  0.00     0.163 HD
BRANCH  12  14
ATOM     14  C   UNL     1       5.959  30.874  61.614  1.00  0.00     0.151 C 
BRANCH  14  15
ATOM     15  C   UNL     1       6.490  32.265  61.822  1.00  0.00    -0.025 A 
ATOM     16  C   UNL     1       7.875  32.492  61.852  1.00  0.00     0.056 A 
ATOM     17  C   UNL     1       5.609  33.351  61.934  1.00  0.00     0.009 A 
ATOM     18  C   UNL     1       8.385  33.796  62.018  1.00  0.00     0.160 A 
ATOM     19  C   UNL     1       6.105  34.644  62.108  1.00  0.00     0.050 A 
ATOM     20  C   UNL     1       7.486  34.872  62.153  1.00  0.00     0.157 A 
BRANCH  18  21
ATOM     21  O   UNL     1       9.764  34.057  62.046  1.00  0.00    -0.493 OA
ATOM     22  C   UNL     1      10.597  34.116  60.890  1.00  0.00     0.278 C 
ENDBRANCH  18  21
BRANCH  20  23
ATOM     23  O   UNL     1       7.947  36.177  62.329  1.00  0.00    -0.504 OA
ATOM     24  H   UNL     1       8.263  36.748  61.557  1.00  0.00     0.293 HD
ENDBRANCH  20  23
ENDBRANCH  14  15
ENDBRANCH  12  14
ENDBRANCH   9  10
ENDBRANCH   1   9
TORSDOF 10
ENDMDL
