MODEL 1
REMARK VINA RESULT:    -5.390      0.000      0.000
REMARK INTER + INTRA:          -5.547
REMARK INTER:                  -5.547
REMARK INTRA:                   0.000
REMARK UNBOUND:                 0.000
REMARK SMILES O=c1ccc2ccc(O)cc2o1
REMARK SMILES IDX 6 1 7 2 8 3 10 4 11 5 5 6 4 7 3 8 2 9 1 10 12 11 9 12
REMARK H PARENT 9 13
REMARK Flexibility Score: inf
ROOT
ATOM      1  C   UNL     1      21.429  -0.748 -22.580  1.00  0.00     0.016 A 
ATOM      2  C   UNL     1      21.868   0.463 -23.125  1.00  0.00     0.047 A 
ATOM      3  C   UNL     1      21.809   1.643 -22.368  1.00  0.00     0.119 A 
ATOM      4  C   UNL     1      21.310   1.609 -21.061  1.00  0.00     0.094 A 
ATOM      5  C   UNL     1      20.869   0.403 -20.506  1.00  0.00     0.142 A 
ATOM      6  C   UNL     1      20.929  -0.783 -21.271  1.00  0.00     0.018 A 
ATOM      7  C   UNL     1      20.480  -1.974 -20.690  1.00  0.00     0.019 A 
ATOM      8  C   UNL     1      19.992  -1.957 -19.384  1.00  0.00     0.094 A 
ATOM      9  C   UNL     1      19.963  -0.744 -18.687  1.00  0.00     0.336 A 
ATOM     10  O   UNL     1      19.526  -0.708 -17.506  1.00  0.00    -0.246 OA
ATOM     11  O   UNL     1      20.395   0.375 -19.262  1.00  0.00    -0.423 OA
ENDROOT
BRANCH   3  12
ATOM     12  O   UNL     1      22.245   2.852 -22.906  1.00  0.00    -0.508 OA
ATOM     13  H   UNL     1      22.676   2.899 -23.821  1.00  0.00     0.293 HD
ENDBRANCH   3  12
TORSDOF 1
ENDMDL
MODEL 2
REMARK VINA RESULT:    -5.146     15.669     18.423
REMARK INTER + INTRA:          -5.296
REMARK INTER:                  -5.296
REMARK INTRA:                   0.000
REMARK UNBOUND:                 0.000
REMARK SMILES O=c1ccc2ccc(O)cc2o1
REMARK SMILES IDX 6 1 7 2 8 3 10 4 11 5 5 6 4 7 3 8 2 9 1 10 12 11 9 12
REMARK H PARENT 9 13
REMARK Flexibility Score: inf
ROOT
ATOM      1  C   UNL     1      12.885   4.274  -3.509  1.00  0.00     0.016 A 
ATOM      2  C   UNL     1      11.808   3.645  -2.877  1.00  0.00     0.047 A 
ATOM      3  C   UNL     1      11.092   2.634  -3.536  1.00  0.00     0.119 A 
ATOM      4  C   UNL     1      11.457   2.252  -4.833  1.00  0.00     0.094 A 
ATOM      5  C   UNL     1      12.534   2.875  -5.473  1.00  0.00     0.142 A 
ATOM      6  C   UNL     1      13.252   3.892  -4.807  1.00  0.00     0.018 A 
ATOM      7  C   UNL     1      14.323   4.497  -5.473  1.00  0.00     0.019 A 
ATOM      8  C   UNL     1      14.649   4.082  -6.763  1.00  0.00     0.094 A 
ATOM      9  C   UNL     1      13.893   3.068  -7.361  1.00  0.00     0.336 A 
ATOM     10  O   UNL     1      14.171   2.679  -8.525  1.00  0.00    -0.246 OA
ATOM     11  O   UNL     1      12.878   2.509  -6.706  1.00  0.00    -0.423 OA
ENDROOT
BRANCH   3  12
ATOM     12  O   UNL     1      10.017   2.004  -2.912  1.00  0.00    -0.508 OA
ATOM     13  H   UNL     1       9.405   2.504  -2.279  1.00  0.00     0.293 HD
ENDBRANCH   3  12
TORSDOF 1
ENDMDL
MODEL 3
REMARK VINA RESULT:    -5.122     16.474     19.221
REMARK INTER + INTRA:          -5.271
REMARK INTER:                  -5.271
REMARK INTRA:                   0.000
REMARK UNBOUND:                 0.000
REMARK SMILES O=c1ccc2ccc(O)cc2o1
REMARK SMILES IDX 6 1 7 2 8 3 10 4 11 5 5 6 4 7 3 8 2 9 1 10 12 11 9 12
REMARK H PARENT 9 13
REMARK Flexibility Score: inf
ROOT
ATOM      1  C   UNL     1       8.293  -8.117  -6.612  1.00  0.00     0.016 A 
ATOM      2  C   UNL     1       7.708  -7.221  -5.713  1.00  0.00     0.047 A 
ATOM      3  C   UNL     1       8.183  -5.904  -5.615  1.00  0.00     0.119 A 
ATOM      4  C   UNL     1       9.247  -5.485  -6.422  1.00  0.00     0.094 A 
ATOM      5  C   UNL     1       9.839  -6.374  -7.325  1.00  0.00     0.142 A 
ATOM      6  C   UNL     1       9.359  -7.699  -7.421  1.00  0.00     0.018 A 
ATOM      7  C   UNL     1       9.970  -8.565  -8.333  1.00  0.00     0.019 A 
ATOM      8  C   UNL     1      11.027  -8.101  -9.115  1.00  0.00     0.094 A 
ATOM      9  C   UNL     1      11.450  -6.775  -8.966  1.00  0.00     0.336 A 
ATOM     10  O   UNL     1      12.402  -6.337  -9.663  1.00  0.00    -0.246 OA
ATOM     11  O   UNL     1      10.851  -5.971  -8.091  1.00  0.00    -0.423 OA
ENDROOT
BRANCH   3  12
ATOM     12  O   UNL     1       7.605  -5.006  -4.720  1.00  0.00    -0.508 OA
ATOM     13  H   UNL     1       6.989  -5.320  -3.979  1.00  0.00     0.293 HD
ENDBRANCH   3  12
TORSDOF 1
ENDMDL
MODEL 4
REMARK VINA RESULT:    -5.032     18.735     20.475
REMARK INTER + INTRA:          -5.179
REMARK INTER:                  -5.179
REMARK INTRA:                   0.000
REMARK UNBOUND:                 0.000
REMARK SMILES O=c1ccc2ccc(O)cc2o1
REMARK SMILES IDX 6 1 7 2 8 3 10 4 11 5 5 6 4 7 3 8 2 9 1 10 12 11 9 12
REMARK H PARENT 9 13
REMARK Flexibility Score: inf
ROOT
ATOM      1  C   UNL     1       5.013   3.758  -6.989  1.00  0.00     0.016 A 
ATOM      2  C   UNL     1       6.056   2.828  -6.956  1.00  0.00     0.047 A 
ATOM      3  C   UNL     1       7.140   2.948  -7.839  1.00  0.00     0.119 A 
ATOM      4  C   UNL     1       7.179   4.005  -8.756  1.00  0.00     0.094 A 
ATOM      5  C   UNL     1       6.140   4.941  -8.796  1.00  0.00     0.142 A 
ATOM      6  C   UNL     1       5.050   4.817  -7.907  1.00  0.00     0.018 A 
ATOM      7  C   UNL     1       4.027   5.767  -7.971  1.00  0.00     0.019 A 
ATOM      8  C   UNL     1       4.110   6.802  -8.902  1.00  0.00     0.094 A 
ATOM      9  C   UNL     1       5.220   6.862  -9.751  1.00  0.00     0.336 A 
ATOM     10  O   UNL     1       5.315   7.788 -10.599  1.00  0.00    -0.246 OA
ATOM     11  O   UNL     1       6.181   5.944  -9.671  1.00  0.00    -0.423 OA
ENDROOT
BRANCH   3  12
ATOM     12  O   UNL     1       8.183   2.024  -7.812  1.00  0.00    -0.508 OA
ATOM     13  H   UNL     1       8.305   1.386  -7.033  1.00  0.00     0.293 HD
ENDBRANCH   3  12
TORSDOF 1
ENDMDL
MODEL 5
REMARK VINA RESULT:    -4.924     17.122     18.689
REMARK INTER + INTRA:          -5.068
REMARK INTER:                  -5.068
REMARK INTRA:                   0.000
REMARK UNBOUND:                 0.000
REMARK SMILES O=c1ccc2ccc(O)cc2o1
REMARK SMILES IDX 6 1 7 2 8 3 10 4 11 5 5 6 4 7 3 8 2 9 1 10 12 11 9 12
REMARK H PARENT 9 13
REMARK Flexibility Score: inf
ROOT
ATOM      1  C   UNL     1       7.707  -6.751  -7.256  1.00  0.00     0.016 A 
ATOM      2  C   UNL     1       8.389  -5.959  -6.328  1.00  0.00     0.047 A 
ATOM      3  C   UNL     1       9.740  -5.637  -6.527  1.00  0.00     0.119 A 
ATOM      4  C   UNL     1      10.409  -6.111  -7.661  1.00  0.00     0.094 A 
ATOM      5  C   UNL     1       9.736  -6.904  -8.597  1.00  0.00     0.142 A 
ATOM      6  C   UNL     1       8.376  -7.226  -8.393  1.00  0.00     0.018 A 
ATOM      7  C   UNL     1       7.730  -8.021  -9.345  1.00  0.00     0.019 A 
ATOM      8  C   UNL     1       8.440  -8.469 -10.459  1.00  0.00     0.094 A 
ATOM      9  C   UNL     1       9.785  -8.110 -10.595  1.00  0.00     0.336 A 
ATOM     10  O   UNL     1      10.443  -8.503 -11.593  1.00  0.00    -0.246 OA
ATOM     11  O   UNL     1      10.377  -7.352  -9.674  1.00  0.00    -0.423 OA
ENDROOT
BRANCH   3  12
ATOM     12  O   UNL     1      10.424  -4.848  -5.605  1.00  0.00    -0.508 OA
ATOM     13  H   UNL     1      11.202  -4.261  -5.884  1.00  0.00     0.293 HD
ENDBRANCH   3  12
TORSDOF 1
ENDMDL
MODEL 6
REMARK VINA RESULT:    -4.776     15.360     18.208
REMARK INTER + INTRA:          -4.916
REMARK INTER:                  -4.916
REMARK INTRA:                   0.000
REMARK UNBOUND:                 0.000
REMARK SMILES O=c1ccc2ccc(O)cc2o1
REMARK SMILES IDX 6 1 7 2 8 3 10 4 11 5 5 6 4 7 3 8 2 9 1 10 12 11 9 12
REMARK H PARENT 9 13
REMARK Flexibility Score: inf
ROOT
ATOM      1  C   UNL     1       7.604  -5.523  -8.853  1.00  0.00     0.016 A 
ATOM      2  C   UNL     1       7.220  -5.697  -7.520  1.00  0.00     0.047 A 
ATOM      3  C   UNL     1       8.175  -6.021  -6.544  1.00  0.00     0.119 A 
ATOM      4  C   UNL     1       9.519  -6.169  -6.905  1.00  0.00     0.094 A 
ATOM      5  C   UNL     1       9.913  -5.996  -8.237  1.00  0.00     0.142 A 
ATOM      6  C   UNL     1       8.950  -5.671  -9.217  1.00  0.00     0.018 A 
ATOM      7  C   UNL     1       9.374  -5.504 -10.539  1.00  0.00     0.019 A 
ATOM      8  C   UNL     1      10.724  -5.662 -10.850  1.00  0.00     0.094 A 
ATOM      9  C   UNL     1      11.622  -5.984  -9.826  1.00  0.00     0.336 A 
ATOM     10  O   UNL     1      12.846  -6.131 -10.086  1.00  0.00    -0.246 OA
ATOM     11  O   UNL     1      11.193  -6.137  -8.576  1.00  0.00    -0.423 OA
ENDROOT
BRANCH   3  12
ATOM     12  O   UNL     1       7.798  -6.196  -5.214  1.00  0.00    -0.508 OA
ATOM     13  H   UNL     1       7.862  -7.100  -4.761  1.00  0.00     0.293 HD
ENDBRANCH   3  12
TORSDOF 1
ENDMDL
MODEL 7
REMARK VINA RESULT:    -4.733     15.351     17.968
REMARK INTER + INTRA:          -4.872
REMARK INTER:                  -4.872
REMARK INTRA:                   0.000
REMARK UNBOUND:                 0.000
REMARK SMILES O=c1ccc2ccc(O)cc2o1
REMARK SMILES IDX 6 1 7 2 8 3 10 4 11 5 5 6 4 7 3 8 2 9 1 10 12 11 9 12
REMARK H PARENT 9 13
REMARK Flexibility Score: inf
ROOT
ATOM      1  C   UNL     1       9.219  -6.197  -6.934  1.00  0.00     0.016 A 
ATOM      2  C   UNL     1       7.924  -5.671  -6.897  1.00  0.00     0.047 A 
ATOM      3  C   UNL     1       7.324  -5.183  -8.068  1.00  0.00     0.119 A 
ATOM      4  C   UNL     1       8.024  -5.223  -9.279  1.00  0.00     0.094 A 
ATOM      5  C   UNL     1       9.320  -5.747  -9.326  1.00  0.00     0.142 A 
ATOM      6  C   UNL     1       9.921  -6.238  -8.146  1.00  0.00     0.018 A 
ATOM      7  C   UNL     1      11.218  -6.756  -8.225  1.00  0.00     0.019 A 
ATOM      8  C   UNL     1      11.875  -6.774  -9.455  1.00  0.00     0.094 A 
ATOM      9  C   UNL     1      11.217  -6.271 -10.582  1.00  0.00     0.336 A 
ATOM     10  O   UNL     1      11.792  -6.279 -11.702  1.00  0.00    -0.246 OA
ATOM     11  O   UNL     1       9.982  -5.783 -10.481  1.00  0.00    -0.423 OA
ENDROOT
BRANCH   3  12
ATOM     12  O   UNL     1       6.034  -4.658  -8.037  1.00  0.00    -0.508 OA
ATOM     13  H   UNL     1       5.244  -5.170  -8.413  1.00  0.00     0.293 HD
ENDBRANCH   3  12
TORSDOF 1
ENDMDL
MODEL 8
REMARK VINA RESULT:    -4.714     15.647     17.964
REMARK INTER + INTRA:          -4.852
REMARK INTER:                  -4.852
REMARK INTRA:                   0.000
REMARK UNBOUND:                 0.000
REMARK SMILES O=c1ccc2ccc(O)cc2o1
REMARK SMILES IDX 6 1 7 2 8 3 10 4 11 5 5 6 4 7 3 8 2 9 1 10 12 11 9 12
REMARK H PARENT 9 13
REMARK Flexibility Score: inf
ROOT
ATOM      1  C   UNL     1      14.437   4.550  -5.469  1.00  0.00     0.016 A 
ATOM      2  C   UNL     1      14.728   4.146  -6.776  1.00  0.00     0.047 A 
ATOM      3  C   UNL     1      13.916   3.202  -7.422  1.00  0.00     0.119 A 
ATOM      4  C   UNL     1      12.809   2.661  -6.758  1.00  0.00     0.094 A 
ATOM      5  C   UNL     1      12.510   3.060  -5.450  1.00  0.00     0.142 A 
ATOM      6  C   UNL     1      13.329   4.010  -4.802  1.00  0.00     0.018 A 
ATOM      7  C   UNL     1      13.005   4.388  -3.495  1.00  0.00     0.019 A 
ATOM      8  C   UNL     1      11.891   3.822  -2.875  1.00  0.00     0.094 A 
ATOM      9  C   UNL     1      11.125   2.887  -3.579  1.00  0.00     0.336 A 
ATOM     10  O   UNL     1      10.116   2.364  -3.037  1.00  0.00    -0.246 OA
ATOM     11  O   UNL     1      11.456   2.543  -4.822  1.00  0.00    -0.423 OA
ENDROOT
BRANCH   3  12
ATOM     12  O   UNL     1      14.201   2.794  -8.724  1.00  0.00    -0.508 OA
ATOM     13  H   UNL     1      13.618   3.072  -9.505  1.00  0.00     0.293 HD
ENDBRANCH   3  12
TORSDOF 1
ENDMDL
MODEL 9
REMARK VINA RESULT:    -4.671     16.247     18.291
REMARK INTER + INTRA:          -4.808
REMARK INTER:                  -4.808
REMARK INTRA:                   0.000
REMARK UNBOUND:                 0.000
REMARK SMILES O=c1ccc2ccc(O)cc2o1
REMARK SMILES IDX 6 1 7 2 8 3 10 4 11 5 5 6 4 7 3 8 2 9 1 10 12 11 9 12
REMARK H PARENT 9 13
REMARK Flexibility Score: inf
ROOT
ATOM      1  C   UNL     1      10.467  -6.319  -7.745  1.00  0.00     0.016 A 
ATOM      2  C   UNL     1       9.747  -5.975  -6.597  1.00  0.00     0.047 A 
ATOM      3  C   UNL     1       8.405  -5.578  -6.696  1.00  0.00     0.119 A 
ATOM      4  C   UNL     1       7.783  -5.526  -7.949  1.00  0.00     0.094 A 
ATOM      5  C   UNL     1       8.495  -5.868  -9.103  1.00  0.00     0.142 A 
ATOM      6  C   UNL     1       9.846  -6.267  -9.001  1.00  0.00     0.018 A 
ATOM      7  C   UNL     1      10.533  -6.603 -10.172  1.00  0.00     0.019 A 
ATOM      8  C   UNL     1       9.870  -6.536 -11.397  1.00  0.00     0.094 A 
ATOM      9  C   UNL     1       8.531  -6.132 -11.422  1.00  0.00     0.336 A 
ATOM     10  O   UNL     1       7.915  -6.065 -12.518  1.00  0.00    -0.246 OA
ATOM     11  O   UNL     1       7.900  -5.817 -10.293  1.00  0.00    -0.423 OA
ENDROOT
BRANCH   3  12
ATOM     12  O   UNL     1       7.681  -5.234  -5.556  1.00  0.00    -0.508 OA
ATOM     13  H   UNL     1       7.937  -4.435  -4.988  1.00  0.00     0.293 HD
ENDBRANCH   3  12
TORSDOF 1
ENDMDL
