MODEL 1
REMARK VINA RESULT:     1.459      0.000      0.000
REMARK INTER + INTRA:           9.191
REMARK INTER:                   2.398
REMARK INTRA:                   6.794
REMARK UNBOUND:                 6.794
REMARK SMILES COc1ccc([C@@H]2CC(=O)c3c(O)cc(O[C@@H]4O[C@H](CO[C@@H]5O[C@H](C)[C@@H](O)[C@@H](O)[C@@H]5O)[C@@H](O)[C@@H](O)[C@@H]4O)cc3O2)cc1O
REMARK SMILES IDX 19 1 32 2 34 3 36 4 17 5 18 6 20 7 21 8 22 9 25 10 24 11
REMARK SMILES IDX 26 12 23 13 28 14 30 15 27 16 29 18 31 20 33 22 35 24 16 26
REMARK SMILES IDX 15 27 14 28 38 29 12 30 39 31 11 32 40 33 9 34 7 35 10 36
REMARK SMILES IDX 8 37 13 38 6 40 41 41 5 42 42 43 4 44 3 45 43 46 2 48 1 49
REMARK SMILES IDX 37 50
REMARK H PARENT 27 17 29 19 31 21 33 23 35 25 13 39 43 47 37 51
REMARK Flexibility Score: inf
ROOT
ATOM      1  C   UNL     1      18.811 -23.217  -2.640  1.00  0.00     0.180 C 
ATOM      2  C   UNL     1      19.223 -23.329  -1.138  1.00  0.00     0.177 C 
ATOM      3  C   UNL     1      18.103 -24.020  -0.336  1.00  0.00     0.180 C 
ATOM      4  C   UNL     1      16.712 -23.406  -0.587  1.00  0.00     0.214 C 
ATOM      5  C   UNL     1      16.716 -22.399  -1.743  1.00  0.00     0.339 C 
ATOM      6  O   UNL     1      17.451 -22.846  -2.865  1.00  0.00    -0.332 OA
ENDROOT
BRANCH   1   7
ATOM      7  C   UNL     1      19.074 -24.526  -3.453  1.00  0.00     0.198 C 
BRANCH   7   8
ATOM      8  O   UNL     1      20.058 -24.346  -4.466  1.00  0.00    -0.347 OA
BRANCH   8   9
ATOM      9  C   UNL     1      21.288 -25.029  -4.195  1.00  0.00     0.281 C 
ATOM     10  C   UNL     1      20.602 -28.590  -3.309  1.00  0.00     0.041 C 
ATOM     11  C   UNL     1      21.244 -27.215  -3.129  1.00  0.00     0.150 C 
ATOM     12  C   UNL     1      20.833 -26.573  -1.751  1.00  0.00     0.174 C 
ATOM     13  O   UNL     1      20.957 -26.422  -4.278  1.00  0.00    -0.344 OA
ATOM     14  C   UNL     1      20.960 -25.017  -1.744  1.00  0.00     0.179 C 
ATOM     15  C   UNL     1      21.956 -24.638  -2.838  1.00  0.00     0.202 C 
BRANCH  12  16
ATOM     16  O   UNL     1      21.634 -27.139  -0.732  1.00  0.00    -0.388 OA
ATOM     17  H   UNL     1      21.375 -26.681   0.124  1.00  0.00     0.211 HD
ENDBRANCH  12  16
BRANCH  14  18
ATOM     18  O   UNL     1      21.338 -24.538  -0.476  1.00  0.00    -0.387 OA
ATOM     19  H   UNL     1      20.509 -24.527   0.095  1.00  0.00     0.211 HD
ENDBRANCH  14  18
BRANCH  15  20
ATOM     20  O   UNL     1      22.311 -23.286  -2.772  1.00  0.00    -0.385 OA
ATOM     21  H   UNL     1      22.126 -22.881  -3.650  1.00  0.00     0.211 HD
ENDBRANCH  15  20
ENDBRANCH   8   9
ENDBRANCH   7   8
ENDBRANCH   1   7
BRANCH   2  22
ATOM     22  O   UNL     1      19.640 -22.076  -0.659  1.00  0.00    -0.387 OA
ATOM     23  H   UNL     1      19.840 -21.484  -1.410  1.00  0.00     0.211 HD
ENDBRANCH   2  22
BRANCH   3  24
ATOM     24  O   UNL     1      18.399 -24.095   1.042  1.00  0.00    -0.387 OA
ATOM     25  H   UNL     1      18.752 -23.217   1.351  1.00  0.00     0.211 HD
ENDBRANCH   3  24
BRANCH   5  26
ATOM     26  O   UNL     1      15.365 -22.065  -2.112  1.00  0.00    -0.462 OA
BRANCH  26  27
ATOM     27  C   UNL     1      14.229 -22.903  -2.134  1.00  0.00     0.130 A 
ATOM     28  C   UNL     1      14.392 -24.214  -2.588  1.00  0.00     0.093 A 
ATOM     29  C   UNL     1      12.982 -22.516  -1.612  1.00  0.00     0.094 A 
ATOM     30  C   UNL     1      13.381 -25.166  -2.373  1.00  0.00     0.133 A 
ATOM     31  C   UNL     1      12.060 -23.481  -1.245  1.00  0.00     0.138 A 
ATOM     32  C   UNL     1      12.220 -24.808  -1.665  1.00  0.00     0.102 A 
ATOM     33  O   UNL     1      11.072 -23.193  -0.284  1.00  0.00    -0.484 OA
ATOM     34  C   UNL     1      11.191 -25.799  -1.204  1.00  0.00     0.174 C 
ATOM     35  C   UNL     1      10.775 -24.195   0.703  1.00  0.00     0.211 C 
ATOM     36  O   UNL     1      11.036 -26.893  -1.810  1.00  0.00    -0.294 OA
ATOM     37  C   UNL     1      10.272 -25.455  -0.048  1.00  0.00     0.131 C 
BRANCH  30  38
ATOM     38  O   UNL     1      13.561 -26.495  -2.774  1.00  0.00    -0.507 OA
ATOM     39  H   UNL     1      12.977 -26.900  -3.498  1.00  0.00     0.293 HD
ENDBRANCH  30  38
BRANCH  35  40
ATOM     40  C   UNL     1      12.051 -24.403   1.530  1.00  0.00    -0.003 A 
ATOM     41  C   UNL     1      12.980 -23.349   1.571  1.00  0.00     0.057 A 
ATOM     42  C   UNL     1      12.481 -25.697   1.928  1.00  0.00     0.011 A 
ATOM     43  C   UNL     1      14.337 -23.611   1.772  1.00  0.00     0.158 A 
ATOM     44  C   UNL     1      13.844 -25.949   2.125  1.00  0.00     0.051 A 
ATOM     45  C   UNL     1      14.777 -24.928   1.961  1.00  0.00     0.160 A 
BRANCH  43  46
ATOM     46  O   UNL     1      15.243 -22.554   1.737  1.00  0.00    -0.504 OA
ATOM     47  H   UNL     1      15.099 -21.727   2.311  1.00  0.00     0.293 HD
ENDBRANCH  43  46
BRANCH  45  48
ATOM     48  O   UNL     1      16.146 -25.224   1.924  1.00  0.00    -0.493 OA
ATOM     49  C   UNL     1      16.646 -26.530   2.125  1.00  0.00     0.278 C 
ENDBRANCH  45  48
ENDBRANCH  35  40
ENDBRANCH  26  27
ENDBRANCH   5  26
BRANCH   4  50
ATOM     50  O   UNL     1      15.769 -24.427  -0.862  1.00  0.00    -0.384 OA
ATOM     51  H   UNL     1      15.823 -25.077  -0.123  1.00  0.00     0.211 HD
ENDBRANCH   4  50
TORSDOF 15
ENDMDL
MODEL 2
REMARK VINA RESULT:     1.734      1.710      8.950
REMARK INTER + INTRA:           9.643
REMARK INTER:                   7.035
REMARK INTRA:                   2.607
REMARK UNBOUND:                 6.794
REMARK SMILES COc1ccc([C@@H]2CC(=O)c3c(O)cc(O[C@@H]4O[C@H](CO[C@@H]5O[C@H](C)[C@@H](O)[C@@H](O)[C@@H]5O)[C@@H](O)[C@@H](O)[C@@H]4O)cc3O2)cc1O
REMARK SMILES IDX 19 1 32 2 34 3 36 4 17 5 18 6 20 7 21 8 22 9 25 10 24 11
REMARK SMILES IDX 26 12 23 13 28 14 30 15 27 16 29 18 31 20 33 22 35 24 16 26
REMARK SMILES IDX 15 27 14 28 38 29 12 30 39 31 11 32 40 33 9 34 7 35 10 36
REMARK SMILES IDX 8 37 13 38 6 40 41 41 5 42 42 43 4 44 3 45 43 46 2 48 1 49
REMARK SMILES IDX 37 50
REMARK H PARENT 27 17 29 19 31 21 33 23 35 25 13 39 43 47 37 51
REMARK Flexibility Score: inf
ROOT
ATOM      1  C   UNL     1      14.354 -25.309   0.256  1.00  0.00     0.180 C 
ATOM      2  C   UNL     1      14.723 -24.416   1.483  1.00  0.00     0.177 C 
ATOM      3  C   UNL     1      14.746 -22.933   1.065  1.00  0.00     0.180 C 
ATOM      4  C   UNL     1      15.580 -22.675  -0.205  1.00  0.00     0.214 C 
ATOM      5  C   UNL     1      16.013 -23.973  -0.895  1.00  0.00     0.339 C 
ATOM      6  O   UNL     1      14.977 -24.933  -0.972  1.00  0.00    -0.332 OA
ENDROOT
BRANCH   1   7
ATOM      7  C   UNL     1      12.817 -25.389  -0.011  1.00  0.00     0.198 C 
BRANCH   7   8
ATOM      8  O   UNL     1      12.076 -25.675   1.171  1.00  0.00    -0.347 OA
BRANCH   8   9
ATOM      9  C   UNL     1      10.674 -25.401   1.047  1.00  0.00     0.281 C 
ATOM     10  C   UNL     1       8.691 -28.375   2.124  1.00  0.00     0.041 C 
ATOM     11  C   UNL     1       9.072 -27.225   1.192  1.00  0.00     0.150 C 
ATOM     12  C   UNL     1       9.499 -27.760  -0.225  1.00  0.00     0.174 C 
ATOM     13  O   UNL     1      10.035 -26.404   1.847  1.00  0.00    -0.344 OA
ATOM     14  C   UNL     1      10.410 -26.759  -1.003  1.00  0.00     0.179 C 
ATOM     15  C   UNL     1      10.153 -25.368  -0.425  1.00  0.00     0.202 C 
BRANCH  12  16
ATOM     16  O   UNL     1       8.333 -28.048  -0.971  1.00  0.00    -0.388 OA
ATOM     17  H   UNL     1       8.568 -27.909  -1.937  1.00  0.00     0.211 HD
ENDBRANCH  12  16
BRANCH  14  18
ATOM     18  O   UNL     1      10.176 -26.823  -2.390  1.00  0.00    -0.387 OA
ATOM     19  H   UNL     1      11.070 -26.954  -2.834  1.00  0.00     0.211 HD
ENDBRANCH  14  18
BRANCH  15  20
ATOM     20  O   UNL     1      10.751 -24.366  -1.196  1.00  0.00    -0.385 OA
ATOM     21  H   UNL     1      11.357 -23.856  -0.612  1.00  0.00     0.211 HD
ENDBRANCH  15  20
ENDBRANCH   8   9
ENDBRANCH   7   8
ENDBRANCH   1   7
BRANCH   2  22
ATOM     22  O   UNL     1      15.890 -24.901   2.097  1.00  0.00    -0.387 OA
ATOM     23  H   UNL     1      16.403 -24.156   2.467  1.00  0.00     0.211 HD
ENDBRANCH   2  22
BRANCH   3  24
ATOM     24  O   UNL     1      15.131 -22.084   2.125  1.00  0.00    -0.387 OA
ATOM     25  H   UNL     1      15.250 -21.159   1.778  1.00  0.00     0.211 HD
ENDBRANCH   3  24
BRANCH   5  26
ATOM     26  O   UNL     1      16.545 -23.684  -2.201  1.00  0.00    -0.462 OA
BRANCH  26  27
ATOM     27  C   UNL     1      17.885 -23.427  -2.566  1.00  0.00     0.130 A 
ATOM     28  C   UNL     1      18.736 -22.894  -1.594  1.00  0.00     0.093 A 
ATOM     29  C   UNL     1      18.423 -23.793  -3.812  1.00  0.00     0.094 A 
ATOM     30  C   UNL     1      20.126 -22.879  -1.805  1.00  0.00     0.133 A 
ATOM     31  C   UNL     1      19.792 -23.939  -3.955  1.00  0.00     0.138 A 
ATOM     32  C   UNL     1      20.663 -23.438  -2.979  1.00  0.00     0.102 A 
ATOM     33  O   UNL     1      20.318 -24.766  -4.966  1.00  0.00    -0.484 OA
ATOM     34  C   UNL     1      22.131 -23.659  -3.194  1.00  0.00     0.174 C 
ATOM     35  C   UNL     1      21.433 -25.612  -4.637  1.00  0.00     0.211 C 
ATOM     36  O   UNL     1      22.983 -22.948  -2.597  1.00  0.00    -0.294 OA
ATOM     37  C   UNL     1      22.603 -24.694  -4.198  1.00  0.00     0.131 C 
BRANCH  30  38
ATOM     38  O   UNL     1      20.988 -22.399  -0.813  1.00  0.00    -0.507 OA
ATOM     39  H   UNL     1      21.889 -22.836  -0.655  1.00  0.00     0.293 HD
ENDBRANCH  30  38
BRANCH  35  40
ATOM     40  C   UNL     1      20.948 -26.596  -3.563  1.00  0.00    -0.003 A 
ATOM     41  C   UNL     1      20.512 -26.061  -2.338  1.00  0.00     0.057 A 
ATOM     42  C   UNL     1      21.263 -27.980  -3.621  1.00  0.00     0.011 A 
ATOM     43  C   UNL     1      20.609 -26.813  -1.164  1.00  0.00     0.158 A 
ATOM     44  C   UNL     1      21.360 -28.724  -2.438  1.00  0.00     0.051 A 
ATOM     45  C   UNL     1      21.118 -28.118  -1.207  1.00  0.00     0.160 A 
BRANCH  43  46
ATOM     46  O   UNL     1      20.235 -26.232   0.044  1.00  0.00    -0.504 OA
ATOM     47  H   UNL     1      19.797 -26.787   0.775  1.00  0.00     0.293 HD
ENDBRANCH  43  46
BRANCH  45  48
ATOM     48  O   UNL     1      21.440 -28.786  -0.018  1.00  0.00    -0.493 OA
ATOM     49  C   UNL     1      20.464 -29.161   0.931  1.00  0.00     0.278 C 
ENDBRANCH  45  48
ENDBRANCH  35  40
ENDBRANCH  26  27
ENDBRANCH   5  26
BRANCH   4  50
ATOM     50  O   UNL     1      14.845 -21.883  -1.121  1.00  0.00    -0.384 OA
ATOM     51  H   UNL     1      13.891 -21.993  -0.897  1.00  0.00     0.211 HD
ENDBRANCH   4  50
TORSDOF 15
ENDMDL
MODEL 3
REMARK VINA RESULT:     2.281      2.870      9.211
REMARK INTER + INTRA:          10.542
REMARK INTER:                   8.790
REMARK INTRA:                   1.753
REMARK UNBOUND:                 6.794
REMARK SMILES COc1ccc([C@@H]2CC(=O)c3c(O)cc(O[C@@H]4O[C@H](CO[C@@H]5O[C@H](C)[C@@H](O)[C@@H](O)[C@@H]5O)[C@@H](O)[C@@H](O)[C@@H]4O)cc3O2)cc1O
REMARK SMILES IDX 19 1 32 2 34 3 36 4 17 5 18 6 20 7 21 8 22 9 25 10 24 11
REMARK SMILES IDX 26 12 23 13 28 14 30 15 27 16 29 18 31 20 33 22 35 24 16 26
REMARK SMILES IDX 15 27 14 28 38 29 12 30 39 31 11 32 40 33 9 34 7 35 10 36
REMARK SMILES IDX 8 37 13 38 6 40 41 41 5 42 42 43 4 44 3 45 43 46 2 48 1 49
REMARK SMILES IDX 37 50
REMARK H PARENT 27 17 29 19 31 21 33 23 35 25 13 39 43 47 37 51
REMARK Flexibility Score: inf
ROOT
ATOM      1  C   UNL     1      10.332 -25.761   1.992  1.00  0.00     0.180 C 
ATOM      2  C   UNL     1       9.378 -25.394   0.811  1.00  0.00     0.177 C 
ATOM      3  C   UNL     1      10.203 -25.038  -0.440  1.00  0.00     0.180 C 
ATOM      4  C   UNL     1      11.319 -24.013  -0.159  1.00  0.00     0.214 C 
ATOM      5  C   UNL     1      11.503 -23.745   1.340  1.00  0.00     0.339 C 
ATOM      6  O   UNL     1      11.481 -24.924   2.120  1.00  0.00    -0.332 OA
ENDROOT
BRANCH   1   7
ATOM      7  C   UNL     1      10.839 -27.239   1.941  1.00  0.00     0.198 C 
BRANCH   7   8
ATOM      8  O   UNL     1       9.786 -28.180   2.123  1.00  0.00    -0.347 OA
BRANCH   8   9
ATOM      9  C   UNL     1       8.704 -28.012   1.198  1.00  0.00     0.281 C 
ATOM     10  C   UNL     1       5.876 -30.269   2.118  1.00  0.00     0.041 C 
ATOM     11  C   UNL     1       6.883 -29.625   1.167  1.00  0.00     0.150 C 
ATOM     12  C   UNL     1       7.810 -30.711   0.502  1.00  0.00     0.174 C 
ATOM     13  O   UNL     1       7.568 -28.584   1.860  1.00  0.00    -0.344 OA
ATOM     14  C   UNL     1       9.167 -30.124  -0.000  1.00  0.00     0.179 C 
ATOM     15  C   UNL     1       8.964 -28.626  -0.214  1.00  0.00     0.202 C 
BRANCH  12  16
ATOM     16  O   UNL     1       7.106 -31.313  -0.566  1.00  0.00    -0.388 OA
ATOM     17  H   UNL     1       7.792 -31.774  -1.137  1.00  0.00     0.211 HD
ENDBRANCH  12  16
BRANCH  14  18
ATOM     18  O   UNL     1       9.612 -30.783  -1.162  1.00  0.00    -0.387 OA
ATOM     19  H   UNL     1       9.658 -30.094  -1.894  1.00  0.00     0.211 HD
ENDBRANCH  14  18
BRANCH  15  20
ATOM     20  O   UNL     1      10.050 -28.042  -0.874  1.00  0.00    -0.385 OA
ATOM     21  H   UNL     1      10.062 -27.084  -0.650  1.00  0.00     0.211 HD
ENDBRANCH  15  20
ENDBRANCH   8   9
ENDBRANCH   7   8
ENDBRANCH   1   7
BRANCH   2  22
ATOM     22  O   UNL     1       8.445 -24.429   1.228  1.00  0.00    -0.387 OA
ATOM     23  H   UNL     1       8.894 -23.572   1.363  1.00  0.00     0.211 HD
ENDBRANCH   2  22
BRANCH   3  24
ATOM     24  O   UNL     1       9.391 -24.641  -1.523  1.00  0.00    -0.387 OA
ATOM     25  H   UNL     1       9.831 -23.891  -2.008  1.00  0.00     0.211 HD
ENDBRANCH   3  24
BRANCH   5  26
ATOM     26  O   UNL     1      12.716 -23.003   1.563  1.00  0.00    -0.462 OA
BRANCH  26  27
ATOM     27  C   UNL     1      14.046 -23.479   1.581  1.00  0.00     0.130 A 
ATOM     28  C   UNL     1      14.246 -24.861   1.518  1.00  0.00     0.093 A 
ATOM     29  C   UNL     1      15.165 -22.629   1.538  1.00  0.00     0.094 A 
ATOM     30  C   UNL     1      15.526 -25.376   1.251  1.00  0.00     0.133 A 
ATOM     31  C   UNL     1      16.386 -23.118   1.107  1.00  0.00     0.138 A 
ATOM     32  C   UNL     1      16.599 -24.499   1.008  1.00  0.00     0.102 A 
ATOM     33  O   UNL     1      17.352 -22.247   0.569  1.00  0.00    -0.484 OA
ATOM     34  C   UNL     1      17.940 -24.949   0.509  1.00  0.00     0.174 C 
ATOM     35  C   UNL     1      18.082 -22.679  -0.592  1.00  0.00     0.211 C 
ATOM     36  O   UNL     1      18.351 -26.119   0.734  1.00  0.00    -0.294 OA
ATOM     37  C   UNL     1      18.851 -23.969  -0.206  1.00  0.00     0.131 C 
BRANCH  30  38
ATOM     38  O   UNL     1      15.724 -26.756   1.130  1.00  0.00    -0.507 OA
ATOM     39  H   UNL     1      15.142 -27.310   0.510  1.00  0.00     0.293 HD
ENDBRANCH  30  38
BRANCH  35  40
ATOM     40  C   UNL     1      17.061 -22.852  -1.726  1.00  0.00    -0.003 A 
ATOM     41  C   UNL     1      15.801 -22.251  -1.565  1.00  0.00     0.057 A 
ATOM     42  C   UNL     1      17.206 -23.863  -2.713  1.00  0.00     0.011 A 
ATOM     43  C   UNL     1      14.675 -22.790  -2.193  1.00  0.00     0.158 A 
ATOM     44  C   UNL     1      16.071 -24.398  -3.334  1.00  0.00     0.051 A 
ATOM     45  C   UNL     1      14.802 -23.922  -3.010  1.00  0.00     0.160 A 
BRANCH  43  46
ATOM     46  O   UNL     1      13.429 -22.215  -1.959  1.00  0.00    -0.504 OA
ATOM     47  H   UNL     1      13.039 -22.184  -1.020  1.00  0.00     0.293 HD
ENDBRANCH  43  46
BRANCH  45  48
ATOM     48  O   UNL     1      13.660 -24.606  -3.445  1.00  0.00    -0.493 OA
ATOM     49  C   UNL     1      13.428 -25.966  -3.141  1.00  0.00     0.278 C 
ENDBRANCH  45  48
ENDBRANCH  35  40
ENDBRANCH  26  27
ENDBRANCH   5  26
BRANCH   4  50
ATOM     50  O   UNL     1      12.546 -24.460  -0.707  1.00  0.00    -0.384 OA
ATOM     51  H   UNL     1      12.982 -25.018  -0.021  1.00  0.00     0.211 HD
ENDBRANCH   4  50
TORSDOF 15
ENDMDL
MODEL 4
REMARK VINA RESULT:     2.678      1.501      2.674
REMARK INTER + INTRA:          11.194
REMARK INTER:                   9.538
REMARK INTRA:                   1.656
REMARK UNBOUND:                 6.794
REMARK SMILES COc1ccc([C@@H]2CC(=O)c3c(O)cc(O[C@@H]4O[C@H](CO[C@@H]5O[C@H](C)[C@@H](O)[C@@H](O)[C@@H]5O)[C@@H](O)[C@@H](O)[C@@H]4O)cc3O2)cc1O
REMARK SMILES IDX 19 1 32 2 34 3 36 4 17 5 18 6 20 7 21 8 22 9 25 10 24 11
REMARK SMILES IDX 26 12 23 13 28 14 30 15 27 16 29 18 31 20 33 22 35 24 16 26
REMARK SMILES IDX 15 27 14 28 38 29 12 30 39 31 11 32 40 33 9 34 7 35 10 36
REMARK SMILES IDX 8 37 13 38 6 40 41 41 5 42 42 43 4 44 3 45 43 46 2 48 1 49
REMARK SMILES IDX 37 50
REMARK H PARENT 27 17 29 19 31 21 33 23 35 25 13 39 43 47 37 51
REMARK Flexibility Score: inf
ROOT
ATOM      1  C   UNL     1      19.632 -22.557  -0.859  1.00  0.00     0.180 C 
ATOM      2  C   UNL     1      19.775 -24.093  -0.617  1.00  0.00     0.177 C 
ATOM      3  C   UNL     1      19.188 -24.870  -1.811  1.00  0.00     0.180 C 
ATOM      4  C   UNL     1      17.774 -24.400  -2.203  1.00  0.00     0.214 C 
ATOM      5  C   UNL     1      17.357 -23.121  -1.468  1.00  0.00     0.339 C 
ATOM      6  O   UNL     1      18.384 -22.150  -1.420  1.00  0.00    -0.332 OA
ENDROOT
BRANCH   1   7
ATOM      7  C   UNL     1      20.760 -21.965  -1.764  1.00  0.00     0.198 C 
BRANCH   7   8
ATOM      8  O   UNL     1      20.921 -22.694  -2.977  1.00  0.00    -0.347 OA
BRANCH   8   9
ATOM      9  C   UNL     1      22.052 -23.574  -2.968  1.00  0.00     0.281 C 
ATOM     10  C   UNL     1      24.650 -22.337  -5.346  1.00  0.00     0.041 C 
ATOM     11  C   UNL     1      23.740 -23.386  -4.709  1.00  0.00     0.150 C 
ATOM     12  C   UNL     1      22.761 -24.008  -5.774  1.00  0.00     0.174 C 
ATOM     13  O   UNL     1      23.110 -22.813  -3.567  1.00  0.00    -0.344 OA
ATOM     14  C   UNL     1      21.477 -24.623  -5.132  1.00  0.00     0.179 C 
ATOM     15  C   UNL     1      21.807 -24.944  -3.676  1.00  0.00     0.202 C 
BRANCH  12  16
ATOM     16  O   UNL     1      23.461 -24.988  -6.514  1.00  0.00    -0.388 OA
ATOM     17  H   UNL     1      23.573 -24.621  -7.442  1.00  0.00     0.211 HD
ENDBRANCH  12  16
BRANCH  14  18
ATOM     18  O   UNL     1      21.033 -25.749  -5.850  1.00  0.00    -0.387 OA
ATOM     19  H   UNL     1      20.516 -25.409  -6.643  1.00  0.00     0.211 HD
ENDBRANCH  14  18
BRANCH  15  20
ATOM     20  O   UNL     1      20.800 -25.702  -3.069  1.00  0.00    -0.385 OA
ATOM     21  H   UNL     1      20.946 -25.677  -2.096  1.00  0.00     0.211 HD
ENDBRANCH  15  20
ENDBRANCH   8   9
ENDBRANCH   7   8
ENDBRANCH   1   7
BRANCH   2  22
ATOM     22  O   UNL     1      19.265 -24.431   0.647  1.00  0.00    -0.387 OA
ATOM     23  H   UNL     1      18.545 -25.084   0.550  1.00  0.00     0.211 HD
ENDBRANCH   2  22
BRANCH   3  24
ATOM     24  O   UNL     1      19.239 -26.267  -1.619  1.00  0.00    -0.387 OA
ATOM     25  H   UNL     1      19.928 -26.480  -0.932  1.00  0.00     0.211 HD
ENDBRANCH   3  24
BRANCH   5  26
ATOM     26  O   UNL     1      16.162 -22.578  -2.059  1.00  0.00    -0.462 OA
BRANCH  26  27
ATOM     27  C   UNL     1      14.839 -23.061  -1.965  1.00  0.00     0.130 A 
ATOM     28  C   UNL     1      14.577 -24.347  -2.444  1.00  0.00     0.093 A 
ATOM     29  C   UNL     1      13.812 -22.360  -1.308  1.00  0.00     0.094 A 
ATOM     30  C   UNL     1      13.365 -24.985  -2.128  1.00  0.00     0.133 A 
ATOM     31  C   UNL     1      12.696 -23.040  -0.852  1.00  0.00     0.138 A 
ATOM     32  C   UNL     1      12.430 -24.342  -1.297  1.00  0.00     0.102 A 
ATOM     33  O   UNL     1      11.933 -22.523   0.212  1.00  0.00    -0.484 OA
ATOM     34  C   UNL     1      11.215 -25.021  -0.735  1.00  0.00     0.174 C 
ATOM     35  C   UNL     1      11.466 -23.437   1.218  1.00  0.00     0.211 C 
ATOM     36  O   UNL     1      10.695 -26.003  -1.330  1.00  0.00    -0.294 OA
ATOM     37  C   UNL     1      10.553 -24.477   0.516  1.00  0.00     0.131 C 
BRANCH  30  38
ATOM     38  O   UNL     1      13.119 -26.294  -2.557  1.00  0.00    -0.507 OA
ATOM     39  H   UNL     1      12.176 -26.667  -2.565  1.00  0.00     0.293 HD
ENDBRANCH  30  38
BRANCH  35  40
ATOM     40  C   UNL     1      12.707 -24.027   1.901  1.00  0.00    -0.003 A 
ATOM     41  C   UNL     1      13.841 -23.204   2.013  1.00  0.00     0.057 A 
ATOM     42  C   UNL     1      12.870 -25.427   2.077  1.00  0.00     0.011 A 
ATOM     43  C   UNL     1      15.120 -23.765   2.065  1.00  0.00     0.158 A 
ATOM     44  C   UNL     1      14.155 -25.980   2.124  1.00  0.00     0.051 A 
ATOM     45  C   UNL     1      15.276 -25.157   2.031  1.00  0.00     0.160 A 
BRANCH  43  46
ATOM     46  O   UNL     1      16.228 -22.923   2.105  1.00  0.00    -0.504 OA
ATOM     47  H   UNL     1      16.425 -22.364   2.931  1.00  0.00     0.293 HD
ENDBRANCH  43  46
BRANCH  45  48
ATOM     48  O   UNL     1      16.547 -25.718   1.841  1.00  0.00    -0.493 OA
ATOM     49  C   UNL     1      16.758 -27.112   1.768  1.00  0.00     0.278 C 
ENDBRANCH  45  48
ENDBRANCH  35  40
ENDBRANCH  26  27
ENDBRANCH   5  26
BRANCH   4  50
ATOM     50  O   UNL     1      17.700 -24.179  -3.600  1.00  0.00    -0.384 OA
ATOM     51  H   UNL     1      18.340 -23.461  -3.813  1.00  0.00     0.211 HD
ENDBRANCH   4  50
TORSDOF 15
ENDMDL
MODEL 5
REMARK VINA RESULT:     2.686      1.183      2.159
REMARK INTER + INTRA:          11.206
REMARK INTER:                   9.489
REMARK INTRA:                   1.717
REMARK UNBOUND:                 6.794
REMARK SMILES COc1ccc([C@@H]2CC(=O)c3c(O)cc(O[C@@H]4O[C@H](CO[C@@H]5O[C@H](C)[C@@H](O)[C@@H](O)[C@@H]5O)[C@@H](O)[C@@H](O)[C@@H]4O)cc3O2)cc1O
REMARK SMILES IDX 19 1 32 2 34 3 36 4 17 5 18 6 20 7 21 8 22 9 25 10 24 11
REMARK SMILES IDX 26 12 23 13 28 14 30 15 27 16 29 18 31 20 33 22 35 24 16 26
REMARK SMILES IDX 15 27 14 28 38 29 12 30 39 31 11 32 40 33 9 34 7 35 10 36
REMARK SMILES IDX 8 37 13 38 6 40 41 41 5 42 42 43 4 44 3 45 43 46 2 48 1 49
REMARK SMILES IDX 37 50
REMARK H PARENT 27 17 29 19 31 21 33 23 35 25 13 39 43 47 37 51
REMARK Flexibility Score: inf
ROOT
ATOM      1  C   UNL     1      18.776 -24.237  -2.769  1.00  0.00     0.180 C 
ATOM      2  C   UNL     1      19.948 -23.349  -2.243  1.00  0.00     0.177 C 
ATOM      3  C   UNL     1      19.571 -22.736  -0.880  1.00  0.00     0.180 C 
ATOM      4  C   UNL     1      18.187 -22.057  -0.884  1.00  0.00     0.214 C 
ATOM      5  C   UNL     1      17.401 -22.337  -2.170  1.00  0.00     0.339 C 
ATOM      6  O   UNL     1      17.473 -23.688  -2.580  1.00  0.00    -0.332 OA
ENDROOT
BRANCH   1   7
ATOM      7  C   UNL     1      18.766 -25.675  -2.156  1.00  0.00     0.198 C 
BRANCH   7   8
ATOM      8  O   UNL     1      19.601 -25.780  -1.007  1.00  0.00    -0.347 OA
BRANCH   8   9
ATOM      9  C   UNL     1      20.967 -26.083  -1.319  1.00  0.00     0.281 C 
ATOM     10  C   UNL     1      21.620 -25.443  -4.939  1.00  0.00     0.041 C 
ATOM     11  C   UNL     1      21.662 -26.253  -3.644  1.00  0.00     0.150 C 
ATOM     12  C   UNL     1      20.904 -27.623  -3.807  1.00  0.00     0.174 C 
ATOM     13  O   UNL     1      21.206 -25.430  -2.574  1.00  0.00    -0.344 OA
ATOM     14  C   UNL     1      20.421 -28.215  -2.445  1.00  0.00     0.179 C 
ATOM     15  C   UNL     1      21.296 -27.609  -1.350  1.00  0.00     0.202 C 
BRANCH  12  16
ATOM     16  O   UNL     1      21.757 -28.536  -4.468  1.00  0.00    -0.388 OA
ATOM     17  H   UNL     1      22.507 -27.996  -4.860  1.00  0.00     0.211 HD
ENDBRANCH  12  16
BRANCH  14  18
ATOM     18  O   UNL     1      20.460 -29.622  -2.455  1.00  0.00    -0.387 OA
ATOM     19  H   UNL     1      20.148 -29.921  -3.364  1.00  0.00     0.211 HD
ENDBRANCH  14  18
BRANCH  15  20
ATOM     20  O   UNL     1      21.097 -28.238  -0.117  1.00  0.00    -0.385 OA
ATOM     21  H   UNL     1      21.251 -29.202  -0.240  1.00  0.00     0.211 HD
ENDBRANCH  15  20
ENDBRANCH   8   9
ENDBRANCH   7   8
ENDBRANCH   1   7
BRANCH   2  22
ATOM     22  O   UNL     1      20.348 -22.441  -3.237  1.00  0.00    -0.387 OA
ATOM     23  H   UNL     1      20.845 -21.704  -2.832  1.00  0.00     0.211 HD
ENDBRANCH   2  22
BRANCH   3  24
ATOM     24  O   UNL     1      20.573 -21.875  -0.385  1.00  0.00    -0.387 OA
ATOM     25  H   UNL     1      20.147 -21.075   0.027  1.00  0.00     0.211 HD
ENDBRANCH   3  24
BRANCH   5  26
ATOM     26  O   UNL     1      16.033 -21.918  -2.014  1.00  0.00    -0.462 OA
BRANCH  26  27
ATOM     27  C   UNL     1      14.862 -22.704  -2.075  1.00  0.00     0.130 A 
ATOM     28  C   UNL     1      14.982 -24.021  -2.527  1.00  0.00     0.093 A 
ATOM     29  C   UNL     1      13.617 -22.263  -1.592  1.00  0.00     0.094 A 
ATOM     30  C   UNL     1      13.923 -24.928  -2.346  1.00  0.00     0.133 A 
ATOM     31  C   UNL     1      12.641 -23.187  -1.258  1.00  0.00     0.138 A 
ATOM     32  C   UNL     1      12.756 -24.519  -1.676  1.00  0.00     0.102 A 
ATOM     33  O   UNL     1      11.636 -22.856  -0.330  1.00  0.00    -0.484 OA
ATOM     34  C   UNL     1      11.670 -25.464  -1.251  1.00  0.00     0.174 C 
ATOM     35  C   UNL     1      11.263 -23.844   0.645  1.00  0.00     0.211 C 
ATOM     36  O   UNL     1      11.486 -26.549  -1.864  1.00  0.00    -0.294 OA
ATOM     37  C   UNL     1      10.730 -25.081  -0.124  1.00  0.00     0.131 C 
BRANCH  30  38
ATOM     38  O   UNL     1      14.057 -26.263  -2.744  1.00  0.00    -0.507 OA
ATOM     39  H   UNL     1      14.660 -26.897  -2.233  1.00  0.00     0.293 HD
ENDBRANCH  30  38
BRANCH  35  40
ATOM     40  C   UNL     1      12.501 -24.110   1.513  1.00  0.00    -0.003 A 
ATOM     41  C   UNL     1      13.384 -23.038   1.733  1.00  0.00     0.057 A 
ATOM     42  C   UNL     1      12.960 -25.427   1.777  1.00  0.00     0.011 A 
ATOM     43  C   UNL     1      14.738 -23.278   1.979  1.00  0.00     0.158 A 
ATOM     44  C   UNL     1      14.320 -25.657   2.019  1.00  0.00     0.051 A 
ATOM     45  C   UNL     1      15.220 -24.593   2.033  1.00  0.00     0.160 A 
BRANCH  43  46
ATOM     46  O   UNL     1      15.602 -22.195   2.122  1.00  0.00    -0.504 OA
ATOM     47  H   UNL     1      15.527 -21.386   1.511  1.00  0.00     0.293 HD
ENDBRANCH  43  46
BRANCH  45  48
ATOM     48  O   UNL     1      16.600 -24.837   2.039  1.00  0.00    -0.493 OA
ATOM     49  C   UNL     1      17.145 -26.114   1.781  1.00  0.00     0.278 C 
ENDBRANCH  45  48
ENDBRANCH  35  40
ENDBRANCH  26  27
ENDBRANCH   5  26
BRANCH   4  50
ATOM     50  O   UNL     1      17.427 -22.488   0.230  1.00  0.00    -0.384 OA
ATOM     51  H   UNL     1      16.861 -21.729   0.505  1.00  0.00     0.211 HD
ENDBRANCH   4  50
TORSDOF 15
ENDMDL
MODEL 6
REMARK VINA RESULT:     2.906      1.845      3.370
REMARK INTER + INTRA:          11.569
REMARK INTER:                  13.667
REMARK INTRA:                  -2.099
REMARK UNBOUND:                 6.794
REMARK SMILES COc1ccc([C@@H]2CC(=O)c3c(O)cc(O[C@@H]4O[C@H](CO[C@@H]5O[C@H](C)[C@@H](O)[C@@H](O)[C@@H]5O)[C@@H](O)[C@@H](O)[C@@H]4O)cc3O2)cc1O
REMARK SMILES IDX 19 1 32 2 34 3 36 4 17 5 18 6 20 7 21 8 22 9 25 10 24 11
REMARK SMILES IDX 26 12 23 13 28 14 30 15 27 16 29 18 31 20 33 22 35 24 16 26
REMARK SMILES IDX 15 27 14 28 38 29 12 30 39 31 11 32 40 33 9 34 7 35 10 36
REMARK SMILES IDX 8 37 13 38 6 40 41 41 5 42 42 43 4 44 3 45 43 46 2 48 1 49
REMARK SMILES IDX 37 50
REMARK H PARENT 27 17 29 19 31 21 33 23 35 25 13 39 43 47 37 51
REMARK Flexibility Score: inf
ROOT
ATOM      1  C   UNL     1      21.057 -23.994  -3.642  1.00  0.00     0.180 C 
ATOM      2  C   UNL     1      21.608 -23.221  -2.403  1.00  0.00     0.177 C 
ATOM      3  C   UNL     1      21.252 -23.980  -1.109  1.00  0.00     0.180 C 
ATOM      4  C   UNL     1      19.764 -24.370  -1.026  1.00  0.00     0.214 C 
ATOM      5  C   UNL     1      19.018 -24.118  -2.342  1.00  0.00     0.339 C 
ATOM      6  O   UNL     1      19.746 -24.535  -3.480  1.00  0.00    -0.332 OA
ENDROOT
BRANCH   1   7
ATOM      7  C   UNL     1      21.985 -25.163  -4.106  1.00  0.00     0.198 C 
BRANCH   7   8
ATOM      8  O   UNL     1      21.352 -26.434  -3.996  1.00  0.00    -0.347 OA
BRANCH   8   9
ATOM      9  C   UNL     1      22.168 -27.425  -3.359  1.00  0.00     0.281 C 
ATOM     10  C   UNL     1      23.717 -29.648  -5.927  1.00  0.00     0.041 C 
ATOM     11  C   UNL     1      22.961 -29.337  -4.636  1.00  0.00     0.150 C 
ATOM     12  C   UNL     1      21.518 -29.965  -4.658  1.00  0.00     0.174 C 
ATOM     13  O   UNL     1      23.008 -27.931  -4.405  1.00  0.00    -0.344 OA
ATOM     14  C   UNL     1      20.527 -29.244  -3.690  1.00  0.00     0.179 C 
ATOM     15  C   UNL     1      21.365 -28.543  -2.623  1.00  0.00     0.202 C 
BRANCH  12  16
ATOM     16  O   UNL     1      21.616 -31.337  -4.332  1.00  0.00    -0.388 OA
ATOM     17  H   UNL     1      21.867 -31.816  -5.179  1.00  0.00     0.211 HD
ENDBRANCH  12  16
BRANCH  14  18
ATOM     18  O   UNL     1      19.595 -30.147  -3.144  1.00  0.00    -0.387 OA
ATOM     19  H   UNL     1      19.631 -30.983  -3.703  1.00  0.00     0.211 HD
ENDBRANCH  14  18
BRANCH  15  20
ATOM     20  O   UNL     1      20.573 -28.052  -1.579  1.00  0.00    -0.385 OA
ATOM     21  H   UNL     1      19.630 -28.161  -1.838  1.00  0.00     0.211 HD
ENDBRANCH  15  20
ENDBRANCH   8   9
ENDBRANCH   7   8
ENDBRANCH   1   7
BRANCH   2  22
ATOM     22  O   UNL     1      21.206 -21.876  -2.457  1.00  0.00    -0.387 OA
ATOM     23  H   UNL     1      20.349 -21.768  -2.001  1.00  0.00     0.211 HD
ENDBRANCH   2  22
BRANCH   3  24
ATOM     24  O   UNL     1      21.677 -23.293   0.048  1.00  0.00    -0.387 OA
ATOM     25  H   UNL     1      21.487 -23.852   0.850  1.00  0.00     0.211 HD
ENDBRANCH   3  24
BRANCH   5  26
ATOM     26  O   UNL     1      17.722 -24.743  -2.302  1.00  0.00    -0.462 OA
BRANCH  26  27
ATOM     27  C   UNL     1      16.475 -24.159  -1.988  1.00  0.00     0.130 A 
ATOM     28  C   UNL     1      15.325 -24.749  -2.517  1.00  0.00     0.093 A 
ATOM     29  C   UNL     1      16.335 -23.095  -1.080  1.00  0.00     0.094 A 
ATOM     30  C   UNL     1      14.058 -24.394  -2.023  1.00  0.00     0.133 A 
ATOM     31  C   UNL     1      15.113 -22.865  -0.471  1.00  0.00     0.138 A 
ATOM     32  C   UNL     1      13.951 -23.471  -0.968  1.00  0.00     0.102 A 
ATOM     33  O   UNL     1      15.048 -22.195   0.765  1.00  0.00    -0.484 OA
ATOM     34  C   UNL     1      12.670 -23.192  -0.237  1.00  0.00     0.174 C 
ATOM     35  C   UNL     1      14.137 -22.695   1.759  1.00  0.00     0.211 C 
ATOM     36  O   UNL     1      11.557 -23.371  -0.800  1.00  0.00    -0.294 OA
ATOM     37  C   UNL     1      12.707 -22.614   1.165  1.00  0.00     0.131 C 
BRANCH  30  38
ATOM     38  O   UNL     1      12.905 -25.022  -2.508  1.00  0.00    -0.507 OA
ATOM     39  H   UNL     1      12.966 -25.715  -3.246  1.00  0.00     0.293 HD
ENDBRANCH  30  38
BRANCH  35  40
ATOM     40  C   UNL     1      14.604 -24.111   2.125  1.00  0.00    -0.003 A 
ATOM     41  C   UNL     1      15.987 -24.365   2.109  1.00  0.00     0.057 A 
ATOM     42  C   UNL     1      13.714 -25.217   2.113  1.00  0.00     0.011 A 
ATOM     43  C   UNL     1      16.465 -25.653   1.855  1.00  0.00     0.158 A 
ATOM     44  C   UNL     1      14.204 -26.504   1.854  1.00  0.00     0.051 A 
ATOM     45  C   UNL     1      15.566 -26.706   1.640  1.00  0.00     0.160 A 
BRANCH  43  46
ATOM     46  O   UNL     1      17.840 -25.860   1.776  1.00  0.00    -0.504 OA
ATOM     47  H   UNL     1      18.350 -26.266   2.556  1.00  0.00     0.293 HD
ENDBRANCH  43  46
BRANCH  45  48
ATOM     48  O   UNL     1      16.027 -27.936   1.152  1.00  0.00    -0.493 OA
ATOM     49  C   UNL     1      16.429 -28.988   2.004  1.00  0.00     0.278 C 
ENDBRANCH  45  48
ENDBRANCH  35  40
ENDBRANCH  26  27
ENDBRANCH   5  26
BRANCH   4  50
ATOM     50  O   UNL     1      19.635 -25.736  -0.672  1.00  0.00    -0.384 OA
ATOM     51  H   UNL     1      19.947 -25.823   0.259  1.00  0.00     0.211 HD
ENDBRANCH   4  50
TORSDOF 15
ENDMDL
MODEL 7
REMARK VINA RESULT:     3.329      1.726      8.975
REMARK INTER + INTRA:          12.264
REMARK INTER:                  10.235
REMARK INTRA:                   2.029
REMARK UNBOUND:                 6.794
REMARK SMILES COc1ccc([C@@H]2CC(=O)c3c(O)cc(O[C@@H]4O[C@H](CO[C@@H]5O[C@H](C)[C@@H](O)[C@@H](O)[C@@H]5O)[C@@H](O)[C@@H](O)[C@@H]4O)cc3O2)cc1O
REMARK SMILES IDX 19 1 32 2 34 3 36 4 17 5 18 6 20 7 21 8 22 9 25 10 24 11
REMARK SMILES IDX 26 12 23 13 28 14 30 15 27 16 29 18 31 20 33 22 35 24 16 26
REMARK SMILES IDX 15 27 14 28 38 29 12 30 39 31 11 32 40 33 9 34 7 35 10 36
REMARK SMILES IDX 8 37 13 38 6 40 41 41 5 42 42 43 4 44 3 45 43 46 2 48 1 49
REMARK SMILES IDX 37 50
REMARK H PARENT 27 17 29 19 31 21 33 23 35 25 13 39 43 47 37 51
REMARK Flexibility Score: inf
ROOT
ATOM      1  C   UNL     1      14.329 -23.639  -1.246  1.00  0.00     0.180 C 
ATOM      2  C   UNL     1      14.258 -25.107  -0.719  1.00  0.00     0.177 C 
ATOM      3  C   UNL     1      14.948 -25.206   0.655  1.00  0.00     0.180 C 
ATOM      4  C   UNL     1      16.353 -24.574   0.674  1.00  0.00     0.214 C 
ATOM      5  C   UNL     1      16.660 -23.791  -0.609  1.00  0.00     0.339 C 
ATOM      6  O   UNL     1      15.580 -22.985  -1.037  1.00  0.00    -0.332 OA
ENDROOT
BRANCH   1   7
ATOM      7  C   UNL     1      13.218 -22.714  -0.652  1.00  0.00     0.198 C 
BRANCH   7   8
ATOM      8  O   UNL     1      11.989 -23.404  -0.450  1.00  0.00    -0.347 OA
BRANCH   8   9
ATOM      9  C   UNL     1      11.894 -24.039   0.831  1.00  0.00     0.281 C 
ATOM     10  C   UNL     1      10.069 -27.280   0.517  1.00  0.00     0.041 C 
ATOM     11  C   UNL     1      10.381 -25.918   1.136  1.00  0.00     0.150 C 
ATOM     12  C   UNL     1       9.128 -24.966   1.071  1.00  0.00     0.174 C 
ATOM     13  O   UNL     1      11.567 -25.404   0.537  1.00  0.00    -0.344 OA
ATOM     14  C   UNL     1       9.512 -23.454   1.141  1.00  0.00     0.179 C 
ATOM     15  C   UNL     1      10.882 -23.364   1.810  1.00  0.00     0.202 C 
BRANCH  12  16
ATOM     16  O   UNL     1       8.248 -25.303   2.125  1.00  0.00    -0.388 OA
ATOM     17  H   UNL     1       8.249 -24.524   2.758  1.00  0.00     0.211 HD
ENDBRANCH  12  16
BRANCH  14  18
ATOM     18  O   UNL     1       8.528 -22.706   1.816  1.00  0.00    -0.387 OA
ATOM     19  H   UNL     1       7.665 -22.832   1.313  1.00  0.00     0.211 HD
ENDBRANCH  14  18
BRANCH  15  20
ATOM     20  O   UNL     1      11.221 -22.043   2.125  1.00  0.00    -0.385 OA
ATOM     21  H   UNL     1      12.176 -21.919   1.919  1.00  0.00     0.211 HD
ENDBRANCH  15  20
ENDBRANCH   8   9
ENDBRANCH   7   8
ENDBRANCH   1   7
BRANCH   2  22
ATOM     22  O   UNL     1      14.719 -25.996  -1.704  1.00  0.00    -0.387 OA
ATOM     23  H   UNL     1      15.696 -26.008  -1.708  1.00  0.00     0.211 HD
ENDBRANCH   2  22
BRANCH   3  24
ATOM     24  O   UNL     1      14.964 -26.527   1.153  1.00  0.00    -0.387 OA
ATOM     25  H   UNL     1      15.807 -26.975   0.872  1.00  0.00     0.211 HD
ENDBRANCH   3  24
BRANCH   5  26
ATOM     26  O   UNL     1      17.852 -23.004  -0.434  1.00  0.00    -0.462 OA
BRANCH  26  27
ATOM     27  C   UNL     1      19.005 -22.963  -1.249  1.00  0.00     0.130 A 
ATOM     28  C   UNL     1      20.242 -22.792  -0.623  1.00  0.00     0.093 A 
ATOM     29  C   UNL     1      18.972 -23.205  -2.634  1.00  0.00     0.094 A 
ATOM     30  C   UNL     1      21.431 -23.023  -1.336  1.00  0.00     0.133 A 
ATOM     31  C   UNL     1      20.125 -23.598  -3.291  1.00  0.00     0.138 A 
ATOM     32  C   UNL     1      21.374 -23.463  -2.671  1.00  0.00     0.102 A 
ATOM     33  O   UNL     1      20.045 -24.323  -4.496  1.00  0.00    -0.484 OA
ATOM     34  C   UNL     1      22.573 -23.936  -3.440  1.00  0.00     0.174 C 
ATOM     35  C   UNL     1      20.953 -25.422  -4.685  1.00  0.00     0.211 C 
ATOM     36  O   UNL     1      23.728 -23.527  -3.144  1.00  0.00    -0.294 OA
ATOM     37  C   UNL     1      22.394 -24.851  -4.636  1.00  0.00     0.131 C 
BRANCH  30  38
ATOM     38  O   UNL     1      22.673 -22.909  -0.701  1.00  0.00    -0.507 OA
ATOM     39  H   UNL     1      23.532 -22.925  -1.239  1.00  0.00     0.293 HD
ENDBRANCH  30  38
BRANCH  35  40
ATOM     40  C   UNL     1      20.634 -26.461  -3.601  1.00  0.00    -0.003 A 
ATOM     41  C   UNL     1      20.264 -25.984  -2.332  1.00  0.00     0.057 A 
ATOM     42  C   UNL     1      21.043 -27.815  -3.721  1.00  0.00     0.011 A 
ATOM     43  C   UNL     1      20.513 -26.750  -1.189  1.00  0.00     0.158 A 
ATOM     44  C   UNL     1      21.293 -28.573  -2.570  1.00  0.00     0.051 A 
ATOM     45  C   UNL     1      21.111 -28.012  -1.307  1.00  0.00     0.160 A 
BRANCH  43  46
ATOM     46  O   UNL     1      20.200 -26.222   0.061  1.00  0.00    -0.504 OA
ATOM     47  H   UNL     1      20.058 -26.833   0.861  1.00  0.00     0.293 HD
ENDBRANCH  43  46
BRANCH  45  48
ATOM     48  O   UNL     1      21.580 -28.677  -0.167  1.00  0.00    -0.493 OA
ATOM     49  C   UNL     1      20.713 -29.278   0.771  1.00  0.00     0.278 C 
ENDBRANCH  45  48
ENDBRANCH  35  40
ENDBRANCH  26  27
ENDBRANCH   5  26
BRANCH   4  50
ATOM     50  O   UNL     1      16.488 -23.711   1.789  1.00  0.00    -0.384 OA
ATOM     51  H   UNL     1      16.268 -24.240   2.591  1.00  0.00     0.211 HD
ENDBRANCH   4  50
TORSDOF 15
ENDMDL
