MODEL 1
REMARK VINA RESULT:    -7.781      0.000      0.000
REMARK INTER + INTRA:          -9.782
REMARK INTER:                  -9.600
REMARK INTRA:                  -0.182
REMARK UNBOUND:                -0.182
REMARK SMILES Oc1cc(O)c2cc(O)c(-c3cc(O)c(O)c(O)c3)[o+]c2c1
REMARK SMILES IDX 10 1 20 2 21 3 22 4 2 5 3 6 4 7 6 8 7 9 8 10 11 11 12 12
REMARK SMILES IDX 13 13 19 14 15 15 17 16 14 17 16 19 18 21 9 23 1 25 5 27
REMARK H PARENT 14 18 16 20 18 22 9 24 1 26 5 28
REMARK Flexibility Score: inf
ROOT
ATOM      1  C   UNL     1     -17.646  13.418   0.082  1.00  0.00     0.402 A 
ATOM      2  O   UNL     1     -16.475  14.008   0.304  1.00  0.00    -0.202 OA
ATOM      3  C   UNL     1     -15.464  13.972  -0.559  1.00  0.00     0.368 A 
ATOM      4  C   UNL     1     -14.269  14.619  -0.235  1.00  0.00     0.162 A 
ATOM      5  C   UNL     1     -13.190  14.594  -1.123  1.00  0.00     0.128 A 
ATOM      6  C   UNL     1     -13.306  13.918  -2.339  1.00  0.00     0.093 A 
ATOM      7  C   UNL     1     -14.492  13.261  -2.688  1.00  0.00     0.136 A 
ATOM      8  C   UNL     1     -15.592  13.285  -1.791  1.00  0.00     0.125 A 
ATOM      9  C   UNL     1     -16.823  12.666  -2.061  1.00  0.00     0.078 A 
ATOM     10  C   UNL     1     -17.863  12.736  -1.130  1.00  0.00     0.223 A 
ENDROOT
BRANCH   1  11
ATOM     11  C   UNL     1     -18.691  13.522   1.126  1.00  0.00     0.091 A 
ATOM     12  C   UNL     1     -19.923  14.146   0.868  1.00  0.00     0.068 A 
ATOM     13  C   UNL     1     -20.909  14.215   1.863  1.00  0.00     0.162 A 
ATOM     14  C   UNL     1     -18.472  12.937   2.382  1.00  0.00     0.068 A 
ATOM     15  C   UNL     1     -20.672  13.646   3.126  1.00  0.00     0.200 A 
ATOM     16  C   UNL     1     -19.449  13.002   3.382  1.00  0.00     0.162 A 
BRANCH  13  17
ATOM     17  O   UNL     1     -22.125  14.844   1.598  1.00  0.00    -0.504 OA
ATOM     18  H   UNL     1     -22.808  14.437   0.969  1.00  0.00     0.293 HD
ENDBRANCH  13  17
BRANCH  15  19
ATOM     19  O   UNL     1     -21.640  13.710   4.129  1.00  0.00    -0.502 OA
ATOM     20  H   UNL     1     -21.515  13.262   5.029  1.00  0.00     0.293 HD
ENDBRANCH  15  19
BRANCH  16  21
ATOM     21  O   UNL     1     -19.186  12.421   4.621  1.00  0.00    -0.504 OA
ATOM     22  H   UNL     1     -18.318  11.937   4.817  1.00  0.00     0.293 HD
ENDBRANCH  16  21
ENDBRANCH   1  11
BRANCH  10  23
ATOM     23  O   UNL     1     -19.102  12.164  -1.419  1.00  0.00    -0.500 OA
ATOM     24  H   UNL     1     -19.576  12.336  -2.298  1.00  0.00     0.294 HD
ENDBRANCH  10  23
BRANCH   5  25
ATOM     25  O   UNL     1     -11.996  15.239  -0.807  1.00  0.00    -0.507 OA
ATOM     26  H   UNL     1     -11.389  15.613  -1.528  1.00  0.00     0.293 HD
ENDBRANCH   5  25
BRANCH   7  27
ATOM     27  O   UNL     1     -14.526  12.603  -3.921  1.00  0.00    -0.507 OA
ATOM     28  H   UNL     1     -14.941  11.696  -4.072  1.00  0.00     0.293 HD
ENDBRANCH   7  27
TORSDOF 7
ENDMDL
MODEL 2
REMARK VINA RESULT:    -7.772      1.337      7.196
REMARK INTER + INTRA:          -9.771
REMARK INTER:                  -9.399
REMARK INTRA:                  -0.372
REMARK UNBOUND:                -0.182
REMARK SMILES Oc1cc(O)c2cc(O)c(-c3cc(O)c(O)c(O)c3)[o+]c2c1
REMARK SMILES IDX 10 1 20 2 21 3 22 4 2 5 3 6 4 7 6 8 7 9 8 10 11 11 12 12
REMARK SMILES IDX 13 13 19 14 15 15 17 16 14 17 16 19 18 21 9 23 1 25 5 27
REMARK H PARENT 14 18 16 20 18 22 9 24 1 26 5 28
REMARK Flexibility Score: inf
ROOT
ATOM      1  C   UNL     1     -16.958  13.351   1.030  1.00  0.00     0.402 A 
ATOM      2  O   UNL     1     -18.001  14.174   0.954  1.00  0.00    -0.202 OA
ATOM      3  C   UNL     1     -18.973  14.207   1.860  1.00  0.00     0.368 A 
ATOM      4  C   UNL     1     -20.031  15.103   1.692  1.00  0.00     0.162 A 
ATOM      5  C   UNL     1     -21.066  15.157   2.630  1.00  0.00     0.128 A 
ATOM      6  C   UNL     1     -21.045  14.308   3.739  1.00  0.00     0.093 A 
ATOM      7  C   UNL     1     -19.996  13.400   3.931  1.00  0.00     0.136 A 
ATOM      8  C   UNL     1     -18.940  13.344   2.983  1.00  0.00     0.125 A 
ATOM      9  C   UNL     1     -17.844  12.476   3.100  1.00  0.00     0.078 A 
ATOM     10  C   UNL     1     -16.839  12.480   2.129  1.00  0.00     0.223 A 
ENDROOT
BRANCH   1  11
ATOM     11  C   UNL     1     -15.946  13.403  -0.050  1.00  0.00     0.091 A 
ATOM     12  C   UNL     1     -16.116  12.687  -1.246  1.00  0.00     0.068 A 
ATOM     13  C   UNL     1     -15.158  12.766  -2.266  1.00  0.00     0.162 A 
ATOM     14  C   UNL     1     -14.821  14.227   0.099  1.00  0.00     0.068 A 
ATOM     15  C   UNL     1     -14.022  13.577  -2.100  1.00  0.00     0.200 A 
ATOM     16  C   UNL     1     -13.859  14.312  -0.914  1.00  0.00     0.162 A 
BRANCH  13  17
ATOM     17  O   UNL     1     -15.333  12.045  -3.447  1.00  0.00    -0.504 OA
ATOM     18  H   UNL     1     -16.231  11.648  -3.698  1.00  0.00     0.293 HD
ENDBRANCH  13  17
BRANCH  15  19
ATOM     19  O   UNL     1     -13.056  13.664  -3.103  1.00  0.00    -0.502 OA
ATOM     20  H   UNL     1     -13.289  13.918  -4.056  1.00  0.00     0.293 HD
ENDBRANCH  15  19
BRANCH  16  21
ATOM     21  O   UNL     1     -12.748  15.132  -0.721  1.00  0.00    -0.504 OA
ATOM     22  H   UNL     1     -12.776  16.130  -0.898  1.00  0.00     0.293 HD
ENDBRANCH  16  21
ENDBRANCH   1  11
BRANCH  10  23
ATOM     23  O   UNL     1     -15.724  11.654   2.270  1.00  0.00    -0.500 OA
ATOM     24  H   UNL     1     -15.148  11.396   1.478  1.00  0.00     0.294 HD
ENDBRANCH  10  23
BRANCH   5  25
ATOM     25  O   UNL     1     -22.124  16.049   2.469  1.00  0.00    -0.507 OA
ATOM     26  H   UNL     1     -22.808  15.933   1.729  1.00  0.00     0.293 HD
ENDBRANCH   5  25
BRANCH   7  27
ATOM     27  O   UNL     1     -20.050  12.584   5.064  1.00  0.00    -0.507 OA
ATOM     28  H   UNL     1     -19.704  11.637   5.101  1.00  0.00     0.293 HD
ENDBRANCH   7  27
TORSDOF 7
ENDMDL
MODEL 3
REMARK VINA RESULT:    -7.762      0.061      1.795
REMARK INTER + INTRA:          -9.758
REMARK INTER:                  -9.565
REMARK INTRA:                  -0.193
REMARK UNBOUND:                -0.182
REMARK SMILES Oc1cc(O)c2cc(O)c(-c3cc(O)c(O)c(O)c3)[o+]c2c1
REMARK SMILES IDX 10 1 20 2 21 3 22 4 2 5 3 6 4 7 6 8 7 9 8 10 11 11 12 12
REMARK SMILES IDX 13 13 19 14 15 15 17 16 14 17 16 19 18 21 9 23 1 25 5 27
REMARK H PARENT 14 18 16 20 18 22 9 24 1 26 5 28
REMARK Flexibility Score: inf
ROOT
ATOM      1  C   UNL     1     -17.651  13.341   0.082  1.00  0.00     0.402 A 
ATOM      2  O   UNL     1     -16.488  13.946   0.307  1.00  0.00    -0.202 OA
ATOM      3  C   UNL     1     -15.483  13.945  -0.563  1.00  0.00     0.368 A 
ATOM      4  C   UNL     1     -14.297  14.606  -0.235  1.00  0.00     0.162 A 
ATOM      5  C   UNL     1     -13.224  14.617  -1.131  1.00  0.00     0.128 A 
ATOM      6  C   UNL     1     -13.338  13.963  -2.360  1.00  0.00     0.093 A 
ATOM      7  C   UNL     1     -14.516  13.293  -2.713  1.00  0.00     0.136 A 
ATOM      8  C   UNL     1     -15.609  13.281  -1.808  1.00  0.00     0.125 A 
ATOM      9  C   UNL     1     -16.831  12.647  -2.082  1.00  0.00     0.078 A 
ATOM     10  C   UNL     1     -17.865  12.681  -1.142  1.00  0.00     0.223 A 
ENDROOT
BRANCH   1  11
ATOM     11  C   UNL     1     -18.689  13.407   1.136  1.00  0.00     0.091 A 
ATOM     12  C   UNL     1     -18.473  12.856   2.410  1.00  0.00     0.068 A 
ATOM     13  C   UNL     1     -19.460  12.947   3.402  1.00  0.00     0.162 A 
ATOM     14  C   UNL     1     -19.892  14.081   0.878  1.00  0.00     0.068 A 
ATOM     15  C   UNL     1     -20.671  13.605   3.129  1.00  0.00     0.200 A 
ATOM     16  C   UNL     1     -20.883  14.176   1.862  1.00  0.00     0.162 A 
BRANCH  13  17
ATOM     17  O   UNL     1     -19.238  12.390   4.661  1.00  0.00    -0.504 OA
ATOM     18  H   UNL     1     -20.004  12.079   5.247  1.00  0.00     0.293 HD
ENDBRANCH  13  17
BRANCH  15  19
ATOM     19  O   UNL     1     -21.665  13.701   4.103  1.00  0.00    -0.502 OA
ATOM     20  H   UNL     1     -22.202  14.548   4.244  1.00  0.00     0.293 HD
ENDBRANCH  15  19
BRANCH  16  21
ATOM     21  O   UNL     1     -22.070  14.842   1.561  1.00  0.00    -0.504 OA
ATOM     22  H   UNL     1     -22.978  14.466   1.810  1.00  0.00     0.293 HD
ENDBRANCH  16  21
ENDBRANCH   1  11
BRANCH  10  23
ATOM     23  O   UNL     1     -19.096  12.094  -1.434  1.00  0.00    -0.500 OA
ATOM     24  H   UNL     1     -19.410  11.253  -0.964  1.00  0.00     0.294 HD
ENDBRANCH  10  23
BRANCH   5  25
ATOM     25  O   UNL     1     -12.039  15.275  -0.810  1.00  0.00    -0.507 OA
ATOM     26  H   UNL     1     -11.338  14.845  -0.217  1.00  0.00     0.293 HD
ENDBRANCH   5  25
BRANCH   7  27
ATOM     27  O   UNL     1     -14.548  12.660  -3.959  1.00  0.00    -0.507 OA
ATOM     28  H   UNL     1     -14.072  11.796  -4.172  1.00  0.00     0.293 HD
ENDBRANCH   7  27
TORSDOF 7
ENDMDL
MODEL 4
REMARK VINA RESULT:    -7.711      1.116      7.107
REMARK INTER + INTRA:          -9.695
REMARK INTER:                  -9.435
REMARK INTRA:                  -0.260
REMARK UNBOUND:                -0.182
REMARK SMILES Oc1cc(O)c2cc(O)c(-c3cc(O)c(O)c(O)c3)[o+]c2c1
REMARK SMILES IDX 10 1 20 2 21 3 22 4 2 5 3 6 4 7 6 8 7 9 8 10 11 11 12 12
REMARK SMILES IDX 13 13 19 14 15 15 17 16 14 17 16 19 18 21 9 23 1 25 5 27
REMARK H PARENT 14 18 16 20 18 22 9 24 1 26 5 28
REMARK Flexibility Score: inf
ROOT
ATOM      1  C   UNL     1     -17.373  14.026  -0.200  1.00  0.00     0.402 A 
ATOM      2  O   UNL     1     -17.488  13.508   1.019  1.00  0.00    -0.202 OA
ATOM      3  C   UNL     1     -18.607  13.565   1.735  1.00  0.00     0.368 A 
ATOM      4  C   UNL     1     -18.629  12.994   3.010  1.00  0.00     0.162 A 
ATOM      5  C   UNL     1     -19.792  13.042   3.784  1.00  0.00     0.128 A 
ATOM      6  C   UNL     1     -20.937  13.665   3.282  1.00  0.00     0.093 A 
ATOM      7  C   UNL     1     -20.941  14.244   2.007  1.00  0.00     0.136 A 
ATOM      8  C   UNL     1     -19.763  14.196   1.216  1.00  0.00     0.125 A 
ATOM      9  C   UNL     1     -19.679  14.738  -0.077  1.00  0.00     0.078 A 
ATOM     10  C   UNL     1     -18.485  14.648  -0.799  1.00  0.00     0.223 A 
ENDROOT
BRANCH   1  11
ATOM     11  C   UNL     1     -16.069  13.907  -0.891  1.00  0.00     0.091 A 
ATOM     12  C   UNL     1     -14.935  14.600  -0.436  1.00  0.00     0.068 A 
ATOM     13  C   UNL     1     -13.703  14.456  -1.090  1.00  0.00     0.162 A 
ATOM     14  C   UNL     1     -15.947  13.043  -1.990  1.00  0.00     0.068 A 
ATOM     15  C   UNL     1     -13.594  13.606  -2.203  1.00  0.00     0.200 A 
ATOM     16  C   UNL     1     -14.722  12.895  -2.650  1.00  0.00     0.162 A 
BRANCH  13  17
ATOM     17  O   UNL     1     -12.585  15.154  -0.634  1.00  0.00    -0.504 OA
ATOM     18  H   UNL     1     -11.646  14.792  -0.756  1.00  0.00     0.293 HD
ENDBRANCH  13  17
BRANCH  15  19
ATOM     19  O   UNL     1     -12.377  13.456  -2.869  1.00  0.00    -0.502 OA
ATOM     20  H   UNL     1     -12.255  12.794  -3.626  1.00  0.00     0.293 HD
ENDBRANCH  15  19
BRANCH  16  21
ATOM     21  O   UNL     1     -14.646  12.038  -3.746  1.00  0.00    -0.504 OA
ATOM     22  H   UNL     1     -13.771  11.624  -4.048  1.00  0.00     0.293 HD
ENDBRANCH  16  21
ENDBRANCH   1  11
BRANCH  10  23
ATOM     23  O   UNL     1     -18.415  15.143  -2.101  1.00  0.00    -0.500 OA
ATOM     24  H   UNL     1     -18.209  16.116  -2.290  1.00  0.00     0.294 HD
ENDBRANCH  10  23
BRANCH   5  25
ATOM     25  O   UNL     1     -19.822  12.474   5.056  1.00  0.00    -0.507 OA
ATOM     26  H   UNL     1     -20.427  12.837   5.784  1.00  0.00     0.293 HD
ENDBRANCH   5  25
BRANCH   7  27
ATOM     27  O   UNL     1     -22.125  14.851   1.579  1.00  0.00    -0.507 OA
ATOM     28  H   UNL     1     -22.563  14.680   0.686  1.00  0.00     0.293 HD
ENDBRANCH   7  27
TORSDOF 7
ENDMDL
MODEL 5
REMARK VINA RESULT:    -7.252      2.831      6.457
REMARK INTER + INTRA:          -9.130
REMARK INTER:                  -8.847
REMARK INTRA:                  -0.283
REMARK UNBOUND:                -0.182
REMARK SMILES Oc1cc(O)c2cc(O)c(-c3cc(O)c(O)c(O)c3)[o+]c2c1
REMARK SMILES IDX 10 1 20 2 21 3 22 4 2 5 3 6 4 7 6 8 7 9 8 10 11 11 12 12
REMARK SMILES IDX 13 13 19 14 15 15 17 16 14 17 16 19 18 21 9 23 1 25 5 27
REMARK H PARENT 14 18 16 20 18 22 9 24 1 26 5 28
REMARK Flexibility Score: inf
ROOT
ATOM      1  C   UNL     1     -18.342  13.595   0.067  1.00  0.00     0.402 A 
ATOM      2  O   UNL     1     -19.124  13.960   1.079  1.00  0.00    -0.202 OA
ATOM      3  C   UNL     1     -18.902  13.602   2.340  1.00  0.00     0.368 A 
ATOM      4  C   UNL     1     -19.783  14.032   3.335  1.00  0.00     0.162 A 
ATOM      5  C   UNL     1     -19.572  13.668   4.669  1.00  0.00     0.128 A 
ATOM      6  C   UNL     1     -18.478  12.870   5.008  1.00  0.00     0.093 A 
ATOM      7  C   UNL     1     -17.579  12.426   4.029  1.00  0.00     0.136 A 
ATOM      8  C   UNL     1     -17.787  12.795   2.674  1.00  0.00     0.125 A 
ATOM      9  C   UNL     1     -16.933  12.408   1.629  1.00  0.00     0.078 A 
ATOM     10  C   UNL     1     -17.199  12.814   0.319  1.00  0.00     0.223 A 
ENDROOT
BRANCH   1  11
ATOM     11  C   UNL     1     -18.703  14.050  -1.295  1.00  0.00     0.091 A 
ATOM     12  C   UNL     1     -19.115  13.141  -2.284  1.00  0.00     0.068 A 
ATOM     13  C   UNL     1     -19.475  13.593  -3.561  1.00  0.00     0.162 A 
ATOM     14  C   UNL     1     -18.688  15.420  -1.591  1.00  0.00     0.068 A 
ATOM     15  C   UNL     1     -19.436  14.966  -3.857  1.00  0.00     0.200 A 
ATOM     16  C   UNL     1     -19.044  15.881  -2.864  1.00  0.00     0.162 A 
BRANCH  13  17
ATOM     17  O   UNL     1     -19.876  12.681  -4.538  1.00  0.00    -0.504 OA
ATOM     18  H   UNL     1     -19.446  11.767  -4.619  1.00  0.00     0.293 HD
ENDBRANCH  13  17
BRANCH  15  19
ATOM     19  O   UNL     1     -19.785  15.432  -5.124  1.00  0.00    -0.502 OA
ATOM     20  H   UNL     1     -19.566  16.372  -5.433  1.00  0.00     0.293 HD
ENDBRANCH  15  19
BRANCH  16  21
ATOM     21  O   UNL     1     -19.002  17.250  -3.122  1.00  0.00    -0.504 OA
ATOM     22  H   UNL     1     -18.576  17.628  -3.961  1.00  0.00     0.293 HD
ENDBRANCH  16  21
ENDBRANCH   1  11
BRANCH  10  23
ATOM     23  O   UNL     1     -16.324  12.471  -0.712  1.00  0.00    -0.500 OA
ATOM     24  H   UNL     1     -16.374  11.571  -1.176  1.00  0.00     0.294 HD
ENDBRANCH  10  23
BRANCH   5  25
ATOM     25  O   UNL     1     -20.447  14.094   5.667  1.00  0.00    -0.507 OA
ATOM     26  H   UNL     1     -21.348  13.651   5.807  1.00  0.00     0.293 HD
ENDBRANCH   5  25
BRANCH   7  27
ATOM     27  O   UNL     1     -16.512  11.628   4.449  1.00  0.00    -0.507 OA
ATOM     28  H   UNL     1     -16.613  10.715   4.867  1.00  0.00     0.293 HD
ENDBRANCH   7  27
TORSDOF 7
ENDMDL
MODEL 6
REMARK VINA RESULT:    -7.237      2.009      4.278
REMARK INTER + INTRA:          -9.111
REMARK INTER:                  -8.749
REMARK INTRA:                  -0.362
REMARK UNBOUND:                -0.182
REMARK SMILES Oc1cc(O)c2cc(O)c(-c3cc(O)c(O)c(O)c3)[o+]c2c1
REMARK SMILES IDX 10 1 20 2 21 3 22 4 2 5 3 6 4 7 6 8 7 9 8 10 11 11 12 12
REMARK SMILES IDX 13 13 19 14 15 15 17 16 14 17 16 19 18 21 9 23 1 25 5 27
REMARK H PARENT 14 18 16 20 18 22 9 24 1 26 5 28
REMARK Flexibility Score: inf
ROOT
ATOM      1  C   UNL     1     -17.487  13.007  -0.295  1.00  0.00     0.402 A 
ATOM      2  O   UNL     1     -18.330  12.302  -1.045  1.00  0.00    -0.202 OA
ATOM      3  C   UNL     1     -18.138  12.071  -2.339  1.00  0.00     0.368 A 
ATOM      4  C   UNL     1     -19.083  11.322  -3.045  1.00  0.00     0.162 A 
ATOM      5  C   UNL     1     -18.905  11.065  -4.407  1.00  0.00     0.128 A 
ATOM      6  C   UNL     1     -17.780  11.562  -5.068  1.00  0.00     0.093 A 
ATOM      7  C   UNL     1     -16.817  12.315  -4.384  1.00  0.00     0.136 A 
ATOM      8  C   UNL     1     -16.991  12.576  -2.999  1.00  0.00     0.125 A 
ATOM      9  C   UNL     1     -16.074  13.310  -2.231  1.00  0.00     0.078 A 
ATOM     10  C   UNL     1     -16.310  13.523  -0.870  1.00  0.00     0.223 A 
ENDROOT
BRANCH   1  11
ATOM     11  C   UNL     1     -17.819  13.205   1.134  1.00  0.00     0.091 A 
ATOM     12  C   UNL     1     -17.262  12.388   2.133  1.00  0.00     0.068 A 
ATOM     13  C   UNL     1     -17.570  12.605   3.484  1.00  0.00     0.162 A 
ATOM     14  C   UNL     1     -18.661  14.262   1.507  1.00  0.00     0.068 A 
ATOM     15  C   UNL     1     -18.433  13.652   3.847  1.00  0.00     0.200 A 
ATOM     16  C   UNL     1     -18.976  14.485   2.853  1.00  0.00     0.162 A 
BRANCH  13  17
ATOM     17  O   UNL     1     -17.018  11.784   4.466  1.00  0.00    -0.504 OA
ATOM     18  H   UNL     1     -16.134  12.006   4.910  1.00  0.00     0.293 HD
ENDBRANCH  13  17
BRANCH  15  19
ATOM     19  O   UNL     1     -18.755  13.879   5.186  1.00  0.00    -0.502 OA
ATOM     20  H   UNL     1     -19.354  14.643   5.475  1.00  0.00     0.293 HD
ENDBRANCH  15  19
BRANCH  16  21
ATOM     21  O   UNL     1     -19.828  15.537   3.180  1.00  0.00    -0.504 OA
ATOM     22  H   UNL     1     -20.269  16.115   2.474  1.00  0.00     0.293 HD
ENDBRANCH  16  21
ENDBRANCH   1  11
BRANCH  10  23
ATOM     23  O   UNL     1     -15.375  14.209  -0.096  1.00  0.00    -0.500 OA
ATOM     24  H   UNL     1     -14.910  13.771   0.690  1.00  0.00     0.294 HD
ENDBRANCH  10  23
BRANCH   5  25
ATOM     25  O   UNL     1     -19.843  10.318  -5.117  1.00  0.00    -0.507 OA
ATOM     26  H   UNL     1     -19.563   9.664  -5.840  1.00  0.00     0.293 HD
ENDBRANCH   5  25
BRANCH   7  27
ATOM     27  O   UNL     1     -15.722  12.779  -5.118  1.00  0.00    -0.507 OA
ATOM     28  H   UNL     1     -15.519  13.753  -5.285  1.00  0.00     0.293 HD
ENDBRANCH   7  27
TORSDOF 7
ENDMDL
MODEL 7
REMARK VINA RESULT:    -7.010      2.095      4.354
REMARK INTER + INTRA:          -8.831
REMARK INTER:                  -8.611
REMARK INTRA:                  -0.220
REMARK UNBOUND:                -0.182
REMARK SMILES Oc1cc(O)c2cc(O)c(-c3cc(O)c(O)c(O)c3)[o+]c2c1
REMARK SMILES IDX 10 1 20 2 21 3 22 4 2 5 3 6 4 7 6 8 7 9 8 10 11 11 12 12
REMARK SMILES IDX 13 13 19 14 15 15 17 16 14 17 16 19 18 21 9 23 1 25 5 27
REMARK H PARENT 14 18 16 20 18 22 9 24 1 26 5 28
REMARK Flexibility Score: inf
ROOT
ATOM      1  C   UNL     1     -14.690  13.647  -0.970  1.00  0.00     0.402 A 
ATOM      2  O   UNL     1     -14.178  12.896  -1.941  1.00  0.00    -0.202 OA
ATOM      3  C   UNL     1     -12.991  13.125  -2.493  1.00  0.00     0.368 A 
ATOM      4  C   UNL     1     -12.539  12.282  -3.511  1.00  0.00     0.162 A 
ATOM      5  C   UNL     1     -11.296  12.502  -4.110  1.00  0.00     0.128 A 
ATOM      6  C   UNL     1     -10.501  13.572  -3.691  1.00  0.00     0.093 A 
ATOM      7  C   UNL     1     -10.930  14.432  -2.672  1.00  0.00     0.136 A 
ATOM      8  C   UNL     1     -12.192  14.210  -2.058  1.00  0.00     0.125 A 
ATOM      9  C   UNL     1     -12.698  15.012  -1.023  1.00  0.00     0.078 A 
ATOM     10  C   UNL     1     -13.947  14.730  -0.464  1.00  0.00     0.223 A 
ENDROOT
BRANCH   1  11
ATOM     11  C   UNL     1     -16.028  13.294  -0.444  1.00  0.00     0.091 A 
ATOM     12  C   UNL     1     -16.203  12.869   0.884  1.00  0.00     0.068 A 
ATOM     13  C   UNL     1     -17.481  12.561   1.371  1.00  0.00     0.162 A 
ATOM     14  C   UNL     1     -17.154  13.439  -1.268  1.00  0.00     0.068 A 
ATOM     15  C   UNL     1     -18.601  12.688   0.532  1.00  0.00     0.200 A 
ATOM     16  C   UNL     1     -18.433  13.132  -0.791  1.00  0.00     0.162 A 
BRANCH  13  17
ATOM     17  O   UNL     1     -17.642  12.134   2.689  1.00  0.00    -0.504 OA
ATOM     18  H   UNL     1     -16.858  12.074   3.327  1.00  0.00     0.293 HD
ENDBRANCH  13  17
BRANCH  15  19
ATOM     19  O   UNL     1     -19.880  12.380   0.998  1.00  0.00    -0.502 OA
ATOM     20  H   UNL     1     -20.216  12.697   1.900  1.00  0.00     0.293 HD
ENDBRANCH  15  19
BRANCH  16  21
ATOM     21  O   UNL     1     -19.524  13.276  -1.647  1.00  0.00    -0.504 OA
ATOM     22  H   UNL     1     -20.169  12.516  -1.832  1.00  0.00     0.293 HD
ENDBRANCH  16  21
ENDBRANCH   1  11
BRANCH  10  23
ATOM     23  O   UNL     1     -14.428  15.496   0.597  1.00  0.00    -0.500 OA
ATOM     24  H   UNL     1     -14.730  16.455   0.469  1.00  0.00     0.294 HD
ENDBRANCH  10  23
BRANCH   5  25
ATOM     25  O   UNL     1     -10.838  11.664  -5.125  1.00  0.00    -0.507 OA
ATOM     26  H   UNL     1     -11.452  11.347  -5.867  1.00  0.00     0.293 HD
ENDBRANCH   5  25
BRANCH   7  27
ATOM     27  O   UNL     1     -10.079  15.480  -2.313  1.00  0.00    -0.507 OA
ATOM     28  H   UNL     1     -10.387  16.348  -1.900  1.00  0.00     0.293 HD
ENDBRANCH   7  27
TORSDOF 7
ENDMDL
MODEL 8
REMARK VINA RESULT:    -6.982      2.192      7.690
REMARK INTER + INTRA:          -8.796
REMARK INTER:                  -8.512
REMARK INTRA:                  -0.284
REMARK UNBOUND:                -0.182
REMARK SMILES Oc1cc(O)c2cc(O)c(-c3cc(O)c(O)c(O)c3)[o+]c2c1
REMARK SMILES IDX 10 1 20 2 21 3 22 4 2 5 3 6 4 7 6 8 7 9 8 10 11 11 12 12
REMARK SMILES IDX 13 13 19 14 15 15 17 16 14 17 16 19 18 21 9 23 1 25 5 27
REMARK H PARENT 14 18 16 20 18 22 9 24 1 26 5 28
REMARK Flexibility Score: inf
ROOT
ATOM      1  C   UNL     1     -15.013  13.749  -1.226  1.00  0.00     0.402 A 
ATOM      2  O   UNL     1     -16.054  14.224  -1.905  1.00  0.00    -0.202 OA
ATOM      3  C   UNL     1     -17.277  14.317  -1.394  1.00  0.00     0.368 A 
ATOM      4  C   UNL     1     -18.309  14.827  -2.186  1.00  0.00     0.162 A 
ATOM      5  C   UNL     1     -19.605  14.933  -1.675  1.00  0.00     0.128 A 
ATOM      6  C   UNL     1     -19.871  14.527  -0.365  1.00  0.00     0.093 A 
ATOM      7  C   UNL     1     -18.855  14.013   0.451  1.00  0.00     0.136 A 
ATOM      8  C   UNL     1     -17.536  13.906  -0.064  1.00  0.00     0.125 A 
ATOM      9  C   UNL     1     -16.454  13.415   0.683  1.00  0.00     0.078 A 
ATOM     10  C   UNL     1     -15.181  13.342   0.111  1.00  0.00     0.223 A 
ENDROOT
BRANCH   1  11
ATOM     11  C   UNL     1     -13.701  13.686  -1.911  1.00  0.00     0.091 A 
ATOM     12  C   UNL     1     -13.458  12.762  -2.940  1.00  0.00     0.068 A 
ATOM     13  C   UNL     1     -12.217  12.732  -3.592  1.00  0.00     0.162 A 
ATOM     14  C   UNL     1     -12.698  14.603  -1.565  1.00  0.00     0.068 A 
ATOM     15  C   UNL     1     -11.209  13.640  -3.225  1.00  0.00     0.200 A 
ATOM     16  C   UNL     1     -11.456  14.580  -2.209  1.00  0.00     0.162 A 
BRANCH  13  17
ATOM     17  O   UNL     1     -11.983  11.806  -4.608  1.00  0.00    -0.504 OA
ATOM     18  H   UNL     1     -11.180  11.188  -4.590  1.00  0.00     0.293 HD
ENDBRANCH  13  17
BRANCH  15  19
ATOM     19  O   UNL     1      -9.967  13.622  -3.859  1.00  0.00    -0.502 OA
ATOM     20  H   UNL     1      -9.792  13.063  -4.686  1.00  0.00     0.293 HD
ENDBRANCH  15  19
BRANCH  16  21
ATOM     21  O   UNL     1     -10.481  15.500  -1.826  1.00  0.00    -0.504 OA
ATOM     22  H   UNL     1      -9.500  15.368  -2.044  1.00  0.00     0.293 HD
ENDBRANCH  16  21
ENDBRANCH   1  11
BRANCH  10  23
ATOM     23  O   UNL     1     -14.097  12.901   0.868  1.00  0.00    -0.500 OA
ATOM     24  H   UNL     1     -13.413  13.547   1.245  1.00  0.00     0.294 HD
ENDBRANCH  10  23
BRANCH   5  25
ATOM     25  O   UNL     1     -20.638  15.441  -2.459  1.00  0.00    -0.507 OA
ATOM     26  H   UNL     1     -21.430  15.923  -2.046  1.00  0.00     0.293 HD
ENDBRANCH   5  25
BRANCH   7  27
ATOM     27  O   UNL     1     -19.204  13.626   1.747  1.00  0.00    -0.507 OA
ATOM     28  H   UNL     1     -18.956  12.741   2.164  1.00  0.00     0.293 HD
ENDBRANCH   7  27
TORSDOF 7
ENDMDL
