MODEL 1
REMARK VINA RESULT:    -7.370      0.000      0.000
REMARK INTER + INTRA:         -14.014
REMARK INTER:                 -12.756
REMARK INTRA:                  -1.258
REMARK UNBOUND:                -1.258
REMARK SMILES OC[C@@H]1O[C@@H](O[C@@H]2[C@@H](O)[C@@H](O)[C@@H](O[C@H]3[C@@H](O)[C@H](O)[C@H](O)O[C@@H]3CO)O[C@H]2CO)[C@H](O)[C@@H](O)[C@H]1O
REMARK SMILES IDX 7 1 26 2 25 3 12 4 10 5 8 6 6 7 5 8 3 9 33 10 4 11 31 12
REMARK SMILES IDX 29 13 2 14 1 15 34 17 32 19 30 21 27 23 28 24 9 26 11 28
REMARK SMILES IDX 13 30 14 31 22 32 15 33 21 34 17 35 19 36 23 37 24 38 16 40
REMARK SMILES IDX 18 42 20 44
REMARK H PARENT 1 16 34 18 32 20 30 22 28 25 9 27 11 29 24 39 16 41 18 43
REMARK H PARENT 20 45
REMARK Flexibility Score: inf
ROOT
ATOM      1  C   UNL     1      38.242   5.608  43.511  1.00  0.00     0.184 C 
ATOM      2  C   UNL     1      39.469   5.641  44.497  1.00  0.00     0.178 C 
ATOM      3  O   UNL     1      40.125   4.293  44.314  1.00  0.00    -0.341 OA
ATOM      4  C   UNL     1      39.286   3.108  44.872  1.00  0.00     0.282 C 
ATOM      5  C   UNL     1      37.960   3.631  45.198  1.00  0.00     0.202 C 
ATOM      6  C   UNL     1      37.563   4.297  43.742  1.00  0.00     0.180 C 
ENDROOT
BRANCH   1   7
ATOM      7  O   UNL     1      37.091   6.536  43.202  1.00  0.00    -0.341 OA
BRANCH   7   8
ATOM      8  C   UNL     1      36.892   7.450  44.319  1.00  0.00     0.282 C 
ATOM      9  C   UNL     1      34.917   7.582  45.721  1.00  0.00     0.178 C 
ATOM     10  C   UNL     1      35.608   8.778  46.295  1.00  0.00     0.177 C 
ATOM     11  O   UNL     1      35.962   6.746  45.187  1.00  0.00    -0.341 OA
ATOM     12  C   UNL     1      35.945   9.750  45.097  1.00  0.00     0.179 C 
ATOM     13  C   UNL     1      36.350   8.875  43.848  1.00  0.00     0.202 C 
BRANCH   9  14
ATOM     14  C   UNL     1      34.273   6.728  46.776  1.00  0.00     0.191 C 
BRANCH  14  15
ATOM     15  O   UNL     1      34.968   6.865  48.025  1.00  0.00    -0.394 OA
ATOM     16  H   UNL     1      35.667   6.170  48.127  1.00  0.00     0.210 HD
ENDBRANCH  14  15
ENDBRANCH   9  14
BRANCH  10  17
ATOM     17  O   UNL     1      34.875   9.469  47.243  1.00  0.00    -0.387 OA
ATOM     18  H   UNL     1      34.406  10.261  46.834  1.00  0.00     0.211 HD
ENDBRANCH  10  17
BRANCH  12  19
ATOM     19  O   UNL     1      34.666  10.393  44.753  1.00  0.00    -0.387 OA
ATOM     20  H   UNL     1      34.817  10.826  43.904  1.00  0.00     0.211 HD
ENDBRANCH  12  19
BRANCH  13  21
ATOM     21  O   UNL     1      37.106   9.518  42.914  1.00  0.00    -0.385 OA
ATOM     22  H   UNL     1      36.703  10.426  42.819  1.00  0.00     0.211 HD
ENDBRANCH  13  21
ENDBRANCH   7   8
ENDBRANCH   1   7
BRANCH   2  23
ATOM     23  C   UNL     1      40.107   7.107  44.416  1.00  0.00     0.191 C 
BRANCH  23  24
ATOM     24  O   UNL     1      39.844   7.708  43.230  1.00  0.00    -0.394 OA
ATOM     25  H   UNL     1      39.835   8.699  43.314  1.00  0.00     0.210 HD
ENDBRANCH  23  24
ENDBRANCH   2  23
BRANCH   6  26
ATOM     26  O   UNL     1      38.123   3.545  42.692  1.00  0.00    -0.387 OA
ATOM     27  H   UNL     1      37.584   2.757  42.512  1.00  0.00     0.211 HD
ENDBRANCH   6  26
BRANCH   5  28
ATOM     28  O   UNL     1      37.197   2.694  45.851  1.00  0.00    -0.385 OA
ATOM     29  H   UNL     1      37.343   2.784  46.878  1.00  0.00     0.211 HD
ENDBRANCH   5  28
BRANCH   4  30
ATOM     30  O   UNL     1      38.977   1.790  44.036  1.00  0.00    -0.341 OA
BRANCH  30  31
ATOM     31  C   UNL     1      38.628   0.346  44.543  1.00  0.00     0.184 C 
ATOM     32  C   UNL     1      39.810  -0.595  45.192  1.00  0.00     0.178 C 
ATOM     33  C   UNL     1      37.234  -0.664  44.540  1.00  0.00     0.180 C 
ATOM     34  O   UNL     1      39.829  -1.975  44.739  1.00  0.00    -0.342 OA
ATOM     35  C   UNL     1      37.505  -1.905  43.605  1.00  0.00     0.201 C 
ATOM     36  C   UNL     1      39.067  -2.298  43.598  1.00  0.00     0.279 C 
BRANCH  32  37
ATOM     37  C   UNL     1      39.836  -0.525  46.760  1.00  0.00     0.191 C 
BRANCH  37  38
ATOM     38  O   UNL     1      39.072   0.588  47.214  1.00  0.00    -0.394 OA
ATOM     39  H   UNL     1      39.462   1.349  46.694  1.00  0.00     0.210 HD
ENDBRANCH  37  38
ENDBRANCH  32  37
BRANCH  33  40
ATOM     40  O   UNL     1      35.812  -0.432  44.225  1.00  0.00    -0.387 OA
ATOM     41  H   UNL     1      35.247   0.303  44.518  1.00  0.00     0.211 HD
ENDBRANCH  33  40
BRANCH  35  42
ATOM     42  O   UNL     1      36.609  -2.996  43.904  1.00  0.00    -0.385 OA
ATOM     43  H   UNL     1      36.355  -3.371  43.024  1.00  0.00     0.211 HD
ENDBRANCH  35  42
BRANCH  36  44
ATOM     44  O   UNL     1      39.258  -3.678  43.264  1.00  0.00    -0.366 OA
ATOM     45  H   UNL     1      38.936  -4.226  44.059  1.00  0.00     0.213 HD
ENDBRANCH  36  44
ENDBRANCH  30  31
ENDBRANCH   4  30
TORSDOF 18
ENDMDL
MODEL 2
REMARK VINA RESULT:    -7.236      3.604      5.825
REMARK INTER + INTRA:         -13.783
REMARK INTER:                 -12.380
REMARK INTRA:                  -1.402
REMARK UNBOUND:                -1.258
REMARK SMILES OC[C@@H]1O[C@@H](O[C@@H]2[C@@H](O)[C@@H](O)[C@@H](O[C@H]3[C@@H](O)[C@H](O)[C@H](O)O[C@@H]3CO)O[C@H]2CO)[C@H](O)[C@@H](O)[C@H]1O
REMARK SMILES IDX 7 1 26 2 25 3 12 4 10 5 8 6 6 7 5 8 3 9 33 10 4 11 31 12
REMARK SMILES IDX 29 13 2 14 1 15 34 17 32 19 30 21 27 23 28 24 9 26 11 28
REMARK SMILES IDX 13 30 14 31 22 32 15 33 21 34 17 35 19 36 23 37 24 38 16 40
REMARK SMILES IDX 18 42 20 44
REMARK H PARENT 1 16 34 18 32 20 30 22 28 25 9 27 11 29 24 39 16 41 18 43
REMARK H PARENT 20 45
REMARK Flexibility Score: inf
ROOT
ATOM      1  C   UNL     1      38.287   3.422  43.979  1.00  0.00     0.184 C 
ATOM      2  C   UNL     1      38.195   1.961  43.402  1.00  0.00     0.178 C 
ATOM      3  O   UNL     1      36.729   1.781  43.088  1.00  0.00    -0.341 OA
ATOM      4  C   UNL     1      35.826   1.692  44.351  1.00  0.00     0.282 C 
ATOM      5  C   UNL     1      36.648   2.067  45.500  1.00  0.00     0.202 C 
ATOM      6  C   UNL     1      37.186   3.538  44.983  1.00  0.00     0.180 C 
ENDROOT
BRANCH   1   7
ATOM      7  O   UNL     1      39.384   4.270  44.581  1.00  0.00    -0.341 OA
BRANCH   7   8
ATOM      8  C   UNL     1      39.345   5.602  43.992  1.00  0.00     0.282 C 
ATOM      9  C   UNL     1      37.402   7.047  43.858  1.00  0.00     0.178 C 
ATOM     10  C   UNL     1      38.306   7.908  43.033  1.00  0.00     0.177 C 
ATOM     11  O   UNL     1      38.269   6.270  44.706  1.00  0.00    -0.341 OA
ATOM     12  C   UNL     1      38.865   7.015  41.856  1.00  0.00     0.179 C 
ATOM     13  C   UNL     1      39.116   5.561  42.413  1.00  0.00     0.202 C 
BRANCH   9  14
ATOM     14  C   UNL     1      36.570   7.844  44.822  1.00  0.00     0.191 C 
BRANCH  14  15
ATOM     15  O   UNL     1      37.413   8.606  45.700  1.00  0.00    -0.394 OA
ATOM     16  H   UNL     1      37.554   9.524  45.357  1.00  0.00     0.210 HD
ENDBRANCH  14  15
ENDBRANCH   9  14
BRANCH  10  17
ATOM     17  O   UNL     1      37.703   9.032  42.499  1.00  0.00    -0.387 OA
ATOM     18  H   UNL     1      36.795   9.187  42.907  1.00  0.00     0.211 HD
ENDBRANCH  10  17
BRANCH  12  19
ATOM     19  O   UNL     1      37.752   6.903  40.898  1.00  0.00    -0.387 OA
ATOM     20  H   UNL     1      37.901   7.602  40.250  1.00  0.00     0.211 HD
ENDBRANCH  12  19
BRANCH  13  21
ATOM     21  O   UNL     1      40.012   4.818  41.704  1.00  0.00    -0.385 OA
ATOM     22  H   UNL     1      40.094   3.954  42.195  1.00  0.00     0.211 HD
ENDBRANCH  13  21
ENDBRANCH   7   8
ENDBRANCH   1   7
BRANCH   2  23
ATOM     23  C   UNL     1      39.474   1.737  42.466  1.00  0.00     0.191 C 
BRANCH  23  24
ATOM     24  O   UNL     1      39.206   2.015  41.166  1.00  0.00    -0.394 OA
ATOM     25  H   UNL     1      39.571   2.900  40.897  1.00  0.00     0.210 HD
ENDBRANCH  23  24
ENDBRANCH   2  23
BRANCH   6  26
ATOM     26  O   UNL     1      36.204   4.168  44.195  1.00  0.00    -0.387 OA
ATOM     27  H   UNL     1      35.570   4.644  44.757  1.00  0.00     0.211 HD
ENDBRANCH   6  26
BRANCH   5  28
ATOM     28  O   UNL     1      35.983   1.861  46.684  1.00  0.00    -0.385 OA
ATOM     29  H   UNL     1      35.911   2.762  47.201  1.00  0.00     0.211 HD
ENDBRANCH   5  28
BRANCH   4  30
ATOM     30  O   UNL     1      34.502   2.555  44.537  1.00  0.00    -0.341 OA
BRANCH  30  31
ATOM     31  C   UNL     1      33.335   2.825  43.522  1.00  0.00     0.184 C 
ATOM     32  C   UNL     1      31.973   1.907  43.587  1.00  0.00     0.178 C 
ATOM     33  C   UNL     1      33.084   3.864  42.172  1.00  0.00     0.180 C 
ATOM     34  O   UNL     1      31.473   1.440  42.306  1.00  0.00    -0.342 OA
ATOM     35  C   UNL     1      32.967   2.986  40.868  1.00  0.00     0.201 C 
ATOM     36  C   UNL     1      32.333   1.542  41.194  1.00  0.00     0.279 C 
BRANCH  32  37
ATOM     37  C   UNL     1      30.827   2.596  44.412  1.00  0.00     0.191 C 
BRANCH  37  38
ATOM     38  O   UNL     1      29.940   3.287  43.537  1.00  0.00    -0.394 OA
ATOM     39  H   UNL     1      30.501   3.424  42.719  1.00  0.00     0.210 HD
ENDBRANCH  37  38
ENDBRANCH  32  37
BRANCH  33  40
ATOM     40  O   UNL     1      33.828   5.013  41.623  1.00  0.00    -0.387 OA
ATOM     41  H   UNL     1      33.520   5.672  40.979  1.00  0.00     0.211 HD
ENDBRANCH  33  40
BRANCH  35  42
ATOM     42  O   UNL     1      32.312   3.707  39.803  1.00  0.00    -0.385 OA
ATOM     43  H   UNL     1      32.494   3.183  38.985  1.00  0.00     0.211 HD
ENDBRANCH  35  42
BRANCH  36  44
ATOM     44  O   UNL     1      31.699   0.976  40.040  1.00  0.00    -0.366 OA
ATOM     45  H   UNL     1      30.694   1.069  40.174  1.00  0.00     0.213 HD
ENDBRANCH  36  44
ENDBRANCH  30  31
ENDBRANCH   4  30
TORSDOF 18
ENDMDL
MODEL 3
REMARK VINA RESULT:    -7.152      2.339      9.016
REMARK INTER + INTRA:         -13.637
REMARK INTER:                 -12.702
REMARK INTRA:                  -0.935
REMARK UNBOUND:                -1.258
REMARK SMILES OC[C@@H]1O[C@@H](O[C@@H]2[C@@H](O)[C@@H](O)[C@@H](O[C@H]3[C@@H](O)[C@H](O)[C@H](O)O[C@@H]3CO)O[C@H]2CO)[C@H](O)[C@@H](O)[C@H]1O
REMARK SMILES IDX 7 1 26 2 25 3 12 4 10 5 8 6 6 7 5 8 3 9 33 10 4 11 31 12
REMARK SMILES IDX 29 13 2 14 1 15 34 17 32 19 30 21 27 23 28 24 9 26 11 28
REMARK SMILES IDX 13 30 14 31 22 32 15 33 21 34 17 35 19 36 23 37 24 38 16 40
REMARK SMILES IDX 18 42 20 44
REMARK H PARENT 1 16 34 18 32 20 30 22 28 25 9 27 11 29 24 39 16 41 18 43
REMARK H PARENT 20 45
REMARK Flexibility Score: inf
ROOT
ATOM      1  C   UNL     1      35.004   2.141  44.554  1.00  0.00     0.184 C 
ATOM      2  C   UNL     1      33.678   2.801  44.021  1.00  0.00     0.178 C 
ATOM      3  O   UNL     1      34.157   3.873  43.071  1.00  0.00    -0.341 OA
ATOM      4  C   UNL     1      34.858   5.068  43.777  1.00  0.00     0.282 C 
ATOM      5  C   UNL     1      35.077   4.681  45.170  1.00  0.00     0.202 C 
ATOM      6  C   UNL     1      35.903   3.273  44.937  1.00  0.00     0.180 C 
ENDROOT
BRANCH   1   7
ATOM      7  O   UNL     1      35.337   1.082  45.580  1.00  0.00    -0.341 OA
BRANCH   7   8
ATOM      8  C   UNL     1      36.406   0.234  45.071  1.00  0.00     0.282 C 
ATOM      9  C   UNL     1      36.627  -2.154  45.431  1.00  0.00     0.178 C 
ATOM     10  C   UNL     1      37.948  -1.966  44.755  1.00  0.00     0.177 C 
ATOM     11  O   UNL     1      35.791  -1.080  44.963  1.00  0.00    -0.341 OA
ATOM     12  C   UNL     1      38.730  -0.846  45.547  1.00  0.00     0.179 C 
ATOM     13  C   UNL     1      37.691   0.245  46.017  1.00  0.00     0.202 C 
BRANCH   9  14
ATOM     14  C   UNL     1      35.915  -3.394  44.970  1.00  0.00     0.191 C 
BRANCH  14  15
ATOM     15  O   UNL     1      35.388  -4.117  46.094  1.00  0.00    -0.394 OA
ATOM     16  H   UNL     1      35.963  -4.010  46.893  1.00  0.00     0.210 HD
ENDBRANCH  14  15
ENDBRANCH   9  14
BRANCH  10  17
ATOM     17  O   UNL     1      38.731  -3.104  44.692  1.00  0.00    -0.387 OA
ATOM     18  H   UNL     1      38.396  -3.739  43.986  1.00  0.00     0.211 HD
ENDBRANCH  10  17
BRANCH  12  19
ATOM     19  O   UNL     1      39.214  -1.508  46.770  1.00  0.00    -0.387 OA
ATOM     20  H   UNL     1      39.772  -2.233  46.464  1.00  0.00     0.211 HD
ENDBRANCH  12  19
BRANCH  13  21
ATOM     21  O   UNL     1      38.223   1.472  46.280  1.00  0.00    -0.385 OA
ATOM     22  H   UNL     1      37.591   1.909  46.916  1.00  0.00     0.211 HD
ENDBRANCH  13  21
ENDBRANCH   7   8
ENDBRANCH   1   7
BRANCH   2  23
ATOM     23  C   UNL     1      32.621   1.624  43.783  1.00  0.00     0.191 C 
BRANCH  23  24
ATOM     24  O   UNL     1      33.212   0.403  43.791  1.00  0.00    -0.394 OA
ATOM     25  H   UNL     1      33.139  -0.034  44.681  1.00  0.00     0.210 HD
ENDBRANCH  23  24
ENDBRANCH   2  23
BRANCH   6  26
ATOM     26  O   UNL     1      36.694   3.357  43.775  1.00  0.00    -0.387 OA
ATOM     27  H   UNL     1      36.560   4.212  43.333  1.00  0.00     0.211 HD
ENDBRANCH   6  26
BRANCH   5  28
ATOM     28  O   UNL     1      35.544   5.734  45.918  1.00  0.00    -0.385 OA
ATOM     29  H   UNL     1      36.389   5.434  46.447  1.00  0.00     0.211 HD
ENDBRANCH   5  28
BRANCH   4  30
ATOM     30  O   UNL     1      36.270   5.643  43.320  1.00  0.00    -0.341 OA
BRANCH  30  31
ATOM     31  C   UNL     1      36.940   7.024  43.654  1.00  0.00     0.184 C 
ATOM     32  C   UNL     1      38.554   7.090  43.960  1.00  0.00     0.178 C 
ATOM     33  C   UNL     1      36.394   8.639  43.891  1.00  0.00     0.180 C 
ATOM     34  O   UNL     1      38.940   7.900  45.103  1.00  0.00    -0.342 OA
ATOM     35  C   UNL     1      36.638   9.044  45.396  1.00  0.00     0.201 C 
ATOM     36  C   UNL     1      37.925   8.287  46.001  1.00  0.00     0.279 C 
BRANCH  32  37
ATOM     37  C   UNL     1      39.387   7.489  42.690  1.00  0.00     0.191 C 
BRANCH  37  38
ATOM     38  O   UNL     1      38.815   8.636  42.069  1.00  0.00    -0.394 OA
ATOM     39  H   UNL     1      39.043   9.371  42.709  1.00  0.00     0.210 HD
ENDBRANCH  37  38
ENDBRANCH  32  37
BRANCH  33  40
ATOM     40  O   UNL     1      35.106   9.320  43.664  1.00  0.00    -0.387 OA
ATOM     41  H   UNL     1      34.938  10.125  43.146  1.00  0.00     0.211 HD
ENDBRANCH  33  40
BRANCH  35  42
ATOM     42  O   UNL     1      36.647  10.478  45.562  1.00  0.00    -0.385 OA
ATOM     43  H   UNL     1      37.435  10.667  46.129  1.00  0.00     0.211 HD
ENDBRANCH  35  42
BRANCH  36  44
ATOM     44  O   UNL     1      38.498   9.019  47.091  1.00  0.00    -0.366 OA
ATOM     45  H   UNL     1      38.802   8.338  47.783  1.00  0.00     0.213 HD
ENDBRANCH  36  44
ENDBRANCH  30  31
ENDBRANCH   4  30
TORSDOF 18
ENDMDL
MODEL 4
REMARK VINA RESULT:    -7.144      1.086      2.085
REMARK INTER + INTRA:         -13.622
REMARK INTER:                 -13.003
REMARK INTRA:                  -0.619
REMARK UNBOUND:                -1.258
REMARK SMILES OC[C@@H]1O[C@@H](O[C@@H]2[C@@H](O)[C@@H](O)[C@@H](O[C@H]3[C@@H](O)[C@H](O)[C@H](O)O[C@@H]3CO)O[C@H]2CO)[C@H](O)[C@@H](O)[C@H]1O
REMARK SMILES IDX 7 1 26 2 25 3 12 4 10 5 8 6 6 7 5 8 3 9 33 10 4 11 31 12
REMARK SMILES IDX 29 13 2 14 1 15 34 17 32 19 30 21 27 23 28 24 9 26 11 28
REMARK SMILES IDX 13 30 14 31 22 32 15 33 21 34 17 35 19 36 23 37 24 38 16 40
REMARK SMILES IDX 18 42 20 44
REMARK H PARENT 1 16 34 18 32 20 30 22 28 25 9 27 11 29 24 39 16 41 18 43
REMARK H PARENT 20 45
REMARK Flexibility Score: inf
ROOT
ATOM      1  C   UNL     1      38.364   5.493  43.541  1.00  0.00     0.184 C 
ATOM      2  C   UNL     1      39.312   5.301  44.783  1.00  0.00     0.178 C 
ATOM      3  O   UNL     1      39.850   3.898  44.622  1.00  0.00    -0.341 OA
ATOM      4  C   UNL     1      38.784   2.789  44.848  1.00  0.00     0.282 C 
ATOM      5  C   UNL     1      37.479   3.448  44.908  1.00  0.00     0.202 C 
ATOM      6  C   UNL     1      37.517   4.263  43.475  1.00  0.00     0.180 C 
ENDROOT
BRANCH   1   7
ATOM      7  O   UNL     1      37.424   6.577  43.069  1.00  0.00    -0.341 OA
BRANCH   7   8
ATOM      8  C   UNL     1      37.122   7.473  44.177  1.00  0.00     0.282 C 
ATOM      9  C   UNL     1      35.107   7.445  45.528  1.00  0.00     0.178 C 
ATOM     10  C   UNL     1      35.683   8.694  46.115  1.00  0.00     0.177 C 
ATOM     11  O   UNL     1      36.230   6.696  45.024  1.00  0.00    -0.341 OA
ATOM     12  C   UNL     1      35.970   9.689  44.922  1.00  0.00     0.179 C 
ATOM     13  C   UNL     1      36.477   8.849  43.687  1.00  0.00     0.202 C 
BRANCH   9  14
ATOM     14  C   UNL     1      34.508   6.542  46.568  1.00  0.00     0.191 C 
BRANCH  14  15
ATOM     15  O   UNL     1      34.945   6.930  47.880  1.00  0.00    -0.394 OA
ATOM     16  H   UNL     1      34.784   7.893  48.043  1.00  0.00     0.210 HD
ENDBRANCH  14  15
ENDBRANCH   9  14
BRANCH  10  17
ATOM     17  O   UNL     1      34.871   9.324  47.041  1.00  0.00    -0.387 OA
ATOM     18  H   UNL     1      34.173   9.890  46.587  1.00  0.00     0.211 HD
ENDBRANCH  10  17
BRANCH  12  19
ATOM     19  O   UNL     1      34.652  10.224  44.543  1.00  0.00    -0.387 OA
ATOM     20  H   UNL     1      34.164  10.312  45.371  1.00  0.00     0.211 HD
ENDBRANCH  12  19
BRANCH  13  21
ATOM     21  O   UNL     1      37.203   9.550  42.771  1.00  0.00    -0.385 OA
ATOM     22  H   UNL     1      38.152   9.485  43.073  1.00  0.00     0.211 HD
ENDBRANCH  13  21
ENDBRANCH   7   8
ENDBRANCH   1   7
BRANCH   2  23
ATOM     23  C   UNL     1      40.099   6.677  45.001  1.00  0.00     0.191 C 
BRANCH  23  24
ATOM     24  O   UNL     1      40.102   7.059  46.302  1.00  0.00    -0.394 OA
ATOM     25  H   UNL     1      40.987   7.418  46.578  1.00  0.00     0.210 HD
ENDBRANCH  23  24
ENDBRANCH   2  23
BRANCH   6  26
ATOM     26  O   UNL     1      38.234   3.527  42.513  1.00  0.00    -0.387 OA
ATOM     27  H   UNL     1      38.381   2.617  42.821  1.00  0.00     0.211 HD
ENDBRANCH   6  26
BRANCH   5  28
ATOM     28  O   UNL     1      36.488   2.568  45.269  1.00  0.00    -0.385 OA
ATOM     29  H   UNL     1      36.828   1.963  46.045  1.00  0.00     0.211 HD
ENDBRANCH   5  28
BRANCH   4  30
ATOM     30  O   UNL     1      38.551   1.585  43.834  1.00  0.00    -0.341 OA
BRANCH  30  31
ATOM     31  C   UNL     1      38.652   0.038  44.082  1.00  0.00     0.184 C 
ATOM     32  C   UNL     1      38.362  -1.004  42.844  1.00  0.00     0.178 C 
ATOM     33  C   UNL     1      38.933  -0.982  45.440  1.00  0.00     0.180 C 
ATOM     34  O   UNL     1      37.522  -2.143  43.170  1.00  0.00    -0.342 OA
ATOM     35  C   UNL     1      37.624  -1.812  45.734  1.00  0.00     0.201 C 
ATOM     36  C   UNL     1      36.800  -2.095  44.380  1.00  0.00     0.279 C 
BRANCH  32  37
ATOM     37  C   UNL     1      39.683  -1.474  42.137  1.00  0.00     0.191 C 
BRANCH  37  38
ATOM     38  O   UNL     1      39.609  -2.864  41.833  1.00  0.00    -0.394 OA
ATOM     39  H   UNL     1      39.828  -2.888  40.857  1.00  0.00     0.210 HD
ENDBRANCH  37  38
ENDBRANCH  32  37
BRANCH  33  40
ATOM     40  O   UNL     1      39.374  -0.731  46.825  1.00  0.00    -0.387 OA
ATOM     41  H   UNL     1      40.233  -0.390  47.126  1.00  0.00     0.211 HD
ENDBRANCH  33  40
BRANCH  35  42
ATOM     42  O   UNL     1      37.909  -2.985  46.524  1.00  0.00    -0.385 OA
ATOM     43  H   UNL     1      38.847  -3.219  46.311  1.00  0.00     0.211 HD
ENDBRANCH  35  42
BRANCH  36  44
ATOM     44  O   UNL     1      35.982  -3.266  44.500  1.00  0.00    -0.366 OA
ATOM     45  H   UNL     1      35.802  -3.406  45.492  1.00  0.00     0.213 HD
ENDBRANCH  36  44
ENDBRANCH  30  31
ENDBRANCH   4  30
TORSDOF 18
ENDMDL
MODEL 5
REMARK VINA RESULT:    -7.132      1.435      2.347
REMARK INTER + INTRA:         -13.603
REMARK INTER:                 -11.865
REMARK INTRA:                  -1.738
REMARK UNBOUND:                -1.258
REMARK SMILES OC[C@@H]1O[C@@H](O[C@@H]2[C@@H](O)[C@@H](O)[C@@H](O[C@H]3[C@@H](O)[C@H](O)[C@H](O)O[C@@H]3CO)O[C@H]2CO)[C@H](O)[C@@H](O)[C@H]1O
REMARK SMILES IDX 7 1 26 2 25 3 12 4 10 5 8 6 6 7 5 8 3 9 33 10 4 11 31 12
REMARK SMILES IDX 29 13 2 14 1 15 34 17 32 19 30 21 27 23 28 24 9 26 11 28
REMARK SMILES IDX 13 30 14 31 22 32 15 33 21 34 17 35 19 36 23 37 24 38 16 40
REMARK SMILES IDX 18 42 20 44
REMARK H PARENT 1 16 34 18 32 20 30 22 28 25 9 27 11 29 24 39 16 41 18 43
REMARK H PARENT 20 45
REMARK Flexibility Score: inf
ROOT
ATOM      1  C   UNL     1      36.564   4.780  44.020  1.00  0.00     0.184 C 
ATOM      2  C   UNL     1      35.385   3.899  43.462  1.00  0.00     0.178 C 
ATOM      3  O   UNL     1      35.344   2.708  44.391  1.00  0.00    -0.341 OA
ATOM      4  C   UNL     1      36.565   1.757  44.243  1.00  0.00     0.282 C 
ATOM      5  C   UNL     1      37.547   2.439  43.400  1.00  0.00     0.202 C 
ATOM      6  C   UNL     1      37.707   3.844  44.248  1.00  0.00     0.180 C 
ENDROOT
BRANCH   1   7
ATOM      7  O   UNL     1      37.250   6.053  43.581  1.00  0.00    -0.341 OA
BRANCH   7   8
ATOM      8  C   UNL     1      37.007   7.099  44.565  1.00  0.00     0.282 C 
ATOM      9  C   UNL     1      34.948   7.449  45.797  1.00  0.00     0.178 C 
ATOM     10  C   UNL     1      35.638   8.687  46.274  1.00  0.00     0.177 C 
ATOM     11  O   UNL     1      35.997   6.529  45.442  1.00  0.00    -0.341 OA
ATOM     12  C   UNL     1      36.089   9.499  44.996  1.00  0.00     0.179 C 
ATOM     13  C   UNL     1      36.547   8.471  43.891  1.00  0.00     0.202 C 
BRANCH   9  14
ATOM     14  C   UNL     1      34.205   6.745  46.896  1.00  0.00     0.191 C 
BRANCH  14  15
ATOM     15  O   UNL     1      34.952   6.799  48.121  1.00  0.00    -0.394 OA
ATOM     16  H   UNL     1      35.378   7.684  48.245  1.00  0.00     0.210 HD
ENDBRANCH  14  15
ENDBRANCH   9  14
BRANCH  10  17
ATOM     17  O   UNL     1      34.866   9.505  47.078  1.00  0.00    -0.387 OA
ATOM     18  H   UNL     1      34.654   9.059  47.955  1.00  0.00     0.211 HD
ENDBRANCH  10  17
BRANCH  12  19
ATOM     19  O   UNL     1      34.858  10.129  44.488  1.00  0.00    -0.387 OA
ATOM     20  H   UNL     1      34.884  11.038  44.811  1.00  0.00     0.211 HD
ENDBRANCH  12  19
BRANCH  13  21
ATOM     21  O   UNL     1      37.387   8.977  42.945  1.00  0.00    -0.385 OA
ATOM     22  H   UNL     1      36.803   9.464  42.300  1.00  0.00     0.211 HD
ENDBRANCH  13  21
ENDBRANCH   7   8
ENDBRANCH   1   7
BRANCH   2  23
ATOM     23  C   UNL     1      34.210   4.893  43.026  1.00  0.00     0.191 C 
BRANCH  23  24
ATOM     24  O   UNL     1      34.602   5.739  42.041  1.00  0.00    -0.394 OA
ATOM     25  H   UNL     1      34.321   6.675  42.228  1.00  0.00     0.210 HD
ENDBRANCH  23  24
ENDBRANCH   2  23
BRANCH   6  26
ATOM     26  O   UNL     1      37.552   3.604  45.626  1.00  0.00    -0.387 OA
ATOM     27  H   UNL     1      37.723   2.669  45.830  1.00  0.00     0.211 HD
ENDBRANCH   6  26
BRANCH   5  28
ATOM     28  O   UNL     1      38.594   1.611  43.075  1.00  0.00    -0.385 OA
ATOM     29  H   UNL     1      38.332   1.028  42.253  1.00  0.00     0.211 HD
ENDBRANCH   5  28
BRANCH   4  30
ATOM     30  O   UNL     1      37.424   1.242  45.479  1.00  0.00    -0.341 OA
BRANCH  30  31
ATOM     31  C   UNL     1      37.980  -0.196  45.779  1.00  0.00     0.184 C 
ATOM     32  C   UNL     1      39.603  -0.435  45.880  1.00  0.00     0.178 C 
ATOM     33  C   UNL     1      37.305  -1.767  45.974  1.00  0.00     0.180 C 
ATOM     34  O   UNL     1      40.106  -1.608  45.186  1.00  0.00    -0.342 OA
ATOM     35  C   UNL     1      37.786  -2.681  44.783  1.00  0.00     0.201 C 
ATOM     36  C   UNL     1      39.246  -2.239  44.264  1.00  0.00     0.279 C 
BRANCH  32  37
ATOM     37  C   UNL     1      40.121  -0.403  47.362  1.00  0.00     0.191 C 
BRANCH  37  38
ATOM     38  O   UNL     1      39.408   0.579  48.109  1.00  0.00    -0.394 OA
ATOM     39  H   UNL     1      39.226   0.107  48.973  1.00  0.00     0.210 HD
ENDBRANCH  37  38
ENDBRANCH  32  37
BRANCH  33  40
ATOM     40  O   UNL     1      35.926  -2.270  46.121  1.00  0.00    -0.387 OA
ATOM     41  H   UNL     1      35.638  -3.149  46.420  1.00  0.00     0.211 HD
ENDBRANCH  33  40
BRANCH  35  42
ATOM     42  O   UNL     1      37.659  -4.082  45.108  1.00  0.00    -0.385 OA
ATOM     43  H   UNL     1      37.257  -4.498  44.305  1.00  0.00     0.211 HD
ENDBRANCH  35  42
BRANCH  36  44
ATOM     44  O   UNL     1      39.930  -3.329  43.635  1.00  0.00    -0.366 OA
ATOM     45  H   UNL     1      39.846  -4.134  44.252  1.00  0.00     0.213 HD
ENDBRANCH  36  44
ENDBRANCH  30  31
ENDBRANCH   4  30
TORSDOF 18
ENDMDL
MODEL 6
REMARK VINA RESULT:    -7.011      1.203      2.105
REMARK INTER + INTRA:         -13.392
REMARK INTER:                 -12.453
REMARK INTRA:                  -0.940
REMARK UNBOUND:                -1.258
REMARK SMILES OC[C@@H]1O[C@@H](O[C@@H]2[C@@H](O)[C@@H](O)[C@@H](O[C@H]3[C@@H](O)[C@H](O)[C@H](O)O[C@@H]3CO)O[C@H]2CO)[C@H](O)[C@@H](O)[C@H]1O
REMARK SMILES IDX 7 1 26 2 25 3 12 4 10 5 8 6 6 7 5 8 3 9 33 10 4 11 31 12
REMARK SMILES IDX 29 13 2 14 1 15 34 17 32 19 30 21 27 23 28 24 9 26 11 28
REMARK SMILES IDX 13 30 14 31 22 32 15 33 21 34 17 35 19 36 23 37 24 38 16 40
REMARK SMILES IDX 18 42 20 44
REMARK H PARENT 1 16 34 18 32 20 30 22 28 25 9 27 11 29 24 39 16 41 18 43
REMARK H PARENT 20 45
REMARK Flexibility Score: inf
ROOT
ATOM      1  C   UNL     1      38.370   5.711  43.514  1.00  0.00     0.184 C 
ATOM      2  C   UNL     1      39.290   5.455  44.766  1.00  0.00     0.178 C 
ATOM      3  O   UNL     1      39.776   4.037  44.580  1.00  0.00    -0.341 OA
ATOM      4  C   UNL     1      38.665   2.965  44.765  1.00  0.00     0.282 C 
ATOM      5  C   UNL     1      37.386   3.671  44.821  1.00  0.00     0.202 C 
ATOM      6  C   UNL     1      37.478   4.516  43.407  1.00  0.00     0.180 C 
ENDROOT
BRANCH   1   7
ATOM      7  O   UNL     1      37.479   6.841  43.052  1.00  0.00    -0.341 OA
BRANCH   7   8
ATOM      8  C   UNL     1      37.158   7.699  44.186  1.00  0.00     0.282 C 
ATOM      9  C   UNL     1      35.181   7.540  45.581  1.00  0.00     0.178 C 
ATOM     10  C   UNL     1      35.705   8.806  46.180  1.00  0.00     0.177 C 
ATOM     11  O   UNL     1      36.328   6.861  45.036  1.00  0.00    -0.341 OA
ATOM     12  C   UNL     1      35.912   9.837  45.002  1.00  0.00     0.179 C 
ATOM     13  C   UNL     1      36.432   9.048  43.739  1.00  0.00     0.202 C 
BRANCH   9  14
ATOM     14  C   UNL     1      34.654   6.587  46.616  1.00  0.00     0.191 C 
BRANCH  14  15
ATOM     15  O   UNL     1      34.694   5.239  46.124  1.00  0.00    -0.394 OA
ATOM     16  H   UNL     1      34.673   4.584  46.866  1.00  0.00     0.210 HD
ENDBRANCH  14  15
ENDBRANCH   9  14
BRANCH  10  17
ATOM     17  O   UNL     1      34.885   9.375  47.137  1.00  0.00    -0.387 OA
ATOM     18  H   UNL     1      35.345   9.418  48.032  1.00  0.00     0.211 HD
ENDBRANCH  10  17
BRANCH  12  19
ATOM     19  O   UNL     1      34.560  10.310  44.664  1.00  0.00    -0.387 OA
ATOM     20  H   UNL     1      34.024  10.135  45.448  1.00  0.00     0.211 HD
ENDBRANCH  12  19
BRANCH  13  21
ATOM     21  O   UNL     1      37.099   9.803  42.821  1.00  0.00    -0.385 OA
ATOM     22  H   UNL     1      36.988  10.749  43.119  1.00  0.00     0.211 HD
ENDBRANCH  13  21
ENDBRANCH   7   8
ENDBRANCH   1   7
BRANCH   2  23
ATOM     23  C   UNL     1      40.125   6.795  45.026  1.00  0.00     0.191 C 
BRANCH  23  24
ATOM     24  O   UNL     1      40.093   7.166  46.330  1.00  0.00    -0.394 OA
ATOM     25  H   UNL     1      39.228   7.596  46.568  1.00  0.00     0.210 HD
ENDBRANCH  23  24
ENDBRANCH   2  23
BRANCH   6  26
ATOM     26  O   UNL     1      38.181   3.774  42.439  1.00  0.00    -0.387 OA
ATOM     27  H   UNL     1      37.599   3.113  42.029  1.00  0.00     0.211 HD
ENDBRANCH   6  26
BRANCH   5  28
ATOM     28  O   UNL     1      36.356   2.823  45.146  1.00  0.00    -0.385 OA
ATOM     29  H   UNL     1      35.775   3.255  45.894  1.00  0.00     0.211 HD
ENDBRANCH   5  28
BRANCH   4  30
ATOM     30  O   UNL     1      38.403   1.793  43.721  1.00  0.00    -0.341 OA
BRANCH  30  31
ATOM     31  C   UNL     1      38.267   0.249  43.967  1.00  0.00     0.184 C 
ATOM     32  C   UNL     1      37.175  -0.306  45.064  1.00  0.00     0.178 C 
ATOM     33  C   UNL     1      39.074  -1.168  43.415  1.00  0.00     0.180 C 
ATOM     34  O   UNL     1      37.660  -1.344  45.957  1.00  0.00    -0.342 OA
ATOM     35  C   UNL     1      39.827  -1.833  44.631  1.00  0.00     0.201 C 
ATOM     36  C   UNL     1      39.052  -1.557  46.016  1.00  0.00     0.279 C 
BRANCH  32  37
ATOM     37  C   UNL     1      35.822  -0.738  44.395  1.00  0.00     0.191 C 
BRANCH  37  38
ATOM     38  O   UNL     1      34.956   0.386  44.270  1.00  0.00    -0.394 OA
ATOM     39  H   UNL     1      34.074  -0.038  44.058  1.00  0.00     0.210 HD
ENDBRANCH  37  38
ENDBRANCH  32  37
BRANCH  33  40
ATOM     40  O   UNL     1      40.062  -1.425  42.351  1.00  0.00    -0.387 OA
ATOM     41  H   UNL     1      40.200  -0.925  41.529  1.00  0.00     0.211 HD
ENDBRANCH  33  40
BRANCH  35  42
ATOM     42  O   UNL     1      40.125  -3.221  44.372  1.00  0.00    -0.385 OA
ATOM     43  H   UNL     1      39.413  -3.729  44.834  1.00  0.00     0.211 HD
ENDBRANCH  35  42
BRANCH  36  44
ATOM     44  O   UNL     1      39.346  -2.565  46.990  1.00  0.00    -0.366 OA
ATOM     45  H   UNL     1      38.496  -2.721  47.527  1.00  0.00     0.213 HD
ENDBRANCH  36  44
ENDBRANCH  30  31
ENDBRANCH   4  30
TORSDOF 18
ENDMDL
MODEL 7
REMARK VINA RESULT:    -6.839      3.033      4.827
REMARK INTER + INTRA:         -13.095
REMARK INTER:                 -13.055
REMARK INTRA:                  -0.040
REMARK UNBOUND:                -1.258
REMARK SMILES OC[C@@H]1O[C@@H](O[C@@H]2[C@@H](O)[C@@H](O)[C@@H](O[C@H]3[C@@H](O)[C@H](O)[C@H](O)O[C@@H]3CO)O[C@H]2CO)[C@H](O)[C@@H](O)[C@H]1O
REMARK SMILES IDX 7 1 26 2 25 3 12 4 10 5 8 6 6 7 5 8 3 9 33 10 4 11 31 12
REMARK SMILES IDX 29 13 2 14 1 15 34 17 32 19 30 21 27 23 28 24 9 26 11 28
REMARK SMILES IDX 13 30 14 31 22 32 15 33 21 34 17 35 19 36 23 37 24 38 16 40
REMARK SMILES IDX 18 42 20 44
REMARK H PARENT 1 16 34 18 32 20 30 22 28 25 9 27 11 29 24 39 16 41 18 43
REMARK H PARENT 20 45
REMARK Flexibility Score: inf
ROOT
ATOM      1  C   UNL     1      36.091   4.014  44.385  1.00  0.00     0.184 C 
ATOM      2  C   UNL     1      37.586   4.505  44.334  1.00  0.00     0.178 C 
ATOM      3  O   UNL     1      38.286   3.466  43.488  1.00  0.00    -0.341 OA
ATOM      4  C   UNL     1      38.418   2.081  44.182  1.00  0.00     0.282 C 
ATOM      5  C   UNL     1      37.586   2.116  45.384  1.00  0.00     0.202 C 
ATOM      6  C   UNL     1      36.147   2.556  44.709  1.00  0.00     0.180 C 
ENDROOT
BRANCH   1   7
ATOM      7  O   UNL     1      34.838   4.471  45.094  1.00  0.00    -0.341 OA
BRANCH   7   8
ATOM      8  C   UNL     1      33.670   4.081  44.313  1.00  0.00     0.282 C 
ATOM      9  C   UNL     1      33.123   1.832  43.589  1.00  0.00     0.178 C 
ATOM     10  C   UNL     1      32.031   2.520  42.834  1.00  0.00     0.177 C 
ATOM     11  O   UNL     1      33.437   2.698  44.697  1.00  0.00    -0.341 OA
ATOM     12  C   UNL     1      32.704   3.631  41.935  1.00  0.00     0.179 C 
ATOM     13  C   UNL     1      33.901   4.265  42.745  1.00  0.00     0.202 C 
BRANCH   9  14
ATOM     14  C   UNL     1      32.659   0.562  44.243  1.00  0.00     0.191 C 
BRANCH  14  15
ATOM     15  O   UNL     1      31.452   0.793  44.987  1.00  0.00    -0.394 OA
ATOM     16  H   UNL     1      31.027  -0.060  45.258  1.00  0.00     0.210 HD
ENDBRANCH  14  15
ENDBRANCH   9  14
BRANCH  10  17
ATOM     17  O   UNL     1      31.274   1.689  42.029  1.00  0.00    -0.387 OA
ATOM     18  H   UNL     1      30.973   0.869  42.532  1.00  0.00     0.211 HD
ENDBRANCH  10  17
BRANCH  12  19
ATOM     19  O   UNL     1      33.309   2.900  40.810  1.00  0.00    -0.387 OA
ATOM     20  H   UNL     1      32.686   2.194  40.600  1.00  0.00     0.211 HD
ENDBRANCH  12  19
BRANCH  13  21
ATOM     21  O   UNL     1      34.274   5.512  42.342  1.00  0.00    -0.385 OA
ATOM     22  H   UNL     1      34.714   5.930  43.134  1.00  0.00     0.211 HD
ENDBRANCH  13  21
ENDBRANCH   7   8
ENDBRANCH   1   7
BRANCH   2  23
ATOM     23  C   UNL     1      37.561   6.097  44.180  1.00  0.00     0.191 C 
BRANCH  23  24
ATOM     24  O   UNL     1      36.710   6.678  45.061  1.00  0.00    -0.394 OA
ATOM     25  H   UNL     1      36.299   6.008  45.671  1.00  0.00     0.210 HD
ENDBRANCH  23  24
ENDBRANCH   2  23
BRANCH   6  26
ATOM     26  O   UNL     1      36.030   2.015  43.414  1.00  0.00    -0.387 OA
ATOM     27  H   UNL     1      35.125   1.697  43.259  1.00  0.00     0.211 HD
ENDBRANCH   6  26
BRANCH   5  28
ATOM     28  O   UNL     1      37.765   0.993  46.154  1.00  0.00    -0.385 OA
ATOM     29  H   UNL     1      37.859   1.269  47.153  1.00  0.00     0.211 HD
ENDBRANCH   5  28
BRANCH   4  30
ATOM     30  O   UNL     1      38.008   0.713  43.481  1.00  0.00    -0.341 OA
BRANCH  30  31
ATOM     31  C   UNL     1      38.353  -0.763  43.894  1.00  0.00     0.184 C 
ATOM     32  C   UNL     1      37.728  -2.015  43.031  1.00  0.00     0.178 C 
ATOM     33  C   UNL     1      39.224  -1.519  45.171  1.00  0.00     0.180 C 
ATOM     34  O   UNL     1      37.192  -3.111  43.819  1.00  0.00    -0.342 OA
ATOM     35  C   UNL     1      38.214  -2.334  46.066  1.00  0.00     0.201 C 
ATOM     36  C   UNL     1      36.975  -2.881  45.193  1.00  0.00     0.279 C 
BRANCH  32  37
ATOM     37  C   UNL     1      38.727  -2.550  41.945  1.00  0.00     0.191 C 
BRANCH  37  38
ATOM     38  O   UNL     1      38.014  -2.967  40.784  1.00  0.00    -0.394 OA
ATOM     39  H   UNL     1      37.132  -2.504  40.890  1.00  0.00     0.210 HD
ENDBRANCH  37  38
ENDBRANCH  32  37
BRANCH  33  40
ATOM     40  O   UNL     1      40.125  -1.015  46.224  1.00  0.00    -0.387 OA
ATOM     41  H   UNL     1      40.228  -0.099  46.535  1.00  0.00     0.211 HD
ENDBRANCH  33  40
BRANCH  35  42
ATOM     42  O   UNL     1      38.893  -3.341  46.846  1.00  0.00    -0.385 OA
ATOM     43  H   UNL     1      38.916  -2.981  47.768  1.00  0.00     0.211 HD
ENDBRANCH  35  42
BRANCH  36  44
ATOM     44  O   UNL     1      36.386  -4.043  45.789  1.00  0.00    -0.366 OA
ATOM     45  H   UNL     1      37.149  -4.639  46.103  1.00  0.00     0.213 HD
ENDBRANCH  36  44
ENDBRANCH  30  31
ENDBRANCH   4  30
TORSDOF 18
ENDMDL
MODEL 8
REMARK VINA RESULT:    -6.733      2.585      8.936
REMARK INTER + INTRA:         -12.911
REMARK INTER:                 -11.850
REMARK INTRA:                  -1.061
REMARK UNBOUND:                -1.258
REMARK SMILES OC[C@@H]1O[C@@H](O[C@@H]2[C@@H](O)[C@@H](O)[C@@H](O[C@H]3[C@@H](O)[C@H](O)[C@H](O)O[C@@H]3CO)O[C@H]2CO)[C@H](O)[C@@H](O)[C@H]1O
REMARK SMILES IDX 7 1 26 2 25 3 12 4 10 5 8 6 6 7 5 8 3 9 33 10 4 11 31 12
REMARK SMILES IDX 29 13 2 14 1 15 34 17 32 19 30 21 27 23 28 24 9 26 11 28
REMARK SMILES IDX 13 30 14 31 22 32 15 33 21 34 17 35 19 36 23 37 24 38 16 40
REMARK SMILES IDX 18 42 20 44
REMARK H PARENT 1 16 34 18 32 20 30 22 28 25 9 27 11 29 24 39 16 41 18 43
REMARK H PARENT 20 45
REMARK Flexibility Score: inf
ROOT
ATOM      1  C   UNL     1      35.420   1.595  44.008  1.00  0.00     0.184 C 
ATOM      2  C   UNL     1      34.454   2.835  44.095  1.00  0.00     0.178 C 
ATOM      3  O   UNL     1      35.080   3.854  43.173  1.00  0.00    -0.341 OA
ATOM      4  C   UNL     1      36.417   4.442  43.706  1.00  0.00     0.282 C 
ATOM      5  C   UNL     1      36.818   3.634  44.858  1.00  0.00     0.202 C 
ATOM      6  C   UNL     1      36.804   2.139  44.162  1.00  0.00     0.180 C 
ENDROOT
BRANCH   1   7
ATOM      7  O   UNL     1      35.505   0.253  44.697  1.00  0.00    -0.341 OA
BRANCH   7   8
ATOM      8  C   UNL     1      36.834  -0.311  44.497  1.00  0.00     0.282 C 
ATOM      9  C   UNL     1      37.356  -2.659  44.190  1.00  0.00     0.178 C 
ATOM     10  C   UNL     1      38.772  -2.184  44.269  1.00  0.00     0.177 C 
ATOM     11  O   UNL     1      36.588  -1.528  43.739  1.00  0.00    -0.341 OA
ATOM     12  C   UNL     1      38.927  -1.381  45.621  1.00  0.00     0.179 C 
ATOM     13  C   UNL     1      37.595  -0.576  45.875  1.00  0.00     0.202 C 
BRANCH   9  14
ATOM     14  C   UNL     1      37.154  -3.687  43.114  1.00  0.00     0.191 C 
BRANCH  14  15
ATOM     15  O   UNL     1      37.747  -3.248  41.882  1.00  0.00    -0.394 OA
ATOM     16  H   UNL     1      37.144  -2.635  41.391  1.00  0.00     0.210 HD
ENDBRANCH  14  15
ENDBRANCH   9  14
BRANCH  10  17
ATOM     17  O   UNL     1      39.722  -3.188  44.230  1.00  0.00    -0.387 OA
ATOM     18  H   UNL     1      39.373  -4.036  44.648  1.00  0.00     0.211 HD
ENDBRANCH  10  17
BRANCH  12  19
ATOM     19  O   UNL     1      38.994  -2.410  46.672  1.00  0.00    -0.387 OA
ATOM     20  H   UNL     1      39.841  -2.270  47.113  1.00  0.00     0.211 HD
ENDBRANCH  12  19
BRANCH  13  21
ATOM     21  O   UNL     1      37.720   0.502  46.699  1.00  0.00    -0.385 OA
ATOM     22  H   UNL     1      36.834   0.602  47.147  1.00  0.00     0.211 HD
ENDBRANCH  13  21
ENDBRANCH   7   8
ENDBRANCH   1   7
BRANCH   2  23
ATOM     23  C   UNL     1      32.956   2.272  44.128  1.00  0.00     0.191 C 
BRANCH  23  24
ATOM     24  O   UNL     1      32.868   1.035  43.579  1.00  0.00    -0.394 OA
ATOM     25  H   UNL     1      31.922   0.759  43.442  1.00  0.00     0.210 HD
ENDBRANCH  23  24
ENDBRANCH   2  23
BRANCH   6  26
ATOM     26  O   UNL     1      37.181   2.226  42.808  1.00  0.00    -0.387 OA
ATOM     27  H   UNL     1      37.126   1.354  42.383  1.00  0.00     0.211 HD
ENDBRANCH   6  26
BRANCH   5  28
ATOM     28  O   UNL     1      37.905   4.176  45.499  1.00  0.00    -0.385 OA
ATOM     29  H   UNL     1      38.370   4.863  44.870  1.00  0.00     0.211 HD
ENDBRANCH   5  28
BRANCH   4  30
ATOM     30  O   UNL     1      37.742   4.529  42.829  1.00  0.00    -0.341 OA
BRANCH  30  31
ATOM     31  C   UNL     1      38.657   5.768  42.523  1.00  0.00     0.184 C 
ATOM     32  C   UNL     1      38.732   7.008  43.600  1.00  0.00     0.178 C 
ATOM     33  C   UNL     1      39.643   6.283  41.210  1.00  0.00     0.180 C 
ATOM     34  O   UNL     1      38.658   8.340  43.024  1.00  0.00    -0.342 OA
ATOM     35  C   UNL     1      39.012   7.582  40.576  1.00  0.00     0.201 C 
ATOM     36  C   UNL     1      38.230   8.449  41.686  1.00  0.00     0.279 C 
BRANCH  32  37
ATOM     37  C   UNL     1      39.965   6.888  44.564  1.00  0.00     0.191 C 
BRANCH  37  38
ATOM     38  O   UNL     1      39.847   7.826  45.630  1.00  0.00    -0.394 OA
ATOM     39  H   UNL     1      39.935   7.248  46.443  1.00  0.00     0.210 HD
ENDBRANCH  37  38
ENDBRANCH  32  37
BRANCH  33  40
ATOM     40  O   UNL     1      40.124   5.625  39.981  1.00  0.00    -0.387 OA
ATOM     41  H   UNL     1      39.777   4.822  39.558  1.00  0.00     0.211 HD
ENDBRANCH  33  40
BRANCH  35  42
ATOM     42  O   UNL     1      39.984   8.321  39.807  1.00  0.00    -0.385 OA
ATOM     43  H   UNL     1      40.864   8.014  40.140  1.00  0.00     0.211 HD
ENDBRANCH  35  42
BRANCH  36  44
ATOM     44  O   UNL     1      38.156   9.830  41.314  1.00  0.00    -0.366 OA
ATOM     45  H   UNL     1      37.369  10.235  41.817  1.00  0.00     0.213 HD
ENDBRANCH  36  44
ENDBRANCH  30  31
ENDBRANCH   4  30
TORSDOF 18
ENDMDL
MODEL 9
REMARK VINA RESULT:    -6.493      1.725      8.902
REMARK INTER + INTRA:         -12.496
REMARK INTER:                 -10.891
REMARK INTRA:                  -1.605
REMARK UNBOUND:                -1.258
REMARK SMILES OC[C@@H]1O[C@@H](O[C@@H]2[C@@H](O)[C@@H](O)[C@@H](O[C@H]3[C@@H](O)[C@H](O)[C@H](O)O[C@@H]3CO)O[C@H]2CO)[C@H](O)[C@@H](O)[C@H]1O
REMARK SMILES IDX 7 1 26 2 25 3 12 4 10 5 8 6 6 7 5 8 3 9 33 10 4 11 31 12
REMARK SMILES IDX 29 13 2 14 1 15 34 17 32 19 30 21 27 23 28 24 9 26 11 28
REMARK SMILES IDX 13 30 14 31 22 32 15 33 21 34 17 35 19 36 23 37 24 38 16 40
REMARK SMILES IDX 18 42 20 44
REMARK H PARENT 1 16 34 18 32 20 30 22 28 25 9 27 11 29 24 39 16 41 18 43
REMARK H PARENT 20 45
REMARK Flexibility Score: inf
ROOT
ATOM      1  C   UNL     1      38.944   0.387  43.870  1.00  0.00     0.184 C 
ATOM      2  C   UNL     1      39.691   0.979  45.122  1.00  0.00     0.178 C 
ATOM      3  O   UNL     1      38.921   2.237  45.449  1.00  0.00    -0.341 OA
ATOM      4  C   UNL     1      39.095   3.368  44.397  1.00  0.00     0.282 C 
ATOM      5  C   UNL     1      39.773   2.785  43.241  1.00  0.00     0.202 C 
ATOM      6  C   UNL     1      38.750   1.531  42.927  1.00  0.00     0.180 C 
ENDROOT
BRANCH   1   7
ATOM      7  O   UNL     1      39.172  -0.783  42.941  1.00  0.00    -0.341 OA
BRANCH   7   8
ATOM      8  C   UNL     1      38.212  -1.836  43.243  1.00  0.00     0.282 C 
ATOM      9  C   UNL     1      36.361  -1.676  44.802  1.00  0.00     0.178 C 
ATOM     10  C   UNL     1      36.208  -3.135  44.513  1.00  0.00     0.177 C 
ATOM     11  O   UNL     1      37.016  -1.115  43.648  1.00  0.00    -0.341 OA
ATOM     12  C   UNL     1      37.597  -3.825  44.811  1.00  0.00     0.179 C 
ATOM     13  C   UNL     1      38.746  -2.840  44.363  1.00  0.00     0.202 C 
BRANCH   9  14
ATOM     14  C   UNL     1      35.043  -0.958  44.855  1.00  0.00     0.191 C 
BRANCH  14  15
ATOM     15  O   UNL     1      35.169   0.363  44.305  1.00  0.00    -0.394 OA
ATOM     16  H   UNL     1      36.095   0.702  44.390  1.00  0.00     0.210 HD
ENDBRANCH  14  15
ENDBRANCH   9  14
BRANCH  10  17
ATOM     17  O   UNL     1      35.224  -3.769  45.249  1.00  0.00    -0.387 OA
ATOM     18  H   UNL     1      34.396  -3.922  44.695  1.00  0.00     0.211 HD
ENDBRANCH  10  17
BRANCH  12  19
ATOM     19  O   UNL     1      37.677  -3.910  46.278  1.00  0.00    -0.387 OA
ATOM     20  H   UNL     1      38.319  -4.607  46.460  1.00  0.00     0.211 HD
ENDBRANCH  12  19
BRANCH  13  21
ATOM     21  O   UNL     1      39.945  -3.433  44.104  1.00  0.00    -0.385 OA
ATOM     22  H   UNL     1      40.030  -3.447  43.110  1.00  0.00     0.211 HD
ENDBRANCH  13  21
ENDBRANCH   7   8
ENDBRANCH   1   7
BRANCH   2  23
ATOM     23  C   UNL     1      40.087  -0.250  46.067  1.00  0.00     0.191 C 
BRANCH  23  24
ATOM     24  O   UNL     1      39.047  -0.650  46.841  1.00  0.00    -0.394 OA
ATOM     25  H   UNL     1      38.453   0.111  47.079  1.00  0.00     0.210 HD
ENDBRANCH  23  24
ENDBRANCH   2  23
BRANCH   6  26
ATOM     26  O   UNL     1      37.427   1.887  43.248  1.00  0.00    -0.387 OA
ATOM     27  H   UNL     1      36.881   1.093  43.373  1.00  0.00     0.211 HD
ENDBRANCH   6  26
BRANCH   5  28
ATOM     28  O   UNL     1      40.119   3.746  42.322  1.00  0.00    -0.385 OA
ATOM     29  H   UNL     1      40.872   3.379  41.704  1.00  0.00     0.211 HD
ENDBRANCH   5  28
BRANCH   4  30
ATOM     30  O   UNL     1      37.871   4.158  43.757  1.00  0.00    -0.341 OA
BRANCH  30  31
ATOM     31  C   UNL     1      37.624   5.706  43.659  1.00  0.00     0.184 C 
ATOM     32  C   UNL     1      38.893   6.742  43.796  1.00  0.00     0.178 C 
ATOM     33  C   UNL     1      36.250   6.733  43.511  1.00  0.00     0.180 C 
ATOM     34  O   UNL     1      38.668   7.896  44.649  1.00  0.00    -0.342 OA
ATOM     35  C   UNL     1      36.106   7.585  44.830  1.00  0.00     0.201 C 
ATOM     36  C   UNL     1      37.543   7.869  45.499  1.00  0.00     0.279 C 
BRANCH  32  37
ATOM     37  C   UNL     1      39.457   7.186  42.399  1.00  0.00     0.191 C 
BRANCH  37  38
ATOM     38  O   UNL     1      39.039   8.515  42.102  1.00  0.00    -0.394 OA
ATOM     39  H   UNL     1      39.820   8.883  41.595  1.00  0.00     0.210 HD
ENDBRANCH  37  38
ENDBRANCH  32  37
BRANCH  33  40
ATOM     40  O   UNL     1      34.825   6.487  43.226  1.00  0.00    -0.387 OA
ATOM     41  H   UNL     1      34.231   7.005  42.656  1.00  0.00     0.211 HD
ENDBRANCH  33  40
BRANCH  35  42
ATOM     42  O   UNL     1      35.297   8.760  44.613  1.00  0.00    -0.385 OA
ATOM     43  H   UNL     1      34.379   8.420  44.471  1.00  0.00     0.211 HD
ENDBRANCH  35  42
BRANCH  36  44
ATOM     44  O   UNL     1      37.520   9.053  46.306  1.00  0.00    -0.366 OA
ATOM     45  H   UNL     1      38.447   9.157  46.713  1.00  0.00     0.213 HD
ENDBRANCH  36  44
ENDBRANCH  30  31
ENDBRANCH   4  30
TORSDOF 18
ENDMDL
