MODEL 1
REMARK VINA RESULT:    -3.779      0.000      0.000
REMARK INTER + INTRA:          -4.820
REMARK INTER:                  -5.325
REMARK INTRA:                   0.506
REMARK UNBOUND:                 0.506
REMARK SMILES CC1=CCC(=C(C)C)C(=O)CC(C)=CCC1
REMARK SMILES IDX 12 1 14 2 13 3 15 4 16 5 2 6 1 7 3 8 11 10 9 11 10 12 5 13
REMARK SMILES IDX 6 14 7 15 8 16 4 17
REMARK H PARENT
REMARK Flexibility Score: 60.00
ROOT
ATOM      1  C   UNL     1     -13.108   2.593 -14.043  1.00  0.00    -0.070 C 
ATOM      2  C   UNL     1     -12.982   2.468 -12.702  1.00  0.00    -0.027 C 
ATOM      3  C   UNL     1     -14.500   2.610 -14.621  1.00  0.00     0.039 C 
ENDROOT
BRANCH   2   4
ATOM      4  C   UNL     1     -11.678   2.333 -11.946  1.00  0.00     0.032 C 
BRANCH   4   5
ATOM      5  C   UNL     1     -10.583   3.339 -12.360  1.00  0.00     0.034 C 
BRANCH   5   6
ATOM      6  C   UNL     1     -10.990   4.787 -12.147  1.00  0.00    -0.077 C 
ATOM      7  C   UNL     1     -11.418   5.198 -10.761  1.00  0.00     0.039 C 
ATOM      8  C   UNL     1     -11.060   5.712 -13.134  1.00  0.00    -0.023 CG0
ATOM      9  G   UNL     1     -10.666   5.533 -14.587  1.00  0.00     0.000 G0
ENDBRANCH   5   6
ENDBRANCH   4   5
ENDBRANCH   2   4
BRANCH   1  10
ATOM     10  C   UNL     1     -11.926   2.621 -14.990  1.00  0.00     0.111 C 
BRANCH  10  11
ATOM     11  C   UNL     1     -12.003   3.785 -15.941  1.00  0.00     0.163 C 
ATOM     12  O   UNL     1     -12.146   3.540 -17.169  1.00  0.00    -0.294 OA
BRANCH  11  13
ATOM     13  C   UNL     1     -11.858   5.201 -15.489  1.00  0.00    -0.002 C 
ATOM     14  C   UNL     1     -12.714   6.169 -15.936  1.00  0.00    -0.069 C 
ATOM     15  C   UNL     1     -13.926   5.819 -16.772  1.00  0.00     0.039 C 
ATOM     16  C   UNL     1     -12.499   7.634 -15.623  1.00  0.00     0.039 C 
BRANCH  13  17
ATOM     17  C   UNL     1     -10.672   5.528 -14.597  1.00  0.00     0.066 CG0
ATOM     18  G   UNL     1     -11.072   5.697 -13.145  1.00  0.00     0.000 G0
ENDBRANCH  13  17
ENDBRANCH  11  13
ENDBRANCH  10  11
ENDBRANCH   1  10
TORSDOF 0
ENDMDL
MODEL 2
REMARK VINA RESULT:    -3.729      1.960      4.467
REMARK INTER + INTRA:          -4.750
REMARK INTER:                  -5.554
REMARK INTRA:                   0.804
REMARK UNBOUND:                 0.506
REMARK SMILES CC1=CCC(=C(C)C)C(=O)CC(C)=CCC1
REMARK SMILES IDX 12 1 14 2 13 3 15 4 16 5 2 6 1 7 3 8 11 10 9 11 10 12 5 13
REMARK SMILES IDX 6 14 7 15 8 16 4 17
REMARK H PARENT
REMARK Flexibility Score: 60.00
ROOT
ATOM      1  C   UNL     1     -12.454   5.342 -16.125  1.00  0.00    -0.070 C 
ATOM      2  C   UNL     1     -13.203   4.284 -16.509  1.00  0.00    -0.027 C 
ATOM      3  C   UNL     1     -13.052   6.718 -16.274  1.00  0.00     0.039 C 
ENDROOT
BRANCH   2   4
ATOM      4  C   UNL     1     -12.748   2.841 -16.529  1.00  0.00     0.032 C 
BRANCH   4   5
ATOM      5  C   UNL     1     -13.633   1.872 -15.716  1.00  0.00     0.034 C 
BRANCH   5   6
ATOM      6  C   UNL     1     -13.742   2.251 -14.249  1.00  0.00    -0.077 C 
ATOM      7  C   UNL     1     -15.122   2.325 -13.646  1.00  0.00     0.039 C 
ATOM      8  C   UNL     1     -12.688   2.593 -13.469  1.00  0.00    -0.023 CG0
ATOM      9  G   UNL     1     -11.222   2.573 -13.851  1.00  0.00     0.000 G0
ENDBRANCH   5   6
ENDBRANCH   4   5
ENDBRANCH   2   4
BRANCH   1  10
ATOM     10  C   UNL     1     -11.023   5.218 -15.645  1.00  0.00     0.111 C 
BRANCH  10  11
ATOM     11  C   UNL     1     -10.945   5.133 -14.144  1.00  0.00     0.163 C 
ATOM     12  O   UNL     1     -11.192   6.174 -13.477  1.00  0.00    -0.294 OA
BRANCH  11  13
ATOM     13  C   UNL     1     -10.532   3.887 -13.431  1.00  0.00    -0.002 C 
ATOM     14  C   UNL     1      -9.518   3.910 -12.515  1.00  0.00    -0.069 C 
ATOM     15  C   UNL     1      -8.886   5.212 -12.076  1.00  0.00     0.039 C 
ATOM     16  C   UNL     1      -8.973   2.642 -11.895  1.00  0.00     0.039 C 
BRANCH  13  17
ATOM     17  C   UNL     1     -11.220   2.594 -13.837  1.00  0.00     0.066 CG0
ATOM     18  G   UNL     1     -12.686   2.574 -13.451  1.00  0.00     0.000 G0
ENDBRANCH  13  17
ENDBRANCH  11  13
ENDBRANCH  10  11
ENDBRANCH   1  10
TORSDOF 0
ENDMDL
MODEL 3
REMARK VINA RESULT:    -3.637      1.386      3.769
REMARK INTER + INTRA:          -4.619
REMARK INTER:                  -5.148
REMARK INTRA:                   0.529
REMARK UNBOUND:                 0.506
REMARK SMILES CC1=CCC(=C(C)C)C(=O)CC(C)=CCC1
REMARK SMILES IDX 12 1 14 2 13 3 15 4 16 5 2 6 1 7 3 8 11 10 9 11 10 12 5 13
REMARK SMILES IDX 6 14 7 15 8 16 4 17
REMARK H PARENT
REMARK Flexibility Score: 60.00
ROOT
ATOM      1  C   UNL     1     -13.097   2.764 -15.662  1.00  0.00    -0.070 C 
ATOM      2  C   UNL     1     -13.072   3.680 -16.656  1.00  0.00    -0.027 C 
ATOM      3  C   UNL     1     -13.422   1.337 -16.026  1.00  0.00     0.039 C 
ENDROOT
BRANCH   2   4
ATOM      4  C   UNL     1     -12.863   5.168 -16.481  1.00  0.00     0.032 C 
BRANCH   4   5
ATOM      5  C   UNL     1     -11.450   5.573 -16.009  1.00  0.00     0.034 C 
BRANCH   5   6
ATOM      6  C   UNL     1     -11.465   6.564 -14.858  1.00  0.00    -0.077 C 
ATOM      7  C   UNL     1     -12.213   7.858 -15.058  1.00  0.00     0.039 C 
ATOM      8  C   UNL     1     -10.795   6.391 -13.694  1.00  0.00    -0.023 CG0
ATOM      9  G   UNL     1      -9.999   5.173 -13.268  1.00  0.00     0.000 G0
ENDBRANCH   5   6
ENDBRANCH   4   5
ENDBRANCH   2   4
BRANCH   1  10
ATOM     10  C   UNL     1     -12.906   3.117 -14.201  1.00  0.00     0.111 C 
BRANCH  10  11
ATOM     11  C   UNL     1     -11.451   3.122 -13.815  1.00  0.00     0.163 C 
ATOM     12  O   UNL     1     -10.688   2.283 -14.365  1.00  0.00    -0.294 OA
BRANCH  11  13
ATOM     13  C   UNL     1     -10.902   4.038 -12.771  1.00  0.00    -0.002 C 
ATOM     14  C   UNL     1     -11.274   3.909 -11.462  1.00  0.00    -0.069 C 
ATOM     15  C   UNL     1     -12.124   2.746 -10.999  1.00  0.00     0.039 C 
ATOM     16  C   UNL     1     -10.859   4.915 -10.410  1.00  0.00     0.039 C 
BRANCH  13  17
ATOM     17  C   UNL     1      -9.996   5.164 -13.242  1.00  0.00     0.066 CG0
ATOM     18  G   UNL     1     -10.778   6.387 -13.681  1.00  0.00     0.000 G0
ENDBRANCH  13  17
ENDBRANCH  11  13
ENDBRANCH  10  11
ENDBRANCH   1  10
TORSDOF 0
ENDMDL
MODEL 4
REMARK VINA RESULT:    -3.617      1.706      3.947
REMARK INTER + INTRA:          -4.592
REMARK INTER:                  -5.408
REMARK INTRA:                   0.816
REMARK UNBOUND:                 0.506
REMARK SMILES CC1=CCC(=C(C)C)C(=O)CC(C)=CCC1
REMARK SMILES IDX 12 1 14 2 13 3 15 4 16 5 2 6 1 7 3 8 11 10 9 11 10 12 5 13
REMARK SMILES IDX 6 14 7 15 8 16 4 17
REMARK H PARENT
REMARK Flexibility Score: 60.00
ROOT
ATOM      1  C   UNL     1     -13.102   2.545 -15.013  1.00  0.00    -0.070 C 
ATOM      2  C   UNL     1     -13.317   3.034 -16.256  1.00  0.00    -0.027 C 
ATOM      3  C   UNL     1     -14.306   2.176 -14.184  1.00  0.00     0.039 C 
ENDROOT
BRANCH   2   4
ATOM      4  C   UNL     1     -12.250   3.549 -17.198  1.00  0.00     0.032 C 
BRANCH   4   5
ATOM      5  C   UNL     1     -12.346   5.054 -17.523  1.00  0.00     0.034 C 
BRANCH   5   6
ATOM      6  C   UNL     1     -12.689   5.906 -16.314  1.00  0.00    -0.077 C 
ATOM      7  C   UNL     1     -13.960   6.715 -16.364  1.00  0.00     0.039 C 
ATOM      8  C   UNL     1     -11.894   6.040 -15.224  1.00  0.00    -0.023 CG0
ATOM      9  G   UNL     1     -10.591   5.316 -14.948  1.00  0.00     0.000 G0
ENDBRANCH   5   6
ENDBRANCH   4   5
ENDBRANCH   2   4
BRANCH   1  10
ATOM     10  C   UNL     1     -11.727   2.438 -14.387  1.00  0.00     0.111 C 
BRANCH  10  11
ATOM     11  C   UNL     1     -11.500   3.513 -13.357  1.00  0.00     0.163 C 
ATOM     12  O   UNL     1     -12.178   3.470 -12.296  1.00  0.00    -0.294 OA
BRANCH  11  13
ATOM     13  C   UNL     1     -10.553   4.647 -13.577  1.00  0.00    -0.002 C 
ATOM     14  C   UNL     1      -9.766   5.107 -12.558  1.00  0.00    -0.069 C 
ATOM     15  C   UNL     1      -9.709   4.391 -11.226  1.00  0.00     0.039 C 
ATOM     16  C   UNL     1      -8.916   6.350 -12.704  1.00  0.00     0.039 C 
BRANCH  13  17
ATOM     17  C   UNL     1     -10.575   5.316 -14.940  1.00  0.00     0.066 CG0
ATOM     18  G   UNL     1     -11.892   6.014 -15.219  1.00  0.00     0.000 G0
ENDBRANCH  13  17
ENDBRANCH  11  13
ENDBRANCH  10  11
ENDBRANCH   1  10
TORSDOF 0
ENDMDL
MODEL 5
REMARK VINA RESULT:    -3.590      1.670      3.860
REMARK INTER + INTRA:          -4.553
REMARK INTER:                  -5.125
REMARK INTRA:                   0.572
REMARK UNBOUND:                 0.506
REMARK SMILES CC1=CCC(=C(C)C)C(=O)CC(C)=CCC1
REMARK SMILES IDX 12 1 14 2 13 3 15 4 16 5 2 6 1 7 3 8 11 10 9 11 10 12 5 13
REMARK SMILES IDX 6 14 7 15 8 16 4 17
REMARK H PARENT
REMARK Flexibility Score: 60.00
ROOT
ATOM      1  C   UNL     1     -12.222   2.735 -12.833  1.00  0.00    -0.070 C 
ATOM      2  C   UNL     1     -13.234   2.732 -13.729  1.00  0.00    -0.027 C 
ATOM      3  C   UNL     1     -12.532   3.164 -11.421  1.00  0.00     0.039 C 
ENDROOT
BRANCH   2   4
ATOM      4  C   UNL     1     -13.105   2.429 -15.206  1.00  0.00     0.032 C 
BRANCH   4   5
ATOM      5  C   UNL     1     -13.460   3.605 -16.141  1.00  0.00     0.034 C 
BRANCH   5   6
ATOM      6  C   UNL     1     -12.243   4.239 -16.792  1.00  0.00    -0.077 C 
ATOM      7  C   UNL     1     -11.927   3.850 -18.214  1.00  0.00     0.039 C 
ATOM      8  C   UNL     1     -11.387   5.075 -16.156  1.00  0.00    -0.023 CG0
ATOM      9  G   UNL     1     -11.512   5.614 -14.745  1.00  0.00     0.000 G0
ENDBRANCH   5   6
ENDBRANCH   4   5
ENDBRANCH   2   4
BRANCH   1  10
ATOM     10  C   UNL     1     -10.786   2.419 -13.199  1.00  0.00     0.111 C 
BRANCH  10  11
ATOM     11  C   UNL     1     -10.166   3.519 -14.019  1.00  0.00     0.163 C 
ATOM     12  O   UNL     1      -9.311   3.201 -14.889  1.00  0.00    -0.294 OA
BRANCH  11  13
ATOM     13  C   UNL     1     -10.484   4.961 -13.798  1.00  0.00    -0.002 C 
ATOM     14  C   UNL     1      -9.956   5.638 -12.733  1.00  0.00    -0.069 C 
ATOM     15  C   UNL     1      -8.916   5.002 -11.838  1.00  0.00     0.039 C 
ATOM     16  C   UNL     1     -10.382   7.050 -12.393  1.00  0.00     0.039 C 
BRANCH  13  17
ATOM     17  C   UNL     1     -11.483   5.606 -14.744  1.00  0.00     0.066 CG0
ATOM     18  G   UNL     1     -11.358   5.081 -16.160  1.00  0.00     0.000 G0
ENDBRANCH  13  17
ENDBRANCH  11  13
ENDBRANCH  10  11
ENDBRANCH   1  10
TORSDOF 0
ENDMDL
MODEL 6
REMARK VINA RESULT:    -3.492      3.369      5.542
REMARK INTER + INTRA:          -4.415
REMARK INTER:                  -4.736
REMARK INTRA:                   0.321
REMARK UNBOUND:                 0.506
REMARK SMILES CC1=CCC(=C(C)C)C(=O)CC(C)=CCC1
REMARK SMILES IDX 12 1 14 2 13 3 15 4 16 5 2 6 1 7 3 8 11 10 9 11 10 12 5 13
REMARK SMILES IDX 6 14 7 15 8 16 4 17
REMARK H PARENT
REMARK Flexibility Score: 60.00
ROOT
ATOM      1  C   UNL     1     -10.928   3.250 -13.201  1.00  0.00    -0.070 C 
ATOM      2  C   UNL     1      -9.798   2.642 -12.775  1.00  0.00    -0.027 C 
ATOM      3  C   UNL     1     -10.803   4.624 -13.809  1.00  0.00     0.039 C 
ENDROOT
BRANCH   2   4
ATOM      4  C   UNL     1      -9.728   1.314 -12.053  1.00  0.00     0.032 C 
BRANCH   4   5
ATOM      5  C   UNL     1     -10.121   1.367 -10.561  1.00  0.00     0.034 C 
BRANCH   5   6
ATOM      6  C   UNL     1     -10.962   0.181 -10.123  1.00  0.00    -0.077 C 
ATOM      7  C   UNL     1     -10.332  -1.187 -10.187  1.00  0.00     0.039 C 
ATOM      8  C   UNL     1     -12.261   0.264  -9.745  1.00  0.00    -0.023 CG0
ATOM      9  G   UNL     1     -13.089   1.524  -9.588  1.00  0.00     0.000 G0
ENDBRANCH   5   6
ENDBRANCH   4   5
ENDBRANCH   2   4
BRANCH   1  10
ATOM     10  C   UNL     1     -12.311   2.662 -13.012  1.00  0.00     0.111 C 
BRANCH  10  11
ATOM     11  C   UNL     1     -12.884   3.008 -11.664  1.00  0.00     0.163 C 
ATOM     12  O   UNL     1     -12.615   4.139 -11.178  1.00  0.00    -0.294 OA
BRANCH  11  13
ATOM     13  C   UNL     1     -13.701   2.044 -10.868  1.00  0.00    -0.002 C 
ATOM     14  C   UNL     1     -14.965   1.706 -11.262  1.00  0.00    -0.069 C 
ATOM     15  C   UNL     1     -15.522   2.168 -12.591  1.00  0.00     0.039 C 
ATOM     16  C   UNL     1     -15.873   0.858 -10.398  1.00  0.00     0.039 C 
BRANCH  13  17
ATOM     17  C   UNL     1     -13.103   1.537  -9.565  1.00  0.00     0.066 CG0
ATOM     18  G   UNL     1     -12.273   0.284  -9.761  1.00  0.00     0.000 G0
ENDBRANCH  13  17
ENDBRANCH  11  13
ENDBRANCH  10  11
ENDBRANCH   1  10
TORSDOF 0
ENDMDL
MODEL 7
REMARK VINA RESULT:    -3.425      1.847      3.235
REMARK INTER + INTRA:          -4.321
REMARK INTER:                  -4.596
REMARK INTRA:                   0.275
REMARK UNBOUND:                 0.506
REMARK SMILES CC1=CCC(=C(C)C)C(=O)CC(C)=CCC1
REMARK SMILES IDX 12 1 14 2 13 3 15 4 16 5 2 6 1 7 3 8 11 10 9 11 10 12 5 13
REMARK SMILES IDX 6 14 7 15 8 16 4 17
REMARK H PARENT
REMARK Flexibility Score: 60.00
ROOT
ATOM      1  C   UNL     1      -9.782   2.121 -11.391  1.00  0.00    -0.070 C 
ATOM      2  C   UNL     1      -9.040   3.047 -10.742  1.00  0.00    -0.027 C 
ATOM      3  C   UNL     1      -9.360   0.678 -11.282  1.00  0.00     0.039 C 
ENDROOT
BRANCH   2   4
ATOM      4  C   UNL     1      -9.243   4.545 -10.807  1.00  0.00     0.032 C 
BRANCH   4   5
ATOM      5  C   UNL     1      -8.880   5.189 -12.162  1.00  0.00     0.034 C 
BRANCH   5   6
ATOM      6  C   UNL     1      -9.959   6.118 -12.691  1.00  0.00    -0.077 C 
ATOM      7  C   UNL     1     -10.381   7.272 -11.816  1.00  0.00     0.039 C 
ATOM      8  C   UNL     1     -10.613   5.938 -13.864  1.00  0.00    -0.023 CG0
ATOM      9  G   UNL     1     -10.349   4.869 -14.905  1.00  0.00     0.000 G0
ENDBRANCH   5   6
ENDBRANCH   4   5
ENDBRANCH   2   4
BRANCH   1  10
ATOM     10  C   UNL     1     -10.952   2.472 -12.287  1.00  0.00     0.111 C 
BRANCH  10  11
ATOM     11  C   UNL     1     -10.532   2.592 -13.728  1.00  0.00     0.163 C 
ATOM     12  O   UNL     1      -9.595   1.854 -14.136  1.00  0.00    -0.294 OA
BRANCH  11  13
ATOM     13  C   UNL     1     -11.140   3.587 -14.661  1.00  0.00    -0.002 C 
ATOM     14  C   UNL     1     -12.309   3.308 -15.314  1.00  0.00    -0.069 C 
ATOM     15  C   UNL     1     -13.105   2.061 -15.000  1.00  0.00     0.039 C 
ATOM     16  C   UNL     1     -12.866   4.225 -16.381  1.00  0.00     0.039 C 
BRANCH  13  17
ATOM     17  C   UNL     1     -10.360   4.865 -14.919  1.00  0.00     0.066 CG0
ATOM     18  G   UNL     1     -10.645   5.934 -13.882  1.00  0.00     0.000 G0
ENDBRANCH  13  17
ENDBRANCH  11  13
ENDBRANCH  10  11
ENDBRANCH   1  10
TORSDOF 0
ENDMDL
MODEL 8
REMARK VINA RESULT:    -3.422      1.991      4.700
REMARK INTER + INTRA:          -4.316
REMARK INTER:                  -4.774
REMARK INTRA:                   0.458
REMARK UNBOUND:                 0.506
REMARK SMILES CC1=CCC(=C(C)C)C(=O)CC(C)=CCC1
REMARK SMILES IDX 12 1 14 2 13 3 15 4 16 5 2 6 1 7 3 8 11 10 9 11 10 12 5 13
REMARK SMILES IDX 6 14 7 15 8 16 4 17
REMARK H PARENT
REMARK Flexibility Score: 60.00
ROOT
ATOM      1  C   UNL     1     -11.038   5.486 -13.983  1.00  0.00    -0.070 C 
ATOM      2  C   UNL     1     -11.562   6.629 -14.480  1.00  0.00    -0.027 C 
ATOM      3  C   UNL     1     -10.837   5.393 -12.492  1.00  0.00     0.039 C 
ENDROOT
BRANCH   2   4
ATOM      4  C   UNL     1     -11.748   6.951 -15.947  1.00  0.00     0.032 C 
BRANCH   4   5
ATOM      5  C   UNL     1     -12.277   5.781 -16.804  1.00  0.00     0.034 C 
BRANCH   5   6
ATOM      6  C   UNL     1     -13.729   5.439 -16.517  1.00  0.00    -0.077 C 
ATOM      7  C   UNL     1     -14.742   6.553 -16.605  1.00  0.00     0.039 C 
ATOM      8  C   UNL     1     -14.161   4.217 -16.120  1.00  0.00    -0.023 CG0
ATOM      9  G   UNL     1     -13.334   2.954 -15.981  1.00  0.00     0.000 G0
ENDBRANCH   5   6
ENDBRANCH   4   5
ENDBRANCH   2   4
BRANCH   1  10
ATOM     10  C   UNL     1     -10.562   4.341 -14.854  1.00  0.00     0.111 C 
BRANCH  10  11
ATOM     11  C   UNL     1     -11.230   3.044 -14.483  1.00  0.00     0.163 C 
ATOM     12  O   UNL     1     -10.499   2.085 -14.116  1.00  0.00    -0.294 OA
BRANCH  11  13
ATOM     13  C   UNL     1     -12.705   2.842 -14.590  1.00  0.00    -0.002 C 
ATOM     14  C   UNL     1     -13.443   2.484 -13.496  1.00  0.00    -0.069 C 
ATOM     15  C   UNL     1     -12.826   2.434 -12.116  1.00  0.00     0.039 C 
ATOM     16  C   UNL     1     -14.907   2.118 -13.604  1.00  0.00     0.039 C 
BRANCH  13  17
ATOM     17  C   UNL     1     -13.324   2.958 -15.973  1.00  0.00     0.066 CG0
ATOM     18  G   UNL     1     -14.169   4.207 -16.124  1.00  0.00     0.000 G0
ENDBRANCH  13  17
ENDBRANCH  11  13
ENDBRANCH  10  11
ENDBRANCH   1  10
TORSDOF 0
ENDMDL
MODEL 9
REMARK VINA RESULT:    -3.237      2.715      4.977
REMARK INTER + INTRA:          -4.056
REMARK INTER:                  -4.541
REMARK INTRA:                   0.485
REMARK UNBOUND:                 0.506
REMARK SMILES CC1=CCC(=C(C)C)C(=O)CC(C)=CCC1
REMARK SMILES IDX 12 1 14 2 13 3 15 4 16 5 2 6 1 7 3 8 11 10 9 11 10 12 5 13
REMARK SMILES IDX 6 14 7 15 8 16 4 17
REMARK H PARENT
REMARK Flexibility Score: 60.00
ROOT
ATOM      1  C   UNL     1     -10.949   2.573 -12.341  1.00  0.00    -0.070 C 
ATOM      2  C   UNL     1     -10.265   2.713 -13.499  1.00  0.00    -0.027 C 
ATOM      3  C   UNL     1     -10.431   1.579 -11.333  1.00  0.00     0.039 C 
ENDROOT
BRANCH   2   4
ATOM      4  C   UNL     1     -10.676   3.581 -14.668  1.00  0.00     0.032 C 
BRANCH   4   5
ATOM      5  C   UNL     1     -11.677   2.924 -15.642  1.00  0.00     0.034 C 
BRANCH   5   6
ATOM      6  C   UNL     1     -12.997   3.669 -15.735  1.00  0.00    -0.077 C 
ATOM      7  C   UNL     1     -13.026   4.945 -16.537  1.00  0.00     0.039 C 
ATOM      8  C   UNL     1     -14.129   3.299 -15.089  1.00  0.00    -0.023 CG0
ATOM      9  G   UNL     1     -14.339   2.055 -14.248  1.00  0.00     0.000 G0
ENDBRANCH   5   6
ENDBRANCH   4   5
ENDBRANCH   2   4
BRANCH   1  10
ATOM     10  C   UNL     1     -12.249   3.293 -12.050  1.00  0.00     0.111 C 
BRANCH  10  11
ATOM     11  C   UNL     1     -13.394   2.330 -11.886  1.00  0.00     0.163 C 
ATOM     12  O   UNL     1     -13.307   1.452 -10.985  1.00  0.00    -0.294 OA
BRANCH  11  13
ATOM     13  C   UNL     1     -14.588   2.342 -12.784  1.00  0.00    -0.002 C 
ATOM     14  C   UNL     1     -15.842   2.535 -12.275  1.00  0.00    -0.069 C 
ATOM     15  C   UNL     1     -16.052   2.898 -10.822  1.00  0.00     0.039 C 
ATOM     16  C   UNL     1     -17.082   2.396 -13.132  1.00  0.00     0.039 C 
BRANCH  13  17
ATOM     17  C   UNL     1     -14.355   2.039 -14.254  1.00  0.00     0.066 CG0
ATOM     18  G   UNL     1     -14.136   3.295 -15.075  1.00  0.00     0.000 G0
ENDBRANCH  13  17
ENDBRANCH  11  13
ENDBRANCH  10  11
ENDBRANCH   1  10
TORSDOF 0
ENDMDL
