MODEL 1
REMARK VINA RESULT:    -2.040      0.000      0.000
REMARK INTER + INTRA:          -2.040
REMARK INTER:                  -2.040
REMARK INTRA:                   0.000
REMARK UNBOUND:                 0.000
REMARK SMILES O=C1CCCCC1
REMARK SMILES IDX 5 1 4 2 3 3 2 4 1 5 7 6 6 7
REMARK H PARENT
REMARK Flexibility Score: inf
ROOT
ATOM      1  C   UNL     1     125.671 113.965 105.837  1.00  0.00     0.001 C 
ATOM      2  C   UNL     1     126.125 114.077 107.300  1.00  0.00     0.008 C 
ATOM      3  C   UNL     1     125.264 115.080 108.078  1.00  0.00     0.075 C 
ATOM      4  C   UNL     1     123.803 114.781 107.880  1.00  0.00     0.132 C 
ATOM      5  O   UNL     1     123.033 114.817 108.826  1.00  0.00    -0.300 OA
ATOM      6  C   UNL     1     123.287 114.533 106.489  1.00  0.00     0.075 C 
ATOM      7  C   UNL     1     124.197 113.542 105.750  1.00  0.00     0.008 C 
ENDROOT
TORSDOF 0
ENDMDL
MODEL 2
REMARK VINA RESULT:    -2.036     12.541     13.605
REMARK INTER + INTRA:          -2.036
REMARK INTER:                  -2.036
REMARK INTRA:                   0.000
REMARK UNBOUND:                 0.000
REMARK SMILES O=C1CCCCC1
REMARK SMILES IDX 5 1 4 2 3 3 2 4 1 5 7 6 6 7
REMARK H PARENT
REMARK Flexibility Score: inf
ROOT
ATOM      1  C   UNL     1     113.579 123.671 107.897  1.00  0.00     0.001 C 
ATOM      2  C   UNL     1     114.651 122.596 107.664  1.00  0.00     0.008 C 
ATOM      3  C   UNL     1     114.930 121.797 108.944  1.00  0.00     0.075 C 
ATOM      4  C   UNL     1     113.642 121.301 109.542  1.00  0.00     0.132 C 
ATOM      5  O   UNL     1     113.560 120.160 109.969  1.00  0.00    -0.300 OA
ATOM      6  C   UNL     1     112.489 122.253 109.695  1.00  0.00     0.075 C 
ATOM      7  C   UNL     1     112.270 123.041 108.396  1.00  0.00     0.008 C 
ENDROOT
TORSDOF 0
ENDMDL
MODEL 3
REMARK VINA RESULT:    -2.034      7.305      8.043
REMARK INTER + INTRA:          -2.034
REMARK INTER:                  -2.034
REMARK INTRA:                   0.000
REMARK UNBOUND:                 0.000
REMARK SMILES O=C1CCCCC1
REMARK SMILES IDX 5 1 4 2 3 3 2 4 1 5 7 6 6 7
REMARK H PARENT
REMARK Flexibility Score: inf
ROOT
ATOM      1  C   UNL     1     118.399 108.361 107.897  1.00  0.00     0.001 C 
ATOM      2  C   UNL     1     117.357 109.464 107.663  1.00  0.00     0.008 C 
ATOM      3  C   UNL     1     117.089 110.262 108.946  1.00  0.00     0.075 C 
ATOM      4  C   UNL     1     118.384 110.721 109.557  1.00  0.00     0.132 C 
ATOM      5  O   UNL     1     118.491 111.857 109.993  1.00  0.00    -0.300 OA
ATOM      6  C   UNL     1     119.511 109.738 109.713  1.00  0.00     0.075 C 
ATOM      7  C   UNL     1     119.720 108.953 108.411  1.00  0.00     0.008 C 
ENDROOT
TORSDOF 0
ENDMDL
MODEL 4
REMARK VINA RESULT:    -2.031     11.516     12.344
REMARK INTER + INTRA:          -2.031
REMARK INTER:                  -2.031
REMARK INTRA:                   0.000
REMARK UNBOUND:                 0.000
REMARK SMILES O=C1CCCCC1
REMARK SMILES IDX 5 1 4 2 3 3 2 4 1 5 7 6 6 7
REMARK H PARENT
REMARK Flexibility Score: inf
ROOT
ATOM      1  C   UNL     1     117.970 125.652 105.821  1.00  0.00     0.001 C 
ATOM      2  C   UNL     1     117.845 126.124 107.277  1.00  0.00     0.008 C 
ATOM      3  C   UNL     1     116.866 125.246 108.068  1.00  0.00     0.075 C 
ATOM      4  C   UNL     1     117.205 123.792 107.891  1.00  0.00     0.132 C 
ATOM      5  O   UNL     1     117.191 123.035 108.848  1.00  0.00    -0.300 OA
ATOM      6  C   UNL     1     117.469 123.263 106.508  1.00  0.00     0.075 C 
ATOM      7  C   UNL     1     118.434 124.189 105.756  1.00  0.00     0.008 C 
ENDROOT
TORSDOF 0
ENDMDL
MODEL 5
REMARK VINA RESULT:    -2.031      4.352      5.337
REMARK INTER + INTRA:          -2.031
REMARK INTER:                  -2.031
REMARK INTRA:                   0.000
REMARK UNBOUND:                 0.000
REMARK SMILES O=C1CCCCC1
REMARK SMILES IDX 5 1 4 2 3 3 2 4 1 5 7 6 6 7
REMARK H PARENT
REMARK Flexibility Score: inf
ROOT
ATOM      1  C   UNL     1     123.617 118.385 107.879  1.00  0.00     0.001 C 
ATOM      2  C   UNL     1     122.476 117.388 107.632  1.00  0.00     0.008 C 
ATOM      3  C   UNL     1     121.669 117.131 108.911  1.00  0.00     0.075 C 
ATOM      4  C   UNL     1     121.260 118.433 109.542  1.00  0.00     0.132 C 
ATOM      5  O   UNL     1     120.129 118.577 109.981  1.00  0.00    -0.300 OA
ATOM      6  C   UNL     1     122.284 119.521 109.713  1.00  0.00     0.075 C 
ATOM      7  C   UNL     1     123.075 119.719 108.413  1.00  0.00     0.008 C 
ENDROOT
TORSDOF 0
ENDMDL
MODEL 6
REMARK VINA RESULT:    -2.027     16.040     17.379
REMARK INTER + INTRA:          -2.027
REMARK INTER:                  -2.027
REMARK INTRA:                   0.000
REMARK UNBOUND:                 0.000
REMARK SMILES O=C1CCCCC1
REMARK SMILES IDX 5 1 4 2 3 3 2 4 1 5 7 6 6 7
REMARK H PARENT
REMARK Flexibility Score: inf
ROOT
ATOM      1  C   UNL     1     106.419 117.981 105.803  1.00  0.00     0.001 C 
ATOM      2  C   UNL     1     105.921 117.858 107.250  1.00  0.00     0.008 C 
ATOM      3  C   UNL     1     106.772 116.865 108.052  1.00  0.00     0.075 C 
ATOM      4  C   UNL     1     108.233 117.185 107.901  1.00  0.00     0.132 C 
ATOM      5  O   UNL     1     108.974 117.157 108.870  1.00  0.00    -0.300 OA
ATOM      6  C   UNL     1     108.789 117.445 106.528  1.00  0.00     0.075 C 
ATOM      7  C   UNL     1     107.889 118.425 105.763  1.00  0.00     0.008 C 
ENDROOT
TORSDOF 0
ENDMDL
MODEL 7
REMARK VINA RESULT:    -1.995     13.977     14.864
REMARK INTER + INTRA:          -1.995
REMARK INTER:                  -1.995
REMARK INTRA:                   0.000
REMARK UNBOUND:                 0.000
REMARK SMILES O=C1CCCCC1
REMARK SMILES IDX 5 1 4 2 3 3 2 4 1 5 7 6 6 7
REMARK H PARENT
REMARK Flexibility Score: inf
ROOT
ATOM      1  C   UNL     1     108.409 113.701 107.783  1.00  0.00     0.001 C 
ATOM      2  C   UNL     1     109.577 114.677 107.579  1.00  0.00     0.008 C 
ATOM      3  C   UNL     1     110.338 114.921 108.888  1.00  0.00     0.075 C 
ATOM      4  C   UNL     1     110.700 113.613 109.536  1.00  0.00     0.132 C 
ATOM      5  O   UNL     1     111.810 113.450 110.017  1.00  0.00    -0.300 OA
ATOM      6  C   UNL     1     109.651 112.544 109.668  1.00  0.00     0.075 C 
ATOM      7  C   UNL     1     108.907 112.358 108.338  1.00  0.00     0.008 C 
ENDROOT
TORSDOF 0
ENDMDL
MODEL 8
REMARK VINA RESULT:    -1.977     11.745     12.752
REMARK INTER + INTRA:          -1.977
REMARK INTER:                  -1.977
REMARK INTRA:                   0.000
REMARK UNBOUND:                 0.000
REMARK SMILES O=C1CCCCC1
REMARK SMILES IDX 5 1 4 2 3 3 2 4 1 5 7 6 6 7
REMARK H PARENT
REMARK Flexibility Score: inf
ROOT
ATOM      1  C   UNL     1     114.655 119.700 107.772  1.00  0.00     0.001 C 
ATOM      2  C   UNL     1     113.201 119.521 108.234  1.00  0.00     0.008 C 
ATOM      3  C   UNL     1     112.952 120.213 109.580  1.00  0.00     0.075 C 
ATOM      4  C   UNL     1     113.441 121.634 109.537  1.00  0.00     0.132 C 
ATOM      5  O   UNL     1     112.768 122.533 110.016  1.00  0.00    -0.300 OA
ATOM      6  C   UNL     1     114.809 121.923 108.983  1.00  0.00     0.075 C 
ATOM      7  C   UNL     1     115.013 121.189 107.651  1.00  0.00     0.008 C 
ENDROOT
TORSDOF 0
ENDMDL
MODEL 9
REMARK VINA RESULT:    -1.947      6.824      7.721
REMARK INTER + INTRA:          -1.947
REMARK INTER:                  -1.947
REMARK INTRA:                   0.000
REMARK UNBOUND:                 0.000
REMARK SMILES O=C1CCCCC1
REMARK SMILES IDX 5 1 4 2 3 3 2 4 1 5 7 6 6 7
REMARK H PARENT
REMARK Flexibility Score: inf
ROOT
ATOM      1  C   UNL     1     117.271 112.329 107.777  1.00  0.00     0.001 C 
ATOM      2  C   UNL     1     118.711 112.472 108.294  1.00  0.00     0.008 C 
ATOM      3  C   UNL     1     118.896 111.761 109.640  1.00  0.00     0.075 C 
ATOM      4  C   UNL     1     118.377 110.352 109.565  1.00  0.00     0.132 C 
ATOM      5  O   UNL     1     119.013 109.434 110.059  1.00  0.00    -0.300 OA
ATOM      6  C   UNL     1     117.025 110.099 108.958  1.00  0.00     0.075 C 
ATOM      7  C   UNL     1     116.886 110.850 107.627  1.00  0.00     0.008 C 
ENDROOT
TORSDOF 0
ENDMDL
