MODEL 1
REMARK VINA RESULT:    17.191      0.000      0.000
REMARK INTER + INTRA:          27.484
REMARK INTER:                  26.236
REMARK INTRA:                   1.248
REMARK UNBOUND:                 1.248
REMARK SMILES CC1=CCC[C@H](C)C(=O)C[C@@H](C(C)C)C(=O)C1
REMARK SMILES IDX 8 1 9 2 6 3 7 4 5 5 4 6 3 7 2 8 1 9 10 11 11 12 15 13 16 14
REMARK SMILES IDX 17 15 12 17 13 18 14 19
REMARK H PARENT
REMARK Flexibility Score: 70.00
ROOT
ATOM      1  C   UNL     1      18.550  16.112 -12.969  1.00  0.00     0.136 C 
ATOM      2  O   UNL     1      19.599  15.995 -12.351  1.00  0.00    -0.299 OA
ENDROOT
BRANCH   1   3
ATOM      3  C   UNL     1      17.886  14.891 -13.573  1.00  0.00     0.053 C 
ATOM      4  C   UNL     1      18.787  13.671 -13.357  1.00  0.00     0.016 C 
BRANCH   3   5
ATOM      5  C   UNL     1      16.477  14.624 -12.992  1.00  0.00     0.015 C 
BRANCH   5   6
ATOM      6  C   UNL     1      15.705  15.902 -12.621  1.00  0.00     0.028 C 
BRANCH   6   7
ATOM      7  C   UNL     1      15.247  15.875 -11.181  1.00  0.00    -0.028 C 
ATOM      8  C   UNL     1      15.976  16.284 -10.118  1.00  0.00    -0.070 CG0
ATOM      9  C   UNL     1      15.348  16.186  -8.750  1.00  0.00     0.039 C 
ATOM     10  G   UNL     1      17.387  16.827 -10.241  1.00  0.00     0.000 G0
ENDBRANCH   6   7
ENDBRANCH   5   6
ENDBRANCH   3   5
ENDBRANCH   1   3
BRANCH   1  11
ATOM     11  C   UNL     1      17.967  17.489 -13.179  1.00  0.00     0.087 C 
BRANCH  11  12
ATOM     12  C   UNL     1      18.362  18.462 -12.045  1.00  0.00     0.066 C 
BRANCH  12  13
ATOM     13  C   UNL     1      17.521  18.209 -10.802  1.00  0.00     0.140 C 
ATOM     14  O   UNL     1      16.923  19.136 -10.274  1.00  0.00    -0.299 OA
BRANCH  13  15
ATOM     15  C   UNL     1      17.415  16.834 -10.189  1.00  0.00     0.106 CG0
ATOM     16  G   UNL     1      15.987  16.322 -10.165  1.00  0.00     0.000 G0
ENDBRANCH  13  15
ENDBRANCH  12  13
BRANCH  12  17
ATOM     17  C   UNL     1      18.326  19.950 -12.508  1.00  0.00    -0.006 C 
ATOM     18  C   UNL     1      17.813  20.073 -13.951  1.00  0.00     0.008 C 
ATOM     19  C   UNL     1      19.667  20.691 -12.363  1.00  0.00     0.008 C 
ENDBRANCH  12  17
ENDBRANCH  11  12
ENDBRANCH   1  11
TORSDOF 1
ENDMDL
MODEL 2
REMARK VINA RESULT:    17.372      2.517      5.110
REMARK INTER + INTRA:          27.760
REMARK INTER:                  27.344
REMARK INTRA:                   0.416
REMARK UNBOUND:                 1.248
REMARK SMILES CC1=CCC[C@H](C)C(=O)C[C@@H](C(C)C)C(=O)C1
REMARK SMILES IDX 8 1 9 2 6 3 7 4 5 5 4 6 3 7 2 8 1 9 10 11 11 12 15 13 16 14
REMARK SMILES IDX 17 15 12 17 13 18 14 19
REMARK H PARENT
REMARK Flexibility Score: 70.00
ROOT
ATOM      1  C   UNL     1      20.620  16.960 -11.683  1.00  0.00     0.136 C 
ATOM      2  O   UNL     1      20.936  15.790 -11.846  1.00  0.00    -0.299 OA
ENDROOT
BRANCH   1   3
ATOM      3  C   UNL     1      21.693  18.024 -11.556  1.00  0.00     0.053 C 
ATOM      4  C   UNL     1      23.062  17.392 -11.829  1.00  0.00     0.016 C 
BRANCH   3   5
ATOM      5  C   UNL     1      21.461  19.226 -12.503  1.00  0.00     0.015 C 
BRANCH   5   6
ATOM      6  C   UNL     1      21.291  20.569 -11.772  1.00  0.00     0.028 C 
BRANCH   6   7
ATOM      7  C   UNL     1      20.293  21.460 -12.474  1.00  0.00    -0.028 C 
ATOM      8  C   UNL     1      18.963  21.230 -12.561  1.00  0.00    -0.070 CG0
ATOM      9  C   UNL     1      18.119  22.238 -13.301  1.00  0.00     0.039 C 
ATOM     10  G   UNL     1      18.291  20.012 -11.957  1.00  0.00     0.000 G0
ENDBRANCH   6   7
ENDBRANCH   5   6
ENDBRANCH   3   5
ENDBRANCH   1   3
BRANCH   1  11
ATOM     11  C   UNL     1      19.160  17.318 -11.541  1.00  0.00     0.087 C 
BRANCH  11  12
ATOM     12  C   UNL     1      18.485  17.542 -12.913  1.00  0.00     0.066 C 
BRANCH  12  13
ATOM     13  C   UNL     1      17.961  18.966 -13.029  1.00  0.00     0.140 C 
ATOM     14  O   UNL     1      17.284  19.287 -13.996  1.00  0.00    -0.299 OA
BRANCH  13  15
ATOM     15  C   UNL     1      18.270  20.008 -11.982  1.00  0.00     0.106 CG0
ATOM     16  G   UNL     1      18.970  21.221 -12.566  1.00  0.00     0.000 G0
ENDBRANCH  13  15
ENDBRANCH  12  13
BRANCH  12  17
ATOM     17  C   UNL     1      17.396  16.469 -13.214  1.00  0.00    -0.006 C 
ATOM     18  C   UNL     1      16.514  16.208 -11.982  1.00  0.00     0.008 C 
ATOM     19  C   UNL     1      17.948  15.138 -13.755  1.00  0.00     0.008 C 
ENDBRANCH  12  17
ENDBRANCH  11  12
ENDBRANCH   1  11
TORSDOF 1
ENDMDL
MODEL 3
REMARK VINA RESULT:    17.434      2.336      3.517
REMARK INTER + INTRA:          27.855
REMARK INTER:                  26.343
REMARK INTRA:                   1.512
REMARK UNBOUND:                 1.248
REMARK SMILES CC1=CCC[C@H](C)C(=O)C[C@@H](C(C)C)C(=O)C1
REMARK SMILES IDX 8 1 9 2 6 3 7 4 5 5 4 6 3 7 2 8 1 9 10 11 11 12 15 13 16 14
REMARK SMILES IDX 17 15 12 17 13 18 14 19
REMARK H PARENT
REMARK Flexibility Score: 70.00
ROOT
ATOM      1  C   UNL     1      21.330  18.646 -12.195  1.00  0.00     0.136 C 
ATOM      2  O   UNL     1      22.039  19.449 -11.607  1.00  0.00    -0.299 OA
ENDROOT
BRANCH   1   3
ATOM      3  C   UNL     1      21.714  17.181 -12.233  1.00  0.00     0.053 C 
ATOM      4  C   UNL     1      22.931  16.957 -11.330  1.00  0.00     0.016 C 
BRANCH   3   5
ATOM      5  C   UNL     1      20.555  16.245 -11.809  1.00  0.00     0.015 C 
BRANCH   5   6
ATOM      6  C   UNL     1      20.327  15.065 -12.769  1.00  0.00     0.028 C 
BRANCH   6   7
ATOM      7  C   UNL     1      18.860  14.719 -12.882  1.00  0.00    -0.028 C 
ATOM      8  C   UNL     1      17.870  15.589 -13.182  1.00  0.00    -0.070 CG0
ATOM      9  C   UNL     1      16.460  15.058 -13.256  1.00  0.00     0.039 C 
ATOM     10  G   UNL     1      18.113  17.064 -13.440  1.00  0.00     0.000 G0
ENDBRANCH   6   7
ENDBRANCH   5   6
ENDBRANCH   3   5
ENDBRANCH   1   3
BRANCH   1  11
ATOM     11  C   UNL     1      20.112  19.142 -12.938  1.00  0.00     0.087 C 
BRANCH  11  12
ATOM     12  C   UNL     1      18.861  19.183 -12.032  1.00  0.00     0.066 C 
BRANCH  12  13
ATOM     13  C   UNL     1      18.055  17.899 -12.170  1.00  0.00     0.140 C 
ATOM     14  O   UNL     1      17.355  17.519 -11.242  1.00  0.00    -0.299 OA
BRANCH  13  15
ATOM     15  C   UNL     1      18.109  17.065 -13.426  1.00  0.00     0.106 CG0
ATOM     16  G   UNL     1      17.833  15.598 -13.157  1.00  0.00     0.000 G0
ENDBRANCH  13  15
ENDBRANCH  12  13
BRANCH  12  17
ATOM     17  C   UNL     1      18.005  20.464 -12.269  1.00  0.00    -0.006 C 
ATOM     18  C   UNL     1      17.267  20.401 -13.616  1.00  0.00     0.008 C 
ATOM     19  C   UNL     1      18.793  21.782 -12.164  1.00  0.00     0.008 C 
ENDBRANCH  12  17
ENDBRANCH  11  12
ENDBRANCH   1  11
TORSDOF 1
ENDMDL
MODEL 4
REMARK VINA RESULT:    17.786      2.255      5.554
REMARK INTER + INTRA:          28.391
REMARK INTER:                  25.935
REMARK INTRA:                   2.456
REMARK UNBOUND:                 1.248
REMARK SMILES CC1=CCC[C@H](C)C(=O)C[C@@H](C(C)C)C(=O)C1
REMARK SMILES IDX 8 1 9 2 6 3 7 4 5 5 4 6 3 7 2 8 1 9 10 11 11 12 15 13 16 14
REMARK SMILES IDX 17 15 12 17 13 18 14 19
REMARK H PARENT
REMARK Flexibility Score: 70.00
ROOT
ATOM      1  C   UNL     1      18.246  18.928 -12.129  1.00  0.00     0.136 C 
ATOM      2  O   UNL     1      17.921  18.688 -10.975  1.00  0.00    -0.299 OA
ENDROOT
BRANCH   1   3
ATOM      3  C   UNL     1      18.640  20.336 -12.528  1.00  0.00     0.053 C 
ATOM      4  C   UNL     1      18.342  21.290 -11.366  1.00  0.00     0.016 C 
BRANCH   3   5
ATOM      5  C   UNL     1      20.127  20.449 -12.944  1.00  0.00     0.015 C 
BRANCH   5   6
ATOM      6  C   UNL     1      21.114  20.242 -11.784  1.00  0.00     0.028 C 
BRANCH   6   7
ATOM      7  C   UNL     1      22.086  19.122 -12.077  1.00  0.00    -0.028 C 
ATOM      8  C   UNL     1      21.861  17.808 -11.847  1.00  0.00    -0.070 CG0
ATOM      9  C   UNL     1      22.951  16.830 -12.210  1.00  0.00     0.039 C 
ATOM     10  G   UNL     1      20.574  17.281 -11.241  1.00  0.00     0.000 G0
ENDBRANCH   6   7
ENDBRANCH   5   6
ENDBRANCH   3   5
ENDBRANCH   1   3
BRANCH   1  11
ATOM     11  C   UNL     1      18.183  17.825 -13.159  1.00  0.00     0.087 C 
BRANCH  11  12
ATOM     12  C   UNL     1      18.409  16.433 -12.527  1.00  0.00     0.066 C 
BRANCH  12  13
ATOM     13  C   UNL     1      19.866  16.256 -12.123  1.00  0.00     0.140 C 
ATOM     14  O   UNL     1      20.491  15.281 -12.516  1.00  0.00    -0.299 OA
BRANCH  13  15
ATOM     15  C   UNL     1      20.563  17.252 -11.229  1.00  0.00     0.106 CG0
ATOM     16  G   UNL     1      21.828  17.804 -11.858  1.00  0.00     0.000 G0
ENDBRANCH  13  15
ENDBRANCH  12  13
BRANCH  12  17
ATOM     17  C   UNL     1      17.889  15.282 -13.440  1.00  0.00    -0.006 C 
ATOM     18  C   UNL     1      16.373  15.086 -13.280  1.00  0.00     0.008 C 
ATOM     19  C   UNL     1      18.614  13.939 -13.243  1.00  0.00     0.008 C 
ENDBRANCH  12  17
ENDBRANCH  11  12
ENDBRANCH   1  11
TORSDOF 1
ENDMDL
MODEL 5
REMARK VINA RESULT:    17.826      2.088      3.260
REMARK INTER + INTRA:          28.453
REMARK INTER:                  27.353
REMARK INTRA:                   1.100
REMARK UNBOUND:                 1.248
REMARK SMILES CC1=CCC[C@H](C)C(=O)C[C@@H](C(C)C)C(=O)C1
REMARK SMILES IDX 8 1 9 2 6 3 7 4 5 5 4 6 3 7 2 8 1 9 10 11 11 12 15 13 16 14
REMARK SMILES IDX 17 15 12 17 13 18 14 19
REMARK H PARENT
REMARK Flexibility Score: 70.00
ROOT
ATOM      1  C   UNL     1      17.128  16.673 -13.178  1.00  0.00     0.136 C 
ATOM      2  O   UNL     1      16.035  17.178 -12.963  1.00  0.00    -0.299 OA
ENDROOT
BRANCH   1   3
ATOM      3  C   UNL     1      17.342  15.194 -12.928  1.00  0.00     0.053 C 
ATOM      4  C   UNL     1      16.120  14.417 -13.429  1.00  0.00     0.016 C 
BRANCH   3   5
ATOM      5  C   UNL     1      18.629  14.652 -13.595  1.00  0.00     0.015 C 
BRANCH   5   6
ATOM      6  C   UNL     1      19.728  14.255 -12.594  1.00  0.00     0.028 C 
BRANCH   6   7
ATOM      7  C   UNL     1      20.802  15.315 -12.502  1.00  0.00    -0.028 C 
ATOM      8  C   UNL     1      20.787  16.375 -11.662  1.00  0.00    -0.070 CG0
ATOM      9  C   UNL     1      21.954  17.330 -11.709  1.00  0.00     0.039 C 
ATOM     10  G   UNL     1      19.656  16.646 -10.688  1.00  0.00     0.000 G0
ENDBRANCH   6   7
ENDBRANCH   5   6
ENDBRANCH   3   5
ENDBRANCH   1   3
BRANCH   1  11
ATOM     11  C   UNL     1      18.272  17.552 -13.626  1.00  0.00     0.087 C 
BRANCH  11  12
ATOM     12  C   UNL     1      18.822  18.416 -12.470  1.00  0.00     0.066 C 
BRANCH  12  13
ATOM     13  C   UNL     1      18.660  17.699 -11.137  1.00  0.00     0.140 C 
ATOM     14  O   UNL     1      17.715  17.974 -10.411  1.00  0.00    -0.299 OA
BRANCH  13  15
ATOM     15  C   UNL     1      19.650  16.658 -10.676  1.00  0.00     0.106 CG0
ATOM     16  G   UNL     1      20.754  16.424 -11.690  1.00  0.00     0.000 G0
ENDBRANCH  13  15
ENDBRANCH  12  13
BRANCH  12  17
ATOM     17  C   UNL     1      18.211  19.850 -12.466  1.00  0.00    -0.006 C 
ATOM     18  C   UNL     1      17.411  20.119 -13.750  1.00  0.00     0.008 C 
ATOM     19  C   UNL     1      19.236  20.976 -12.240  1.00  0.00     0.008 C 
ENDBRANCH  12  17
ENDBRANCH  11  12
ENDBRANCH   1  11
TORSDOF 1
ENDMDL
MODEL 6
REMARK VINA RESULT:    19.504      1.994      4.878
REMARK INTER + INTRA:          31.013
REMARK INTER:                  29.549
REMARK INTRA:                   1.465
REMARK UNBOUND:                 1.248
REMARK SMILES CC1=CCC[C@H](C)C(=O)C[C@@H](C(C)C)C(=O)C1
REMARK SMILES IDX 8 1 9 2 6 3 7 4 5 5 4 6 3 7 2 8 1 9 10 11 11 12 15 13 16 14
REMARK SMILES IDX 17 15 12 17 13 18 14 19
REMARK H PARENT
REMARK Flexibility Score: 70.00
ROOT
ATOM      1  C   UNL     1      17.883  19.651 -13.356  1.00  0.00     0.136 C 
ATOM      2  O   UNL     1      16.736  19.942 -13.666  1.00  0.00    -0.299 OA
ENDROOT
BRANCH   1   3
ATOM      3  C   UNL     1      18.877  20.744 -13.019  1.00  0.00     0.053 C 
ATOM      4  C   UNL     1      18.785  21.062 -11.523  1.00  0.00     0.016 C 
BRANCH   3   5
ATOM      5  C   UNL     1      20.331  20.371 -13.397  1.00  0.00     0.015 C 
BRANCH   5   6
ATOM      6  C   UNL     1      21.195  19.944 -12.198  1.00  0.00     0.028 C 
BRANCH   6   7
ATOM      7  C   UNL     1      21.288  18.439 -12.090  1.00  0.00    -0.028 C 
ATOM      8  C   UNL     1      20.419  17.645 -11.425  1.00  0.00    -0.070 CG0
ATOM      9  C   UNL     1      20.672  16.158 -11.432  1.00  0.00     0.039 C 
ATOM     10  G   UNL     1      19.214  18.182 -10.675  1.00  0.00     0.000 G0
ENDBRANCH   6   7
ENDBRANCH   5   6
ENDBRANCH   3   5
ENDBRANCH   1   3
BRANCH   1  11
ATOM     11  C   UNL     1      18.310  18.203 -13.383  1.00  0.00     0.087 C 
BRANCH  11  12
ATOM     12  C   UNL     1      17.449  17.331 -12.441  1.00  0.00     0.066 C 
BRANCH  12  13
ATOM     13  C   UNL     1      17.905  17.487 -10.997  1.00  0.00     0.140 C 
ATOM     14  O   UNL     1      17.208  17.054 -10.090  1.00  0.00    -0.299 OA
BRANCH  13  15
ATOM     15  C   UNL     1      19.198  18.183 -10.649  1.00  0.00     0.106 CG0
ATOM     16  G   UNL     1      20.379  17.621 -11.419  1.00  0.00     0.000 G0
ENDBRANCH  13  15
ENDBRANCH  12  13
BRANCH  12  17
ATOM     17  C   UNL     1      17.397  15.843 -12.902  1.00  0.00    -0.006 C 
ATOM     18  C   UNL     1      18.267  15.614 -14.148  1.00  0.00     0.008 C 
ATOM     19  C   UNL     1      15.976  15.305 -13.149  1.00  0.00     0.008 C 
ENDBRANCH  12  17
ENDBRANCH  11  12
ENDBRANCH   1  11
TORSDOF 1
ENDMDL
MODEL 7
REMARK VINA RESULT:    19.723      2.276      5.642
REMARK INTER + INTRA:          31.349
REMARK INTER:                  27.145
REMARK INTRA:                   4.204
REMARK UNBOUND:                 1.248
REMARK SMILES CC1=CCC[C@H](C)C(=O)C[C@@H](C(C)C)C(=O)C1
REMARK SMILES IDX 8 1 9 2 6 3 7 4 5 5 4 6 3 7 2 8 1 9 10 11 11 12 15 13 16 14
REMARK SMILES IDX 17 15 12 17 13 18 14 19
REMARK H PARENT
REMARK Flexibility Score: 70.00
ROOT
ATOM      1  C   UNL     1      17.645  19.243 -11.271  1.00  0.00     0.136 C 
ATOM      2  O   UNL     1      17.589  19.792 -10.180  1.00  0.00    -0.299 OA
ENDROOT
BRANCH   1   3
ATOM      3  C   UNL     1      17.843  20.070 -12.526  1.00  0.00     0.053 C 
ATOM      4  C   UNL     1      16.532  20.101 -13.319  1.00  0.00     0.016 C 
BRANCH   3   5
ATOM      5  C   UNL     1      18.320  21.512 -12.226  1.00  0.00     0.015 C 
BRANCH   5   6
ATOM      6  C   UNL     1      19.782  21.598 -11.755  1.00  0.00     0.028 C 
BRANCH   6   7
ATOM      7  C   UNL     1      20.742  21.205 -12.854  1.00  0.00    -0.028 C 
ATOM      8  C   UNL     1      21.101  19.939 -13.167  1.00  0.00    -0.070 CG0
ATOM      9  C   UNL     1      22.072  19.740 -14.304  1.00  0.00     0.039 C 
ATOM     10  G   UNL     1      20.578  18.722 -12.426  1.00  0.00     0.000 G0
ENDBRANCH   6   7
ENDBRANCH   5   6
ENDBRANCH   3   5
ENDBRANCH   1   3
BRANCH   1  11
ATOM     11  C   UNL     1      17.447  17.749 -11.357  1.00  0.00     0.087 C 
BRANCH  11  12
ATOM     12  C   UNL     1      18.494  17.080 -12.275  1.00  0.00     0.066 C 
BRANCH  12  13
ATOM     13  C   UNL     1      19.312  18.130 -13.014  1.00  0.00     0.140 C 
ATOM     14  O   UNL     1      18.948  18.518 -14.115  1.00  0.00    -0.299 OA
BRANCH  13  15
ATOM     15  C   UNL     1      20.578  18.701 -12.425  1.00  0.00     0.106 CG0
ATOM     16  G   UNL     1      21.064  19.924 -13.178  1.00  0.00     0.000 G0
ENDBRANCH  13  15
ENDBRANCH  12  13
BRANCH  12  17
ATOM     17  C   UNL     1      17.853  16.029 -13.231  1.00  0.00    -0.006 C 
ATOM     18  C   UNL     1      16.365  15.816 -12.908  1.00  0.00     0.008 C 
ATOM     19  C   UNL     1      18.580  14.673 -13.264  1.00  0.00     0.008 C 
ENDBRANCH  12  17
ENDBRANCH  11  12
ENDBRANCH   1  11
TORSDOF 1
ENDMDL
