MODEL 1
REMARK VINA RESULT:    -4.898      0.000      0.000
REMARK INTER + INTRA:          -5.999
REMARK INTER:                  -5.757
REMARK INTRA:                  -0.242
REMARK UNBOUND:                -0.242
REMARK SMILES O=c1c(O)c(-c2ccc(O)c(O)c2)oc2cc(O)ccc12
REMARK SMILES IDX 5 1 3 2 2 3 1 4 21 5 15 6 14 7 16 8 17 9 19 10 20 11 6 12
REMARK SMILES IDX 7 13 8 14 9 15 13 16 11 17 10 18 12 20 4 22 18 24
REMARK H PARENT 10 19 12 21 4 23 18 25
REMARK Flexibility Score: inf
ROOT
ATOM      1  C   UNL     1      23.702  45.403  86.184  1.00  0.00     0.180 A 
ATOM      2  C   UNL     1      25.091  45.372  85.941  1.00  0.00     0.208 A 
ATOM      3  C   UNL     1      25.633  44.276  85.252  1.00  0.00     0.235 A 
ATOM      4  O   UNL     1      26.874  44.220  85.032  1.00  0.00    -0.285 OA
ATOM      5  C   UNL     1      24.782  43.251  84.807  1.00  0.00     0.069 A 
ATOM      6  C   UNL     1      23.400  43.368  85.070  1.00  0.00     0.142 A 
ATOM      7  O   UNL     1      22.928  44.418  85.732  1.00  0.00    -0.452 OA
ATOM      8  C   UNL     1      22.519  42.373  84.633  1.00  0.00     0.094 A 
ATOM      9  C   UNL     1      23.003  41.257  83.938  1.00  0.00     0.119 A 
ATOM     10  C   UNL     1      24.372  41.138  83.678  1.00  0.00     0.047 A 
ATOM     11  C   UNL     1      25.261  42.128  84.108  1.00  0.00     0.020 A 
ENDROOT
BRANCH   1  12
ATOM     12  C   UNL     1      23.058  46.515  86.919  1.00  0.00     0.025 A 
ATOM     13  C   UNL     1      23.239  46.622  88.305  1.00  0.00     0.016 A 
ATOM     14  C   UNL     1      22.657  47.673  89.016  1.00  0.00     0.051 A 
ATOM     15  C   UNL     1      21.898  48.646  88.356  1.00  0.00     0.157 A 
ATOM     16  C   UNL     1      22.315  47.502  86.251  1.00  0.00     0.062 A 
ATOM     17  C   UNL     1      21.730  48.564  86.954  1.00  0.00     0.158 A 
BRANCH  15  18
ATOM     18  O   UNL     1      21.336  49.668  89.125  1.00  0.00    -0.504 OA
ATOM     19  H   UNL     1      21.696  49.963  90.021  1.00  0.00     0.293 HD
ENDBRANCH  15  18
BRANCH  17  20
ATOM     20  O   UNL     1      21.002  49.507  86.225  1.00  0.00    -0.504 OA
ATOM     21  H   UNL     1      20.458  50.246  86.644  1.00  0.00     0.293 HD
ENDBRANCH  17  20
ENDBRANCH   1  12
BRANCH   2  22
ATOM     22  O   UNL     1      25.906  46.430  86.353  1.00  0.00    -0.502 OA
ATOM     23  H   UNL     1      26.563  46.882  85.729  1.00  0.00     0.293 HD
ENDBRANCH   2  22
BRANCH   9  24
ATOM     24  O   UNL     1      22.132  40.261  83.500  1.00  0.00    -0.508 OA
ATOM     25  H   UNL     1      22.451  39.496  82.919  1.00  0.00     0.293 HD
ENDBRANCH   9  24
TORSDOF 5
ENDMDL
MODEL 2
REMARK VINA RESULT:    -4.807      2.618      5.895
REMARK INTER + INTRA:          -5.892
REMARK INTER:                  -5.724
REMARK INTRA:                  -0.168
REMARK UNBOUND:                -0.242
REMARK SMILES O=c1c(O)c(-c2ccc(O)c(O)c2)oc2cc(O)ccc12
REMARK SMILES IDX 5 1 3 2 2 3 1 4 21 5 15 6 14 7 16 8 17 9 19 10 20 11 6 12
REMARK SMILES IDX 7 13 8 14 9 15 13 16 11 17 10 18 12 20 4 22 18 24
REMARK H PARENT 10 19 12 21 4 23 18 25
REMARK Flexibility Score: inf
ROOT
ATOM      1  C   UNL     1      24.660  44.621  86.027  1.00  0.00     0.180 A 
ATOM      2  C   UNL     1      25.937  44.224  85.578  1.00  0.00     0.208 A 
ATOM      3  C   UNL     1      26.910  45.209  85.348  1.00  0.00     0.235 A 
ATOM      4  O   UNL     1      28.056  44.880  84.935  1.00  0.00    -0.285 OA
ATOM      5  C   UNL     1      26.598  46.557  85.590  1.00  0.00     0.069 A 
ATOM      6  C   UNL     1      25.306  46.870  86.062  1.00  0.00     0.142 A 
ATOM      7  O   UNL     1      24.410  45.909  86.258  1.00  0.00    -0.452 OA
ATOM      8  C   UNL     1      24.960  48.200  86.324  1.00  0.00     0.094 A 
ATOM      9  C   UNL     1      25.893  49.226  86.116  1.00  0.00     0.119 A 
ATOM     10  C   UNL     1      27.174  48.917  85.647  1.00  0.00     0.047 A 
ATOM     11  C   UNL     1      27.530  47.591  85.384  1.00  0.00     0.020 A 
ENDROOT
BRANCH   1  12
ATOM     12  C   UNL     1      23.576  43.645  86.274  1.00  0.00     0.025 A 
ATOM     13  C   UNL     1      23.027  43.534  87.560  1.00  0.00     0.016 A 
ATOM     14  C   UNL     1      21.990  42.634  87.811  1.00  0.00     0.051 A 
ATOM     15  C   UNL     1      21.470  41.839  86.783  1.00  0.00     0.157 A 
ATOM     16  C   UNL     1      23.041  42.865  85.235  1.00  0.00     0.062 A 
ATOM     17  C   UNL     1      21.998  41.961  85.476  1.00  0.00     0.158 A 
BRANCH  15  18
ATOM     18  O   UNL     1      20.439  40.953  87.101  1.00  0.00    -0.504 OA
ATOM     19  H   UNL     1      19.997  40.339  86.434  1.00  0.00     0.293 HD
ENDBRANCH  15  18
BRANCH  17  20
ATOM     20  O   UNL     1      21.518  41.216  84.397  1.00  0.00    -0.504 OA
ATOM     21  H   UNL     1      21.631  41.485  83.431  1.00  0.00     0.293 HD
ENDBRANCH  17  20
ENDBRANCH   1  12
BRANCH   2  22
ATOM     22  O   UNL     1      26.233  42.871  85.393  1.00  0.00    -0.502 OA
ATOM     23  H   UNL     1      25.946  42.362  84.565  1.00  0.00     0.293 HD
ENDBRANCH   2  22
BRANCH   9  24
ATOM     24  O   UNL     1      25.557  50.553  86.374  1.00  0.00    -0.508 OA
ATOM     25  H   UNL     1      24.689  50.954  86.041  1.00  0.00     0.293 HD
ENDBRANCH   9  24
TORSDOF 5
ENDMDL
MODEL 3
REMARK VINA RESULT:    -4.706      2.184      6.271
REMARK INTER + INTRA:          -5.773
REMARK INTER:                  -5.571
REMARK INTRA:                  -0.203
REMARK UNBOUND:                -0.242
REMARK SMILES O=c1c(O)c(-c2ccc(O)c(O)c2)oc2cc(O)ccc12
REMARK SMILES IDX 5 1 3 2 2 3 1 4 21 5 15 6 14 7 16 8 17 9 19 10 20 11 6 12
REMARK SMILES IDX 7 13 8 14 9 15 13 16 11 17 10 18 12 20 4 22 18 24
REMARK H PARENT 10 19 12 21 4 23 18 25
REMARK Flexibility Score: inf
ROOT
ATOM      1  C   UNL     1      24.654  44.635  85.669  1.00  0.00     0.180 A 
ATOM      2  C   UNL     1      26.035  44.386  85.818  1.00  0.00     0.208 A 
ATOM      3  C   UNL     1      26.885  45.456  86.138  1.00  0.00     0.235 A 
ATOM      4  O   UNL     1      28.125  45.260  86.266  1.00  0.00    -0.285 OA
ATOM      5  C   UNL     1      26.341  46.737  86.324  1.00  0.00     0.069 A 
ATOM      6  C   UNL     1      24.947  46.899  86.180  1.00  0.00     0.142 A 
ATOM      7  O   UNL     1      24.178  45.863  85.867  1.00  0.00    -0.452 OA
ATOM      8  C   UNL     1      24.367  48.159  86.367  1.00  0.00     0.094 A 
ATOM      9  C   UNL     1      25.166  49.263  86.692  1.00  0.00     0.119 A 
ATOM     10  C   UNL     1      26.548  49.105  86.833  1.00  0.00     0.047 A 
ATOM     11  C   UNL     1      27.138  47.850  86.651  1.00  0.00     0.020 A 
ENDROOT
BRANCH   1  12
ATOM     12  C   UNL     1      23.697  43.564  85.313  1.00  0.00     0.025 A 
ATOM     13  C   UNL     1      23.744  42.994  84.033  1.00  0.00     0.016 A 
ATOM     14  C   UNL     1      22.863  41.969  83.682  1.00  0.00     0.051 A 
ATOM     15  C   UNL     1      21.930  41.483  84.604  1.00  0.00     0.157 A 
ATOM     16  C   UNL     1      22.776  43.063  86.249  1.00  0.00     0.062 A 
ATOM     17  C   UNL     1      21.891  42.032  85.908  1.00  0.00     0.158 A 
BRANCH  15  18
ATOM     18  O   UNL     1      21.073  40.462  84.189  1.00  0.00    -0.504 OA
ATOM     19  H   UNL     1      20.071  40.485  84.306  1.00  0.00     0.293 HD
ENDBRANCH  15  18
BRANCH  17  20
ATOM     20  O   UNL     1      21.001  41.586  86.887  1.00  0.00    -0.504 OA
ATOM     21  H   UNL     1      20.575  42.186  87.579  1.00  0.00     0.293 HD
ENDBRANCH  17  20
ENDBRANCH   1  12
BRANCH   2  22
ATOM     22  O   UNL     1      26.539  43.091  85.675  1.00  0.00    -0.502 OA
ATOM     23  H   UNL     1      27.526  42.906  85.541  1.00  0.00     0.293 HD
ENDBRANCH   2  22
BRANCH   9  24
ATOM     24  O   UNL     1      24.596  50.521  86.879  1.00  0.00    -0.508 OA
ATOM     25  H   UNL     1      23.666  50.629  87.265  1.00  0.00     0.293 HD
ENDBRANCH   9  24
TORSDOF 5
ENDMDL
MODEL 4
REMARK VINA RESULT:    -4.673      1.436      6.635
REMARK INTER + INTRA:          -5.734
REMARK INTER:                  -5.699
REMARK INTRA:                  -0.035
REMARK UNBOUND:                -0.242
REMARK SMILES O=c1c(O)c(-c2ccc(O)c(O)c2)oc2cc(O)ccc12
REMARK SMILES IDX 5 1 3 2 2 3 1 4 21 5 15 6 14 7 16 8 17 9 19 10 20 11 6 12
REMARK SMILES IDX 7 13 8 14 9 15 13 16 11 17 10 18 12 20 4 22 18 24
REMARK H PARENT 10 19 12 21 4 23 18 25
REMARK Flexibility Score: inf
ROOT
ATOM      1  C   UNL     1      23.855  45.319  86.383  1.00  0.00     0.180 A 
ATOM      2  C   UNL     1      24.718  45.573  87.469  1.00  0.00     0.208 A 
ATOM      3  C   UNL     1      24.601  46.791  88.157  1.00  0.00     0.235 A 
ATOM      4  O   UNL     1      25.369  47.046  89.125  1.00  0.00    -0.285 OA
ATOM      5  C   UNL     1      23.619  47.714  87.762  1.00  0.00     0.069 A 
ATOM      6  C   UNL     1      22.778  47.375  86.680  1.00  0.00     0.142 A 
ATOM      7  O   UNL     1      22.928  46.216  86.050  1.00  0.00    -0.452 OA
ATOM      8  C   UNL     1      21.781  48.264  86.264  1.00  0.00     0.094 A 
ATOM      9  C   UNL     1      21.615  49.494  86.916  1.00  0.00     0.119 A 
ATOM     10  C   UNL     1      22.448  49.832  87.988  1.00  0.00     0.047 A 
ATOM     11  C   UNL     1      23.446  48.950  88.412  1.00  0.00     0.020 A 
ENDROOT
BRANCH   1  12
ATOM     12  C   UNL     1      23.929  44.068  85.596  1.00  0.00     0.025 A 
ATOM     13  C   UNL     1      25.151  43.681  85.028  1.00  0.00     0.016 A 
ATOM     14  C   UNL     1      25.249  42.495  84.299  1.00  0.00     0.051 A 
ATOM     15  C   UNL     1      24.135  41.664  84.136  1.00  0.00     0.157 A 
ATOM     16  C   UNL     1      22.814  43.225  85.453  1.00  0.00     0.062 A 
ATOM     17  C   UNL     1      22.902  42.030  84.727  1.00  0.00     0.158 A 
BRANCH  15  18
ATOM     18  O   UNL     1      24.296  40.495  83.389  1.00  0.00    -0.504 OA
ATOM     19  H   UNL     1      25.185  40.042  83.235  1.00  0.00     0.293 HD
ENDBRANCH  15  18
BRANCH  17  20
ATOM     20  O   UNL     1      21.754  41.243  84.623  1.00  0.00    -0.504 OA
ATOM     21  H   UNL     1      20.814  41.603  84.700  1.00  0.00     0.293 HD
ENDBRANCH  17  20
ENDBRANCH   1  12
BRANCH   2  22
ATOM     22  O   UNL     1      25.653  44.614  87.869  1.00  0.00    -0.502 OA
ATOM     23  H   UNL     1      25.475  43.968  88.628  1.00  0.00     0.293 HD
ENDBRANCH   2  22
BRANCH   9  24
ATOM     24  O   UNL     1      20.625  50.385  86.508  1.00  0.00    -0.508 OA
ATOM     25  H   UNL     1      19.981  50.155  85.761  1.00  0.00     0.293 HD
ENDBRANCH   9  24
TORSDOF 5
ENDMDL
MODEL 5
REMARK VINA RESULT:    -4.601      2.033      3.342
REMARK INTER + INTRA:          -5.650
REMARK INTER:                  -5.374
REMARK INTRA:                  -0.275
REMARK UNBOUND:                -0.242
REMARK SMILES O=c1c(O)c(-c2ccc(O)c(O)c2)oc2cc(O)ccc12
REMARK SMILES IDX 5 1 3 2 2 3 1 4 21 5 15 6 14 7 16 8 17 9 19 10 20 11 6 12
REMARK SMILES IDX 7 13 8 14 9 15 13 16 11 17 10 18 12 20 4 22 18 24
REMARK H PARENT 10 19 12 21 4 23 18 25
REMARK Flexibility Score: inf
ROOT
ATOM      1  C   UNL     1      23.496  46.924  86.845  1.00  0.00     0.180 A 
ATOM      2  C   UNL     1      22.875  45.702  87.177  1.00  0.00     0.208 A 
ATOM      3  C   UNL     1      23.425  44.508  86.684  1.00  0.00     0.235 A 
ATOM      4  O   UNL     1      22.881  43.403  86.958  1.00  0.00    -0.285 OA
ATOM      5  C   UNL     1      24.585  44.557  85.894  1.00  0.00     0.069 A 
ATOM      6  C   UNL     1      25.159  45.818  85.627  1.00  0.00     0.142 A 
ATOM      7  O   UNL     1      24.603  46.925  86.105  1.00  0.00    -0.452 OA
ATOM      8  C   UNL     1      26.321  45.907  84.852  1.00  0.00     0.094 A 
ATOM      9  C   UNL     1      26.916  44.747  84.336  1.00  0.00     0.119 A 
ATOM     10  C   UNL     1      26.347  43.497  84.599  1.00  0.00     0.047 A 
ATOM     11  C   UNL     1      25.188  43.397  85.373  1.00  0.00     0.020 A 
ENDROOT
BRANCH   1  12
ATOM     12  C   UNL     1      22.967  48.225  87.310  1.00  0.00     0.025 A 
ATOM     13  C   UNL     1      23.647  48.928  88.315  1.00  0.00     0.016 A 
ATOM     14  C   UNL     1      23.177  50.166  88.755  1.00  0.00     0.051 A 
ATOM     15  C   UNL     1      22.029  50.735  88.193  1.00  0.00     0.157 A 
ATOM     16  C   UNL     1      21.827  48.804  86.728  1.00  0.00     0.062 A 
ATOM     17  C   UNL     1      21.348  50.048  87.160  1.00  0.00     0.158 A 
BRANCH  15  18
ATOM     18  O   UNL     1      21.606  51.972  88.682  1.00  0.00    -0.504 OA
ATOM     19  H   UNL     1      21.445  52.783  88.103  1.00  0.00     0.293 HD
ENDBRANCH  15  18
BRANCH  17  20
ATOM     20  O   UNL     1      20.208  50.560  86.537  1.00  0.00    -0.504 OA
ATOM     21  H   UNL     1      20.110  51.520  86.240  1.00  0.00     0.293 HD
ENDBRANCH  17  20
ENDBRANCH   1  12
BRANCH   2  22
ATOM     22  O   UNL     1      21.750  45.681  88.005  1.00  0.00    -0.502 OA
ATOM     23  H   UNL     1      20.810  45.790  87.644  1.00  0.00     0.293 HD
ENDBRANCH   2  22
BRANCH   9  24
ATOM     24  O   UNL     1      28.073  44.828  83.563  1.00  0.00    -0.508 OA
ATOM     25  H   UNL     1      28.942  45.178  83.946  1.00  0.00     0.293 HD
ENDBRANCH   9  24
TORSDOF 5
ENDMDL
MODEL 6
REMARK VINA RESULT:    -4.568      2.620      6.646
REMARK INTER + INTRA:          -5.611
REMARK INTER:                  -5.323
REMARK INTRA:                  -0.288
REMARK UNBOUND:                -0.242
REMARK SMILES O=c1c(O)c(-c2ccc(O)c(O)c2)oc2cc(O)ccc12
REMARK SMILES IDX 5 1 3 2 2 3 1 4 21 5 15 6 14 7 16 8 17 9 19 10 20 11 6 12
REMARK SMILES IDX 7 13 8 14 9 15 13 16 11 17 10 18 12 20 4 22 18 24
REMARK H PARENT 10 19 12 21 4 23 18 25
REMARK Flexibility Score: inf
ROOT
ATOM      1  C   UNL     1      25.463  44.902  86.342  1.00  0.00     0.180 A 
ATOM      2  C   UNL     1      26.461  44.631  87.300  1.00  0.00     0.208 A 
ATOM      3  C   UNL     1      27.106  45.708  87.929  1.00  0.00     0.235 A 
ATOM      4  O   UNL     1      28.010  45.492  88.782  1.00  0.00    -0.285 OA
ATOM      5  C   UNL     1      26.729  47.022  87.606  1.00  0.00     0.069 A 
ATOM      6  C   UNL     1      25.704  47.209  86.653  1.00  0.00     0.142 A 
ATOM      7  O   UNL     1      25.126  46.163  86.075  1.00  0.00    -0.452 OA
ATOM      8  C   UNL     1      25.294  48.502  86.312  1.00  0.00     0.094 A 
ATOM      9  C   UNL     1      25.900  49.615  86.911  1.00  0.00     0.119 A 
ATOM     10  C   UNL     1      26.916  49.433  87.854  1.00  0.00     0.047 A 
ATOM     11  C   UNL     1      27.332  48.145  88.203  1.00  0.00     0.020 A 
ENDROOT
BRANCH   1  12
ATOM     12  C   UNL     1      24.751  43.822  85.622  1.00  0.00     0.025 A 
ATOM     13  C   UNL     1      25.375  43.188  84.539  1.00  0.00     0.016 A 
ATOM     14  C   UNL     1      24.731  42.154  83.857  1.00  0.00     0.051 A 
ATOM     15  C   UNL     1      23.460  41.722  84.253  1.00  0.00     0.157 A 
ATOM     16  C   UNL     1      23.485  43.376  86.036  1.00  0.00     0.062 A 
ATOM     17  C   UNL     1      22.831  42.336  85.362  1.00  0.00     0.158 A 
BRANCH  15  18
ATOM     18  O   UNL     1      22.866  40.688  83.526  1.00  0.00    -0.504 OA
ATOM     19  H   UNL     1      23.266  40.281  82.694  1.00  0.00     0.293 HD
ENDBRANCH  15  18
BRANCH  17  20
ATOM     20  O   UNL     1      21.573  41.947  85.827  1.00  0.00    -0.504 OA
ATOM     21  H   UNL     1      21.308  41.942  86.800  1.00  0.00     0.293 HD
ENDBRANCH  17  20
ENDBRANCH   1  12
BRANCH   2  22
ATOM     22  O   UNL     1      26.781  43.313  87.637  1.00  0.00    -0.502 OA
ATOM     23  H   UNL     1      27.125  42.649  86.955  1.00  0.00     0.293 HD
ENDBRANCH   2  22
BRANCH   9  24
ATOM     24  O   UNL     1      25.497  50.907  86.576  1.00  0.00    -0.508 OA
ATOM     25  H   UNL     1      25.013  51.103  85.708  1.00  0.00     0.293 HD
ENDBRANCH   9  24
TORSDOF 5
ENDMDL
MODEL 7
REMARK VINA RESULT:    -4.436      1.859      6.869
REMARK INTER + INTRA:          -5.456
REMARK INTER:                  -5.277
REMARK INTRA:                  -0.179
REMARK UNBOUND:                -0.242
REMARK SMILES O=c1c(O)c(-c2ccc(O)c(O)c2)oc2cc(O)ccc12
REMARK SMILES IDX 5 1 3 2 2 3 1 4 21 5 15 6 14 7 16 8 17 9 19 10 20 11 6 12
REMARK SMILES IDX 7 13 8 14 9 15 13 16 11 17 10 18 12 20 4 22 18 24
REMARK H PARENT 10 19 12 21 4 23 18 25
REMARK Flexibility Score: inf
ROOT
ATOM      1  C   UNL     1      23.987  46.718  86.822  1.00  0.00     0.180 A 
ATOM      2  C   UNL     1      24.900  47.278  87.740  1.00  0.00     0.208 A 
ATOM      3  C   UNL     1      24.611  48.532  88.302  1.00  0.00     0.235 A 
ATOM      4  O   UNL     1      25.417  49.058  89.117  1.00  0.00    -0.285 OA
ATOM      5  C   UNL     1      23.417  49.184  87.954  1.00  0.00     0.069 A 
ATOM      6  C   UNL     1      22.545  48.546  87.046  1.00  0.00     0.142 A 
ATOM      7  O   UNL     1      22.860  47.364  86.530  1.00  0.00    -0.452 OA
ATOM      8  C   UNL     1      21.342  49.161  86.683  1.00  0.00     0.094 A 
ATOM      9  C   UNL     1      20.999  50.411  87.215  1.00  0.00     0.119 A 
ATOM     10  C   UNL     1      21.862  51.046  88.114  1.00  0.00     0.047 A 
ATOM     11  C   UNL     1      23.066  50.440  88.485  1.00  0.00     0.020 A 
ENDROOT
BRANCH   1  12
ATOM     12  C   UNL     1      24.230  45.410  86.173  1.00  0.00     0.025 A 
ATOM     13  C   UNL     1      23.329  44.357  86.385  1.00  0.00     0.016 A 
ATOM     14  C   UNL     1      23.527  43.120  85.768  1.00  0.00     0.051 A 
ATOM     15  C   UNL     1      24.617  42.915  84.916  1.00  0.00     0.157 A 
ATOM     16  C   UNL     1      25.313  45.214  85.300  1.00  0.00     0.062 A 
ATOM     17  C   UNL     1      25.519  43.978  84.672  1.00  0.00     0.158 A 
BRANCH  15  18
ATOM     18  O   UNL     1      24.763  41.654  84.335  1.00  0.00    -0.504 OA
ATOM     19  H   UNL     1      25.540  41.035  84.516  1.00  0.00     0.293 HD
ENDBRANCH  15  18
BRANCH  17  20
ATOM     20  O   UNL     1      26.618  43.855  83.820  1.00  0.00    -0.504 OA
ATOM     21  H   UNL     1      26.619  43.300  82.977  1.00  0.00     0.293 HD
ENDBRANCH  17  20
ENDBRANCH   1  12
BRANCH   2  22
ATOM     22  O   UNL     1      26.056  46.582  88.104  1.00  0.00    -0.502 OA
ATOM     23  H   UNL     1      26.984  46.931  87.899  1.00  0.00     0.293 HD
ENDBRANCH   2  22
BRANCH   9  24
ATOM     24  O   UNL     1      19.803  51.030  86.858  1.00  0.00    -0.508 OA
ATOM     25  H   UNL     1      19.575  51.965  87.174  1.00  0.00     0.293 HD
ENDBRANCH   9  24
TORSDOF 5
ENDMDL
MODEL 8
REMARK VINA RESULT:    -4.408      1.149      1.418
REMARK INTER + INTRA:          -5.423
REMARK INTER:                  -5.138
REMARK INTRA:                  -0.285
REMARK UNBOUND:                -0.242
REMARK SMILES O=c1c(O)c(-c2ccc(O)c(O)c2)oc2cc(O)ccc12
REMARK SMILES IDX 5 1 3 2 2 3 1 4 21 5 15 6 14 7 16 8 17 9 19 10 20 11 6 12
REMARK SMILES IDX 7 13 8 14 9 15 13 16 11 17 10 18 12 20 4 22 18 24
REMARK H PARENT 10 19 12 21 4 23 18 25
REMARK Flexibility Score: inf
ROOT
ATOM      1  C   UNL     1      23.310  46.226  86.766  1.00  0.00     0.180 A 
ATOM      2  C   UNL     1      24.700  46.441  86.863  1.00  0.00     0.208 A 
ATOM      3  C   UNL     1      25.573  45.475  86.336  1.00  0.00     0.235 A 
ATOM      4  O   UNL     1      26.821  45.639  86.420  1.00  0.00    -0.285 OA
ATOM      5  C   UNL     1      25.043  44.335  85.711  1.00  0.00     0.069 A 
ATOM      6  C   UNL     1      23.639  44.205  85.633  1.00  0.00     0.142 A 
ATOM      7  O   UNL     1      22.849  45.137  86.152  1.00  0.00    -0.452 OA
ATOM      8  C   UNL     1      23.074  43.088  85.009  1.00  0.00     0.094 A 
ATOM      9  C   UNL     1      23.896  42.094  84.461  1.00  0.00     0.119 A 
ATOM     10  C   UNL     1      25.287  42.220  84.538  1.00  0.00     0.047 A 
ATOM     11  C   UNL     1      25.862  43.332  85.159  1.00  0.00     0.020 A 
ENDROOT
BRANCH   1  12
ATOM     12  C   UNL     1      22.326  47.187  87.313  1.00  0.00     0.025 A 
ATOM     13  C   UNL     1      21.771  46.960  88.580  1.00  0.00     0.016 A 
ATOM     14  C   UNL     1      20.856  47.863  89.125  1.00  0.00     0.051 A 
ATOM     15  C   UNL     1      20.491  49.017  88.424  1.00  0.00     0.157 A 
ATOM     16  C   UNL     1      21.978  48.356  86.617  1.00  0.00     0.062 A 
ATOM     17  C   UNL     1      21.065  49.272  87.156  1.00  0.00     0.158 A 
BRANCH  15  18
ATOM     18  O   UNL     1      19.566  49.877  89.020  1.00  0.00    -0.504 OA
ATOM     19  H   UNL     1      19.806  50.766  89.433  1.00  0.00     0.293 HD
ENDBRANCH  15  18
BRANCH  17  20
ATOM     20  O   UNL     1      20.763  50.411  86.406  1.00  0.00    -0.504 OA
ATOM     21  H   UNL     1      19.897  50.923  86.482  1.00  0.00     0.293 HD
ENDBRANCH  17  20
ENDBRANCH   1  12
BRANCH   2  22
ATOM     22  O   UNL     1      25.197  47.608  87.448  1.00  0.00    -0.502 OA
ATOM     23  H   UNL     1      25.318  47.703  88.449  1.00  0.00     0.293 HD
ENDBRANCH   2  22
BRANCH   9  24
ATOM     24  O   UNL     1      23.340  40.978  83.838  1.00  0.00    -0.508 OA
ATOM     25  H   UNL     1      23.241  40.928  82.832  1.00  0.00     0.293 HD
ENDBRANCH   9  24
TORSDOF 5
ENDMDL
MODEL 9
REMARK VINA RESULT:    -4.319      1.941      2.025
REMARK INTER + INTRA:          -5.318
REMARK INTER:                  -5.327
REMARK INTRA:                   0.009
REMARK UNBOUND:                -0.242
REMARK SMILES O=c1c(O)c(-c2ccc(O)c(O)c2)oc2cc(O)ccc12
REMARK SMILES IDX 5 1 3 2 2 3 1 4 21 5 15 6 14 7 16 8 17 9 19 10 20 11 6 12
REMARK SMILES IDX 7 13 8 14 9 15 13 16 11 17 10 18 12 20 4 22 18 24
REMARK H PARENT 10 19 12 21 4 23 18 25
REMARK Flexibility Score: inf
ROOT
ATOM      1  C   UNL     1      25.025  45.970  86.195  1.00  0.00     0.180 A 
ATOM      2  C   UNL     1      26.272  45.587  85.658  1.00  0.00     0.208 A 
ATOM      3  C   UNL     1      26.375  44.352  84.999  1.00  0.00     0.235 A 
ATOM      4  O   UNL     1      27.482  43.983  84.520  1.00  0.00    -0.285 OA
ATOM      5  C   UNL     1      25.236  43.542  84.871  1.00  0.00     0.069 A 
ATOM      6  C   UNL     1      24.019  44.007  85.415  1.00  0.00     0.142 A 
ATOM      7  O   UNL     1      23.966  45.177  86.039  1.00  0.00    -0.452 OA
ATOM      8  C   UNL     1      22.860  43.232  85.299  1.00  0.00     0.094 A 
ATOM      9  C   UNL     1      22.902  41.992  84.647  1.00  0.00     0.119 A 
ATOM     10  C   UNL     1      24.107  41.529  84.109  1.00  0.00     0.047 A 
ATOM     11  C   UNL     1      25.270  42.296  84.218  1.00  0.00     0.020 A 
ENDROOT
BRANCH   1  12
ATOM     12  C   UNL     1      24.841  47.247  86.920  1.00  0.00     0.025 A 
ATOM     13  C   UNL     1      24.283  47.235  88.206  1.00  0.00     0.016 A 
ATOM     14  C   UNL     1      24.117  48.425  88.917  1.00  0.00     0.051 A 
ATOM     15  C   UNL     1      24.519  49.647  88.366  1.00  0.00     0.157 A 
ATOM     16  C   UNL     1      25.265  48.469  86.373  1.00  0.00     0.062 A 
ATOM     17  C   UNL     1      25.108  49.669  87.079  1.00  0.00     0.158 A 
BRANCH  15  18
ATOM     18  O   UNL     1      24.320  50.802  89.124  1.00  0.00    -0.504 OA
ATOM     19  H   UNL     1      24.928  51.098  89.873  1.00  0.00     0.293 HD
ENDBRANCH  15  18
BRANCH  17  20
ATOM     20  O   UNL     1      25.550  50.846  86.472  1.00  0.00    -0.504 OA
ATOM     21  H   UNL     1      24.939  51.521  86.038  1.00  0.00     0.293 HD
ENDBRANCH  17  20
ENDBRANCH   1  12
BRANCH   2  22
ATOM     22  O   UNL     1      27.377  46.437  85.758  1.00  0.00    -0.502 OA
ATOM     23  H   UNL     1      28.281  46.197  85.372  1.00  0.00     0.293 HD
ENDBRANCH   2  22
BRANCH   9  24
ATOM     24  O   UNL     1      21.752  41.214  84.528  1.00  0.00    -0.508 OA
ATOM     25  H   UNL     1      20.828  41.615  84.632  1.00  0.00     0.293 HD
ENDBRANCH   9  24
TORSDOF 5
ENDMDL
