MODEL 1
REMARK VINA RESULT:    -3.307      0.000      0.000
REMARK INTER + INTRA:          -4.201
REMARK INTER:                  -4.080
REMARK INTRA:                  -0.121
REMARK UNBOUND:                -0.121
REMARK SMILES CCCCCC(=O)[O-]
REMARK SMILES IDX 4 1 5 2 6 3 7 4 8 5 3 6 2 7 1 8
REMARK H PARENT
REMARK Flexibility Score: inf
ROOT
ATOM      1  C   UNL     1      -4.063   4.074  -9.077  1.00  0.00     0.006 C 
ENDROOT
BRANCH   1   2
ATOM      2  C   UNL     1      -4.290   2.567  -9.234  1.00  0.00     0.053 C 
BRANCH   2   3
ATOM      3  C   UNL     1      -5.744   2.240  -9.104  1.00  0.00     0.041 C 
ATOM      4  O   UNL     1      -6.393   2.626  -8.097  1.00  0.00    -0.550 OA
ATOM      5  O   UNL     1      -6.371   1.465 -10.071  1.00  0.00    -0.550 OA
ENDBRANCH   2   3
ENDBRANCH   1   2
BRANCH   1   6
ATOM      6  C   UNL     1      -2.596   4.375  -8.739  1.00  0.00     0.000 C 
BRANCH   6   7
ATOM      7  C   UNL     1      -1.683   3.154  -8.928  1.00  0.00    -0.003 C 
ATOM      8  C   UNL     1      -0.773   2.904  -7.725  1.00  0.00     0.004 C 
ENDBRANCH   6   7
ENDBRANCH   1   6
TORSDOF 4
ENDMDL
MODEL 2
REMARK VINA RESULT:    -3.296      0.183      1.157
REMARK INTER + INTRA:          -4.188
REMARK INTER:                  -4.067
REMARK INTRA:                  -0.121
REMARK UNBOUND:                -0.121
REMARK SMILES CCCCCC(=O)[O-]
REMARK SMILES IDX 4 1 5 2 6 3 7 4 8 5 3 6 2 7 1 8
REMARK H PARENT
REMARK Flexibility Score: inf
ROOT
ATOM      1  C   UNL     1      -4.151   4.155  -8.884  1.00  0.00     0.006 C 
ENDROOT
BRANCH   1   2
ATOM      2  C   UNL     1      -4.361   2.717  -9.368  1.00  0.00     0.053 C 
BRANCH   2   3
ATOM      3  C   UNL     1      -5.776   2.288  -9.140  1.00  0.00     0.041 C 
ATOM      4  O   UNL     1      -6.336   1.497  -9.943  1.00  0.00    -0.550 OA
ATOM      5  O   UNL     1      -6.493   2.801  -8.067  1.00  0.00    -0.550 OA
ENDBRANCH   2   3
ENDBRANCH   1   2
BRANCH   1   6
ATOM      6  C   UNL     1      -2.657   4.507  -8.841  1.00  0.00     0.000 C 
BRANCH   6   7
ATOM      7  C   UNL     1      -1.755   3.283  -9.070  1.00  0.00    -0.003 C 
ATOM      8  C   UNL     1      -0.872   2.966  -7.863  1.00  0.00     0.004 C 
ENDBRANCH   6   7
ENDBRANCH   1   6
TORSDOF 4
ENDMDL
MODEL 3
REMARK VINA RESULT:    -3.285      3.825      4.877
REMARK INTER + INTRA:          -4.174
REMARK INTER:                  -4.078
REMARK INTRA:                  -0.096
REMARK UNBOUND:                -0.121
REMARK SMILES CCCCCC(=O)[O-]
REMARK SMILES IDX 4 1 5 2 6 3 7 4 8 5 3 6 2 7 1 8
REMARK H PARENT
REMARK Flexibility Score: inf
ROOT
ATOM      1  C   UNL     1      -0.807   4.412  -8.495  1.00  0.00     0.006 C 
ENDROOT
BRANCH   1   2
ATOM      2  C   UNL     1      -1.256   2.983  -8.178  1.00  0.00     0.053 C 
BRANCH   2   3
ATOM      3  C   UNL     1      -0.071   2.098  -7.953  1.00  0.00     0.041 C 
ATOM      4  O   UNL     1       0.634   1.724  -8.927  1.00  0.00    -0.550 OA
ATOM      5  O   UNL     1       0.226   1.645  -6.674  1.00  0.00    -0.550 OA
ENDBRANCH   2   3
ENDBRANCH   1   2
BRANCH   1   6
ATOM      6  C   UNL     1      -2.009   5.367  -8.545  1.00  0.00     0.000 C 
BRANCH   6   7
ATOM      7  C   UNL     1      -3.327   4.642  -8.858  1.00  0.00    -0.003 C 
ATOM      8  C   UNL     1      -4.300   5.504  -9.662  1.00  0.00     0.004 C 
ENDBRANCH   6   7
ENDBRANCH   1   6
TORSDOF 4
ENDMDL
MODEL 4
REMARK VINA RESULT:    -3.271      3.812      4.748
REMARK INTER + INTRA:          -4.157
REMARK INTER:                  -4.054
REMARK INTRA:                  -0.103
REMARK UNBOUND:                -0.121
REMARK SMILES CCCCCC(=O)[O-]
REMARK SMILES IDX 4 1 5 2 6 3 7 4 8 5 3 6 2 7 1 8
REMARK H PARENT
REMARK Flexibility Score: inf
ROOT
ATOM      1  C   UNL     1      -0.827   4.438  -8.393  1.00  0.00     0.006 C 
ENDROOT
BRANCH   1   2
ATOM      2  C   UNL     1      -1.281   2.986  -8.216  1.00  0.00     0.053 C 
BRANCH   2   3
ATOM      3  C   UNL     1      -0.104   2.095  -7.971  1.00  0.00     0.041 C 
ATOM      4  O   UNL     1       0.160   1.700  -6.805  1.00  0.00    -0.550 OA
ATOM      5  O   UNL     1       0.730   1.740  -9.023  1.00  0.00    -0.550 OA
ENDBRANCH   2   3
ENDBRANCH   1   2
BRANCH   1   6
ATOM      6  C   UNL     1      -2.026   5.359  -8.658  1.00  0.00     0.000 C 
BRANCH   6   7
ATOM      7  C   UNL     1      -3.347   4.585  -8.795  1.00  0.00    -0.003 C 
ATOM      8  C   UNL     1      -4.415   5.368  -9.559  1.00  0.00     0.004 C 
ENDBRANCH   6   7
ENDBRANCH   1   6
TORSDOF 4
ENDMDL
MODEL 5
REMARK VINA RESULT:    -3.252      2.420      3.361
REMARK INTER + INTRA:          -4.134
REMARK INTER:                  -4.013
REMARK INTRA:                  -0.120
REMARK UNBOUND:                -0.121
REMARK SMILES CCCCCC(=O)[O-]
REMARK SMILES IDX 4 1 5 2 6 3 7 4 8 5 3 6 2 7 1 8
REMARK H PARENT
REMARK Flexibility Score: inf
ROOT
ATOM      1  C   UNL     1      -1.043   3.734  -9.031  1.00  0.00     0.006 C 
ENDROOT
BRANCH   1   2
ATOM      2  C   UNL     1      -2.533   3.529  -9.323  1.00  0.00     0.053 C 
BRANCH   2   3
ATOM      3  C   UNL     1      -3.341   4.639  -8.731  1.00  0.00     0.041 C 
ATOM      4  O   UNL     1      -4.580   4.496  -8.551  1.00  0.00    -0.550 OA
ATOM      5  O   UNL     1      -2.738   5.851  -8.423  1.00  0.00    -0.550 OA
ENDBRANCH   2   3
ENDBRANCH   1   2
BRANCH   1   6
ATOM      6  C   UNL     1      -0.517   2.653  -8.077  1.00  0.00     0.000 C 
BRANCH   6   7
ATOM      7  C   UNL     1       0.238   1.534  -8.811  1.00  0.00    -0.003 C 
ATOM      8  C   UNL     1       0.983   2.036 -10.048  1.00  0.00     0.004 C 
ENDBRANCH   6   7
ENDBRANCH   1   6
TORSDOF 4
ENDMDL
MODEL 6
REMARK VINA RESULT:    -3.224     14.093     14.812
REMARK INTER + INTRA:          -4.099
REMARK INTER:                  -4.005
REMARK INTRA:                  -0.093
REMARK UNBOUND:                -0.121
REMARK SMILES CCCCCC(=O)[O-]
REMARK SMILES IDX 4 1 5 2 6 3 7 4 8 5 3 6 2 7 1 8
REMARK H PARENT
REMARK Flexibility Score: inf
ROOT
ATOM      1  C   UNL     1       0.172 -10.155  -4.357  1.00  0.00     0.006 C 
ENDROOT
BRANCH   1   2
ATOM      2  C   UNL     1      -1.317 -10.373  -4.073  1.00  0.00     0.053 C 
BRANCH   2   3
ATOM      3  C   UNL     1      -1.731  -9.625  -2.846  1.00  0.00     0.041 C 
ATOM      4  O   UNL     1      -1.649  -8.369  -2.810  1.00  0.00    -0.550 OA
ATOM      5  O   UNL     1      -2.162 -10.318  -1.722  1.00  0.00    -0.550 OA
ENDBRANCH   2   3
ENDBRANCH   1   2
BRANCH   1   6
ATOM      6  C   UNL     1       0.846 -11.467  -4.787  1.00  0.00     0.000 C 
BRANCH   6   7
ATOM      7  C   UNL     1       1.701 -11.304  -6.054  1.00  0.00    -0.003 C 
ATOM      8  C   UNL     1       0.885 -11.438  -7.339  1.00  0.00     0.004 C 
ENDBRANCH   6   7
ENDBRANCH   1   6
TORSDOF 4
ENDMDL
MODEL 7
REMARK VINA RESULT:    -3.167      3.171      4.157
REMARK INTER + INTRA:          -4.029
REMARK INTER:                  -3.927
REMARK INTRA:                  -0.102
REMARK UNBOUND:                -0.121
REMARK SMILES CCCCCC(=O)[O-]
REMARK SMILES IDX 4 1 5 2 6 3 7 4 8 5 3 6 2 7 1 8
REMARK H PARENT
REMARK Flexibility Score: inf
ROOT
ATOM      1  C   UNL     1      -1.532   3.471  -8.446  1.00  0.00     0.006 C 
ENDROOT
BRANCH   1   2
ATOM      2  C   UNL     1      -1.057   4.926  -8.385  1.00  0.00     0.053 C 
BRANCH   2   3
ATOM      3  C   UNL     1      -2.205   5.862  -8.591  1.00  0.00     0.041 C 
ATOM      4  O   UNL     1      -1.997   7.088  -8.790  1.00  0.00    -0.550 OA
ATOM      5  O   UNL     1      -3.509   5.390  -8.514  1.00  0.00    -0.550 OA
ENDBRANCH   2   3
ENDBRANCH   1   2
BRANCH   1   6
ATOM      6  C   UNL     1      -0.465   2.521  -7.883  1.00  0.00     0.000 C 
BRANCH   6   7
ATOM      7  C   UNL     1       0.245   1.714  -8.981  1.00  0.00    -0.003 C 
ATOM      8  C   UNL     1      -0.574   1.619 -10.269  1.00  0.00     0.004 C 
ENDBRANCH   6   7
ENDBRANCH   1   6
TORSDOF 4
ENDMDL
MODEL 8
REMARK VINA RESULT:    -3.082      1.311      1.959
REMARK INTER + INTRA:          -3.924
REMARK INTER:                  -3.843
REMARK INTRA:                  -0.081
REMARK UNBOUND:                -0.121
REMARK SMILES CCCCCC(=O)[O-]
REMARK SMILES IDX 4 1 5 2 6 3 7 4 8 5 3 6 2 7 1 8
REMARK H PARENT
REMARK Flexibility Score: inf
ROOT
ATOM      1  C   UNL     1      -2.374   2.976  -9.522  1.00  0.00     0.006 C 
ENDROOT
BRANCH   1   2
ATOM      2  C   UNL     1      -3.852   3.208  -9.196  1.00  0.00     0.053 C 
BRANCH   2   3
ATOM      3  C   UNL     1      -4.697   2.128  -9.792  1.00  0.00     0.041 C 
ATOM      4  O   UNL     1      -4.407   1.645 -10.918  1.00  0.00    -0.550 OA
ATOM      5  O   UNL     1      -5.835   1.689  -9.128  1.00  0.00    -0.550 OA
ENDBRANCH   2   3
ENDBRANCH   1   2
BRANCH   1   6
ATOM      6  C   UNL     1      -1.477   3.430  -8.361  1.00  0.00     0.000 C 
BRANCH   6   7
ATOM      7  C   UNL     1      -0.342   2.436  -8.067  1.00  0.00    -0.003 C 
ATOM      8  C   UNL     1       0.083   1.642  -9.303  1.00  0.00     0.004 C 
ENDBRANCH   6   7
ENDBRANCH   1   6
TORSDOF 4
ENDMDL
MODEL 9
REMARK VINA RESULT:    -3.074      3.587      4.792
REMARK INTER + INTRA:          -3.914
REMARK INTER:                  -3.828
REMARK INTRA:                  -0.087
REMARK UNBOUND:                -0.121
REMARK SMILES CCCCCC(=O)[O-]
REMARK SMILES IDX 4 1 5 2 6 3 7 4 8 5 3 6 2 7 1 8
REMARK H PARENT
REMARK Flexibility Score: inf
ROOT
ATOM      1  C   UNL     1      -2.214   3.105  -8.903  1.00  0.00     0.006 C 
ENDROOT
BRANCH   1   2
ATOM      2  C   UNL     1      -0.819   3.198  -8.279  1.00  0.00     0.053 C 
BRANCH   2   3
ATOM      3  C   UNL     1       0.121   2.249  -8.953  1.00  0.00     0.041 C 
ATOM      4  O   UNL     1       0.504   2.466 -10.133  1.00  0.00    -0.550 OA
ATOM      5  O   UNL     1       0.537   1.098  -8.296  1.00  0.00    -0.550 OA
ENDBRANCH   2   3
ENDBRANCH   1   2
BRANCH   1   6
ATOM      6  C   UNL     1      -2.967   4.436  -8.764  1.00  0.00     0.000 C 
BRANCH   6   7
ATOM      7  C   UNL     1      -4.488   4.273  -8.918  1.00  0.00    -0.003 C 
ATOM      8  C   UNL     1      -4.894   2.852  -9.309  1.00  0.00     0.004 C 
ENDBRANCH   6   7
ENDBRANCH   1   6
TORSDOF 4
ENDMDL
