MODEL 1
REMARK VINA RESULT:    -5.498      0.000      0.000
REMARK INTER + INTRA:          -7.459
REMARK INTER:                  -6.783
REMARK INTRA:                  -0.675
REMARK UNBOUND:                -0.675
REMARK SMILES CC(C)=CCC[C@H](C)c1ccc(C)cc1
REMARK SMILES IDX 6 1 7 2 8 3 9 4 13 5 12 6 11 7 14 8 10 9 15 10 5 11 4 12
REMARK SMILES IDX 2 13 1 14 3 15
REMARK H PARENT
REMARK Flexibility Score: inf
ROOT
ATOM      1  C   UNL     1      11.625 -26.781  13.043  1.00  0.00     0.012 C 
ENDROOT
BRANCH   1   2
ATOM      2  C   UNL     1      10.655 -27.542  13.979  1.00  0.00     0.016 C 
ATOM      3  C   UNL     1       9.874 -28.645  13.250  1.00  0.00     0.013 C 
BRANCH   2   4
ATOM      4  C   UNL     1       9.698 -26.569  14.644  1.00  0.00    -0.045 A 
ATOM      5  C   UNL     1       6.982 -23.814  16.565  1.00  0.00     0.044 C 
ATOM      6  C   UNL     1       7.948 -24.749  15.899  1.00  0.00    -0.051 A 
ATOM      7  C   UNL     1       8.026 -24.803  14.500  1.00  0.00     0.004 A 
ATOM      8  C   UNL     1       8.730 -25.622  16.668  1.00  0.00     0.004 A 
ATOM      9  C   UNL     1       8.899 -25.700  13.878  1.00  0.00     0.004 A 
ATOM     10  C   UNL     1       9.603 -26.519  16.047  1.00  0.00     0.004 A 
ENDBRANCH   2   4
ENDBRANCH   1   2
BRANCH   1  11
ATOM     11  C   UNL     1      12.621 -25.867  13.786  1.00  0.00     0.028 C 
BRANCH  11  12
ATOM     12  C   UNL     1      13.032 -24.673  12.957  1.00  0.00    -0.028 C 
ATOM     13  C   UNL     1      14.304 -24.393  12.597  1.00  0.00    -0.080 C 
ATOM     14  C   UNL     1      14.563 -23.153  11.781  1.00  0.00     0.039 C 
ATOM     15  C   UNL     1      15.459 -25.299  12.959  1.00  0.00     0.039 C 
ENDBRANCH  11  12
ENDBRANCH   1  11
TORSDOF 4
ENDMDL
MODEL 2
REMARK VINA RESULT:    -5.477      0.118      1.256
REMARK INTER + INTRA:          -7.433
REMARK INTER:                  -6.747
REMARK INTRA:                  -0.687
REMARK UNBOUND:                -0.675
REMARK SMILES CC(C)=CCC[C@H](C)c1ccc(C)cc1
REMARK SMILES IDX 6 1 7 2 8 3 9 4 13 5 12 6 11 7 14 8 10 9 15 10 5 11 4 12
REMARK SMILES IDX 2 13 1 14 3 15
REMARK H PARENT
REMARK Flexibility Score: inf
ROOT
ATOM      1  C   UNL     1      11.601 -26.853  13.067  1.00  0.00     0.012 C 
ENDROOT
BRANCH   1   2
ATOM      2  C   UNL     1      10.616 -27.595  14.001  1.00  0.00     0.016 C 
ATOM      3  C   UNL     1       9.845 -28.711  13.280  1.00  0.00     0.013 C 
BRANCH   2   4
ATOM      4  C   UNL     1       9.649 -26.608  14.632  1.00  0.00    -0.045 A 
ATOM      5  C   UNL     1       6.892 -23.791  16.398  1.00  0.00     0.044 C 
ATOM      6  C   UNL     1       7.827 -24.791  15.785  1.00  0.00    -0.051 A 
ATOM      7  C   UNL     1       8.639 -25.590  16.602  1.00  0.00     0.004 A 
ATOM      8  C   UNL     1       7.944 -24.887  14.391  1.00  0.00     0.004 A 
ATOM      9  C   UNL     1       9.538 -26.496  16.031  1.00  0.00     0.004 A 
ATOM     10  C   UNL     1       8.841 -25.793  13.819  1.00  0.00     0.004 A 
ENDBRANCH   2   4
ENDBRANCH   1   2
BRANCH   1  11
ATOM     11  C   UNL     1      12.535 -25.868  13.800  1.00  0.00     0.028 C 
BRANCH  11  12
ATOM     12  C   UNL     1      12.934 -24.700  12.930  1.00  0.00    -0.028 C 
ATOM     13  C   UNL     1      14.203 -24.421  12.558  1.00  0.00    -0.080 C 
ATOM     14  C   UNL     1      14.449 -23.208  11.699  1.00  0.00     0.039 C 
ATOM     15  C   UNL     1      15.367 -25.304  12.949  1.00  0.00     0.039 C 
ENDBRANCH  11  12
ENDBRANCH   1  11
TORSDOF 4
ENDMDL
MODEL 3
REMARK VINA RESULT:    -5.450      0.997      5.885
REMARK INTER + INTRA:          -7.399
REMARK INTER:                  -6.685
REMARK INTRA:                  -0.715
REMARK UNBOUND:                -0.675
REMARK SMILES CC(C)=CCC[C@H](C)c1ccc(C)cc1
REMARK SMILES IDX 6 1 7 2 8 3 9 4 13 5 12 6 11 7 14 8 10 9 15 10 5 11 4 12
REMARK SMILES IDX 2 13 1 14 3 15
REMARK H PARENT
REMARK Flexibility Score: inf
ROOT
ATOM      1  C   UNL     1      11.141 -26.979  15.019  1.00  0.00     0.012 C 
ENDROOT
BRANCH   1   2
ATOM      2  C   UNL     1      11.315 -26.762  13.497  1.00  0.00     0.016 C 
ATOM      3  C   UNL     1      11.305 -28.081  12.708  1.00  0.00     0.013 C 
BRANCH   2   4
ATOM      4  C   UNL     1      12.593 -25.990  13.220  1.00  0.00    -0.045 A 
ATOM      5  C   UNL     1      16.244 -23.819  12.441  1.00  0.00     0.044 C 
ATOM      6  C   UNL     1      14.976 -24.583  12.682  1.00  0.00    -0.051 A 
ATOM      7  C   UNL     1      13.733 -23.956  12.517  1.00  0.00     0.004 A 
ATOM      8  C   UNL     1      15.025 -25.907  13.138  1.00  0.00     0.004 A 
ATOM      9  C   UNL     1      12.551 -24.655  12.776  1.00  0.00     0.004 A 
ATOM     10  C   UNL     1      13.844 -26.608  13.397  1.00  0.00     0.004 A 
ENDBRANCH   2   4
ENDBRANCH   1   2
BRANCH   1  11
ATOM     11  C   UNL     1       9.669 -27.057  15.474  1.00  0.00     0.028 C 
BRANCH  11  12
ATOM     12  C   UNL     1       8.770 -26.150  14.669  1.00  0.00    -0.028 C 
ATOM     13  C   UNL     1       8.119 -25.077  15.169  1.00  0.00    -0.080 C 
ATOM     14  C   UNL     1       7.240 -24.275  14.244  1.00  0.00     0.039 C 
ATOM     15  C   UNL     1       8.272 -24.645  16.610  1.00  0.00     0.039 C 
ENDBRANCH  11  12
ENDBRANCH   1  11
TORSDOF 4
ENDMDL
MODEL 4
REMARK VINA RESULT:    -5.440      1.066      6.137
REMARK INTER + INTRA:          -7.388
REMARK INTER:                  -6.795
REMARK INTRA:                  -0.593
REMARK UNBOUND:                -0.675
REMARK SMILES CC(C)=CCC[C@H](C)c1ccc(C)cc1
REMARK SMILES IDX 6 1 7 2 8 3 9 4 13 5 12 6 11 7 14 8 10 9 15 10 5 11 4 12
REMARK SMILES IDX 2 13 1 14 3 15
REMARK H PARENT
REMARK Flexibility Score: inf
ROOT
ATOM      1  C   UNL     1      10.054 -25.376  13.820  1.00  0.00     0.012 C 
ENDROOT
BRANCH   1   2
ATOM      2  C   UNL     1      11.158 -26.440  13.620  1.00  0.00     0.016 C 
ATOM      3  C   UNL     1      11.316 -27.364  14.838  1.00  0.00     0.013 C 
BRANCH   2   4
ATOM      4  C   UNL     1      12.481 -25.770  13.292  1.00  0.00    -0.045 A 
ATOM      5  C   UNL     1      16.256 -23.886  12.369  1.00  0.00     0.044 C 
ATOM      6  C   UNL     1      14.944 -24.551  12.660  1.00  0.00    -0.051 A 
ATOM      7  C   UNL     1      13.743 -23.845  12.493  1.00  0.00     0.004 A 
ATOM      8  C   UNL     1      14.910 -25.858  13.164  1.00  0.00     0.004 A 
ATOM      9  C   UNL     1      12.522 -24.451  12.800  1.00  0.00     0.004 A 
ATOM     10  C   UNL     1      13.689 -26.466  13.470  1.00  0.00     0.004 A 
ENDBRANCH   2   4
ENDBRANCH   1   2
BRANCH   1  11
ATOM     11  C   UNL     1       8.662 -25.968  14.118  1.00  0.00     0.028 C 
BRANCH  11  12
ATOM     12  C   UNL     1       7.749 -24.976  14.798  1.00  0.00    -0.028 C 
ATOM     13  C   UNL     1       7.727 -24.744  16.130  1.00  0.00    -0.080 C 
ATOM     14  C   UNL     1       6.747 -23.734  16.666  1.00  0.00     0.039 C 
ATOM     15  C   UNL     1       8.673 -25.442  17.081  1.00  0.00     0.039 C 
ENDBRANCH  11  12
ENDBRANCH   1  11
TORSDOF 4
ENDMDL
MODEL 5
REMARK VINA RESULT:    -5.154      1.498      5.704
REMARK INTER + INTRA:          -7.034
REMARK INTER:                  -5.951
REMARK INTRA:                  -1.083
REMARK UNBOUND:                -0.675
REMARK SMILES CC(C)=CCC[C@H](C)c1ccc(C)cc1
REMARK SMILES IDX 6 1 7 2 8 3 9 4 13 5 12 6 11 7 14 8 10 9 15 10 5 11 4 12
REMARK SMILES IDX 2 13 1 14 3 15
REMARK H PARENT
REMARK Flexibility Score: inf
ROOT
ATOM      1  C   UNL     1      12.346 -27.268  15.648  1.00  0.00     0.012 C 
ENDROOT
BRANCH   1   2
ATOM      2  C   UNL     1      13.053 -27.640  14.324  1.00  0.00     0.016 C 
ATOM      3  C   UNL     1      14.238 -28.595  14.534  1.00  0.00     0.013 C 
BRANCH   2   4
ATOM      4  C   UNL     1      13.510 -26.383  13.603  1.00  0.00    -0.045 A 
ATOM      5  C   UNL     1      14.837 -22.819  11.555  1.00  0.00     0.044 C 
ATOM      6  C   UNL     1      14.371 -24.071  12.239  1.00  0.00    -0.051 A 
ATOM      7  C   UNL     1      13.022 -24.224  12.587  1.00  0.00     0.004 A 
ATOM      8  C   UNL     1      15.292 -25.066  12.594  1.00  0.00     0.004 A 
ATOM      9  C   UNL     1      12.593 -25.373  13.257  1.00  0.00     0.004 A 
ATOM     10  C   UNL     1      14.864 -26.216  13.264  1.00  0.00     0.004 A 
ENDBRANCH   2   4
ENDBRANCH   1   2
BRANCH   1  11
ATOM     11  C   UNL     1      10.915 -27.832  15.772  1.00  0.00     0.028 C 
BRANCH  11  12
ATOM     12  C   UNL     1       9.867 -26.841  15.326  1.00  0.00    -0.028 C 
ATOM     13  C   UNL     1       9.273 -26.848  14.112  1.00  0.00    -0.080 C 
ATOM     14  C   UNL     1       8.254 -25.781  13.805  1.00  0.00     0.039 C 
ATOM     15  C   UNL     1       9.578 -27.906  13.076  1.00  0.00     0.039 C 
ENDBRANCH  11  12
ENDBRANCH   1  11
TORSDOF 4
ENDMDL
MODEL 6
REMARK VINA RESULT:    -5.140      2.970      5.356
REMARK INTER + INTRA:          -7.017
REMARK INTER:                  -5.644
REMARK INTRA:                  -1.373
REMARK UNBOUND:                -0.675
REMARK SMILES CC(C)=CCC[C@H](C)c1ccc(C)cc1
REMARK SMILES IDX 6 1 7 2 8 3 9 4 13 5 12 6 11 7 14 8 10 9 15 10 5 11 4 12
REMARK SMILES IDX 2 13 1 14 3 15
REMARK H PARENT
REMARK Flexibility Score: inf
ROOT
ATOM      1  C   UNL     1      14.594 -23.486  10.648  1.00  0.00     0.012 C 
ENDROOT
BRANCH   1   2
ATOM      2  C   UNL     1      14.848 -23.618  12.169  1.00  0.00     0.016 C 
ATOM      3  C   UNL     1      16.334 -23.813  12.505  1.00  0.00     0.013 C 
BRANCH   2   4
ATOM      4  C   UNL     1      14.023 -24.757  12.741  1.00  0.00    -0.045 A 
ATOM      5  C   UNL     1      11.702 -28.014  14.372  1.00  0.00     0.044 C 
ATOM      6  C   UNL     1      12.510 -26.871  13.834  1.00  0.00    -0.051 A 
ATOM      7  C   UNL     1      11.872 -25.711  13.373  1.00  0.00     0.004 A 
ATOM      8  C   UNL     1      13.904 -26.980  13.726  1.00  0.00     0.004 A 
ATOM      9  C   UNL     1      12.622 -24.660  12.838  1.00  0.00     0.004 A 
ATOM     10  C   UNL     1      14.655 -25.929  13.192  1.00  0.00     0.004 A 
ENDBRANCH   2   4
ENDBRANCH   1   2
BRANCH   1  11
ATOM     11  C   UNL     1      15.097 -24.690   9.825  1.00  0.00     0.028 C 
BRANCH  11  12
ATOM     12  C   UNL     1      13.973 -25.607   9.403  1.00  0.00    -0.028 C 
ATOM     13  C   UNL     1      13.998 -26.953   9.523  1.00  0.00    -0.080 C 
ATOM     14  C   UNL     1      12.805 -27.738   9.041  1.00  0.00     0.039 C 
ATOM     15  C   UNL     1      15.164 -27.682  10.150  1.00  0.00     0.039 C 
ENDBRANCH  11  12
ENDBRANCH   1  11
TORSDOF 4
ENDMDL
MODEL 7
REMARK VINA RESULT:    -5.050      1.621      2.633
REMARK INTER + INTRA:          -6.907
REMARK INTER:                  -5.851
REMARK INTRA:                  -1.056
REMARK UNBOUND:                -0.675
REMARK SMILES CC(C)=CCC[C@H](C)c1ccc(C)cc1
REMARK SMILES IDX 6 1 7 2 8 3 9 4 13 5 12 6 11 7 14 8 10 9 15 10 5 11 4 12
REMARK SMILES IDX 2 13 1 14 3 15
REMARK H PARENT
REMARK Flexibility Score: inf
ROOT
ATOM      1  C   UNL     1      13.230 -27.725  11.409  1.00  0.00     0.012 C 
ENDROOT
BRANCH   1   2
ATOM      2  C   UNL     1      12.983 -27.667  12.935  1.00  0.00     0.016 C 
ATOM      3  C   UNL     1      13.179 -29.029  13.618  1.00  0.00     0.013 C 
BRANCH   2   4
ATOM      4  C   UNL     1      11.593 -27.127  13.221  1.00  0.00    -0.045 A 
ATOM      5  C   UNL     1       7.626 -25.621  14.027  1.00  0.00     0.044 C 
ATOM      6  C   UNL     1       9.006 -26.152  13.777  1.00  0.00    -0.051 A 
ATOM      7  C   UNL     1      10.116 -25.300  13.864  1.00  0.00     0.004 A 
ATOM      8  C   UNL     1       9.191 -27.486  13.389  1.00  0.00     0.004 A 
ATOM      9  C   UNL     1      11.399 -25.784  13.596  1.00  0.00     0.004 A 
ATOM     10  C   UNL     1      10.473 -27.972  13.122  1.00  0.00     0.004 A 
ENDBRANCH   2   4
ENDBRANCH   1   2
BRANCH   1  11
ATOM     11  C   UNL     1      14.464 -26.924  10.945  1.00  0.00     0.028 C 
BRANCH  11  12
ATOM     12  C   UNL     1      14.233 -25.432  10.997  1.00  0.00    -0.028 C 
ATOM     13  C   UNL     1      14.767 -24.607  11.924  1.00  0.00    -0.080 C 
ATOM     14  C   UNL     1      14.431 -23.139  11.858  1.00  0.00     0.039 C 
ATOM     15  C   UNL     1      15.707 -25.106  12.997  1.00  0.00     0.039 C 
ENDBRANCH  11  12
ENDBRANCH   1  11
TORSDOF 4
ENDMDL
MODEL 8
REMARK VINA RESULT:    -5.026      1.420      5.615
REMARK INTER + INTRA:          -6.877
REMARK INTER:                  -5.683
REMARK INTRA:                  -1.194
REMARK UNBOUND:                -0.675
REMARK SMILES CC(C)=CCC[C@H](C)c1ccc(C)cc1
REMARK SMILES IDX 6 1 7 2 8 3 9 4 13 5 12 6 11 7 14 8 10 9 15 10 5 11 4 12
REMARK SMILES IDX 2 13 1 14 3 15
REMARK H PARENT
REMARK Flexibility Score: inf
ROOT
ATOM      1  C   UNL     1      10.984 -28.605  12.086  1.00  0.00     0.012 C 
ENDROOT
BRANCH   1   2
ATOM      2  C   UNL     1      12.430 -28.483  12.622  1.00  0.00     0.016 C 
ATOM      3  C   UNL     1      12.539 -28.832  14.114  1.00  0.00     0.013 C 
BRANCH   2   4
ATOM      4  C   UNL     1      12.968 -27.086  12.367  1.00  0.00    -0.045 A 
ATOM      5  C   UNL     1      14.513 -23.123  11.616  1.00  0.00     0.044 C 
ATOM      6  C   UNL     1      13.952 -24.492  11.860  1.00  0.00    -0.051 A 
ATOM      7  C   UNL     1      13.152 -24.737  12.985  1.00  0.00     0.004 A 
ATOM      8  C   UNL     1      14.276 -25.552  11.001  1.00  0.00     0.004 A 
ATOM      9  C   UNL     1      12.658 -26.020  13.233  1.00  0.00     0.004 A 
ATOM     10  C   UNL     1      13.782 -26.836  11.248  1.00  0.00     0.004 A 
ENDBRANCH   2   4
ENDBRANCH   1   2
BRANCH   1  11
ATOM     11  C   UNL     1       9.904 -28.564  13.187  1.00  0.00     0.028 C 
BRANCH  11  12
ATOM     12  C   UNL     1       9.211 -27.224  13.260  1.00  0.00    -0.028 C 
ATOM     13  C   UNL     1       9.188 -26.434  14.357  1.00  0.00    -0.080 C 
ATOM     14  C   UNL     1       8.438 -25.129  14.285  1.00  0.00     0.039 C 
ATOM     15  C   UNL     1       9.914 -26.806  15.630  1.00  0.00     0.039 C 
ENDBRANCH  11  12
ENDBRANCH   1  11
TORSDOF 4
ENDMDL
MODEL 9
REMARK VINA RESULT:    -4.999      2.845      7.198
REMARK INTER + INTRA:          -6.843
REMARK INTER:                  -6.350
REMARK INTRA:                  -0.493
REMARK UNBOUND:                -0.675
REMARK SMILES CC(C)=CCC[C@H](C)c1ccc(C)cc1
REMARK SMILES IDX 6 1 7 2 8 3 9 4 13 5 12 6 11 7 14 8 10 9 15 10 5 11 4 12
REMARK SMILES IDX 2 13 1 14 3 15
REMARK H PARENT
REMARK Flexibility Score: inf
ROOT
ATOM      1  C   UNL     1      12.875 -24.725  12.751  1.00  0.00     0.012 C 
ENDROOT
BRANCH   1   2
ATOM      2  C   UNL     1      14.279 -25.233  12.344  1.00  0.00     0.016 C 
ATOM      3  C   UNL     1      15.396 -24.249  12.723  1.00  0.00     0.013 C 
BRANCH   2   4
ATOM      4  C   UNL     1      14.318 -25.529  10.855  1.00  0.00    -0.045 A 
ATOM      5  C   UNL     1      14.414 -26.396   6.625  1.00  0.00     0.044 C 
ATOM      6  C   UNL     1      14.356 -26.076   8.089  1.00  0.00    -0.051 A 
ATOM      7  C   UNL     1      15.103 -25.009   8.608  1.00  0.00     0.004 A 
ATOM      8  C   UNL     1      13.608 -26.882   8.959  1.00  0.00     0.004 A 
ATOM      9  C   UNL     1      15.079 -24.733   9.978  1.00  0.00     0.004 A 
ATOM     10  C   UNL     1      13.583 -26.606  10.329  1.00  0.00     0.004 A 
ENDBRANCH   2   4
ENDBRANCH   1   2
BRANCH   1  11
ATOM     11  C   UNL     1      12.029 -25.767  13.510  1.00  0.00     0.028 C 
BRANCH  11  12
ATOM     12  C   UNL     1      10.565 -25.399  13.550  1.00  0.00    -0.028 C 
ATOM     13  C   UNL     1       9.577 -26.233  13.943  1.00  0.00    -0.080 C 
ATOM     14  C   UNL     1       8.157 -25.728  13.914  1.00  0.00     0.039 C 
ATOM     15  C   UNL     1       9.858 -27.634  14.437  1.00  0.00     0.039 C 
ENDBRANCH  11  12
ENDBRANCH   1  11
TORSDOF 4
ENDMDL
