MODEL 1
REMARK VINA RESULT:     4.195      0.000      0.000
REMARK INTER + INTRA:           7.124
REMARK INTER:                   7.138
REMARK INTRA:                  -0.014
REMARK UNBOUND:                -0.014
REMARK SMILES CCCCCCCCCCCCCC(=O)[O-]
REMARK SMILES IDX 8 1 9 2 10 3 11 4 12 5 13 6 14 7 15 8 16 9 7 10 6 11 5 12
REMARK SMILES IDX 4 13 3 14 2 15 1 16
REMARK H PARENT
REMARK Flexibility Score: inf
ROOT
ATOM      1  C   UNL     1      -5.241 -16.212   6.247  1.00  0.00     0.000 C 
ENDROOT
BRANCH   1   2
ATOM      2  C   UNL     1      -6.424 -16.079   7.217  1.00  0.00     0.000 C 
BRANCH   2   3
ATOM      3  C   UNL     1      -6.826 -14.617   7.462  1.00  0.00     0.000 C 
BRANCH   3   4
ATOM      4  C   UNL     1      -6.801 -13.815   6.156  1.00  0.00     0.000 C 
BRANCH   4   5
ATOM      5  C   UNL     1      -5.933 -12.556   6.299  1.00  0.00     0.006 C 
BRANCH   5   6
ATOM      6  C   UNL     1      -4.450 -12.894   6.508  1.00  0.00     0.053 C 
BRANCH   6   7
ATOM      7  C   UNL     1      -3.881 -12.185   7.698  1.00  0.00     0.041 C 
ATOM      8  O   UNL     1      -3.869 -10.927   7.741  1.00  0.00    -0.550 OA
ATOM      9  O   UNL     1      -3.391 -12.914   8.776  1.00  0.00    -0.550 OA
ENDBRANCH   6   7
ENDBRANCH   5   6
ENDBRANCH   4   5
ENDBRANCH   3   4
ENDBRANCH   2   3
ENDBRANCH   1   2
BRANCH   1  10
ATOM     10  C   UNL     1      -4.029 -16.916   6.885  1.00  0.00     0.000 C 
BRANCH  10  11
ATOM     11  C   UNL     1      -2.941 -15.926   7.328  1.00  0.00    -0.000 C 
BRANCH  11  12
ATOM     12  C   UNL     1      -2.434 -15.046   6.172  1.00  0.00    -0.000 C 
BRANCH  12  13
ATOM     13  C   UNL     1      -1.239 -14.162   6.590  1.00  0.00    -0.000 C 
BRANCH  13  14
ATOM     14  C   UNL     1      -0.831 -14.332   8.066  1.00  0.00    -0.000 C 
BRANCH  14  15
ATOM     15  C   UNL     1       0.537 -13.733   8.429  1.00  0.00    -0.003 C 
ATOM     16  C   UNL     1       1.523 -14.777   8.952  1.00  0.00     0.004 C 
ENDBRANCH  14  15
ENDBRANCH  13  14
ENDBRANCH  12  13
ENDBRANCH  11  12
ENDBRANCH  10  11
ENDBRANCH   1  10
TORSDOF 12
ENDMDL
MODEL 2
REMARK VINA RESULT:     4.442      2.225      5.412
REMARK INTER + INTRA:           7.544
REMARK INTER:                   8.226
REMARK INTRA:                  -0.682
REMARK UNBOUND:                -0.014
REMARK SMILES CCCCCCCCCCCCCC(=O)[O-]
REMARK SMILES IDX 8 1 9 2 10 3 11 4 12 5 13 6 14 7 15 8 16 9 7 10 6 11 5 12
REMARK SMILES IDX 4 13 3 14 2 15 1 16
REMARK H PARENT
REMARK Flexibility Score: inf
ROOT
ATOM      1  C   UNL     1      -3.657 -12.858   7.206  1.00  0.00     0.000 C 
ENDROOT
BRANCH   1   2
ATOM      2  C   UNL     1      -3.150 -13.499   5.905  1.00  0.00     0.000 C 
BRANCH   2   3
ATOM      3  C   UNL     1      -1.901 -14.366   6.121  1.00  0.00     0.000 C 
BRANCH   3   4
ATOM      4  C   UNL     1      -1.843 -14.898   7.557  1.00  0.00     0.000 C 
BRANCH   4   5
ATOM      5  C   UNL     1      -1.074 -13.932   8.472  1.00  0.00     0.006 C 
BRANCH   5   6
ATOM      6  C   UNL     1       0.409 -13.827   8.090  1.00  0.00     0.053 C 
BRANCH   6   7
ATOM      7  C   UNL     1       1.271 -14.683   8.965  1.00  0.00     0.041 C 
ATOM      8  O   UNL     1       2.117 -15.462   8.454  1.00  0.00    -0.550 OA
ATOM      9  O   UNL     1       1.164 -14.596  10.349  1.00  0.00    -0.550 OA
ENDBRANCH   6   7
ENDBRANCH   5   6
ENDBRANCH   4   5
ENDBRANCH   3   4
ENDBRANCH   2   3
ENDBRANCH   1   2
BRANCH   1  10
ATOM     10  C   UNL     1      -5.168 -12.568   7.174  1.00  0.00     0.000 C 
BRANCH  10  11
ATOM     11  C   UNL     1      -5.832 -13.052   5.875  1.00  0.00    -0.000 C 
BRANCH  11  12
ATOM     12  C   UNL     1      -6.986 -14.037   6.132  1.00  0.00    -0.000 C 
BRANCH  12  13
ATOM     13  C   UNL     1      -6.742 -14.911   7.382  1.00  0.00    -0.000 C 
BRANCH  13  14
ATOM     14  C   UNL     1      -6.308 -16.352   7.053  1.00  0.00    -0.000 C 
BRANCH  14  15
ATOM     15  C   UNL     1      -4.890 -16.481   6.473  1.00  0.00    -0.003 C 
ATOM     16  C   UNL     1      -3.939 -17.246   7.393  1.00  0.00     0.004 C 
ENDBRANCH  14  15
ENDBRANCH  13  14
ENDBRANCH  12  13
ENDBRANCH  11  12
ENDBRANCH  10  11
ENDBRANCH   1  10
TORSDOF 12
ENDMDL
MODEL 3
REMARK VINA RESULT:     4.484      2.187      5.161
REMARK INTER + INTRA:           7.615
REMARK INTER:                   8.768
REMARK INTRA:                  -1.153
REMARK UNBOUND:                -0.014
REMARK SMILES CCCCCCCCCCCCCC(=O)[O-]
REMARK SMILES IDX 8 1 9 2 10 3 11 4 12 5 13 6 14 7 15 8 16 9 7 10 6 11 5 12
REMARK SMILES IDX 4 13 3 14 2 15 1 16
REMARK H PARENT
REMARK Flexibility Score: inf
ROOT
ATOM      1  C   UNL     1      -4.957 -12.606   7.184  1.00  0.00     0.000 C 
ENDROOT
BRANCH   1   2
ATOM      2  C   UNL     1      -3.498 -13.050   7.378  1.00  0.00     0.000 C 
BRANCH   2   3
ATOM      3  C   UNL     1      -2.960 -13.847   6.181  1.00  0.00     0.000 C 
BRANCH   3   4
ATOM      4  C   UNL     1      -1.554 -14.388   6.468  1.00  0.00     0.000 C 
BRANCH   4   5
ATOM      5  C   UNL     1      -1.219 -14.284   7.964  1.00  0.00     0.006 C 
BRANCH   5   6
ATOM      6  C   UNL     1       0.191 -13.730   8.207  1.00  0.00     0.053 C 
BRANCH   6   7
ATOM      7  C   UNL     1       1.061 -14.715   8.924  1.00  0.00     0.041 C 
ATOM      8  O   UNL     1       1.033 -14.788  10.180  1.00  0.00    -0.550 OA
ATOM      9  O   UNL     1       1.879 -15.578   8.203  1.00  0.00    -0.550 OA
ENDBRANCH   6   7
ENDBRANCH   5   6
ENDBRANCH   4   5
ENDBRANCH   3   4
ENDBRANCH   2   3
ENDBRANCH   1   2
BRANCH   1  10
ATOM     10  C   UNL     1      -5.568 -13.138   5.875  1.00  0.00     0.000 C 
BRANCH  10  11
ATOM     11  C   UNL     1      -6.834 -13.974   6.115  1.00  0.00    -0.000 C 
BRANCH  11  12
ATOM     12  C   UNL     1      -6.805 -14.719   7.461  1.00  0.00    -0.000 C 
BRANCH  12  13
ATOM     13  C   UNL     1      -6.456 -16.214   7.295  1.00  0.00    -0.000 C 
BRANCH  13  14
ATOM     14  C   UNL     1      -5.185 -16.462   6.459  1.00  0.00    -0.000 C 
BRANCH  14  15
ATOM     15  C   UNL     1      -3.936 -16.823   7.278  1.00  0.00    -0.003 C 
ATOM     16  C   UNL     1      -3.041 -17.845   6.577  1.00  0.00     0.004 C 
ENDBRANCH  14  15
ENDBRANCH  13  14
ENDBRANCH  12  13
ENDBRANCH  11  12
ENDBRANCH  10  11
ENDBRANCH   1  10
TORSDOF 12
ENDMDL
MODEL 4
REMARK VINA RESULT:     4.775      1.718      4.381
REMARK INTER + INTRA:           8.111
REMARK INTER:                   8.583
REMARK INTRA:                  -0.473
REMARK UNBOUND:                -0.014
REMARK SMILES CCCCCCCCCCCCCC(=O)[O-]
REMARK SMILES IDX 8 1 9 2 10 3 11 4 12 5 13 6 14 7 15 8 16 9 7 10 6 11 5 12
REMARK SMILES IDX 4 13 3 14 2 15 1 16
REMARK H PARENT
REMARK Flexibility Score: inf
ROOT
ATOM      1  C   UNL     1      -5.319 -16.203   6.246  1.00  0.00     0.000 C 
ENDROOT
BRANCH   1   2
ATOM      2  C   UNL     1      -4.069 -16.944   6.746  1.00  0.00     0.000 C 
BRANCH   2   3
ATOM      3  C   UNL     1      -2.992 -15.989   7.284  1.00  0.00     0.000 C 
BRANCH   3   4
ATOM      4  C   UNL     1      -2.579 -14.970   6.216  1.00  0.00     0.000 C 
BRANCH   4   5
ATOM      5  C   UNL     1      -1.306 -14.219   6.635  1.00  0.00     0.006 C 
BRANCH   5   6
ATOM      6  C   UNL     1      -1.017 -14.358   8.136  1.00  0.00     0.053 C 
BRANCH   6   7
ATOM      7  C   UNL     1       0.410 -14.042   8.460  1.00  0.00     0.041 C 
ATOM      8  O   UNL     1       0.853 -12.875   8.295  1.00  0.00    -0.550 OA
ATOM      9  O   UNL     1       1.243 -15.028   8.975  1.00  0.00    -0.550 OA
ENDBRANCH   6   7
ENDBRANCH   5   6
ENDBRANCH   4   5
ENDBRANCH   3   4
ENDBRANCH   2   3
ENDBRANCH   1   2
BRANCH   1  10
ATOM     10  C   UNL     1      -6.421 -16.112   7.318  1.00  0.00     0.000 C 
BRANCH  10  11
ATOM     11  C   UNL     1      -7.059 -14.716   7.387  1.00  0.00    -0.000 C 
BRANCH  11  12
ATOM     12  C   UNL     1      -6.806 -13.885   6.117  1.00  0.00    -0.000 C 
BRANCH  12  13
ATOM     13  C   UNL     1      -5.994 -12.604   6.408  1.00  0.00    -0.000 C 
BRANCH  13  14
ATOM     14  C   UNL     1      -4.493 -12.863   6.637  1.00  0.00    -0.000 C 
BRANCH  14  15
ATOM     15  C   UNL     1      -3.982 -12.488   8.038  1.00  0.00    -0.003 C 
ATOM     16  C   UNL     1      -3.411 -11.072   8.102  1.00  0.00     0.004 C 
ENDBRANCH  14  15
ENDBRANCH  13  14
ENDBRANCH  12  13
ENDBRANCH  11  12
ENDBRANCH  10  11
ENDBRANCH   1  10
TORSDOF 12
ENDMDL
MODEL 5
REMARK VINA RESULT:     5.015      1.356      2.803
REMARK INTER + INTRA:           8.519
REMARK INTER:                   9.275
REMARK INTRA:                  -0.756
REMARK UNBOUND:                -0.014
REMARK SMILES CCCCCCCCCCCCCC(=O)[O-]
REMARK SMILES IDX 8 1 9 2 10 3 11 4 12 5 13 6 14 7 15 8 16 9 7 10 6 11 5 12
REMARK SMILES IDX 4 13 3 14 2 15 1 16
REMARK H PARENT
REMARK Flexibility Score: inf
ROOT
ATOM      1  C   UNL     1      -2.553 -16.125   6.872  1.00  0.00     0.000 C 
ENDROOT
BRANCH   1   2
ATOM      2  C   UNL     1      -3.836 -16.971   6.829  1.00  0.00     0.000 C 
BRANCH   2   3
ATOM      3  C   UNL     1      -5.058 -16.167   6.362  1.00  0.00     0.000 C 
BRANCH   3   4
ATOM      4  C   UNL     1      -6.164 -16.181   7.423  1.00  0.00     0.000 C 
BRANCH   4   5
ATOM      5  C   UNL     1      -7.112 -14.985   7.247  1.00  0.00     0.006 C 
BRANCH   5   6
ATOM      6  C   UNL     1      -6.835 -14.210   5.952  1.00  0.00     0.053 C 
BRANCH   6   7
ATOM      7  C   UNL     1      -6.321 -12.831   6.228  1.00  0.00     0.041 C 
ATOM      8  O   UNL     1      -5.188 -12.670   6.754  1.00  0.00    -0.550 OA
ATOM      9  O   UNL     1      -7.079 -11.720   5.875  1.00  0.00    -0.550 OA
ENDBRANCH   6   7
ENDBRANCH   5   6
ENDBRANCH   4   5
ENDBRANCH   3   4
ENDBRANCH   2   3
ENDBRANCH   1   2
BRANCH   1  10
ATOM     10  C   UNL     1      -2.762 -14.704   6.319  1.00  0.00     0.000 C 
BRANCH  10  11
ATOM     11  C   UNL     1      -1.721 -13.707   6.850  1.00  0.00    -0.000 C 
BRANCH  11  12
ATOM     12  C   UNL     1      -1.029 -14.202   8.132  1.00  0.00    -0.000 C 
BRANCH  12  13
ATOM     13  C   UNL     1       0.426 -13.696   8.243  1.00  0.00    -0.000 C 
BRANCH  13  14
ATOM     14  C   UNL     1       1.424 -14.778   8.699  1.00  0.00    -0.000 C 
BRANCH  14  15
ATOM     15  C   UNL     1       1.970 -14.591  10.124  1.00  0.00    -0.003 C 
ATOM     16  C   UNL     1       1.106 -15.272  11.185  1.00  0.00     0.004 C 
ENDBRANCH  14  15
ENDBRANCH  13  14
ENDBRANCH  12  13
ENDBRANCH  11  12
ENDBRANCH  10  11
ENDBRANCH   1  10
TORSDOF 12
ENDMDL
MODEL 6
REMARK VINA RESULT:     5.229      2.154      3.375
REMARK INTER + INTRA:           8.883
REMARK INTER:                   9.511
REMARK INTRA:                  -0.628
REMARK UNBOUND:                -0.014
REMARK SMILES CCCCCCCCCCCCCC(=O)[O-]
REMARK SMILES IDX 8 1 9 2 10 3 11 4 12 5 13 6 14 7 15 8 16 9 7 10 6 11 5 12
REMARK SMILES IDX 4 13 3 14 2 15 1 16
REMARK H PARENT
REMARK Flexibility Score: inf
ROOT
ATOM      1  C   UNL     1      -3.568 -12.753   7.290  1.00  0.00     0.000 C 
ENDROOT
BRANCH   1   2
ATOM      2  C   UNL     1      -5.073 -12.443   7.329  1.00  0.00     0.000 C 
BRANCH   2   3
ATOM      3  C   UNL     1      -5.749 -12.628   5.963  1.00  0.00     0.000 C 
BRANCH   3   4
ATOM      4  C   UNL     1      -7.007 -13.496   6.085  1.00  0.00     0.000 C 
BRANCH   4   5
ATOM      5  C   UNL     1      -6.740 -14.732   6.957  1.00  0.00     0.006 C 
BRANCH   5   6
ATOM      6  C   UNL     1      -5.927 -15.803   6.215  1.00  0.00     0.053 C 
BRANCH   6   7
ATOM      7  C   UNL     1      -5.590 -16.960   7.103  1.00  0.00     0.041 C 
ATOM      8  O   UNL     1      -6.507 -17.641   7.632  1.00  0.00    -0.550 OA
ATOM      9  O   UNL     1      -4.262 -17.308   7.321  1.00  0.00    -0.550 OA
ENDBRANCH   6   7
ENDBRANCH   5   6
ENDBRANCH   4   5
ENDBRANCH   3   4
ENDBRANCH   2   3
ENDBRANCH   1   2
BRANCH   1  10
ATOM     10  C   UNL     1      -3.129 -13.389   5.959  1.00  0.00     0.000 C 
BRANCH  10  11
ATOM     11  C   UNL     1      -2.102 -14.514   6.156  1.00  0.00    -0.000 C 
BRANCH  11  12
ATOM     12  C   UNL     1      -2.224 -15.193   7.531  1.00  0.00    -0.000 C 
BRANCH  12  13
ATOM     13  C   UNL     1      -1.317 -14.533   8.592  1.00  0.00    -0.000 C 
BRANCH  13  14
ATOM     14  C   UNL     1      -0.087 -13.821   7.996  1.00  0.00    -0.000 C 
BRANCH  14  15
ATOM     15  C   UNL     1       1.268 -14.379   8.462  1.00  0.00    -0.003 C 
ATOM     16  C   UNL     1       1.250 -14.839   9.920  1.00  0.00     0.004 C 
ENDBRANCH  14  15
ENDBRANCH  13  14
ENDBRANCH  12  13
ENDBRANCH  11  12
ENDBRANCH  10  11
ENDBRANCH   1  10
TORSDOF 12
ENDMDL
MODEL 7
REMARK VINA RESULT:     5.402      2.289      3.617
REMARK INTER + INTRA:           9.177
REMARK INTER:                   9.611
REMARK INTRA:                  -0.435
REMARK UNBOUND:                -0.014
REMARK SMILES CCCCCCCCCCCCCC(=O)[O-]
REMARK SMILES IDX 8 1 9 2 10 3 11 4 12 5 13 6 14 7 15 8 16 9 7 10 6 11 5 12
REMARK SMILES IDX 4 13 3 14 2 15 1 16
REMARK H PARENT
REMARK Flexibility Score: inf
ROOT
ATOM      1  C   UNL     1      -6.162 -12.737   6.066  1.00  0.00     0.000 C 
ENDROOT
BRANCH   1   2
ATOM      2  C   UNL     1      -6.972 -14.039   6.147  1.00  0.00     0.000 C 
BRANCH   2   3
ATOM      3  C   UNL     1      -6.796 -14.762   7.491  1.00  0.00     0.000 C 
BRANCH   3   4
ATOM      4  C   UNL     1      -6.519 -16.255   7.280  1.00  0.00     0.000 C 
BRANCH   4   5
ATOM      5  C   UNL     1      -5.432 -16.468   6.216  1.00  0.00     0.006 C 
BRANCH   5   6
ATOM      6  C   UNL     1      -4.019 -16.267   6.781  1.00  0.00     0.053 C 
BRANCH   6   7
ATOM      7  C   UNL     1      -3.391 -17.564   7.186  1.00  0.00     0.041 C 
ATOM      8  O   UNL     1      -3.577 -18.024   8.343  1.00  0.00    -0.550 OA
ATOM      9  O   UNL     1      -2.627 -18.284   6.275  1.00  0.00    -0.550 OA
ENDBRANCH   6   7
ENDBRANCH   5   6
ENDBRANCH   4   5
ENDBRANCH   3   4
ENDBRANCH   2   3
ENDBRANCH   1   2
BRANCH   1  10
ATOM     10  C   UNL     1      -4.658 -12.960   6.306  1.00  0.00     0.000 C 
BRANCH  10  11
ATOM     11  C   UNL     1      -4.205 -12.476   7.692  1.00  0.00    -0.000 C 
BRANCH  11  12
ATOM     12  C   UNL     1      -2.746 -12.853   8.004  1.00  0.00    -0.000 C 
BRANCH  12  13
ATOM     13  C   UNL     1      -2.240 -14.012   7.119  1.00  0.00    -0.000 C 
BRANCH  13  14
ATOM     14  C   UNL     1      -0.996 -14.723   7.684  1.00  0.00    -0.000 C 
BRANCH  14  15
ATOM     15  C   UNL     1       0.086 -13.783   8.239  1.00  0.00    -0.003 C 
ATOM     16  C   UNL     1       1.209 -14.530   8.959  1.00  0.00     0.004 C 
ENDBRANCH  14  15
ENDBRANCH  13  14
ENDBRANCH  12  13
ENDBRANCH  11  12
ENDBRANCH  10  11
ENDBRANCH   1  10
TORSDOF 12
ENDMDL
MODEL 8
REMARK VINA RESULT:     5.538      2.111      3.528
REMARK INTER + INTRA:           9.409
REMARK INTER:                  10.361
REMARK INTRA:                  -0.952
REMARK UNBOUND:                -0.014
REMARK SMILES CCCCCCCCCCCCCC(=O)[O-]
REMARK SMILES IDX 8 1 9 2 10 3 11 4 12 5 13 6 14 7 15 8 16 9 7 10 6 11 5 12
REMARK SMILES IDX 4 13 3 14 2 15 1 16
REMARK H PARENT
REMARK Flexibility Score: inf
ROOT
ATOM      1  C   UNL     1      -2.296 -14.127   6.324  1.00  0.00     0.000 C 
ENDROOT
BRANCH   1   2
ATOM      2  C   UNL     1      -3.678 -13.628   5.877  1.00  0.00     0.000 C 
BRANCH   2   3
ATOM      3  C   UNL     1      -4.411 -12.850   6.979  1.00  0.00     0.000 C 
BRANCH   3   4
ATOM      4  C   UNL     1      -5.877 -12.608   6.600  1.00  0.00     0.000 C 
BRANCH   4   5
ATOM      5  C   UNL     1      -6.560 -13.917   6.176  1.00  0.00     0.006 C 
BRANCH   5   6
ATOM      6  C   UNL     1      -6.874 -14.822   7.375  1.00  0.00     0.053 C 
BRANCH   6   7
ATOM      7  C   UNL     1      -6.324 -16.202   7.189  1.00  0.00     0.041 C 
ATOM      8  O   UNL     1      -5.181 -16.366   6.687  1.00  0.00    -0.550 OA
ATOM      9  O   UNL     1      -7.058 -17.308   7.601  1.00  0.00    -0.550 OA
ENDBRANCH   6   7
ENDBRANCH   5   6
ENDBRANCH   4   5
ENDBRANCH   3   4
ENDBRANCH   2   3
ENDBRANCH   1   2
BRANCH   1  10
ATOM     10  C   UNL     1      -2.343 -14.874   7.670  1.00  0.00     0.000 C 
BRANCH  10  11
ATOM     11  C   UNL     1      -1.177 -14.493   8.595  1.00  0.00    -0.000 C 
BRANCH  11  12
ATOM     12  C   UNL     1      -0.171 -13.544   7.919  1.00  0.00    -0.000 C 
BRANCH  12  13
ATOM     13  C   UNL     1       1.288 -13.867   8.305  1.00  0.00    -0.000 C 
BRANCH  13  14
ATOM     14  C   UNL     1       1.428 -15.100   9.219  1.00  0.00    -0.000 C 
BRANCH  14  15
ATOM     15  C   UNL     1       2.001 -14.805  10.614  1.00  0.00    -0.003 C 
ATOM     16  C   UNL     1       1.086 -15.276  11.744  1.00  0.00     0.004 C 
ENDBRANCH  14  15
ENDBRANCH  13  14
ENDBRANCH  12  13
ENDBRANCH  11  12
ENDBRANCH  10  11
ENDBRANCH   1  10
TORSDOF 12
ENDMDL
MODEL 9
REMARK VINA RESULT:     6.098      2.588      6.123
REMARK INTER + INTRA:          10.362
REMARK INTER:                  11.456
REMARK INTRA:                  -1.095
REMARK UNBOUND:                -0.014
REMARK SMILES CCCCCCCCCCCCCC(=O)[O-]
REMARK SMILES IDX 8 1 9 2 10 3 11 4 12 5 13 6 14 7 15 8 16 9 7 10 6 11 5 12
REMARK SMILES IDX 4 13 3 14 2 15 1 16
REMARK H PARENT
REMARK Flexibility Score: inf
ROOT
ATOM      1  C   UNL     1      -2.496 -14.051   6.497  1.00  0.00     0.000 C 
ENDROOT
BRANCH   1   2
ATOM      2  C   UNL     1      -2.548 -13.682   7.987  1.00  0.00     0.000 C 
BRANCH   2   3
ATOM      3  C   UNL     1      -1.220 -13.952   8.710  1.00  0.00     0.000 C 
BRANCH   3   4
ATOM      4  C   UNL     1      -0.026 -13.582   7.822  1.00  0.00     0.000 C 
BRANCH   4   5
ATOM      5  C   UNL     1       1.302 -13.910   8.520  1.00  0.00     0.006 C 
BRANCH   5   6
ATOM      6  C   UNL     1       1.225 -15.208   9.334  1.00  0.00     0.053 C 
BRANCH   6   7
ATOM      7  C   UNL     1       1.817 -15.045  10.700  1.00  0.00     0.041 C 
ATOM      8  O   UNL     1       1.085 -15.127  11.721  1.00  0.00    -0.550 OA
ATOM      9  O   UNL     1       3.182 -14.833  10.848  1.00  0.00    -0.550 OA
ENDBRANCH   6   7
ENDBRANCH   5   6
ENDBRANCH   4   5
ENDBRANCH   3   4
ENDBRANCH   2   3
ENDBRANCH   1   2
BRANCH   1  10
ATOM     10  C   UNL     1      -2.787 -15.542   6.246  1.00  0.00     0.000 C 
BRANCH  10  11
ATOM     11  C   UNL     1      -3.856 -16.100   7.197  1.00  0.00    -0.000 C 
BRANCH  11  12
ATOM     12  C   UNL     1      -5.237 -16.221   6.531  1.00  0.00    -0.000 C 
BRANCH  12  13
ATOM     13  C   UNL     1      -6.327 -15.440   7.297  1.00  0.00    -0.000 C 
BRANCH  13  14
ATOM     14  C   UNL     1      -7.054 -14.388   6.438  1.00  0.00    -0.000 C 
BRANCH  14  15
ATOM     15  C   UNL     1      -6.155 -13.259   5.907  1.00  0.00    -0.003 C 
ATOM     16  C   UNL     1      -6.785 -11.875   6.067  1.00  0.00     0.004 C 
ENDBRANCH  14  15
ENDBRANCH  13  14
ENDBRANCH  12  13
ENDBRANCH  11  12
ENDBRANCH  10  11
ENDBRANCH   1  10
TORSDOF 12
ENDMDL
