MODEL 1
REMARK VINA RESULT:    -4.391      0.000      0.000
REMARK INTER + INTRA:          -5.553
REMARK INTER:                  -5.289
REMARK INTRA:                  -0.264
REMARK UNBOUND:                -0.264
REMARK SMILES NC(=O)C[C@H]([NH3+])C(=O)[O-]
REMARK SMILES IDX 4 1 5 2 6 3 7 7 8 8 9 9 2 10 3 11 1 12
REMARK H PARENT 6 4 6 5 6 6 1 13 1 14
REMARK Flexibility Score: inf
ROOT
ATOM      1  C   UNL     1     -23.455 -16.399 -14.397  1.00  0.00     0.171 C 
ENDROOT
BRANCH   1   2
ATOM      2  C   UNL     1     -24.394 -15.456 -15.175  1.00  0.00     0.237 C 
BRANCH   2   3
ATOM      3  N   UNL     1     -25.555 -16.176 -15.715  1.00  0.00    -0.350 N 
ATOM      4  H   UNL     1     -26.396 -15.553 -15.747  1.00  0.00     0.345 HD
ATOM      5  H   UNL     1     -25.768 -17.008 -15.119  1.00  0.00     0.345 HD
ATOM      6  H   UNL     1     -25.346 -16.520 -16.680  1.00  0.00     0.345 HD
ENDBRANCH   2   3
BRANCH   2   7
ATOM      7  C   UNL     1     -23.635 -14.782 -16.287  1.00  0.00     0.100 C 
ATOM      8  O   UNL     1     -22.750 -13.924 -16.027  1.00  0.00    -0.544 OA
ATOM      9  O   UNL     1     -23.922 -15.091 -17.610  1.00  0.00    -0.544 OA
ENDBRANCH   2   7
ENDBRANCH   1   2
BRANCH   1  10
ATOM     10  C   UNL     1     -23.974 -17.808 -14.379  1.00  0.00     0.223 C 
ATOM     11  O   UNL     1     -24.935 -18.110 -13.622  1.00  0.00    -0.275 OA
ATOM     12  N   UNL     1     -23.409 -18.800 -15.237  1.00  0.00    -0.369 N 
ATOM     13  H   UNL     1     -23.781 -19.776 -15.228  1.00  0.00     0.159 HD
ATOM     14  H   UNL     1     -22.629 -18.561 -15.887  1.00  0.00     0.159 HD
ENDBRANCH   1  10
TORSDOF 4
ENDMDL
MODEL 2
REMARK VINA RESULT:    -4.347      2.459      3.536
REMARK INTER + INTRA:          -5.501
REMARK INTER:                  -5.022
REMARK INTRA:                  -0.479
REMARK UNBOUND:                -0.264
REMARK SMILES NC(=O)C[C@H]([NH3+])C(=O)[O-]
REMARK SMILES IDX 4 1 5 2 6 3 7 7 8 8 9 9 2 10 3 11 1 12
REMARK H PARENT 6 4 6 5 6 6 1 13 1 14
REMARK Flexibility Score: inf
ROOT
ATOM      1  C   UNL     1     -23.821 -14.160 -14.994  1.00  0.00     0.171 C 
ENDROOT
BRANCH   1   2
ATOM      2  C   UNL     1     -22.284 -14.198 -14.890  1.00  0.00     0.237 C 
BRANCH   2   3
ATOM      3  N   UNL     1     -21.688 -14.974 -15.987  1.00  0.00    -0.350 N 
ATOM      4  H   UNL     1     -21.264 -14.339 -16.702  1.00  0.00     0.345 HD
ATOM      5  H   UNL     1     -22.421 -15.564 -16.444  1.00  0.00     0.345 HD
ATOM      6  H   UNL     1     -20.950 -15.614 -15.613  1.00  0.00     0.345 HD
ENDBRANCH   2   3
BRANCH   2   7
ATOM      7  C   UNL     1     -21.876 -14.776 -13.561  1.00  0.00     0.100 C 
ATOM      8  O   UNL     1     -20.945 -14.249 -12.895  1.00  0.00    -0.544 OA
ATOM      9  O   UNL     1     -22.514 -15.908 -13.071  1.00  0.00    -0.544 OA
ENDBRANCH   2   7
ENDBRANCH   1   2
BRANCH   1  10
ATOM     10  C   UNL     1     -24.347 -15.269 -15.859  1.00  0.00     0.223 C 
ATOM     11  O   UNL     1     -24.349 -15.137 -17.112  1.00  0.00    -0.275 OA
ATOM     12  N   UNL     1     -24.813 -16.485 -15.274  1.00  0.00    -0.369 N 
ATOM     13  H   UNL     1     -25.168 -17.258 -15.880  1.00  0.00     0.159 HD
ATOM     14  H   UNL     1     -24.797 -16.621 -14.239  1.00  0.00     0.159 HD
ENDBRANCH   1  10
TORSDOF 4
ENDMDL
MODEL 3
REMARK VINA RESULT:    -4.320      1.873      2.342
REMARK INTER + INTRA:          -5.468
REMARK INTER:                  -5.191
REMARK INTRA:                  -0.277
REMARK UNBOUND:                -0.264
REMARK SMILES NC(=O)C[C@H]([NH3+])C(=O)[O-]
REMARK SMILES IDX 4 1 5 2 6 3 7 7 8 8 9 9 2 10 3 11 1 12
REMARK H PARENT 6 4 6 5 6 6 1 13 1 14
REMARK Flexibility Score: inf
ROOT
ATOM      1  C   UNL     1     -23.192 -16.593 -13.909  1.00  0.00     0.171 C 
ENDROOT
BRANCH   1   2
ATOM      2  C   UNL     1     -23.129 -15.232 -14.630  1.00  0.00     0.237 C 
BRANCH   2   3
ATOM      3  N   UNL     1     -23.243 -15.388 -16.086  1.00  0.00    -0.350 N 
ATOM      4  H   UNL     1     -23.842 -16.213 -16.325  1.00  0.00     0.345 HD
ATOM      5  H   UNL     1     -22.295 -15.521 -16.506  1.00  0.00     0.345 HD
ATOM      6  H   UNL     1     -23.661 -14.527 -16.508  1.00  0.00     0.345 HD
ENDBRANCH   2   3
BRANCH   2   7
ATOM      7  C   UNL     1     -21.845 -14.528 -14.281  1.00  0.00     0.100 C 
ATOM      8  O   UNL     1     -21.216 -13.875 -15.155  1.00  0.00    -0.544 OA
ATOM      9  O   UNL     1     -21.336 -14.612 -12.991  1.00  0.00    -0.544 OA
ENDBRANCH   2   7
ENDBRANCH   1   2
BRANCH   1  10
ATOM     10  C   UNL     1     -24.034 -17.582 -14.662  1.00  0.00     0.223 C 
ATOM     11  O   UNL     1     -25.259 -17.350 -14.843  1.00  0.00    -0.275 OA
ATOM     12  N   UNL     1     -23.449 -18.767 -15.204  1.00  0.00    -0.369 N 
ATOM     13  H   UNL     1     -24.036 -19.447 -15.736  1.00  0.00     0.159 HD
ATOM     14  H   UNL     1     -22.431 -18.964 -15.083  1.00  0.00     0.159 HD
ENDBRANCH   1  10
TORSDOF 4
ENDMDL
MODEL 4
REMARK VINA RESULT:    -4.318      2.399      3.520
REMARK INTER + INTRA:          -5.465
REMARK INTER:                  -5.332
REMARK INTRA:                  -0.133
REMARK UNBOUND:                -0.264
REMARK SMILES NC(=O)C[C@H]([NH3+])C(=O)[O-]
REMARK SMILES IDX 4 1 5 2 6 3 7 7 8 8 9 9 2 10 3 11 1 12
REMARK H PARENT 6 4 6 5 6 6 1 13 1 14
REMARK Flexibility Score: inf
ROOT
ATOM      1  C   UNL     1     -23.143 -15.474 -13.736  1.00  0.00     0.171 C 
ENDROOT
BRANCH   1   2
ATOM      2  C   UNL     1     -23.745 -16.054 -15.031  1.00  0.00     0.237 C 
BRANCH   2   3
ATOM      3  N   UNL     1     -24.866 -15.238 -15.517  1.00  0.00    -0.350 N 
ATOM      4  H   UNL     1     -24.578 -14.671 -16.348  1.00  0.00     0.345 HD
ATOM      5  H   UNL     1     -25.192 -14.594 -14.760  1.00  0.00     0.345 HD
ATOM      6  H   UNL     1     -25.669 -15.852 -15.781  1.00  0.00     0.345 HD
ENDBRANCH   2   3
BRANCH   2   7
ATOM      7  C   UNL     1     -24.197 -17.471 -14.794  1.00  0.00     0.100 C 
ATOM      8  O   UNL     1     -23.411 -18.434 -14.998  1.00  0.00    -0.544 OA
ATOM      9  O   UNL     1     -25.494 -17.724 -14.367  1.00  0.00    -0.544 OA
ENDBRANCH   2   7
ENDBRANCH   1   2
BRANCH   1  10
ATOM     10  C   UNL     1     -21.679 -15.180 -13.887  1.00  0.00     0.223 C 
ATOM     11  O   UNL     1     -21.125 -14.352 -13.116  1.00  0.00    -0.275 OA
ATOM     12  N   UNL     1     -20.902 -15.857 -14.876  1.00  0.00    -0.369 N 
ATOM     13  H   UNL     1     -19.882 -15.657 -14.970  1.00  0.00     0.159 HD
ATOM     14  H   UNL     1     -21.340 -16.563 -15.507  1.00  0.00     0.159 HD
ENDBRANCH   1  10
TORSDOF 4
ENDMDL
MODEL 5
REMARK VINA RESULT:    -4.301      1.769      2.125
REMARK INTER + INTRA:          -5.445
REMARK INTER:                  -5.016
REMARK INTRA:                  -0.429
REMARK UNBOUND:                -0.264
REMARK SMILES NC(=O)C[C@H]([NH3+])C(=O)[O-]
REMARK SMILES IDX 4 1 5 2 6 3 7 7 8 8 9 9 2 10 3 11 1 12
REMARK H PARENT 6 4 6 5 6 6 1 13 1 14
REMARK Flexibility Score: inf
ROOT
ATOM      1  C   UNL     1     -23.502 -17.832 -14.574  1.00  0.00     0.171 C 
ENDROOT
BRANCH   1   2
ATOM      2  C   UNL     1     -22.913 -16.422 -14.368  1.00  0.00     0.237 C 
BRANCH   2   3
ATOM      3  N   UNL     1     -22.751 -16.109 -12.942  1.00  0.00    -0.350 N 
ATOM      4  H   UNL     1     -23.625 -16.334 -12.412  1.00  0.00     0.345 HD
ATOM      5  H   UNL     1     -22.531 -15.094 -12.824  1.00  0.00     0.345 HD
ATOM      6  H   UNL     1     -21.955 -16.657 -12.542  1.00  0.00     0.345 HD
ENDBRANCH   2   3
BRANCH   2   7
ATOM      7  C   UNL     1     -23.796 -15.398 -15.030  1.00  0.00     0.100 C 
ATOM      8  O   UNL     1     -23.886 -14.233 -14.559  1.00  0.00    -0.544 OA
ATOM      9  O   UNL     1     -24.533 -15.741 -16.156  1.00  0.00    -0.544 OA
ENDBRANCH   2   7
ENDBRANCH   1   2
BRANCH   1  10
ATOM     10  C   UNL     1     -24.729 -18.049 -13.738  1.00  0.00     0.223 C 
ATOM     11  O   UNL     1     -24.613 -18.266 -12.502  1.00  0.00    -0.275 OA
ATOM     12  N   UNL     1     -26.029 -17.978 -14.325  1.00  0.00    -0.369 N 
ATOM     13  H   UNL     1     -26.880 -18.118 -13.737  1.00  0.00     0.159 HD
ATOM     14  H   UNL     1     -26.144 -17.775 -15.342  1.00  0.00     0.159 HD
ENDBRANCH   1  10
TORSDOF 4
ENDMDL
MODEL 6
REMARK VINA RESULT:    -4.183      2.585      3.833
REMARK INTER + INTRA:          -5.303
REMARK INTER:                  -4.978
REMARK INTRA:                  -0.325
REMARK UNBOUND:                -0.264
REMARK SMILES NC(=O)C[C@H]([NH3+])C(=O)[O-]
REMARK SMILES IDX 4 1 5 2 6 3 7 7 8 8 9 9 2 10 3 11 1 12
REMARK H PARENT 6 4 6 5 6 6 1 13 1 14
REMARK Flexibility Score: inf
ROOT
ATOM      1  C   UNL     1     -23.174 -14.841 -13.735  1.00  0.00     0.171 C 
ENDROOT
BRANCH   1   2
ATOM      2  C   UNL     1     -23.314 -16.355 -13.989  1.00  0.00     0.237 C 
BRANCH   2   3
ATOM      3  N   UNL     1     -22.080 -16.923 -14.550  1.00  0.00    -0.350 N 
ATOM      4  H   UNL     1     -21.985 -17.932 -14.289  1.00  0.00     0.345 HD
ATOM      5  H   UNL     1     -21.251 -16.397 -14.191  1.00  0.00     0.345 HD
ATOM      6  H   UNL     1     -22.087 -16.836 -15.592  1.00  0.00     0.345 HD
ENDBRANCH   2   3
BRANCH   2   7
ATOM      7  C   UNL     1     -24.474 -16.614 -14.913  1.00  0.00     0.100 C 
ATOM      8  O   UNL     1     -24.779 -15.778 -15.805  1.00  0.00    -0.544 OA
ATOM      9  O   UNL     1     -25.228 -17.772 -14.772  1.00  0.00    -0.544 OA
ENDBRANCH   2   7
ENDBRANCH   1   2
BRANCH   1  10
ATOM     10  C   UNL     1     -21.774 -14.362 -13.986  1.00  0.00     0.223 C 
ATOM     11  O   UNL     1     -21.376 -14.185 -15.169  1.00  0.00    -0.275 OA
ATOM     12  N   UNL     1     -20.900 -14.073 -12.895  1.00  0.00    -0.369 N 
ATOM     13  H   UNL     1     -19.930 -13.730 -13.074  1.00  0.00     0.159 HD
ATOM     14  H   UNL     1     -21.220 -14.192 -11.909  1.00  0.00     0.159 HD
ENDBRANCH   1  10
TORSDOF 4
ENDMDL
MODEL 7
REMARK VINA RESULT:    -4.162      1.637      3.896
REMARK INTER + INTRA:          -5.278
REMARK INTER:                  -5.003
REMARK INTRA:                  -0.275
REMARK UNBOUND:                -0.264
REMARK SMILES NC(=O)C[C@H]([NH3+])C(=O)[O-]
REMARK SMILES IDX 4 1 5 2 6 3 7 7 8 8 9 9 2 10 3 11 1 12
REMARK H PARENT 6 4 6 5 6 6 1 13 1 14
REMARK Flexibility Score: inf
ROOT
ATOM      1  C   UNL     1     -24.267 -15.406 -15.171  1.00  0.00     0.171 C 
ENDROOT
BRANCH   1   2
ATOM      2  C   UNL     1     -23.578 -16.443 -14.262  1.00  0.00     0.237 C 
BRANCH   2   3
ATOM      3  N   UNL     1     -22.129 -16.492 -14.502  1.00  0.00    -0.350 N 
ATOM      4  H   UNL     1     -21.896 -16.096 -15.443  1.00  0.00     0.345 HD
ATOM      5  H   UNL     1     -21.794 -17.481 -14.453  1.00  0.00     0.345 HD
ATOM      6  H   UNL     1     -21.626 -15.947 -13.765  1.00  0.00     0.345 HD
ENDBRANCH   2   3
BRANCH   2   7
ATOM      7  C   UNL     1     -24.189 -17.802 -14.483  1.00  0.00     0.100 C 
ATOM      8  O   UNL     1     -23.505 -18.736 -14.980  1.00  0.00    -0.544 OA
ATOM      9  O   UNL     1     -25.519 -18.026 -14.156  1.00  0.00    -0.544 OA
ENDBRANCH   2   7
ENDBRANCH   1   2
BRANCH   1  10
ATOM     10  C   UNL     1     -23.314 -14.827 -16.176  1.00  0.00     0.223 C 
ATOM     11  O   UNL     1     -22.558 -13.875 -15.844  1.00  0.00    -0.275 OA
ATOM     12  N   UNL     1     -23.233 -15.369 -17.494  1.00  0.00    -0.369 N 
ATOM     13  H   UNL     1     -22.560 -14.971 -18.186  1.00  0.00     0.159 HD
ATOM     14  H   UNL     1     -23.834 -16.173 -17.779  1.00  0.00     0.159 HD
ENDBRANCH   1  10
TORSDOF 4
ENDMDL
MODEL 8
REMARK VINA RESULT:    -4.055      3.139      3.734
REMARK INTER + INTRA:          -5.149
REMARK INTER:                  -4.895
REMARK INTRA:                  -0.254
REMARK UNBOUND:                -0.264
REMARK SMILES NC(=O)C[C@H]([NH3+])C(=O)[O-]
REMARK SMILES IDX 4 1 5 2 6 3 7 7 8 8 9 9 2 10 3 11 1 12
REMARK H PARENT 6 4 6 5 6 6 1 13 1 14
REMARK Flexibility Score: inf
ROOT
ATOM      1  C   UNL     1     -21.578 -14.341 -15.132  1.00  0.00     0.171 C 
ENDROOT
BRANCH   1   2
ATOM      2  C   UNL     1     -22.848 -15.138 -14.775  1.00  0.00     0.237 C 
BRANCH   2   3
ATOM      3  N   UNL     1     -22.539 -16.549 -14.502  1.00  0.00    -0.350 N 
ATOM      4  H   UNL     1     -22.093 -16.655 -13.561  1.00  0.00     0.345 HD
ATOM      5  H   UNL     1     -21.890 -16.919 -15.233  1.00  0.00     0.345 HD
ATOM      6  H   UNL     1     -23.415 -17.120 -14.534  1.00  0.00     0.345 HD
ENDBRANCH   2   3
BRANCH   2   7
ATOM      7  C   UNL     1     -23.850 -15.031 -15.894  1.00  0.00     0.100 C 
ATOM      8  O   UNL     1     -25.083 -14.983 -15.644  1.00  0.00    -0.544 OA
ATOM      9  O   UNL     1     -23.416 -15.004 -17.213  1.00  0.00    -0.544 OA
ENDBRANCH   2   7
ENDBRANCH   1   2
BRANCH   1  10
ATOM     10  C   UNL     1     -20.684 -14.157 -13.940  1.00  0.00     0.223 C 
ATOM     11  O   UNL     1     -21.158 -14.280 -12.779  1.00  0.00    -0.275 OA
ATOM     12  N   UNL     1     -19.294 -13.877 -14.112  1.00  0.00    -0.369 N 
ATOM     13  H   UNL     1     -18.674 -13.761 -13.280  1.00  0.00     0.159 HD
ATOM     14  H   UNL     1     -18.881 -13.796 -15.067  1.00  0.00     0.159 HD
ENDBRANCH   1  10
TORSDOF 4
ENDMDL
MODEL 9
REMARK VINA RESULT:    -3.485      1.932      2.510
REMARK INTER + INTRA:          -4.462
REMARK INTER:                  -4.212
REMARK INTRA:                  -0.250
REMARK UNBOUND:                -0.264
REMARK SMILES NC(=O)C[C@H]([NH3+])C(=O)[O-]
REMARK SMILES IDX 4 1 5 2 6 3 7 7 8 8 9 9 2 10 3 11 1 12
REMARK H PARENT 6 4 6 5 6 6 1 13 1 14
REMARK Flexibility Score: inf
ROOT
ATOM      1  C   UNL     1     -23.554 -16.289 -14.761  1.00  0.00     0.171 C 
ENDROOT
BRANCH   1   2
ATOM      2  C   UNL     1     -22.240 -15.845 -14.089  1.00  0.00     0.237 C 
BRANCH   2   3
ATOM      3  N   UNL     1     -22.378 -15.777 -12.628  1.00  0.00    -0.350 N 
ATOM      4  H   UNL     1     -21.523 -15.357 -12.194  1.00  0.00     0.345 HD
ATOM      5  H   UNL     1     -22.522 -16.737 -12.238  1.00  0.00     0.345 HD
ATOM      6  H   UNL     1     -23.211 -15.200 -12.373  1.00  0.00     0.345 HD
ENDBRANCH   2   3
BRANCH   2   7
ATOM      7  C   UNL     1     -21.812 -14.509 -14.635  1.00  0.00     0.100 C 
ATOM      8  O   UNL     1     -22.457 -13.966 -15.571  1.00  0.00    -0.544 OA
ATOM      9  O   UNL     1     -20.690 -13.875 -14.118  1.00  0.00    -0.544 OA
ENDBRANCH   2   7
ENDBRANCH   1   2
BRANCH   1  10
ATOM     10  C   UNL     1     -23.907 -17.705 -14.410  1.00  0.00     0.223 C 
ATOM     11  O   UNL     1     -24.594 -17.942 -13.381  1.00  0.00    -0.275 OA
ATOM     12  N   UNL     1     -23.498 -18.784 -15.252  1.00  0.00    -0.369 N 
ATOM     13  H   UNL     1     -23.755 -19.767 -15.010  1.00  0.00     0.159 HD
ATOM     14  H   UNL     1     -22.949 -18.604 -16.121  1.00  0.00     0.159 HD
ENDBRANCH   1  10
TORSDOF 4
ENDMDL
