MODEL 1
REMARK VINA RESULT:     3.793      0.000      0.000
REMARK INTER + INTRA:           5.346
REMARK INTER:                   5.788
REMARK INTRA:                  -0.442
REMARK UNBOUND:                -0.442
REMARK SMILES O=C([O-])CCCCCCCCC(=O)[O-]
REMARK SMILES IDX 7 1 6 2 5 3 4 4 2 5 1 6 3 7 8 8 9 9 10 10 11 11 12 12 13 13
REMARK SMILES IDX 14 14
REMARK H PARENT
REMARK Flexibility Score: inf
ROOT
ATOM      1  C   UNL     1       4.916  -7.539  13.098  1.00  0.00     0.000 C 
ENDROOT
BRANCH   1   2
ATOM      2  C   UNL     1       5.677  -6.907  11.924  1.00  0.00     0.000 C 
BRANCH   2   3
ATOM      3  C   UNL     1       7.111  -6.537  12.334  1.00  0.00     0.006 C 
BRANCH   3   4
ATOM      4  C   UNL     1       7.403  -6.880  13.800  1.00  0.00     0.053 C 
BRANCH   4   5
ATOM      5  C   UNL     1       7.840  -5.675  14.575  1.00  0.00     0.041 C 
ATOM      6  O   UNL     1       9.056  -5.346  14.607  1.00  0.00    -0.550 OA
ATOM      7  O   UNL     1       6.908  -4.933  15.291  1.00  0.00    -0.550 OA
ENDBRANCH   4   5
ENDBRANCH   3   4
ENDBRANCH   2   3
ENDBRANCH   1   2
BRANCH   1   8
ATOM      8  C   UNL     1       3.688  -8.343  12.643  1.00  0.00     0.000 C 
BRANCH   8   9
ATOM      9  C   UNL     1       3.204  -7.939  11.239  1.00  0.00     0.000 C 
BRANCH   9  10
ATOM     10  C   UNL     1       2.084  -6.887  11.280  1.00  0.00     0.006 C 
BRANCH  10  11
ATOM     11  C   UNL     1       0.774  -7.444  11.853  1.00  0.00     0.053 C 
BRANCH  11  12
ATOM     12  C   UNL     1      -0.050  -8.060  10.766  1.00  0.00     0.041 C 
ATOM     13  O   UNL     1       0.194  -9.231  10.373  1.00  0.00    -0.550 OA
ATOM     14  O   UNL     1      -1.117  -7.359  10.221  1.00  0.00    -0.550 OA
ENDBRANCH  11  12
ENDBRANCH  10  11
ENDBRANCH   9  10
ENDBRANCH   8   9
ENDBRANCH   1   8
TORSDOF 9
ENDMDL
MODEL 2
REMARK VINA RESULT:     3.895      0.196      7.374
REMARK INTER + INTRA:           5.503
REMARK INTER:                   5.978
REMARK INTRA:                  -0.474
REMARK UNBOUND:                -0.442
REMARK SMILES O=C([O-])CCCCCCCCC(=O)[O-]
REMARK SMILES IDX 7 1 6 2 5 3 4 4 2 5 1 6 3 7 8 8 9 9 10 10 11 11 12 12 13 13
REMARK SMILES IDX 14 14
REMARK H PARENT
REMARK Flexibility Score: inf
ROOT
ATOM      1  C   UNL     1       3.653  -8.354  12.596  1.00  0.00     0.000 C 
ENDROOT
BRANCH   1   2
ATOM      2  C   UNL     1       3.244  -7.866  11.199  1.00  0.00     0.000 C 
BRANCH   2   3
ATOM      3  C   UNL     1       2.071  -6.878  11.283  1.00  0.00     0.006 C 
BRANCH   3   4
ATOM      4  C   UNL     1       0.805  -7.527  11.857  1.00  0.00     0.053 C 
BRANCH   4   5
ATOM      5  C   UNL     1      -0.124  -7.984  10.774  1.00  0.00     0.041 C 
ATOM      6  O   UNL     1      -0.203  -9.205  10.478  1.00  0.00    -0.550 OA
ATOM      7  O   UNL     1      -0.878  -7.055  10.067  1.00  0.00    -0.550 OA
ENDBRANCH   4   5
ENDBRANCH   3   4
ENDBRANCH   2   3
ENDBRANCH   1   2
BRANCH   1   8
ATOM      8  C   UNL     1       4.987  -7.754  13.065  1.00  0.00     0.000 C 
BRANCH   8   9
ATOM      9  C   UNL     1       5.731  -7.014  11.940  1.00  0.00     0.000 C 
BRANCH   9  10
ATOM     10  C   UNL     1       7.066  -6.414  12.409  1.00  0.00     0.006 C 
BRANCH  10  11
ATOM     11  C   UNL     1       7.413  -6.804  13.851  1.00  0.00     0.053 C 
BRANCH  11  12
ATOM     12  C   UNL     1       7.775  -5.590  14.647  1.00  0.00     0.041 C 
ATOM     13  O   UNL     1       6.887  -4.953  15.271  1.00  0.00    -0.550 OA
ATOM     14  O   UNL     1       9.102  -5.190  14.739  1.00  0.00    -0.550 OA
ENDBRANCH  11  12
ENDBRANCH  10  11
ENDBRANCH   9  10
ENDBRANCH   8   9
ENDBRANCH   1   8
TORSDOF 9
ENDMDL
MODEL 3
REMARK VINA RESULT:     3.994      0.940      7.170
REMARK INTER + INTRA:           5.653
REMARK INTER:                   6.125
REMARK INTRA:                  -0.472
REMARK UNBOUND:                -0.442
REMARK SMILES O=C([O-])CCCCCCCCC(=O)[O-]
REMARK SMILES IDX 7 1 6 2 5 3 4 4 2 5 1 6 3 7 8 8 9 9 10 10 11 11 12 12 13 13
REMARK SMILES IDX 14 14
REMARK H PARENT
REMARK Flexibility Score: inf
ROOT
ATOM      1  C   UNL     1       3.170  -6.704  10.921  1.00  0.00     0.000 C 
ENDROOT
BRANCH   1   2
ATOM      2  C   UNL     1       1.720  -6.324  11.258  1.00  0.00     0.000 C 
BRANCH   2   3
ATOM      3  C   UNL     1       1.123  -7.296  12.288  1.00  0.00     0.006 C 
BRANCH   3   4
ATOM      4  C   UNL     1      -0.301  -7.731  11.919  1.00  0.00     0.053 C 
BRANCH   4   5
ATOM      5  C   UNL     1      -0.383  -8.213  10.503  1.00  0.00     0.041 C 
ATOM      6  O   UNL     1      -1.125  -7.623   9.673  1.00  0.00    -0.550 OA
ATOM      7  O   UNL     1       0.333  -9.336  10.108  1.00  0.00    -0.550 OA
ENDBRANCH   4   5
ENDBRANCH   3   4
ENDBRANCH   2   3
ENDBRANCH   1   2
BRANCH   1   8
ATOM      8  C   UNL     1       3.460  -8.195  11.154  1.00  0.00     0.000 C 
BRANCH   8   9
ATOM      9  C   UNL     1       4.377  -8.436  12.366  1.00  0.00     0.000 C 
BRANCH   9  10
ATOM     10  C   UNL     1       4.976  -7.135  12.923  1.00  0.00     0.006 C 
BRANCH  10  11
ATOM     11  C   UNL     1       6.358  -6.823  12.335  1.00  0.00     0.053 C 
BRANCH  11  12
ATOM     12  C   UNL     1       7.350  -6.591  13.430  1.00  0.00     0.041 C 
ATOM     13  O   UNL     1       8.438  -7.224  13.443  1.00  0.00    -0.550 OA
ATOM     14  O   UNL     1       7.095  -5.640  14.409  1.00  0.00    -0.550 OA
ENDBRANCH  11  12
ENDBRANCH  10  11
ENDBRANCH   9  10
ENDBRANCH   8   9
ENDBRANCH   1   8
TORSDOF 9
ENDMDL
MODEL 4
REMARK VINA RESULT:     4.296      1.032      1.869
REMARK INTER + INTRA:           6.115
REMARK INTER:                   6.281
REMARK INTRA:                  -0.167
REMARK UNBOUND:                -0.442
REMARK SMILES O=C([O-])CCCCCCCCC(=O)[O-]
REMARK SMILES IDX 7 1 6 2 5 3 4 4 2 5 1 6 3 7 8 8 9 9 10 10 11 11 12 12 13 13
REMARK SMILES IDX 14 14
REMARK H PARENT
REMARK Flexibility Score: inf
ROOT
ATOM      1  C   UNL     1       4.306  -8.438  11.015  1.00  0.00     0.000 C 
ENDROOT
BRANCH   1   2
ATOM      2  C   UNL     1       4.367  -8.408  12.549  1.00  0.00     0.000 C 
BRANCH   2   3
ATOM      3  C   UNL     1       4.919  -7.065  13.051  1.00  0.00     0.006 C 
BRANCH   3   4
ATOM      4  C   UNL     1       6.248  -6.695  12.380  1.00  0.00     0.053 C 
BRANCH   4   5
ATOM      5  C   UNL     1       7.348  -6.529  13.383  1.00  0.00     0.041 C 
ATOM      6  O   UNL     1       7.315  -5.580  14.211  1.00  0.00    -0.550 OA
ATOM      7  O   UNL     1       8.428  -7.403  13.382  1.00  0.00    -0.550 OA
ENDBRANCH   4   5
ENDBRANCH   3   4
ENDBRANCH   2   3
ENDBRANCH   1   2
BRANCH   1   8
ATOM      8  C   UNL     1       2.875  -8.281  10.477  1.00  0.00     0.000 C 
BRANCH   8   9
ATOM      9  C   UNL     1       2.116  -7.121  11.145  1.00  0.00     0.000 C 
BRANCH   9  10
ATOM     10  C   UNL     1       1.092  -7.605  12.184  1.00  0.00     0.006 C 
BRANCH  10  11
ATOM     11  C   UNL     1      -0.357  -7.389  11.728  1.00  0.00     0.053 C 
BRANCH  11  12
ATOM     12  C   UNL     1      -0.605  -8.093  10.431  1.00  0.00     0.041 C 
ATOM     13  O   UNL     1      -0.387  -9.328  10.329  1.00  0.00    -0.550 OA
ATOM     14  O   UNL     1      -1.124  -7.394   9.349  1.00  0.00    -0.550 OA
ENDBRANCH  11  12
ENDBRANCH  10  11
ENDBRANCH   9  10
ENDBRANCH   8   9
ENDBRANCH   1   8
TORSDOF 9
ENDMDL
