MODEL 1
REMARK VINA RESULT:    -2.807      0.000      0.000
REMARK INTER + INTRA:          -6.771
REMARK INTER:                  -5.432
REMARK INTRA:                  -1.339
REMARK UNBOUND:                -1.339
REMARK SMILES CCCCCCCCCCCCCCCCCC(=O)[O-]
REMARK SMILES IDX 10 1 11 2 12 3 13 4 14 5 15 6 16 7 17 8 18 9 19 10 20 11
REMARK SMILES IDX 9 12 8 13 7 14 6 15 5 16 4 17 3 18 2 19 1 20
REMARK H PARENT
REMARK Flexibility Score: inf
ROOT
ATOM      1  C   UNL     1       9.844 -34.664  13.959  1.00  0.00     0.000 C 
ENDROOT
BRANCH   1   2
ATOM      2  C   UNL     1       8.620 -34.596  13.030  1.00  0.00     0.000 C 
BRANCH   2   3
ATOM      3  C   UNL     1       7.363 -35.210  13.666  1.00  0.00     0.000 C 
BRANCH   3   4
ATOM      4  C   UNL     1       6.248 -34.176  13.886  1.00  0.00     0.000 C 
BRANCH   4   5
ATOM      5  C   UNL     1       6.828 -32.761  14.021  1.00  0.00     0.000 C 
BRANCH   5   6
ATOM      6  C   UNL     1       6.967 -32.306  15.485  1.00  0.00     0.000 C 
BRANCH   6   7
ATOM      7  C   UNL     1       8.410 -32.289  16.030  1.00  0.00     0.006 C 
BRANCH   7   8
ATOM      8  C   UNL     1       8.527 -32.577  17.535  1.00  0.00     0.053 C 
BRANCH   8   9
ATOM      9  C   UNL     1       9.267 -31.494  18.258  1.00  0.00     0.041 C 
ATOM     10  O   UNL     1       9.924 -30.635  17.612  1.00  0.00    -0.550 OA
ATOM     11  O   UNL     1       9.260 -31.454  19.647  1.00  0.00    -0.550 OA
ENDBRANCH   8   9
ENDBRANCH   7   8
ENDBRANCH   6   7
ENDBRANCH   5   6
ENDBRANCH   4   5
ENDBRANCH   3   4
ENDBRANCH   2   3
ENDBRANCH   1   2
BRANCH   1  12
ATOM     12  C   UNL     1      11.177 -34.627  13.190  1.00  0.00     0.000 C 
BRANCH  12  13
ATOM     13  C   UNL     1      11.717 -33.213  12.896  1.00  0.00    -0.000 C 
BRANCH  13  14
ATOM     14  C   UNL     1      11.078 -32.080  13.725  1.00  0.00    -0.000 C 
BRANCH  14  15
ATOM     15  C   UNL     1      12.075 -31.189  14.490  1.00  0.00    -0.000 C 
BRANCH  15  16
ATOM     16  C   UNL     1      13.525 -31.371  14.012  1.00  0.00    -0.000 C 
BRANCH  16  17
ATOM     17  C   UNL     1      14.222 -30.033  13.721  1.00  0.00    -0.000 C 
BRANCH  17  18
ATOM     18  C   UNL     1      14.956 -29.465  14.949  1.00  0.00    -0.000 C 
BRANCH  18  19
ATOM     19  C   UNL     1      15.426 -28.018  14.737  1.00  0.00    -0.003 C 
ATOM     20  C   UNL     1      15.906 -27.359  16.029  1.00  0.00     0.004 C 
ENDBRANCH  18  19
ENDBRANCH  17  18
ENDBRANCH  16  17
ENDBRANCH  15  16
ENDBRANCH  14  15
ENDBRANCH  13  14
ENDBRANCH  12  13
ENDBRANCH   1  12
TORSDOF 16
ENDMDL
MODEL 2
REMARK VINA RESULT:    -1.998      2.539      6.421
REMARK INTER + INTRA:          -5.206
REMARK INTER:                  -3.830
REMARK INTRA:                  -1.376
REMARK UNBOUND:                -1.339
REMARK SMILES CCCCCCCCCCCCCCCCCC(=O)[O-]
REMARK SMILES IDX 10 1 11 2 12 3 13 4 14 5 15 6 16 7 17 8 18 9 19 10 20 11
REMARK SMILES IDX 9 12 8 13 7 14 6 15 5 16 4 17 3 18 2 19 1 20
REMARK H PARENT
REMARK Flexibility Score: inf
ROOT
ATOM      1  C   UNL     1       9.540 -34.349  13.171  1.00  0.00     0.000 C 
ENDROOT
BRANCH   1   2
ATOM      2  C   UNL     1      11.070 -34.499  13.219  1.00  0.00     0.000 C 
BRANCH   2   3
ATOM      3  C   UNL     1      11.794 -33.144  13.227  1.00  0.00     0.000 C 
BRANCH   3   4
ATOM      4  C   UNL     1      11.017 -32.063  13.994  1.00  0.00     0.000 C 
BRANCH   4   5
ATOM      5  C   UNL     1      11.919 -30.864  14.320  1.00  0.00     0.000 C 
BRANCH   5   6
ATOM      6  C   UNL     1      13.418 -31.186  14.185  1.00  0.00     0.000 C 
BRANCH   6   7
ATOM      7  C   UNL     1      14.330 -29.964  13.953  1.00  0.00     0.006 C 
BRANCH   7   8
ATOM      8  C   UNL     1      15.093 -29.492  15.200  1.00  0.00     0.053 C 
BRANCH   8   9
ATOM      9  C   UNL     1      15.412 -28.029  15.143  1.00  0.00     0.041 C 
ATOM     10  O   UNL     1      15.204 -27.376  14.086  1.00  0.00    -0.550 OA
ATOM     11  O   UNL     1      15.971 -27.395  16.245  1.00  0.00    -0.550 OA
ENDBRANCH   8   9
ENDBRANCH   7   8
ENDBRANCH   6   7
ENDBRANCH   5   6
ENDBRANCH   4   5
ENDBRANCH   3   4
ENDBRANCH   2   3
ENDBRANCH   1   2
BRANCH   1  12
ATOM     12  C   UNL     1       8.808 -35.703  13.210  1.00  0.00     0.000 C 
BRANCH  12  13
ATOM     13  C   UNL     1       7.509 -35.715  14.041  1.00  0.00    -0.000 C 
BRANCH  13  14
ATOM     14  C   UNL     1       6.306 -35.004  13.389  1.00  0.00    -0.000 C 
BRANCH  14  15
ATOM     15  C   UNL     1       6.243 -33.482  13.622  1.00  0.00    -0.000 C 
BRANCH  15  16
ATOM     16  C   UNL     1       6.369 -33.100  15.107  1.00  0.00    -0.000 C 
BRANCH  16  17
ATOM     17  C   UNL     1       7.546 -32.149  15.372  1.00  0.00    -0.000 C 
BRANCH  17  18
ATOM     18  C   UNL     1       8.592 -32.749  16.328  1.00  0.00    -0.000 C 
BRANCH  18  19
ATOM     19  C   UNL     1       8.347 -32.354  17.792  1.00  0.00    -0.003 C 
ATOM     20  C   UNL     1       9.427 -31.422  18.340  1.00  0.00     0.004 C 
ENDBRANCH  18  19
ENDBRANCH  17  18
ENDBRANCH  16  17
ENDBRANCH  15  16
ENDBRANCH  14  15
ENDBRANCH  13  14
ENDBRANCH  12  13
ENDBRANCH   1  12
TORSDOF 16
ENDMDL
MODEL 3
REMARK VINA RESULT:    -1.995      1.600      2.627
REMARK INTER + INTRA:          -5.200
REMARK INTER:                  -4.285
REMARK INTRA:                  -0.915
REMARK UNBOUND:                -1.339
REMARK SMILES CCCCCCCCCCCCCCCCCC(=O)[O-]
REMARK SMILES IDX 10 1 11 2 12 3 13 4 14 5 15 6 16 7 17 8 18 9 19 10 20 11
REMARK SMILES IDX 9 12 8 13 7 14 6 15 5 16 4 17 3 18 2 19 1 20
REMARK H PARENT
REMARK Flexibility Score: inf
ROOT
ATOM      1  C   UNL     1       8.394 -35.621  13.930  1.00  0.00     0.000 C 
ENDROOT
BRANCH   1   2
ATOM      2  C   UNL     1       6.994 -35.741  13.306  1.00  0.00     0.000 C 
BRANCH   2   3
ATOM      3  C   UNL     1       6.258 -34.394  13.245  1.00  0.00     0.000 C 
BRANCH   3   4
ATOM      4  C   UNL     1       7.190 -33.228  12.883  1.00  0.00     0.000 C 
BRANCH   4   5
ATOM      5  C   UNL     1       7.333 -32.253  14.060  1.00  0.00     0.000 C 
BRANCH   5   6
ATOM      6  C   UNL     1       6.700 -32.782  15.359  1.00  0.00     0.000 C 
BRANCH   6   7
ATOM      7  C   UNL     1       7.691 -33.031  16.515  1.00  0.00     0.006 C 
BRANCH   7   8
ATOM      8  C   UNL     1       9.014 -32.258  16.397  1.00  0.00     0.053 C 
BRANCH   8   9
ATOM      9  C   UNL     1       9.292 -31.431  17.616  1.00  0.00     0.041 C 
ATOM     10  O   UNL     1       8.622 -31.609  18.668  1.00  0.00    -0.550 OA
ATOM     11  O   UNL     1      10.266 -30.441  17.579  1.00  0.00    -0.550 OA
ENDBRANCH   8   9
ENDBRANCH   7   8
ENDBRANCH   6   7
ENDBRANCH   5   6
ENDBRANCH   4   5
ENDBRANCH   3   4
ENDBRANCH   2   3
ENDBRANCH   1   2
BRANCH   1  12
ATOM     12  C   UNL     1       9.504 -35.458  12.875  1.00  0.00     0.000 C 
BRANCH  12  13
ATOM     13  C   UNL     1      10.785 -36.270  13.152  1.00  0.00    -0.000 C 
BRANCH  13  14
ATOM     14  C   UNL     1      12.092 -35.452  13.161  1.00  0.00    -0.000 C 
BRANCH  14  15
ATOM     15  C   UNL     1      11.923 -33.948  12.875  1.00  0.00    -0.000 C 
BRANCH  15  16
ATOM     16  C   UNL     1      11.106 -33.223  13.957  1.00  0.00    -0.000 C 
BRANCH  16  17
ATOM     17  C   UNL     1      10.802 -31.763  13.587  1.00  0.00    -0.000 C 
BRANCH  17  18
ATOM     18  C   UNL     1      11.718 -30.763  14.314  1.00  0.00    -0.000 C 
BRANCH  18  19
ATOM     19  C   UNL     1      13.095 -31.358  14.645  1.00  0.00    -0.003 C 
ATOM     20  C   UNL     1      14.166 -30.971  13.625  1.00  0.00     0.004 C 
ENDBRANCH  18  19
ENDBRANCH  17  18
ENDBRANCH  16  17
ENDBRANCH  15  16
ENDBRANCH  14  15
ENDBRANCH  13  14
ENDBRANCH  12  13
ENDBRANCH   1  12
TORSDOF 16
ENDMDL
MODEL 4
REMARK VINA RESULT:    -1.821      2.246      6.023
REMARK INTER + INTRA:          -4.862
REMARK INTER:                  -3.308
REMARK INTRA:                  -1.554
REMARK UNBOUND:                -1.339
REMARK SMILES CCCCCCCCCCCCCCCCCC(=O)[O-]
REMARK SMILES IDX 10 1 11 2 12 3 13 4 14 5 15 6 16 7 17 8 18 9 19 10 20 11
REMARK SMILES IDX 9 12 8 13 7 14 6 15 5 16 4 17 3 18 2 19 1 20
REMARK H PARENT
REMARK Flexibility Score: inf
ROOT
ATOM      1  C   UNL     1       9.546 -34.627  13.837  1.00  0.00     0.000 C 
ENDROOT
BRANCH   1   2
ATOM      2  C   UNL     1      10.891 -34.660  13.090  1.00  0.00     0.000 C 
BRANCH   2   3
ATOM      3  C   UNL     1      11.587 -33.291  13.071  1.00  0.00     0.000 C 
BRANCH   3   4
ATOM      4  C   UNL     1      10.703 -32.170  13.638  1.00  0.00     0.000 C 
BRANCH   4   5
ATOM      5  C   UNL     1      11.528 -30.905  13.914  1.00  0.00     0.000 C 
BRANCH   5   6
ATOM      6  C   UNL     1      12.752 -31.170  14.808  1.00  0.00     0.000 C 
BRANCH   6   7
ATOM      7  C   UNL     1      14.115 -31.097  14.088  1.00  0.00     0.006 C 
BRANCH   7   8
ATOM      8  C   UNL     1      14.471 -29.708  13.538  1.00  0.00     0.053 C 
BRANCH   8   9
ATOM      9  C   UNL     1      15.017 -28.805  14.603  1.00  0.00     0.041 C 
ATOM     10  O   UNL     1      15.296 -27.606  14.335  1.00  0.00    -0.550 OA
ATOM     11  O   UNL     1      15.251 -29.298  15.880  1.00  0.00    -0.550 OA
ENDBRANCH   8   9
ENDBRANCH   7   8
ENDBRANCH   6   7
ENDBRANCH   5   6
ENDBRANCH   4   5
ENDBRANCH   3   4
ENDBRANCH   2   3
ENDBRANCH   1   2
BRANCH   1  12
ATOM     12  C   UNL     1       8.343 -34.865  12.906  1.00  0.00     0.000 C 
BRANCH  12  13
ATOM     13  C   UNL     1       7.311 -33.720  12.875  1.00  0.00    -0.000 C 
BRANCH  13  14
ATOM     14  C   UNL     1       6.084 -33.917  13.790  1.00  0.00    -0.000 C 
BRANCH  14  15
ATOM     15  C   UNL     1       6.341 -33.667  15.288  1.00  0.00    -0.000 C 
BRANCH  15  16
ATOM     16  C   UNL     1       7.239 -32.445  15.544  1.00  0.00    -0.000 C 
BRANCH  16  17
ATOM     17  C   UNL     1       8.357 -32.737  16.556  1.00  0.00    -0.000 C 
BRANCH  17  18
ATOM     18  C   UNL     1       8.111 -32.075  17.923  1.00  0.00    -0.000 C 
BRANCH  18  19
ATOM     19  C   UNL     1       9.382 -31.441  18.508  1.00  0.00    -0.003 C 
ATOM     20  C   UNL     1      10.176 -30.647  17.471  1.00  0.00     0.004 C 
ENDBRANCH  18  19
ENDBRANCH  17  18
ENDBRANCH  16  17
ENDBRANCH  15  16
ENDBRANCH  14  15
ENDBRANCH  13  14
ENDBRANCH  12  13
ENDBRANCH   1  12
TORSDOF 16
ENDMDL
MODEL 5
REMARK VINA RESULT:    -1.755      2.517      4.308
REMARK INTER + INTRA:          -4.736
REMARK INTER:                  -3.123
REMARK INTRA:                  -1.613
REMARK UNBOUND:                -1.339
REMARK SMILES CCCCCCCCCCCCCCCCCC(=O)[O-]
REMARK SMILES IDX 10 1 11 2 12 3 13 4 14 5 15 6 16 7 17 8 18 9 19 10 20 11
REMARK SMILES IDX 9 12 8 13 7 14 6 15 5 16 4 17 3 18 2 19 1 20
REMARK H PARENT
REMARK Flexibility Score: inf
ROOT
ATOM      1  C   UNL     1       8.482 -32.041  18.545  1.00  0.00     0.000 C 
ENDROOT
BRANCH   1   2
ATOM      2  C   UNL     1       7.742 -31.962  17.198  1.00  0.00     0.000 C 
BRANCH   2   3
ATOM      3  C   UNL     1       8.133 -33.101  16.244  1.00  0.00     0.000 C 
BRANCH   3   4
ATOM      4  C   UNL     1       6.944 -33.610  15.414  1.00  0.00     0.000 C 
BRANCH   4   5
ATOM      5  C   UNL     1       7.319 -33.720  13.928  1.00  0.00     0.000 C 
BRANCH   5   6
ATOM      6  C   UNL     1       8.490 -32.802  13.535  1.00  0.00     0.000 C 
BRANCH   6   7
ATOM      7  C   UNL     1       9.687 -33.517  12.875  1.00  0.00     0.006 C 
BRANCH   7   8
ATOM      8  C   UNL     1      10.096 -34.833  13.553  1.00  0.00     0.053 C 
BRANCH   8   9
ATOM      9  C   UNL     1      11.488 -35.246  13.183  1.00  0.00     0.041 C 
ATOM     10  O   UNL     1      11.806 -36.465  13.172  1.00  0.00    -0.550 OA
ATOM     11  O   UNL     1      12.444 -34.283  12.886  1.00  0.00    -0.550 OA
ENDBRANCH   8   9
ENDBRANCH   7   8
ENDBRANCH   6   7
ENDBRANCH   5   6
ENDBRANCH   4   5
ENDBRANCH   3   4
ENDBRANCH   2   3
ENDBRANCH   1   2
BRANCH   1  12
ATOM     12  C   UNL     1       9.917 -31.490  18.467  1.00  0.00     0.000 C 
BRANCH  12  13
ATOM     13  C   UNL     1      10.146 -30.428  17.373  1.00  0.00    -0.000 C 
BRANCH  13  14
ATOM     14  C   UNL     1      11.390 -30.652  16.490  1.00  0.00    -0.000 C 
BRANCH  14  15
ATOM     15  C   UNL     1      11.128 -31.404  15.171  1.00  0.00    -0.000 C 
BRANCH  15  16
ATOM     16  C   UNL     1      11.996 -30.890  14.009  1.00  0.00    -0.000 C 
BRANCH  16  17
ATOM     17  C   UNL     1      13.473 -31.287  14.157  1.00  0.00    -0.000 C 
BRANCH  17  18
ATOM     18  C   UNL     1      14.431 -30.102  13.945  1.00  0.00    -0.000 C 
BRANCH  18  19
ATOM     19  C   UNL     1      14.864 -29.451  15.267  1.00  0.00    -0.003 C 
ATOM     20  C   UNL     1      15.364 -28.019  15.084  1.00  0.00     0.004 C 
ENDBRANCH  18  19
ENDBRANCH  17  18
ENDBRANCH  16  17
ENDBRANCH  15  16
ENDBRANCH  14  15
ENDBRANCH  13  14
ENDBRANCH  12  13
ENDBRANCH   1  12
TORSDOF 16
ENDMDL
MODEL 6
REMARK VINA RESULT:    -1.471      2.415      4.056
REMARK INTER + INTRA:          -4.185
REMARK INTER:                  -3.108
REMARK INTRA:                  -1.077
REMARK UNBOUND:                -1.339
REMARK SMILES CCCCCCCCCCCCCCCCCC(=O)[O-]
REMARK SMILES IDX 10 1 11 2 12 3 13 4 14 5 15 6 16 7 17 8 18 9 19 10 20 11
REMARK SMILES IDX 9 12 8 13 7 14 6 15 5 16 4 17 3 18 2 19 1 20
REMARK H PARENT
REMARK Flexibility Score: inf
ROOT
ATOM      1  C   UNL     1       9.904 -30.648  17.467  1.00  0.00     0.000 C 
ENDROOT
BRANCH   1   2
ATOM      2  C   UNL     1       9.232 -31.988  17.809  1.00  0.00     0.000 C 
BRANCH   2   3
ATOM      3  C   UNL     1       8.148 -32.380  16.793  1.00  0.00     0.000 C 
BRANCH   3   4
ATOM      4  C   UNL     1       8.162 -33.881  16.465  1.00  0.00     0.000 C 
BRANCH   4   5
ATOM      5  C   UNL     1       7.011 -34.247  15.517  1.00  0.00     0.000 C 
BRANCH   5   6
ATOM      6  C   UNL     1       6.824 -33.228  14.379  1.00  0.00     0.000 C 
BRANCH   6   7
ATOM      7  C   UNL     1       7.430 -33.644  13.023  1.00  0.00     0.006 C 
BRANCH   7   8
ATOM      8  C   UNL     1       7.685 -35.152  12.875  1.00  0.00     0.053 C 
BRANCH   8   9
ATOM      9  C   UNL     1       9.142 -35.487  12.973  1.00  0.00     0.041 C 
ATOM     10  O   UNL     1       9.508 -36.678  13.158  1.00  0.00    -0.550 OA
ATOM     11  O   UNL     1      10.095 -34.479  12.895  1.00  0.00    -0.550 OA
ENDBRANCH   8   9
ENDBRANCH   7   8
ENDBRANCH   6   7
ENDBRANCH   5   6
ENDBRANCH   4   5
ENDBRANCH   3   4
ENDBRANCH   2   3
ENDBRANCH   1   2
BRANCH   1  12
ATOM     12  C   UNL     1      11.068 -30.804  16.472  1.00  0.00     0.000 C 
BRANCH  12  13
ATOM     13  C   UNL     1      10.687 -31.448  15.124  1.00  0.00    -0.000 C 
BRANCH  13  14
ATOM     14  C   UNL     1      11.698 -31.227  13.980  1.00  0.00    -0.000 C 
BRANCH  14  15
ATOM     15  C   UNL     1      12.833 -32.266  13.903  1.00  0.00    -0.000 C 
BRANCH  15  16
ATOM     16  C   UNL     1      14.206 -31.630  13.632  1.00  0.00    -0.000 C 
BRANCH  16  17
ATOM     17  C   UNL     1      14.168 -30.095  13.699  1.00  0.00    -0.000 C 
BRANCH  17  18
ATOM     18  C   UNL     1      14.974 -29.531  14.882  1.00  0.00    -0.000 C 
BRANCH  18  19
ATOM     19  C   UNL     1      15.278 -28.033  14.726  1.00  0.00    -0.003 C 
ATOM     20  C   UNL     1      15.946 -27.435  15.964  1.00  0.00     0.004 C 
ENDBRANCH  18  19
ENDBRANCH  17  18
ENDBRANCH  16  17
ENDBRANCH  15  16
ENDBRANCH  14  15
ENDBRANCH  13  14
ENDBRANCH  12  13
ENDBRANCH   1  12
TORSDOF 16
ENDMDL
MODEL 7
REMARK VINA RESULT:    -1.420      2.517      4.521
REMARK INTER + INTRA:          -4.088
REMARK INTER:                  -3.427
REMARK INTRA:                  -0.661
REMARK UNBOUND:                -1.339
REMARK SMILES CCCCCCCCCCCCCCCCCC(=O)[O-]
REMARK SMILES IDX 10 1 11 2 12 3 13 4 14 5 15 6 16 7 17 8 18 9 19 10 20 11
REMARK SMILES IDX 9 12 8 13 7 14 6 15 5 16 4 17 3 18 2 19 1 20
REMARK H PARENT
REMARK Flexibility Score: inf
ROOT
ATOM      1  C   UNL     1       8.621 -32.852  17.336  1.00  0.00     0.000 C 
ENDROOT
BRANCH   1   2
ATOM      2  C   UNL     1       7.270 -32.523  16.680  1.00  0.00     0.000 C 
BRANCH   2   3
ATOM      3  C   UNL     1       7.362 -32.443  15.149  1.00  0.00     0.000 C 
BRANCH   3   4
ATOM      4  C   UNL     1       6.666 -33.622  14.452  1.00  0.00     0.000 C 
BRANCH   4   5
ATOM      5  C   UNL     1       6.501 -34.809  15.413  1.00  0.00     0.000 C 
BRANCH   5   6
ATOM      6  C   UNL     1       7.000 -36.137  14.818  1.00  0.00     0.000 C 
BRANCH   6   7
ATOM      7  C   UNL     1       7.259 -36.116  13.298  1.00  0.00     0.006 C 
BRANCH   7   8
ATOM      8  C   UNL     1       8.624 -36.680  12.875  1.00  0.00     0.053 C 
BRANCH   8   9
ATOM      9  C   UNL     1       9.708 -35.649  12.959  1.00  0.00     0.041 C 
ATOM     10  O   UNL     1       9.426 -34.425  12.878  1.00  0.00    -0.550 OA
ATOM     11  O   UNL     1      11.034 -36.043  13.091  1.00  0.00    -0.550 OA
ENDBRANCH   8   9
ENDBRANCH   7   8
ENDBRANCH   6   7
ENDBRANCH   5   6
ENDBRANCH   4   5
ENDBRANCH   3   4
ENDBRANCH   2   3
ENDBRANCH   1   2
BRANCH   1  12
ATOM     12  C   UNL     1       9.183 -31.679  18.161  1.00  0.00     0.000 C 
BRANCH  12  13
ATOM     13  C   UNL     1       9.846 -30.562  17.330  1.00  0.00    -0.000 C 
BRANCH  13  14
ATOM     14  C   UNL     1      10.888 -31.040  16.298  1.00  0.00    -0.000 C 
BRANCH  14  15
ATOM     15  C   UNL     1      10.303 -31.734  15.053  1.00  0.00    -0.000 C 
BRANCH  15  16
ATOM     16  C   UNL     1      11.176 -31.547  13.801  1.00  0.00    -0.000 C 
BRANCH  16  17
ATOM     17  C   UNL     1      12.233 -32.652  13.650  1.00  0.00    -0.000 C 
BRANCH  17  18
ATOM     18  C   UNL     1      13.660 -32.095  13.508  1.00  0.00    -0.000 C 
BRANCH  18  19
ATOM     19  C   UNL     1      13.933 -30.925  14.465  1.00  0.00    -0.003 C 
ATOM     20  C   UNL     1      14.526 -29.708  13.755  1.00  0.00     0.004 C 
ENDBRANCH  18  19
ENDBRANCH  17  18
ENDBRANCH  16  17
ENDBRANCH  15  16
ENDBRANCH  14  15
ENDBRANCH  13  14
ENDBRANCH  12  13
ENDBRANCH   1  12
TORSDOF 16
ENDMDL
MODEL 8
REMARK VINA RESULT:    -1.374      2.419      5.334
REMARK INTER + INTRA:          -3.997
REMARK INTER:                  -3.759
REMARK INTRA:                  -0.238
REMARK UNBOUND:                -1.339
REMARK SMILES CCCCCCCCCCCCCCCCCC(=O)[O-]
REMARK SMILES IDX 10 1 11 2 12 3 13 4 14 5 15 6 16 7 17 8 18 9 19 10 20 11
REMARK SMILES IDX 9 12 8 13 7 14 6 15 5 16 4 17 3 18 2 19 1 20
REMARK H PARENT
REMARK Flexibility Score: inf
ROOT
ATOM      1  C   UNL     1       5.931 -34.430  13.979  1.00  0.00     0.000 C 
ENDROOT
BRANCH   1   2
ATOM      2  C   UNL     1       6.113 -35.855  13.428  1.00  0.00     0.000 C 
BRANCH   2   3
ATOM      3  C   UNL     1       7.510 -36.424  13.717  1.00  0.00     0.000 C 
BRANCH   3   4
ATOM      4  C   UNL     1       8.614 -35.714  12.918  1.00  0.00     0.000 C 
BRANCH   4   5
ATOM      5  C   UNL     1       9.666 -35.105  13.855  1.00  0.00     0.000 C 
BRANCH   5   6
ATOM      6  C   UNL     1      10.960 -34.702  13.125  1.00  0.00     0.000 C 
BRANCH   6   7
ATOM      7  C   UNL     1      11.317 -33.204  13.210  1.00  0.00     0.006 C 
BRANCH   7   8
ATOM      8  C   UNL     1      12.819 -32.914  13.350  1.00  0.00     0.053 C 
BRANCH   8   9
ATOM      9  C   UNL     1      13.077 -31.554  13.926  1.00  0.00     0.041 C 
ATOM     10  O   UNL     1      14.144 -30.942  13.653  1.00  0.00    -0.550 OA
ATOM     11  O   UNL     1      12.155 -30.978  14.791  1.00  0.00    -0.550 OA
ENDBRANCH   8   9
ENDBRANCH   7   8
ENDBRANCH   6   7
ENDBRANCH   5   6
ENDBRANCH   4   5
ENDBRANCH   3   4
ENDBRANCH   2   3
ENDBRANCH   1   2
BRANCH   1  12
ATOM     12  C   UNL     1       5.963 -33.357  12.875  1.00  0.00     0.000 C 
BRANCH  12  13
ATOM     13  C   UNL     1       6.940 -32.193  13.131  1.00  0.00    -0.000 C 
BRANCH  13  14
ATOM     14  C   UNL     1       7.888 -32.382  14.333  1.00  0.00    -0.000 C 
BRANCH  14  15
ATOM     15  C   UNL     1       7.188 -32.594  15.689  1.00  0.00    -0.000 C 
BRANCH  15  16
ATOM     16  C   UNL     1       8.119 -32.344  16.887  1.00  0.00    -0.000 C 
BRANCH  16  17
ATOM     17  C   UNL     1       9.416 -31.626  16.484  1.00  0.00    -0.000 C 
BRANCH  17  18
ATOM     18  C   UNL     1       9.996 -30.764  17.620  1.00  0.00    -0.000 C 
BRANCH  18  19
ATOM     19  C   UNL     1       9.085 -30.729  18.856  1.00  0.00    -0.003 C 
ATOM     20  C   UNL     1       9.065 -32.057  19.612  1.00  0.00     0.004 C 
ENDBRANCH  18  19
ENDBRANCH  17  18
ENDBRANCH  16  17
ENDBRANCH  15  16
ENDBRANCH  14  15
ENDBRANCH  13  14
ENDBRANCH  12  13
ENDBRANCH   1  12
TORSDOF 16
ENDMDL
MODEL 9
REMARK VINA RESULT:    -1.324      2.766      5.194
REMARK INTER + INTRA:          -3.902
REMARK INTER:                  -2.490
REMARK INTRA:                  -1.412
REMARK UNBOUND:                -1.339
REMARK SMILES CCCCCCCCCCCCCCCCCC(=O)[O-]
REMARK SMILES IDX 10 1 11 2 12 3 13 4 14 5 15 6 16 7 17 8 18 9 19 10 20 11
REMARK SMILES IDX 9 12 8 13 7 14 6 15 5 16 4 17 3 18 2 19 1 20
REMARK H PARENT
REMARK Flexibility Score: inf
ROOT
ATOM      1  C   UNL     1       8.753 -32.230  18.235  1.00  0.00     0.000 C 
ENDROOT
BRANCH   1   2
ATOM      2  C   UNL     1       7.758 -32.001  17.084  1.00  0.00     0.000 C 
BRANCH   2   3
ATOM      3  C   UNL     1       7.957 -32.992  15.928  1.00  0.00     0.000 C 
BRANCH   3   4
ATOM      4  C   UNL     1       7.454 -32.442  14.585  1.00  0.00     0.000 C 
BRANCH   4   5
ATOM      5  C   UNL     1       6.599 -33.484  13.849  1.00  0.00     0.000 C 
BRANCH   5   6
ATOM      6  C   UNL     1       7.264 -34.870  13.786  1.00  0.00     0.000 C 
BRANCH   6   7
ATOM      7  C   UNL     1       6.338 -36.055  14.132  1.00  0.00     0.006 C 
BRANCH   7   8
ATOM      8  C   UNL     1       6.952 -37.083  15.095  1.00  0.00     0.053 C 
BRANCH   8   9
ATOM      9  C   UNL     1       6.874 -36.632  16.522  1.00  0.00     0.041 C 
ATOM     10  O   UNL     1       7.731 -35.832  16.981  1.00  0.00    -0.550 OA
ATOM     11  O   UNL     1       5.875 -37.124  17.353  1.00  0.00    -0.550 OA
ENDBRANCH   8   9
ENDBRANCH   7   8
ENDBRANCH   6   7
ENDBRANCH   5   6
ENDBRANCH   4   5
ENDBRANCH   3   4
ENDBRANCH   2   3
ENDBRANCH   1   2
BRANCH   1  12
ATOM     12  C   UNL     1       9.994 -31.326  18.136  1.00  0.00     0.000 C 
BRANCH  12  13
ATOM     13  C   UNL     1      10.137 -30.565  16.802  1.00  0.00    -0.000 C 
BRANCH  13  14
ATOM     14  C   UNL     1      11.472 -30.783  16.061  1.00  0.00    -0.000 C 
BRANCH  14  15
ATOM     15  C   UNL     1      11.339 -31.131  14.566  1.00  0.00    -0.000 C 
BRANCH  15  16
ATOM     16  C   UNL     1      12.382 -32.159  14.098  1.00  0.00    -0.000 C 
BRANCH  16  17
ATOM     17  C   UNL     1      11.887 -33.000  12.911  1.00  0.00    -0.000 C 
BRANCH  17  18
ATOM     18  C   UNL     1      10.523 -33.661  13.177  1.00  0.00    -0.000 C 
BRANCH  18  19
ATOM     19  C   UNL     1      10.616 -35.192  13.255  1.00  0.00    -0.003 C 
ATOM     20  C   UNL     1      12.024 -35.713  12.971  1.00  0.00     0.004 C 
ENDBRANCH  18  19
ENDBRANCH  17  18
ENDBRANCH  16  17
ENDBRANCH  15  16
ENDBRANCH  14  15
ENDBRANCH  13  14
ENDBRANCH  12  13
ENDBRANCH   1  12
TORSDOF 16
ENDMDL
