MODEL 1
REMARK VINA RESULT:    -2.578      0.000      0.000
REMARK INTER + INTRA:          -3.078
REMARK INTER:                  -3.031
REMARK INTRA:                  -0.048
REMARK UNBOUND:                -0.048
REMARK SMILES CCCCC(=O)[O-]
REMARK SMILES IDX 4 1 5 2 6 3 7 4 3 5 2 6 1 7
REMARK H PARENT
REMARK Flexibility Score: inf
ROOT
ATOM      1  C   UNL     1       8.956 -29.812 -17.581  1.00  0.00     0.053 C 
ENDROOT
BRANCH   1   2
ATOM      2  C   UNL     1       7.743 -29.157 -18.167  1.00  0.00     0.041 C 
ATOM      3  O   UNL     1       6.868 -28.652 -17.414  1.00  0.00    -0.550 OA
ATOM      4  O   UNL     1       7.563 -29.132 -19.543  1.00  0.00    -0.550 OA
ENDBRANCH   1   2
BRANCH   1   5
ATOM      5  C   UNL     1       8.844 -29.958 -16.058  1.00  0.00     0.006 C 
BRANCH   5   6
ATOM      6  C   UNL     1       9.597 -31.190 -15.535  1.00  0.00    -0.003 C 
ATOM      7  C   UNL     1       9.260 -32.430 -16.356  1.00  0.00     0.004 C 
ENDBRANCH   5   6
ENDBRANCH   1   5
TORSDOF 3
ENDMDL
MODEL 2
REMARK VINA RESULT:    -2.490      0.161      1.229
REMARK INTER + INTRA:          -2.975
REMARK INTER:                  -2.931
REMARK INTRA:                  -0.044
REMARK UNBOUND:                -0.048
REMARK SMILES CCCCC(=O)[O-]
REMARK SMILES IDX 4 1 5 2 6 3 7 4 3 5 2 6 1 7
REMARK H PARENT
REMARK Flexibility Score: inf
ROOT
ATOM      1  C   UNL     1       9.016 -29.855 -17.588  1.00  0.00     0.053 C 
ENDROOT
BRANCH   1   2
ATOM      2  C   UNL     1       7.836 -29.247 -18.282  1.00  0.00     0.041 C 
ATOM      3  O   UNL     1       7.761 -29.262 -19.539  1.00  0.00    -0.550 OA
ATOM      4  O   UNL     1       6.834 -28.635 -17.542  1.00  0.00    -0.550 OA
ENDBRANCH   1   2
BRANCH   1   5
ATOM      5  C   UNL     1       8.817 -29.904 -16.067  1.00  0.00     0.006 C 
BRANCH   5   6
ATOM      6  C   UNL     1       9.567 -31.077 -15.421  1.00  0.00    -0.003 C 
ATOM      7  C   UNL     1       9.290 -32.381 -16.161  1.00  0.00     0.004 C 
ENDBRANCH   5   6
ENDBRANCH   1   5
TORSDOF 3
ENDMDL
MODEL 3
REMARK VINA RESULT:    -2.310      2.859      5.108
REMARK INTER + INTRA:          -2.762
REMARK INTER:                  -2.742
REMARK INTRA:                  -0.021
REMARK UNBOUND:                -0.048
REMARK SMILES CCCCC(=O)[O-]
REMARK SMILES IDX 4 1 5 2 6 3 7 4 3 5 2 6 1 7
REMARK H PARENT
REMARK Flexibility Score: inf
ROOT
ATOM      1  C   UNL     1       6.527 -28.742 -19.315  1.00  0.00     0.053 C 
ENDROOT
BRANCH   1   2
ATOM      2  C   UNL     1       7.639 -29.100 -18.377  1.00  0.00     0.041 C 
ATOM      3  O   UNL     1       8.661 -29.702 -18.803  1.00  0.00    -0.550 OA
ATOM      4  O   UNL     1       7.533 -28.798 -17.026  1.00  0.00    -0.550 OA
ENDBRANCH   1   2
BRANCH   1   5
ATOM      5  C   UNL     1       6.947 -28.906 -20.782  1.00  0.00     0.006 C 
BRANCH   5   6
ATOM      6  C   UNL     1       5.960 -28.235 -21.747  1.00  0.00    -0.003 C 
ATOM      7  C   UNL     1       6.594 -28.013 -23.116  1.00  0.00     0.004 C 
ENDBRANCH   5   6
ENDBRANCH   1   5
TORSDOF 3
ENDMDL
MODEL 4
REMARK VINA RESULT:    -2.240      1.024      1.449
REMARK INTER + INTRA:          -2.681
REMARK INTER:                  -2.655
REMARK INTRA:                  -0.026
REMARK UNBOUND:                -0.048
REMARK SMILES CCCCC(=O)[O-]
REMARK SMILES IDX 4 1 5 2 6 3 7 4 3 5 2 6 1 7
REMARK H PARENT
REMARK Flexibility Score: inf
ROOT
ATOM      1  C   UNL     1       7.956 -29.259 -17.465  1.00  0.00     0.053 C 
ENDROOT
BRANCH   1   2
ATOM      2  C   UNL     1       7.681 -29.120 -18.931  1.00  0.00     0.041 C 
ATOM      3  O   UNL     1       8.431 -29.681 -19.774  1.00  0.00    -0.550 OA
ATOM      4  O   UNL     1       6.615 -28.346 -19.367  1.00  0.00    -0.550 OA
ENDBRANCH   1   2
BRANCH   1   5
ATOM      5  C   UNL     1       9.289 -29.972 -17.202  1.00  0.00     0.006 C 
BRANCH   5   6
ATOM      6  C   UNL     1       9.321 -30.657 -15.829  1.00  0.00    -0.003 C 
ATOM      7  C   UNL     1       9.337 -32.176 -15.972  1.00  0.00     0.004 C 
ENDBRANCH   5   6
ENDBRANCH   1   5
TORSDOF 3
ENDMDL
MODEL 5
REMARK VINA RESULT:    -2.238      2.282      4.021
REMARK INTER + INTRA:          -2.678
REMARK INTER:                  -2.658
REMARK INTRA:                  -0.019
REMARK UNBOUND:                -0.048
REMARK SMILES CCCCC(=O)[O-]
REMARK SMILES IDX 4 1 5 2 6 3 7 4 3 5 2 6 1 7
REMARK H PARENT
REMARK Flexibility Score: inf
ROOT
ATOM      1  C   UNL     1       7.231 -28.824 -17.392  1.00  0.00     0.053 C 
ENDROOT
BRANCH   1   2
ATOM      2  C   UNL     1       8.298 -29.388 -16.506  1.00  0.00     0.041 C 
ATOM      3  O   UNL     1       8.153 -29.382 -15.254  1.00  0.00    -0.550 OA
ATOM      4  O   UNL     1       9.466 -29.893 -17.060  1.00  0.00    -0.550 OA
ENDBRANCH   1   2
BRANCH   1   5
ATOM      5  C   UNL     1       7.475 -29.171 -18.867  1.00  0.00     0.006 C 
BRANCH   5   6
ATOM      6  C   UNL     1       6.447 -28.511 -19.797  1.00  0.00    -0.003 C 
ATOM      7  C   UNL     1       6.722 -28.859 -21.256  1.00  0.00     0.004 C 
ENDBRANCH   5   6
ENDBRANCH   1   5
TORSDOF 3
ENDMDL
MODEL 6
REMARK VINA RESULT:    -2.133      2.235      3.952
REMARK INTER + INTRA:          -2.555
REMARK INTER:                  -2.538
REMARK INTRA:                  -0.017
REMARK UNBOUND:                -0.048
REMARK SMILES CCCCC(=O)[O-]
REMARK SMILES IDX 4 1 5 2 6 3 7 4 3 5 2 6 1 7
REMARK H PARENT
REMARK Flexibility Score: inf
ROOT
ATOM      1  C   UNL     1       9.314 -29.981 -17.637  1.00  0.00     0.053 C 
ENDROOT
BRANCH   1   2
ATOM      2  C   UNL     1       9.190 -30.410 -16.208  1.00  0.00     0.041 C 
ATOM      3  O   UNL     1       9.699 -31.496 -15.824  1.00  0.00    -0.550 OA
ATOM      4  O   UNL     1       8.485 -29.625 -15.305  1.00  0.00    -0.550 OA
ENDBRANCH   1   2
BRANCH   1   5
ATOM      5  C   UNL     1       8.028 -29.313 -18.144  1.00  0.00     0.006 C 
BRANCH   5   6
ATOM      6  C   UNL     1       7.882 -29.415 -19.669  1.00  0.00    -0.003 C 
ATOM      7  C   UNL     1       6.643 -28.670 -20.154  1.00  0.00     0.004 C 
ENDBRANCH   5   6
ENDBRANCH   1   5
TORSDOF 3
ENDMDL
MODEL 7
REMARK VINA RESULT:    -1.910      2.890      3.993
REMARK INTER + INTRA:          -2.293
REMARK INTER:                  -2.220
REMARK INTRA:                  -0.073
REMARK UNBOUND:                -0.048
REMARK SMILES CCCCC(=O)[O-]
REMARK SMILES IDX 4 1 5 2 6 3 7 4 3 5 2 6 1 7
REMARK H PARENT
REMARK Flexibility Score: inf
ROOT
ATOM      1  C   UNL     1       9.577 -31.132 -15.772  1.00  0.00     0.053 C 
ENDROOT
BRANCH   1   2
ATOM      2  C   UNL     1       9.232 -32.548 -16.114  1.00  0.00     0.041 C 
ATOM      3  O   UNL     1       9.290 -32.947 -17.307  1.00  0.00    -0.550 OA
ATOM      4  O   UNL     1       8.815 -33.422 -15.118  1.00  0.00    -0.550 OA
ENDBRANCH   1   2
BRANCH   1   5
ATOM      5  C   UNL     1       9.612 -30.239 -17.020  1.00  0.00     0.006 C 
BRANCH   5   6
ATOM      6  C   UNL     1       8.266 -29.546 -17.276  1.00  0.00    -0.003 C 
ATOM      7  C   UNL     1       7.769 -28.830 -16.025  1.00  0.00     0.004 C 
ENDBRANCH   5   6
ENDBRANCH   1   5
TORSDOF 3
ENDMDL
MODEL 8
REMARK VINA RESULT:    -1.539      1.296      1.773
REMARK INTER + INTRA:          -1.856
REMARK INTER:                  -1.900
REMARK INTRA:                   0.044
REMARK UNBOUND:                -0.048
REMARK SMILES CCCCC(=O)[O-]
REMARK SMILES IDX 4 1 5 2 6 3 7 4 3 5 2 6 1 7
REMARK H PARENT
REMARK Flexibility Score: inf
ROOT
ATOM      1  C   UNL     1       8.649 -30.078 -15.285  1.00  0.00     0.053 C 
ENDROOT
BRANCH   1   2
ATOM      2  C   UNL     1       8.240 -29.403 -16.557  1.00  0.00     0.041 C 
ATOM      3  O   UNL     1       7.205 -28.685 -16.592  1.00  0.00    -0.550 OA
ATOM      4  O   UNL     1       8.984 -29.590 -17.714  1.00  0.00    -0.550 OA
ENDBRANCH   1   2
BRANCH   1   5
ATOM      5  C   UNL     1       9.780 -31.089 -15.516  1.00  0.00     0.006 C 
BRANCH   5   6
ATOM      6  C   UNL     1       9.266 -32.414 -16.095  1.00  0.00    -0.003 C 
ATOM      7  C   UNL     1       8.818 -33.361 -14.986  1.00  0.00     0.004 C 
ENDBRANCH   5   6
ENDBRANCH   1   5
TORSDOF 3
ENDMDL
MODEL 9
REMARK VINA RESULT:    -0.585      1.968      2.863
REMARK INTER + INTRA:          -0.735
REMARK INTER:                  -0.664
REMARK INTRA:                  -0.071
REMARK UNBOUND:                -0.048
REMARK SMILES CCCCC(=O)[O-]
REMARK SMILES IDX 4 1 5 2 6 3 7 4 3 5 2 6 1 7
REMARK H PARENT
REMARK Flexibility Score: inf
ROOT
ATOM      1  C   UNL     1       6.797 -28.213 -19.128  1.00  0.00     0.053 C 
ENDROOT
BRANCH   1   2
ATOM      2  C   UNL     1       6.722 -28.804 -20.502  1.00  0.00     0.041 C 
ATOM      3  O   UNL     1       6.168 -29.921 -20.683  1.00  0.00    -0.550 OA
ATOM      4  O   UNL     1       7.291 -28.137 -21.578  1.00  0.00    -0.550 OA
ENDBRANCH   1   2
BRANCH   1   5
ATOM      5  C   UNL     1       7.284 -29.237 -18.094  1.00  0.00     0.006 C 
BRANCH   5   6
ATOM      6  C   UNL     1       8.773 -29.570 -18.262  1.00  0.00    -0.003 C 
ATOM      7  C   UNL     1       9.336 -30.223 -17.004  1.00  0.00     0.004 C 
ENDBRANCH   5   6
ENDBRANCH   1   5
TORSDOF 3
ENDMDL
