MODEL 1
REMARK VINA RESULT:    -4.302      0.000      0.000
REMARK INTER + INTRA:          -5.752
REMARK INTER:                  -5.308
REMARK INTRA:                  -0.444
REMARK UNBOUND:                -0.444
REMARK SMILES C=CC[C@@H](C)C(=O)CC
REMARK SMILES IDX 4 1 5 2 6 3 7 4 8 5 9 6 3 7 2 8 1 9
REMARK H PARENT
REMARK Flexibility Score: inf
ROOT
ATOM      1  C   UNL     1     -12.264 -41.304  40.138  1.00  0.00     0.057 C 
ATOM      2  C   UNL     1     -11.296 -42.440  40.495  1.00  0.00     0.016 C 
ENDROOT
BRANCH   1   3
ATOM      3  C   UNL     1     -12.917 -41.585  38.802  1.00  0.00     0.135 C 
ATOM      4  O   UNL     1     -12.762 -42.675  38.269  1.00  0.00    -0.299 OA
BRANCH   3   5
ATOM      5  C   UNL     1     -13.756 -40.543  38.108  1.00  0.00     0.072 C 
ATOM      6  C   UNL     1     -12.930 -39.298  37.804  1.00  0.00     0.012 C 
ENDBRANCH   3   5
ENDBRANCH   1   3
BRANCH   1   7
ATOM      7  C   UNL     1     -13.344 -41.113  41.221  1.00  0.00     0.038 C 
BRANCH   7   8
ATOM      8  C   UNL     1     -13.106 -39.864  42.027  1.00  0.00    -0.034 C 
ATOM      9  C   UNL     1     -13.125 -38.649  41.471  1.00  0.00     0.004 C 
ENDBRANCH   7   8
ENDBRANCH   1   7
TORSDOF 4
ENDMDL
MODEL 2
REMARK VINA RESULT:    -4.253      1.786      3.339
REMARK INTER + INTRA:          -5.692
REMARK INTER:                  -5.261
REMARK INTRA:                  -0.430
REMARK UNBOUND:                -0.444
REMARK SMILES C=CC[C@@H](C)C(=O)CC
REMARK SMILES IDX 4 1 5 2 6 3 7 4 8 5 9 6 3 7 2 8 1 9
REMARK H PARENT
REMARK Flexibility Score: inf
ROOT
ATOM      1  C   UNL     1     -12.492 -41.333  41.416  1.00  0.00     0.057 C 
ATOM      2  C   UNL     1     -11.409 -42.169  40.718  1.00  0.00     0.016 C 
ENDROOT
BRANCH   1   3
ATOM      3  C   UNL     1     -11.954 -39.951  41.724  1.00  0.00     0.135 C 
ATOM      4  O   UNL     1     -10.866 -39.611  41.281  1.00  0.00    -0.299 OA
BRANCH   3   5
ATOM      5  C   UNL     1     -12.735 -38.982  42.573  1.00  0.00     0.072 C 
ATOM      6  C   UNL     1     -13.145 -37.759  41.760  1.00  0.00     0.012 C 
ENDBRANCH   3   5
ENDBRANCH   1   3
BRANCH   1   7
ATOM      7  C   UNL     1     -13.768 -41.221  40.559  1.00  0.00     0.038 C 
BRANCH   7   8
ATOM      8  C   UNL     1     -13.446 -41.201  39.088  1.00  0.00    -0.034 C 
ATOM      9  C   UNL     1     -13.456 -40.070  38.377  1.00  0.00     0.004 C 
ENDBRANCH   7   8
ENDBRANCH   1   7
TORSDOF 4
ENDMDL
MODEL 3
REMARK VINA RESULT:    -4.136      4.594      6.621
REMARK INTER + INTRA:          -5.547
REMARK INTER:                  -5.123
REMARK INTRA:                  -0.424
REMARK UNBOUND:                -0.444
REMARK SMILES C=CC[C@@H](C)C(=O)CC
REMARK SMILES IDX 4 1 5 2 6 3 7 4 8 5 9 6 3 7 2 8 1 9
REMARK H PARENT
REMARK Flexibility Score: inf
ROOT
ATOM      1  C   UNL     1     -13.077 -35.153  37.906  1.00  0.00     0.057 C 
ATOM      2  C   UNL     1     -12.670 -33.672  37.898  1.00  0.00     0.016 C 
ENDROOT
BRANCH   1   3
ATOM      3  C   UNL     1     -14.330 -35.336  38.736  1.00  0.00     0.135 C 
ATOM      4  O   UNL     1     -14.982 -34.359  39.075  1.00  0.00    -0.299 OA
BRANCH   3   5
ATOM      5  C   UNL     1     -14.790 -36.707  39.160  1.00  0.00     0.072 C 
ATOM      6  C   UNL     1     -13.831 -37.309  40.181  1.00  0.00     0.012 C 
ENDBRANCH   3   5
ENDBRANCH   1   3
BRANCH   1   7
ATOM      7  C   UNL     1     -13.309 -35.688  36.479  1.00  0.00     0.038 C 
BRANCH   7   8
ATOM      8  C   UNL     1     -12.265 -36.702  36.092  1.00  0.00    -0.034 C 
ATOM      9  C   UNL     1     -12.218 -37.915  36.649  1.00  0.00     0.004 C 
ENDBRANCH   7   8
ENDBRANCH   1   7
TORSDOF 4
ENDMDL
MODEL 4
REMARK VINA RESULT:    -4.119      4.610      6.114
REMARK INTER + INTRA:          -5.527
REMARK INTER:                  -5.043
REMARK INTRA:                  -0.484
REMARK UNBOUND:                -0.444
REMARK SMILES C=CC[C@@H](C)C(=O)CC
REMARK SMILES IDX 4 1 5 2 6 3 7 4 8 5 9 6 3 7 2 8 1 9
REMARK H PARENT
REMARK Flexibility Score: inf
ROOT
ATOM      1  C   UNL     1     -12.707 -35.200  36.531  1.00  0.00     0.057 C 
ATOM      2  C   UNL     1     -12.420 -34.144  37.608  1.00  0.00     0.016 C 
ENDROOT
BRANCH   1   3
ATOM      3  C   UNL     1     -11.548 -36.170  36.442  1.00  0.00     0.135 C 
ATOM      4  O   UNL     1     -11.364 -36.802  35.411  1.00  0.00    -0.299 OA
BRANCH   3   5
ATOM      5  C   UNL     1     -10.614 -36.378  37.606  1.00  0.00     0.072 C 
ATOM      6  C   UNL     1     -10.950 -37.667  38.347  1.00  0.00     0.012 C 
ENDBRANCH   3   5
ENDBRANCH   1   3
BRANCH   1   7
ATOM      7  C   UNL     1     -14.014 -35.965  36.815  1.00  0.00     0.038 C 
BRANCH   7   8
ATOM      8  C   UNL     1     -14.505 -35.719  38.217  1.00  0.00    -0.034 C 
ATOM      9  C   UNL     1     -14.676 -36.715  39.091  1.00  0.00     0.004 C 
ENDBRANCH   7   8
ENDBRANCH   1   7
TORSDOF 4
ENDMDL
MODEL 5
REMARK VINA RESULT:    -4.093      1.009      3.023
REMARK INTER + INTRA:          -5.495
REMARK INTER:                  -5.082
REMARK INTRA:                  -0.413
REMARK UNBOUND:                -0.444
REMARK SMILES C=CC[C@@H](C)C(=O)CC
REMARK SMILES IDX 4 1 5 2 6 3 7 4 8 5 9 6 3 7 2 8 1 9
REMARK H PARENT
REMARK Flexibility Score: inf
ROOT
ATOM      1  C   UNL     1     -13.495 -40.395  38.158  1.00  0.00     0.057 C 
ATOM      2  C   UNL     1     -13.607 -40.754  36.669  1.00  0.00     0.016 C 
ENDROOT
BRANCH   1   3
ATOM      3  C   UNL     1     -12.835 -41.531  38.911  1.00  0.00     0.135 C 
ATOM      4  O   UNL     1     -12.672 -42.611  38.360  1.00  0.00    -0.299 OA
BRANCH   3   5
ATOM      5  C   UNL     1     -12.375 -41.359  40.336  1.00  0.00     0.072 C 
ATOM      6  C   UNL     1     -13.567 -41.213  41.275  1.00  0.00     0.012 C 
ENDBRANCH   3   5
ENDBRANCH   1   3
BRANCH   1   7
ATOM      7  C   UNL     1     -12.702 -39.091  38.373  1.00  0.00     0.038 C 
BRANCH   7   8
ATOM      8  C   UNL     1     -13.589 -37.979  38.865  1.00  0.00    -0.034 C 
ATOM      9  C   UNL     1     -13.624 -37.620  40.152  1.00  0.00     0.004 C 
ENDBRANCH   7   8
ENDBRANCH   1   7
TORSDOF 4
ENDMDL
MODEL 6
REMARK VINA RESULT:    -4.076      2.106      3.191
REMARK INTER + INTRA:          -5.473
REMARK INTER:                  -4.993
REMARK INTRA:                  -0.480
REMARK UNBOUND:                -0.444
REMARK SMILES C=CC[C@@H](C)C(=O)CC
REMARK SMILES IDX 4 1 5 2 6 3 7 4 8 5 9 6 3 7 2 8 1 9
REMARK H PARENT
REMARK Flexibility Score: inf
ROOT
ATOM      1  C   UNL     1     -13.183 -39.499  41.655  1.00  0.00     0.057 C 
ATOM      2  C   UNL     1     -12.290 -39.315  42.891  1.00  0.00     0.016 C 
ENDROOT
BRANCH   1   3
ATOM      3  C   UNL     1     -12.638 -38.686  40.501  1.00  0.00     0.135 C 
ATOM      4  O   UNL     1     -11.629 -38.013  40.657  1.00  0.00    -0.299 OA
BRANCH   3   5
ATOM      5  C   UNL     1     -13.318 -38.685  39.156  1.00  0.00     0.072 C 
ATOM      6  C   UNL     1     -12.337 -39.063  38.053  1.00  0.00     0.012 C 
ENDBRANCH   3   5
ENDBRANCH   1   3
BRANCH   1   7
ATOM      7  C   UNL     1     -13.295 -40.981  41.248  1.00  0.00     0.038 C 
BRANCH   7   8
ATOM      8  C   UNL     1     -11.940 -41.627  41.132  1.00  0.00    -0.034 C 
ATOM      9  C   UNL     1     -11.599 -42.371  40.076  1.00  0.00     0.004 C 
ENDBRANCH   7   8
ENDBRANCH   1   7
TORSDOF 4
ENDMDL
MODEL 7
REMARK VINA RESULT:    -4.071      2.149      4.078
REMARK INTER + INTRA:          -5.467
REMARK INTER:                  -5.292
REMARK INTRA:                  -0.175
REMARK UNBOUND:                -0.444
REMARK SMILES C=CC[C@@H](C)C(=O)CC
REMARK SMILES IDX 4 1 5 2 6 3 7 4 8 5 9 6 3 7 2 8 1 9
REMARK H PARENT
REMARK Flexibility Score: inf
ROOT
ATOM      1  C   UNL     1     -13.424 -39.172  38.178  1.00  0.00     0.057 C 
ATOM      2  C   UNL     1     -12.738 -39.459  36.835  1.00  0.00     0.016 C 
ENDROOT
BRANCH   1   3
ATOM      3  C   UNL     1     -12.753 -39.967  39.278  1.00  0.00     0.135 C 
ATOM      4  O   UNL     1     -11.686 -39.586  39.738  1.00  0.00    -0.299 OA
BRANCH   3   5
ATOM      5  C   UNL     1     -13.375 -41.229  39.819  1.00  0.00     0.072 C 
ATOM      6  C   UNL     1     -13.473 -41.176  41.339  1.00  0.00     0.012 C 
ENDBRANCH   3   5
ENDBRANCH   1   3
BRANCH   1   7
ATOM      7  C   UNL     1     -13.396 -37.670  38.524  1.00  0.00     0.038 C 
BRANCH   7   8
ATOM      8  C   UNL     1     -13.111 -36.828  37.309  1.00  0.00    -0.034 C 
ATOM      9  C   UNL     1     -13.965 -35.895  36.879  1.00  0.00     0.004 C 
ENDBRANCH   7   8
ENDBRANCH   1   7
TORSDOF 4
ENDMDL
MODEL 8
REMARK VINA RESULT:    -4.019      3.032      4.229
REMARK INTER + INTRA:          -5.403
REMARK INTER:                  -5.189
REMARK INTRA:                  -0.214
REMARK UNBOUND:                -0.444
REMARK SMILES C=CC[C@@H](C)C(=O)CC
REMARK SMILES IDX 4 1 5 2 6 3 7 4 8 5 9 6 3 7 2 8 1 9
REMARK H PARENT
REMARK Flexibility Score: inf
ROOT
ATOM      1  C   UNL     1     -13.682 -37.690  39.801  1.00  0.00     0.057 C 
ATOM      2  C   UNL     1     -13.856 -37.274  41.269  1.00  0.00     0.016 C 
ENDROOT
BRANCH   1   3
ATOM      3  C   UNL     1     -12.778 -36.705  39.092  1.00  0.00     0.135 C 
ATOM      4  O   UNL     1     -11.565 -36.850  39.142  1.00  0.00    -0.299 OA
BRANCH   3   5
ATOM      5  C   UNL     1     -13.345 -35.539  38.324  1.00  0.00     0.072 C 
ATOM      6  C   UNL     1     -13.851 -35.986  36.957  1.00  0.00     0.012 C 
ENDBRANCH   3   5
ENDBRANCH   1   3
BRANCH   1   7
ATOM      7  C   UNL     1     -13.108 -39.115  39.677  1.00  0.00     0.038 C 
BRANCH   7   8
ATOM      8  C   UNL     1     -13.191 -39.861  40.982  1.00  0.00    -0.034 C 
ATOM      9  C   UNL     1     -13.575 -41.140  41.042  1.00  0.00     0.004 C 
ENDBRANCH   7   8
ENDBRANCH   1   7
TORSDOF 4
ENDMDL
MODEL 9
REMARK VINA RESULT:    -4.007      2.796      4.679
REMARK INTER + INTRA:          -5.388
REMARK INTER:                  -5.171
REMARK INTRA:                  -0.217
REMARK UNBOUND:                -0.444
REMARK SMILES C=CC[C@@H](C)C(=O)CC
REMARK SMILES IDX 4 1 5 2 6 3 7 4 8 5 9 6 3 7 2 8 1 9
REMARK H PARENT
REMARK Flexibility Score: inf
ROOT
ATOM      1  C   UNL     1     -13.439 -37.454  40.501  1.00  0.00     0.057 C 
ATOM      2  C   UNL     1     -14.609 -36.733  41.186  1.00  0.00     0.016 C 
ENDROOT
BRANCH   1   3
ATOM      3  C   UNL     1     -13.183 -38.780  41.185  1.00  0.00     0.135 C 
ATOM      4  O   UNL     1     -12.995 -38.813  42.393  1.00  0.00    -0.299 OA
BRANCH   3   5
ATOM      5  C   UNL     1     -13.150 -40.067  40.403  1.00  0.00     0.072 C 
ATOM      6  C   UNL     1     -13.539 -41.248  41.286  1.00  0.00     0.012 C 
ENDBRANCH   3   5
ENDBRANCH   1   3
BRANCH   1   7
ATOM      7  C   UNL     1     -13.707 -37.679  39.000  1.00  0.00     0.038 C 
BRANCH   7   8
ATOM      8  C   UNL     1     -14.488 -36.540  38.401  1.00  0.00    -0.034 C 
ATOM      9  C   UNL     1     -14.108 -35.941  37.268  1.00  0.00     0.004 C 
ENDBRANCH   7   8
ENDBRANCH   1   7
TORSDOF 4
ENDMDL
