MODEL 1
REMARK VINA RESULT:    -5.822      0.000      0.000
REMARK INTER + INTRA:         -17.418
REMARK INTER:                 -14.671
REMARK INTRA:                  -2.747
REMARK UNBOUND:                -2.747
REMARK SMILES CCCCCCCCCCCCCCCCCCCCCCCCCCCC(=O)[O-]
REMARK SMILES IDX 15 1 16 2 17 3 18 4 19 5 20 6 21 7 22 8 23 9 24 10 25 11
REMARK SMILES IDX 26 12 27 13 28 14 29 15 30 16 14 17 13 18 12 19 11 20 10 21
REMARK SMILES IDX 9 22 8 23 7 24 6 25 5 26 4 27 3 28 2 29 1 30
REMARK H PARENT
REMARK Flexibility Score: inf
ROOT
ATOM      1  C   UNL     1      98.922 124.891 127.001  1.00  0.00     0.000 C 
ENDROOT
BRANCH   1   2
ATOM      2  C   UNL     1      99.928 123.724 126.965  1.00  0.00     0.000 C 
BRANCH   2   3
ATOM      3  C   UNL     1     101.362 124.226 126.746  1.00  0.00     0.000 C 
BRANCH   3   4
ATOM      4  C   UNL     1     101.399 125.738 126.445  1.00  0.00     0.000 C 
BRANCH   4   5
ATOM      5  C   UNL     1     102.002 126.045 125.063  1.00  0.00     0.000 C 
BRANCH   5   6
ATOM      6  C   UNL     1     101.583 127.429 124.529  1.00  0.00     0.000 C 
BRANCH   6   7
ATOM      7  C   UNL     1     100.316 127.981 125.220  1.00  0.00     0.000 C 
BRANCH   7   8
ATOM      8  C   UNL     1     100.543 129.332 125.917  1.00  0.00     0.000 C 
BRANCH   8   9
ATOM      9  C   UNL     1     101.609 129.247 127.024  1.00  0.00     0.000 C 
BRANCH   9  10
ATOM     10  C   UNL     1     101.205 130.028 128.293  1.00  0.00     0.000 C 
BRANCH  10  11
ATOM     11  C   UNL     1      99.922 129.508 128.969  1.00  0.00     0.000 C 
BRANCH  11  12
ATOM     12  C   UNL     1      99.803 127.977 129.045  1.00  0.00     0.006 C 
BRANCH  12  13
ATOM     13  C   UNL     1      98.399 127.506 129.457  1.00  0.00     0.053 C 
BRANCH  13  14
ATOM     14  C   UNL     1      97.342 128.146 128.609  1.00  0.00     0.041 C 
ATOM     15  O   UNL     1      97.470 128.193 127.356  1.00  0.00    -0.550 OA
ATOM     16  O   UNL     1      96.227 128.718 129.208  1.00  0.00    -0.550 OA
ENDBRANCH  13  14
ENDBRANCH  12  13
ENDBRANCH  11  12
ENDBRANCH  10  11
ENDBRANCH   9  10
ENDBRANCH   8   9
ENDBRANCH   7   8
ENDBRANCH   6   7
ENDBRANCH   5   6
ENDBRANCH   4   5
ENDBRANCH   3   4
ENDBRANCH   2   3
ENDBRANCH   1   2
BRANCH   1  17
ATOM     17  C   UNL     1      97.573 124.529 126.362  1.00  0.00     0.000 C 
BRANCH  17  18
ATOM     18  C   UNL     1      97.229 125.461 125.185  1.00  0.00     0.000 C 
BRANCH  18  19
ATOM     19  C   UNL     1      96.475 124.738 124.059  1.00  0.00     0.000 C 
BRANCH  19  20
ATOM     20  C   UNL     1      95.464 123.710 124.593  1.00  0.00     0.000 C 
BRANCH  20  21
ATOM     21  C   UNL     1      94.070 123.871 123.968  1.00  0.00     0.000 C 
BRANCH  21  22
ATOM     22  C   UNL     1      93.592 122.600 123.242  1.00  0.00    -0.000 C 
BRANCH  22  23
ATOM     23  C   UNL     1      94.738 121.622 122.929  1.00  0.00    -0.000 C 
BRANCH  23  24
ATOM     24  C   UNL     1      95.272 121.687 121.487  1.00  0.00    -0.000 C 
BRANCH  24  25
ATOM     25  C   UNL     1      94.224 121.267 120.442  1.00  0.00    -0.000 C 
BRANCH  25  26
ATOM     26  C   UNL     1      94.828 121.082 119.042  1.00  0.00    -0.000 C 
BRANCH  26  27
ATOM     27  C   UNL     1      93.755 121.000 117.946  1.00  0.00    -0.000 C 
BRANCH  27  28
ATOM     28  C   UNL     1      92.692 122.089 118.134  1.00  0.00    -0.000 C 
BRANCH  28  29
ATOM     29  C   UNL     1      92.293 122.709 116.790  1.00  0.00    -0.003 C 
ATOM     30  C   UNL     1      92.618 124.199 116.751  1.00  0.00     0.004 C 
ENDBRANCH  28  29
ENDBRANCH  27  28
ENDBRANCH  26  27
ENDBRANCH  25  26
ENDBRANCH  24  25
ENDBRANCH  23  24
ENDBRANCH  22  23
ENDBRANCH  21  22
ENDBRANCH  20  21
ENDBRANCH  19  20
ENDBRANCH  18  19
ENDBRANCH  17  18
ENDBRANCH   1  17
TORSDOF 26
ENDMDL
MODEL 2
REMARK VINA RESULT:    -5.176      3.463      8.896
REMARK INTER + INTRA:         -15.792
REMARK INTER:                 -11.138
REMARK INTRA:                  -4.654
REMARK UNBOUND:                -2.747
REMARK SMILES CCCCCCCCCCCCCCCCCCCCCCCCCCCC(=O)[O-]
REMARK SMILES IDX 15 1 16 2 17 3 18 4 19 5 20 6 21 7 22 8 23 9 24 10 25 11
REMARK SMILES IDX 26 12 27 13 28 14 29 15 30 16 14 17 13 18 12 19 11 20 10 21
REMARK SMILES IDX 9 22 8 23 7 24 6 25 5 26 4 27 3 28 2 29 1 30
REMARK H PARENT
REMARK Flexibility Score: inf
ROOT
ATOM      1  C   UNL     1      97.122 126.921 129.063  1.00  0.00     0.000 C 
ENDROOT
BRANCH   1   2
ATOM      2  C   UNL     1      97.588 125.586 129.675  1.00  0.00     0.000 C 
BRANCH   2   3
ATOM      3  C   UNL     1      98.582 125.812 130.823  1.00  0.00     0.000 C 
BRANCH   3   4
ATOM      4  C   UNL     1      99.884 125.011 130.618  1.00  0.00     0.000 C 
BRANCH   4   5
ATOM      5  C   UNL     1     100.865 125.724 129.670  1.00  0.00     0.000 C 
BRANCH   5   6
ATOM      6  C   UNL     1     100.825 125.154 128.239  1.00  0.00     0.000 C 
BRANCH   6   7
ATOM      7  C   UNL     1     100.587 123.627 128.206  1.00  0.00     0.000 C 
BRANCH   7   8
ATOM      8  C   UNL     1      99.449 123.209 127.262  1.00  0.00     0.000 C 
BRANCH   8   9
ATOM      9  C   UNL     1      98.841 124.407 126.511  1.00  0.00     0.000 C 
BRANCH   9  10
ATOM     10  C   UNL     1      97.325 124.242 126.267  1.00  0.00     0.000 C 
BRANCH  10  11
ATOM     11  C   UNL     1      96.831 124.860 124.946  1.00  0.00     0.000 C 
BRANCH  11  12
ATOM     12  C   UNL     1      95.787 124.024 124.187  1.00  0.00     0.006 C 
BRANCH  12  13
ATOM     13  C   UNL     1      96.382 122.755 123.555  1.00  0.00     0.053 C 
BRANCH  13  14
ATOM     14  C   UNL     1      95.459 122.177 122.527  1.00  0.00     0.041 C 
ATOM     15  O   UNL     1      95.875 121.927 121.363  1.00  0.00    -0.550 OA
ATOM     16  O   UNL     1      94.128 121.940 122.846  1.00  0.00    -0.550 OA
ENDBRANCH  13  14
ENDBRANCH  12  13
ENDBRANCH  11  12
ENDBRANCH  10  11
ENDBRANCH   9  10
ENDBRANCH   8   9
ENDBRANCH   7   8
ENDBRANCH   6   7
ENDBRANCH   5   6
ENDBRANCH   4   5
ENDBRANCH   3   4
ENDBRANCH   2   3
ENDBRANCH   1   2
BRANCH   1  17
ATOM     17  C   UNL     1      96.040 127.612 129.906  1.00  0.00     0.000 C 
BRANCH  17  18
ATOM     18  C   UNL     1      96.202 129.144 129.901  1.00  0.00     0.000 C 
BRANCH  18  19
ATOM     19  C   UNL     1      97.669 129.582 129.774  1.00  0.00     0.000 C 
BRANCH  19  20
ATOM     20  C   UNL     1      98.408 129.563 131.123  1.00  0.00     0.000 C 
BRANCH  20  21
ATOM     21  C   UNL     1      99.863 129.085 130.994  1.00  0.00     0.000 C 
BRANCH  21  22
ATOM     22  C   UNL     1     100.755 130.088 130.241  1.00  0.00    -0.000 C 
BRANCH  22  23
ATOM     23  C   UNL     1     101.781 129.404 129.320  1.00  0.00    -0.000 C 
BRANCH  23  24
ATOM     24  C   UNL     1     101.682 129.795 127.834  1.00  0.00    -0.000 C 
BRANCH  24  25
ATOM     25  C   UNL     1     100.231 129.848 127.327  1.00  0.00    -0.000 C 
BRANCH  25  26
ATOM     26  C   UNL     1      99.640 128.452 127.081  1.00  0.00    -0.000 C 
BRANCH  26  27
ATOM     27  C   UNL     1      99.758 128.014 125.614  1.00  0.00    -0.000 C 
BRANCH  27  28
ATOM     28  C   UNL     1     101.054 127.231 125.376  1.00  0.00    -0.000 C 
BRANCH  28  29
ATOM     29  C   UNL     1     101.780 127.732 124.122  1.00  0.00    -0.003 C 
ATOM     30  C   UNL     1     101.882 129.254 124.114  1.00  0.00     0.004 C 
ENDBRANCH  28  29
ENDBRANCH  27  28
ENDBRANCH  26  27
ENDBRANCH  25  26
ENDBRANCH  24  25
ENDBRANCH  23  24
ENDBRANCH  22  23
ENDBRANCH  21  22
ENDBRANCH  20  21
ENDBRANCH  19  20
ENDBRANCH  18  19
ENDBRANCH  17  18
ENDBRANCH   1  17
TORSDOF 26
ENDMDL
MODEL 3
REMARK VINA RESULT:    -5.104      3.857     10.519
REMARK INTER + INTRA:         -15.608
REMARK INTER:                 -12.522
REMARK INTRA:                  -3.086
REMARK UNBOUND:                -2.747
REMARK SMILES CCCCCCCCCCCCCCCCCCCCCCCCCCCC(=O)[O-]
REMARK SMILES IDX 15 1 16 2 17 3 18 4 19 5 20 6 21 7 22 8 23 9 24 10 25 11
REMARK SMILES IDX 26 12 27 13 28 14 29 15 30 16 14 17 13 18 12 19 11 20 10 21
REMARK SMILES IDX 9 22 8 23 7 24 6 25 5 26 4 27 3 28 2 29 1 30
REMARK H PARENT
REMARK Flexibility Score: inf
ROOT
ATOM      1  C   UNL     1      97.857 127.205 127.881  1.00  0.00     0.000 C 
ENDROOT
BRANCH   1   2
ATOM      2  C   UNL     1      98.131 127.613 126.420  1.00  0.00     0.000 C 
BRANCH   2   3
ATOM      3  C   UNL     1      97.998 126.416 125.469  1.00  0.00     0.000 C 
BRANCH   3   4
ATOM      4  C   UNL     1      98.359 125.089 126.165  1.00  0.00     0.000 C 
BRANCH   4   5
ATOM      5  C   UNL     1      97.290 124.004 125.948  1.00  0.00     0.000 C 
BRANCH   5   6
ATOM      6  C   UNL     1      96.526 124.183 124.621  1.00  0.00     0.000 C 
BRANCH   6   7
ATOM      7  C   UNL     1      95.058 123.706 124.704  1.00  0.00     0.000 C 
BRANCH   7   8
ATOM      8  C   UNL     1      94.439 123.402 123.331  1.00  0.00     0.000 C 
BRANCH   8   9
ATOM      9  C   UNL     1      95.288 122.415 122.511  1.00  0.00     0.000 C 
BRANCH   9  10
ATOM     10  C   UNL     1      94.441 121.286 121.884  1.00  0.00     0.000 C 
BRANCH  10  11
ATOM     11  C   UNL     1      94.730 121.038 120.392  1.00  0.00     0.000 C 
BRANCH  11  12
ATOM     12  C   UNL     1      93.525 121.227 119.456  1.00  0.00     0.006 C 
BRANCH  12  13
ATOM     13  C   UNL     1      93.889 121.063 117.972  1.00  0.00     0.053 C 
BRANCH  13  14
ATOM     14  C   UNL     1      92.723 121.382 117.088  1.00  0.00     0.041 C 
ATOM     15  O   UNL     1      92.708 121.000 115.887  1.00  0.00    -0.550 OA
ATOM     16  O   UNL     1      91.661 122.126 117.585  1.00  0.00    -0.550 OA
ENDBRANCH  13  14
ENDBRANCH  12  13
ENDBRANCH  11  12
ENDBRANCH  10  11
ENDBRANCH   9  10
ENDBRANCH   8   9
ENDBRANCH   7   8
ENDBRANCH   6   7
ENDBRANCH   5   6
ENDBRANCH   4   5
ENDBRANCH   3   4
ENDBRANCH   2   3
ENDBRANCH   1   2
BRANCH   1  17
ATOM     17  C   UNL     1      96.987 128.228 128.627  1.00  0.00     0.000 C 
BRANCH  17  18
ATOM     18  C   UNL     1      97.751 129.537 128.901  1.00  0.00     0.000 C 
BRANCH  18  19
ATOM     19  C   UNL     1      98.538 129.496 130.219  1.00  0.00     0.000 C 
BRANCH  19  20
ATOM     20  C   UNL     1     100.036 129.785 130.019  1.00  0.00     0.000 C 
BRANCH  20  21
ATOM     21  C   UNL     1     100.467 129.687 128.548  1.00  0.00     0.000 C 
BRANCH  21  22
ATOM     22  C   UNL     1     101.515 128.586 128.305  1.00  0.00    -0.000 C 
BRANCH  22  23
ATOM     23  C   UNL     1     102.125 128.041 129.609  1.00  0.00    -0.000 C 
BRANCH  23  24
ATOM     24  C   UNL     1     101.751 126.585 129.942  1.00  0.00    -0.000 C 
BRANCH  24  25
ATOM     25  C   UNL     1     101.171 125.827 128.736  1.00  0.00    -0.000 C 
BRANCH  25  26
ATOM     26  C   UNL     1     100.559 124.474 129.128  1.00  0.00    -0.000 C 
BRANCH  26  27
ATOM     27  C   UNL     1     101.385 123.284 128.615  1.00  0.00    -0.000 C 
BRANCH  27  28
ATOM     28  C   UNL     1     101.498 123.312 127.086  1.00  0.00    -0.000 C 
BRANCH  28  29
ATOM     29  C   UNL     1     100.887 122.052 126.464  1.00  0.00    -0.003 C 
ATOM     30  C   UNL     1      99.783 121.479 127.348  1.00  0.00     0.004 C 
ENDBRANCH  28  29
ENDBRANCH  27  28
ENDBRANCH  26  27
ENDBRANCH  25  26
ENDBRANCH  24  25
ENDBRANCH  23  24
ENDBRANCH  22  23
ENDBRANCH  21  22
ENDBRANCH  20  21
ENDBRANCH  19  20
ENDBRANCH  18  19
ENDBRANCH  17  18
ENDBRANCH   1  17
TORSDOF 26
ENDMDL
MODEL 4
REMARK VINA RESULT:    -4.880      3.129      9.676
REMARK INTER + INTRA:         -15.045
REMARK INTER:                 -10.934
REMARK INTRA:                  -4.111
REMARK UNBOUND:                -2.747
REMARK SMILES CCCCCCCCCCCCCCCCCCCCCCCCCCCC(=O)[O-]
REMARK SMILES IDX 15 1 16 2 17 3 18 4 19 5 20 6 21 7 22 8 23 9 24 10 25 11
REMARK SMILES IDX 26 12 27 13 28 14 29 15 30 16 14 17 13 18 12 19 11 20 10 21
REMARK SMILES IDX 9 22 8 23 7 24 6 25 5 26 4 27 3 28 2 29 1 30
REMARK H PARENT
REMARK Flexibility Score: inf
ROOT
ATOM      1  C   UNL     1      99.328 127.569 125.895  1.00  0.00     0.000 C 
ENDROOT
BRANCH   1   2
ATOM      2  C   UNL     1     100.411 126.561 125.461  1.00  0.00     0.000 C 
BRANCH   2   3
ATOM      3  C   UNL     1     101.452 126.344 126.568  1.00  0.00     0.000 C 
BRANCH   3   4
ATOM      4  C   UNL     1     101.065 125.175 127.496  1.00  0.00     0.000 C 
BRANCH   4   5
ATOM      5  C   UNL     1     100.737 123.891 126.713  1.00  0.00     0.000 C 
BRANCH   5   6
ATOM      6  C   UNL     1      99.408 123.250 127.157  1.00  0.00     0.000 C 
BRANCH   6   7
ATOM      7  C   UNL     1      98.169 124.019 126.644  1.00  0.00     0.000 C 
BRANCH   7   8
ATOM      8  C   UNL     1      97.390 123.262 125.557  1.00  0.00     0.000 C 
BRANCH   8   9
ATOM      9  C   UNL     1      96.112 124.004 125.128  1.00  0.00     0.000 C 
BRANCH   9  10
ATOM     10  C   UNL     1      95.763 123.768 123.642  1.00  0.00     0.000 C 
BRANCH  10  11
ATOM     11  C   UNL     1      96.515 122.586 123.001  1.00  0.00     0.000 C 
BRANCH  11  12
ATOM     12  C   UNL     1      95.792 121.919 121.819  1.00  0.00     0.006 C 
BRANCH  12  13
ATOM     13  C   UNL     1      94.459 121.268 122.223  1.00  0.00     0.053 C 
BRANCH  13  14
ATOM     14  C   UNL     1      93.294 122.035 121.677  1.00  0.00     0.041 C 
ATOM     15  O   UNL     1      92.746 121.681 120.598  1.00  0.00    -0.550 OA
ATOM     16  O   UNL     1      92.828 123.158 122.347  1.00  0.00    -0.550 OA
ENDBRANCH  13  14
ENDBRANCH  12  13
ENDBRANCH  11  12
ENDBRANCH  10  11
ENDBRANCH   9  10
ENDBRANCH   8   9
ENDBRANCH   7   8
ENDBRANCH   6   7
ENDBRANCH   5   6
ENDBRANCH   4   5
ENDBRANCH   3   4
ENDBRANCH   2   3
ENDBRANCH   1   2
BRANCH   1  17
ATOM     17  C   UNL     1      99.584 128.144 127.296  1.00  0.00     0.000 C 
BRANCH  17  18
ATOM     18  C   UNL     1     100.177 129.564 127.232  1.00  0.00     0.000 C 
BRANCH  18  19
ATOM     19  C   UNL     1     101.231 129.814 128.321  1.00  0.00     0.000 C 
BRANCH  19  20
ATOM     20  C   UNL     1     101.347 128.641 129.309  1.00  0.00     0.000 C 
BRANCH  20  21
ATOM     21  C   UNL     1     101.317 129.097 130.776  1.00  0.00     0.000 C 
BRANCH  21  22
ATOM     22  C   UNL     1     100.150 130.053 131.080  1.00  0.00    -0.000 C 
BRANCH  22  23
ATOM     23  C   UNL     1      98.787 129.340 131.125  1.00  0.00    -0.000 C 
BRANCH  23  24
ATOM     24  C   UNL     1      97.766 129.822 130.078  1.00  0.00    -0.000 C 
BRANCH  24  25
ATOM     25  C   UNL     1      96.728 128.745 129.717  1.00  0.00    -0.000 C 
BRANCH  25  26
ATOM     26  C   UNL     1      96.951 127.431 130.481  1.00  0.00    -0.000 C 
BRANCH  26  27
ATOM     27  C   UNL     1      97.500 126.314 129.580  1.00  0.00    -0.000 C 
BRANCH  27  28
ATOM     28  C   UNL     1      98.856 125.813 130.092  1.00  0.00    -0.000 C 
BRANCH  28  29
ATOM     29  C   UNL     1      98.713 124.466 130.808  1.00  0.00    -0.003 C 
ATOM     30  C   UNL     1      97.487 123.704 130.312  1.00  0.00     0.004 C 
ENDBRANCH  28  29
ENDBRANCH  27  28
ENDBRANCH  26  27
ENDBRANCH  25  26
ENDBRANCH  24  25
ENDBRANCH  23  24
ENDBRANCH  22  23
ENDBRANCH  21  22
ENDBRANCH  20  21
ENDBRANCH  19  20
ENDBRANCH  18  19
ENDBRANCH  17  18
ENDBRANCH   1  17
TORSDOF 26
ENDMDL
MODEL 5
REMARK VINA RESULT:    -4.782      2.283      5.386
REMARK INTER + INTRA:         -14.797
REMARK INTER:                 -11.427
REMARK INTRA:                  -3.370
REMARK UNBOUND:                -2.747
REMARK SMILES CCCCCCCCCCCCCCCCCCCCCCCCCCCC(=O)[O-]
REMARK SMILES IDX 15 1 16 2 17 3 18 4 19 5 20 6 21 7 22 8 23 9 24 10 25 11
REMARK SMILES IDX 26 12 27 13 28 14 29 15 30 16 14 17 13 18 12 19 11 20 10 21
REMARK SMILES IDX 9 22 8 23 7 24 6 25 5 26 4 27 3 28 2 29 1 30
REMARK H PARENT
REMARK Flexibility Score: inf
ROOT
ATOM      1  C   UNL     1      96.377 129.055 129.360  1.00  0.00     0.000 C 
ENDROOT
BRANCH   1   2
ATOM      2  C   UNL     1      97.834 129.557 129.409  1.00  0.00     0.000 C 
BRANCH   2   3
ATOM      3  C   UNL     1      98.413 129.461 130.827  1.00  0.00     0.000 C 
BRANCH   3   4
ATOM      4  C   UNL     1      99.951 129.571 130.826  1.00  0.00     0.000 C 
BRANCH   4   5
ATOM      5  C   UNL     1     100.621 128.393 130.095  1.00  0.00     0.000 C 
BRANCH   5   6
ATOM      6  C   UNL     1     101.693 128.854 129.088  1.00  0.00     0.000 C 
BRANCH   6   7
ATOM      7  C   UNL     1     101.554 130.345 128.702  1.00  0.00     0.000 C 
BRANCH   7   8
ATOM      8  C   UNL     1     101.064 130.558 127.262  1.00  0.00     0.000 C 
BRANCH   8   9
ATOM      9  C   UNL     1     102.101 130.108 126.218  1.00  0.00     0.000 C 
BRANCH   9  10
ATOM     10  C   UNL     1     101.450 129.679 124.885  1.00  0.00     0.000 C 
BRANCH  10  11
ATOM     11  C   UNL     1     101.728 128.216 124.492  1.00  0.00     0.000 C 
BRANCH  11  12
ATOM     12  C   UNL     1     101.585 127.198 125.636  1.00  0.00     0.006 C 
BRANCH  12  13
ATOM     13  C   UNL     1     100.326 126.325 125.505  1.00  0.00     0.053 C 
BRANCH  13  14
ATOM     14  C   UNL     1      99.087 127.114 125.795  1.00  0.00     0.041 C 
ATOM     15  O   UNL     1      98.074 127.008 125.052  1.00  0.00    -0.550 OA
ATOM     16  O   UNL     1      99.059 127.990 126.872  1.00  0.00    -0.550 OA
ENDBRANCH  13  14
ENDBRANCH  12  13
ENDBRANCH  11  12
ENDBRANCH  10  11
ENDBRANCH   9  10
ENDBRANCH   8   9
ENDBRANCH   7   8
ENDBRANCH   6   7
ENDBRANCH   5   6
ENDBRANCH   4   5
ENDBRANCH   3   4
ENDBRANCH   2   3
ENDBRANCH   1   2
BRANCH   1  17
ATOM     17  C   UNL     1      96.211 127.664 129.991  1.00  0.00     0.000 C 
BRANCH  17  18
ATOM     18  C   UNL     1      97.211 126.648 129.408  1.00  0.00     0.000 C 
BRANCH  18  19
ATOM     19  C   UNL     1      97.633 125.582 130.430  1.00  0.00     0.000 C 
BRANCH  19  20
ATOM     20  C   UNL     1      99.147 125.309 130.405  1.00  0.00     0.000 C 
BRANCH  20  21
ATOM     21  C   UNL     1      99.642 124.842 129.027  1.00  0.00     0.000 C 
BRANCH  21  22
ATOM     22  C   UNL     1      98.928 123.569 128.538  1.00  0.00    -0.000 C 
BRANCH  22  23
ATOM     23  C   UNL     1      98.819 123.495 127.004  1.00  0.00    -0.000 C 
BRANCH  23  24
ATOM     24  C   UNL     1      97.459 123.928 126.428  1.00  0.00    -0.000 C 
BRANCH  24  25
ATOM     25  C   UNL     1      97.105 123.198 125.121  1.00  0.00    -0.000 C 
BRANCH  25  26
ATOM     26  C   UNL     1      96.113 123.988 124.254  1.00  0.00    -0.000 C 
BRANCH  26  27
ATOM     27  C   UNL     1      95.040 123.088 123.622  1.00  0.00    -0.000 C 
BRANCH  27  28
ATOM     28  C   UNL     1      95.573 122.402 122.358  1.00  0.00    -0.000 C 
BRANCH  28  29
ATOM     29  C   UNL     1      94.573 121.367 121.829  1.00  0.00    -0.003 C 
ATOM     30  C   UNL     1      93.157 121.933 121.797  1.00  0.00     0.004 C 
ENDBRANCH  28  29
ENDBRANCH  27  28
ENDBRANCH  26  27
ENDBRANCH  25  26
ENDBRANCH  24  25
ENDBRANCH  23  24
ENDBRANCH  22  23
ENDBRANCH  21  22
ENDBRANCH  20  21
ENDBRANCH  19  20
ENDBRANCH  18  19
ENDBRANCH  17  18
ENDBRANCH   1  17
TORSDOF 26
ENDMDL
MODEL 6
REMARK VINA RESULT:    -4.725      2.623      5.654
REMARK INTER + INTRA:         -14.655
REMARK INTER:                 -10.331
REMARK INTRA:                  -4.323
REMARK UNBOUND:                -2.747
REMARK SMILES CCCCCCCCCCCCCCCCCCCCCCCCCCCC(=O)[O-]
REMARK SMILES IDX 15 1 16 2 17 3 18 4 19 5 20 6 21 7 22 8 23 9 24 10 25 11
REMARK SMILES IDX 26 12 27 13 28 14 29 15 30 16 14 17 13 18 12 19 11 20 10 21
REMARK SMILES IDX 9 22 8 23 7 24 6 25 5 26 4 27 3 28 2 29 1 30
REMARK H PARENT
REMARK Flexibility Score: inf
ROOT
ATOM      1  C   UNL     1     101.286 128.230 124.361  1.00  0.00     0.000 C 
ENDROOT
BRANCH   1   2
ATOM      2  C   UNL     1     100.619 128.953 125.549  1.00  0.00     0.000 C 
BRANCH   2   3
ATOM      3  C   UNL     1     101.294 130.301 125.835  1.00  0.00     0.000 C 
BRANCH   3   4
ATOM      4  C   UNL     1     101.819 130.381 127.283  1.00  0.00     0.000 C 
BRANCH   4   5
ATOM      5  C   UNL     1     101.127 129.369 128.213  1.00  0.00     0.000 C 
BRANCH   5   6
ATOM      6  C   UNL     1     102.116 128.668 129.165  1.00  0.00     0.000 C 
BRANCH   6   7
ATOM      7  C   UNL     1     101.651 128.691 130.639  1.00  0.00     0.000 C 
BRANCH   7   8
ATOM      8  C   UNL     1     100.123 128.687 130.795  1.00  0.00     0.000 C 
BRANCH   8   9
ATOM      9  C   UNL     1      99.552 127.265 130.939  1.00  0.00     0.000 C 
BRANCH   9  10
ATOM     10  C   UNL     1      98.325 127.027 130.032  1.00  0.00     0.000 C 
BRANCH  10  11
ATOM     11  C   UNL     1      98.499 127.544 128.592  1.00  0.00     0.000 C 
BRANCH  11  12
ATOM     12  C   UNL     1      97.403 128.509 128.110  1.00  0.00     0.006 C 
BRANCH  12  13
ATOM     13  C   UNL     1      97.588 129.939 128.642  1.00  0.00     0.053 C 
BRANCH  13  14
ATOM     14  C   UNL     1      96.587 130.252 129.712  1.00  0.00     0.041 C 
ATOM     15  O   UNL     1      95.354 130.262 129.451  1.00  0.00    -0.550 OA
ATOM     16  O   UNL     1      97.019 130.563 130.995  1.00  0.00    -0.550 OA
ENDBRANCH  13  14
ENDBRANCH  12  13
ENDBRANCH  11  12
ENDBRANCH  10  11
ENDBRANCH   9  10
ENDBRANCH   8   9
ENDBRANCH   7   8
ENDBRANCH   6   7
ENDBRANCH   5   6
ENDBRANCH   4   5
ENDBRANCH   3   4
ENDBRANCH   2   3
ENDBRANCH   1   2
BRANCH   1  17
ATOM     17  C   UNL     1     101.824 126.842 124.741  1.00  0.00     0.000 C 
BRANCH  17  18
ATOM     18  C   UNL     1     100.926 126.146 125.780  1.00  0.00     0.000 C 
BRANCH  18  19
ATOM     19  C   UNL     1     101.683 125.781 127.066  1.00  0.00     0.000 C 
BRANCH  19  20
ATOM     20  C   UNL     1     101.396 124.343 127.530  1.00  0.00     0.000 C 
BRANCH  20  21
ATOM     21  C   UNL     1     101.083 124.257 129.032  1.00  0.00     0.000 C 
BRANCH  21  22
ATOM     22  C   UNL     1      99.646 123.785 129.316  1.00  0.00    -0.000 C 
BRANCH  22  23
ATOM     23  C   UNL     1      98.903 123.329 128.047  1.00  0.00    -0.000 C 
BRANCH  23  24
ATOM     24  C   UNL     1      97.649 124.150 127.698  1.00  0.00    -0.000 C 
BRANCH  24  25
ATOM     25  C   UNL     1      97.576 124.525 126.208  1.00  0.00    -0.000 C 
BRANCH  25  26
ATOM     26  C   UNL     1      96.909 123.434 125.357  1.00  0.00    -0.000 C 
BRANCH  26  27
ATOM     27  C   UNL     1      95.932 124.012 124.322  1.00  0.00    -0.000 C 
BRANCH  27  28
ATOM     28  C   UNL     1      96.009 123.237 123.001  1.00  0.00    -0.000 C 
BRANCH  28  29
ATOM     29  C   UNL     1      94.899 122.184 122.913  1.00  0.00    -0.003 C 
ATOM     30  C   UNL     1      93.537 122.788 123.241  1.00  0.00     0.004 C 
ENDBRANCH  28  29
ENDBRANCH  27  28
ENDBRANCH  26  27
ENDBRANCH  25  26
ENDBRANCH  24  25
ENDBRANCH  23  24
ENDBRANCH  22  23
ENDBRANCH  21  22
ENDBRANCH  20  21
ENDBRANCH  19  20
ENDBRANCH  18  19
ENDBRANCH  17  18
ENDBRANCH   1  17
TORSDOF 26
ENDMDL
MODEL 7
REMARK VINA RESULT:    -4.670      3.784     11.034
REMARK INTER + INTRA:         -14.516
REMARK INTER:                 -12.252
REMARK INTRA:                  -2.263
REMARK UNBOUND:                -2.747
REMARK SMILES CCCCCCCCCCCCCCCCCCCCCCCCCCCC(=O)[O-]
REMARK SMILES IDX 15 1 16 2 17 3 18 4 19 5 20 6 21 7 22 8 23 9 24 10 25 11
REMARK SMILES IDX 26 12 27 13 28 14 29 15 30 16 14 17 13 18 12 19 11 20 10 21
REMARK SMILES IDX 9 22 8 23 7 24 6 25 5 26 4 27 3 28 2 29 1 30
REMARK H PARENT
REMARK Flexibility Score: inf
ROOT
ATOM      1  C   UNL     1      98.253 125.954 127.844  1.00  0.00     0.000 C 
ENDROOT
BRANCH   1   2
ATOM      2  C   UNL     1      98.155 125.125 126.548  1.00  0.00     0.000 C 
BRANCH   2   3
ATOM      3  C   UNL     1      97.559 125.949 125.399  1.00  0.00     0.000 C 
BRANCH   3   4
ATOM      4  C   UNL     1      96.779 125.065 124.405  1.00  0.00     0.000 C 
BRANCH   4   5
ATOM      5  C   UNL     1      96.535 123.647 124.952  1.00  0.00     0.000 C 
BRANCH   5   6
ATOM      6  C   UNL     1      96.233 122.627 123.836  1.00  0.00     0.000 C 
BRANCH   6   7
ATOM      7  C   UNL     1      95.129 123.107 122.866  1.00  0.00     0.000 C 
BRANCH   7   8
ATOM      8  C   UNL     1      93.849 122.260 122.933  1.00  0.00     0.000 C 
BRANCH   8   9
ATOM      9  C   UNL     1      93.542 121.555 121.601  1.00  0.00     0.000 C 
BRANCH   9  10
ATOM     10  C   UNL     1      94.817 121.032 120.903  1.00  0.00     0.000 C 
BRANCH  10  11
ATOM     11  C   UNL     1      94.866 121.317 119.390  1.00  0.00     0.000 C 
BRANCH  11  12
ATOM     12  C   UNL     1      93.561 121.024 118.631  1.00  0.00     0.006 C 
BRANCH  12  13
ATOM     13  C   UNL     1      92.684 122.273 118.445  1.00  0.00     0.053 C 
BRANCH  13  14
ATOM     14  C   UNL     1      92.561 122.639 116.998  1.00  0.00     0.041 C 
ATOM     15  O   UNL     1      92.457 123.847 116.651  1.00  0.00    -0.550 OA
ATOM     16  O   UNL     1      92.531 121.642 116.032  1.00  0.00    -0.550 OA
ENDBRANCH  13  14
ENDBRANCH  12  13
ENDBRANCH  11  12
ENDBRANCH  10  11
ENDBRANCH   9  10
ENDBRANCH   8   9
ENDBRANCH   7   8
ENDBRANCH   6   7
ENDBRANCH   5   6
ENDBRANCH   4   5
ENDBRANCH   3   4
ENDBRANCH   2   3
ENDBRANCH   1   2
BRANCH   1  17
ATOM     17  C   UNL     1      99.053 125.239 128.943  1.00  0.00     0.000 C 
BRANCH  17  18
ATOM     18  C   UNL     1      99.962 124.138 128.365  1.00  0.00     0.000 C 
BRANCH  18  19
ATOM     19  C   UNL     1     101.433 124.570 128.281  1.00  0.00     0.000 C 
BRANCH  19  20
ATOM     20  C   UNL     1     101.605 126.096 128.375  1.00  0.00     0.000 C 
BRANCH  20  21
ATOM     21  C   UNL     1     102.025 126.560 129.779  1.00  0.00     0.000 C 
BRANCH  21  22
ATOM     22  C   UNL     1     101.703 128.042 130.038  1.00  0.00    -0.000 C 
BRANCH  22  23
ATOM     23  C   UNL     1     102.095 128.955 128.862  1.00  0.00    -0.000 C 
BRANCH  23  24
ATOM     24  C   UNL     1     101.039 130.005 128.475  1.00  0.00    -0.000 C 
BRANCH  24  25
ATOM     25  C   UNL     1      99.982 129.457 127.500  1.00  0.00    -0.000 C 
BRANCH  25  26
ATOM     26  C   UNL     1      98.594 129.330 128.145  1.00  0.00    -0.000 C 
BRANCH  26  27
ATOM     27  C   UNL     1      98.553 129.907 129.569  1.00  0.00    -0.000 C 
BRANCH  27  28
ATOM     28  C   UNL     1      97.109 130.156 130.020  1.00  0.00    -0.000 C 
BRANCH  28  29
ATOM     29  C   UNL     1      96.170 129.065 129.493  1.00  0.00    -0.003 C 
ATOM     30  C   UNL     1      96.197 127.832 130.391  1.00  0.00     0.004 C 
ENDBRANCH  28  29
ENDBRANCH  27  28
ENDBRANCH  26  27
ENDBRANCH  25  26
ENDBRANCH  24  25
ENDBRANCH  23  24
ENDBRANCH  22  23
ENDBRANCH  21  22
ENDBRANCH  20  21
ENDBRANCH  19  20
ENDBRANCH  18  19
ENDBRANCH  17  18
ENDBRANCH   1  17
TORSDOF 26
ENDMDL
