MODEL 1
REMARK VINA RESULT:    -0.474      0.000      0.000
REMARK INTER + INTRA:          -0.576
REMARK INTER:                  -0.862
REMARK INTRA:                   0.286
REMARK UNBOUND:                 0.286
REMARK SMILES CCCCCCCCCCCCCC[C@H](C)C(=O)[O-]
REMARK SMILES IDX 9 1 10 2 11 3 12 4 13 5 14 6 15 7 16 8 17 9 18 10 19 11 8 12
REMARK SMILES IDX 7 13 6 14 5 15 4 16 3 17 2 18 1 19
REMARK H PARENT
REMARK Flexibility Score: inf
ROOT
ATOM      1  C   UNL     1      -4.716  35.718  21.871  1.00  0.00     0.000 C 
ENDROOT
BRANCH   1   2
ATOM      2  C   UNL     1      -4.408  35.324  20.418  1.00  0.00     0.000 C 
BRANCH   2   3
ATOM      3  C   UNL     1      -4.960  36.339  19.401  1.00  0.00     0.000 C 
BRANCH   3   4
ATOM      4  C   UNL     1      -4.060  37.576  19.253  1.00  0.00     0.000 C 
BRANCH   4   5
ATOM      5  C   UNL     1      -3.208  37.542  17.975  1.00  0.00     0.001 C 
BRANCH   5   6
ATOM      6  C   UNL     1      -3.595  36.349  17.088  1.00  0.00     0.009 C 
BRANCH   6   7
ATOM      7  C   UNL     1      -2.919  36.410  15.703  1.00  0.00     0.032 C 
ATOM      8  C   UNL     1      -1.528  37.046  15.807  1.00  0.00     0.014 C 
BRANCH   7   9
ATOM      9  C   UNL     1      -3.758  37.172  14.712  1.00  0.00     0.044 C 
ATOM     10  O   UNL     1      -4.478  36.561  13.877  1.00  0.00    -0.550 OA
ATOM     11  O   UNL     1      -3.741  38.561  14.712  1.00  0.00    -0.550 OA
ENDBRANCH   7   9
ENDBRANCH   6   7
ENDBRANCH   5   6
ENDBRANCH   4   5
ENDBRANCH   3   4
ENDBRANCH   2   3
ENDBRANCH   1   2
BRANCH   1  12
ATOM     12  C   UNL     1      -5.102  34.511  22.745  1.00  0.00     0.000 C 
BRANCH  12  13
ATOM     13  C   UNL     1      -5.124  34.853  24.243  1.00  0.00    -0.000 C 
BRANCH  13  14
ATOM     14  C   UNL     1      -5.008  36.365  24.505  1.00  0.00    -0.000 C 
BRANCH  14  15
ATOM     15  C   UNL     1      -5.072  36.713  26.000  1.00  0.00    -0.000 C 
BRANCH  15  16
ATOM     16  C   UNL     1      -4.187  37.913  26.367  1.00  0.00    -0.000 C 
BRANCH  16  17
ATOM     17  C   UNL     1      -4.675  39.190  25.666  1.00  0.00    -0.000 C 
BRANCH  17  18
ATOM     18  C   UNL     1      -5.125  38.934  24.219  1.00  0.00    -0.003 C 
ATOM     19  C   UNL     1      -5.089  40.194  23.355  1.00  0.00     0.004 C 
ENDBRANCH  17  18
ENDBRANCH  16  17
ENDBRANCH  15  16
ENDBRANCH  14  15
ENDBRANCH  13  14
ENDBRANCH  12  13
ENDBRANCH   1  12
TORSDOF 14
ENDMDL
MODEL 2
REMARK VINA RESULT:    -0.276      1.444      3.201
REMARK INTER + INTRA:          -0.216
REMARK INTER:                  -0.096
REMARK INTRA:                  -0.120
REMARK UNBOUND:                 0.286
REMARK SMILES CCCCCCCCCCCCCC[C@H](C)C(=O)[O-]
REMARK SMILES IDX 9 1 10 2 11 3 12 4 13 5 14 6 15 7 16 8 17 9 18 10 19 11 8 12
REMARK SMILES IDX 7 13 6 14 5 15 4 16 3 17 2 18 1 19
REMARK H PARENT
REMARK Flexibility Score: inf
ROOT
ATOM      1  C   UNL     1      -2.365  37.101  20.823  1.00  0.00     0.000 C 
ENDROOT
BRANCH   1   2
ATOM      2  C   UNL     1      -0.995  37.128  20.127  1.00  0.00     0.000 C 
BRANCH   2   3
ATOM      3  C   UNL     1      -0.902  38.224  19.050  1.00  0.00     0.000 C 
BRANCH   3   4
ATOM      4  C   UNL     1      -0.780  37.648  17.631  1.00  0.00     0.000 C 
BRANCH   4   5
ATOM      5  C   UNL     1      -2.124  37.609  16.887  1.00  0.00     0.001 C 
BRANCH   5   6
ATOM      6  C   UNL     1      -2.408  36.201  16.341  1.00  0.00     0.009 C 
BRANCH   6   7
ATOM      7  C   UNL     1      -2.879  36.230  14.872  1.00  0.00     0.032 C 
ATOM      8  C   UNL     1      -1.684  36.365  13.923  1.00  0.00     0.014 C 
BRANCH   7   9
ATOM      9  C   UNL     1      -3.856  37.349  14.629  1.00  0.00     0.044 C 
ATOM     10  O   UNL     1      -4.967  37.123  14.078  1.00  0.00    -0.550 OA
ATOM     11  O   UNL     1      -3.534  38.646  15.011  1.00  0.00    -0.550 OA
ENDBRANCH   7   9
ENDBRANCH   6   7
ENDBRANCH   5   6
ENDBRANCH   4   5
ENDBRANCH   3   4
ENDBRANCH   2   3
ENDBRANCH   1   2
BRANCH   1  12
ATOM     12  C   UNL     1      -3.537  37.241  19.835  1.00  0.00     0.000 C 
BRANCH  12  13
ATOM     13  C   UNL     1      -4.491  36.037  19.881  1.00  0.00    -0.000 C 
BRANCH  13  14
ATOM     14  C   UNL     1      -5.116  35.832  21.272  1.00  0.00    -0.000 C 
BRANCH  14  15
ATOM     15  C   UNL     1      -4.650  34.532  21.945  1.00  0.00    -0.000 C 
BRANCH  15  16
ATOM     16  C   UNL     1      -4.863  34.543  23.466  1.00  0.00    -0.000 C 
BRANCH  16  17
ATOM     17  C   UNL     1      -5.124  35.970  23.973  1.00  0.00    -0.000 C 
BRANCH  17  18
ATOM     18  C   UNL     1      -4.755  36.147  25.453  1.00  0.00    -0.003 C 
ATOM     19  C   UNL     1      -4.805  37.605  25.907  1.00  0.00     0.004 C 
ENDBRANCH  17  18
ENDBRANCH  16  17
ENDBRANCH  15  16
ENDBRANCH  14  15
ENDBRANCH  13  14
ENDBRANCH  12  13
ENDBRANCH   1  12
TORSDOF 14
ENDMDL
MODEL 3
REMARK VINA RESULT:    -0.182      3.057      7.852
REMARK INTER + INTRA:          -0.045
REMARK INTER:                  -0.026
REMARK INTRA:                  -0.019
REMARK UNBOUND:                 0.286
REMARK SMILES CCCCCCCCCCCCCC[C@H](C)C(=O)[O-]
REMARK SMILES IDX 9 1 10 2 11 3 12 4 13 5 14 6 15 7 16 8 17 9 18 10 19 11 8 12
REMARK SMILES IDX 7 13 6 14 5 15 4 16 3 17 2 18 1 19
REMARK H PARENT
REMARK Flexibility Score: inf
ROOT
ATOM      1  C   UNL     1      -1.014  37.622  19.224  1.00  0.00     0.000 C 
ENDROOT
BRANCH   1   2
ATOM      2  C   UNL     1      -2.359  37.378  19.928  1.00  0.00     0.000 C 
BRANCH   2   3
ATOM      3  C   UNL     1      -3.124  38.683  20.209  1.00  0.00     0.000 C 
BRANCH   3   4
ATOM      4  C   UNL     1      -4.644  38.522  20.056  1.00  0.00     0.000 C 
BRANCH   4   5
ATOM      5  C   UNL     1      -5.123  37.091  20.346  1.00  0.00     0.001 C 
BRANCH   5   6
ATOM      6  C   UNL     1      -5.120  36.806  21.856  1.00  0.00     0.009 C 
BRANCH   6   7
ATOM      7  C   UNL     1      -5.081  35.296  22.165  1.00  0.00     0.032 C 
ATOM      8  C   UNL     1      -5.035  35.053  23.678  1.00  0.00     0.014 C 
BRANCH   7   9
ATOM      9  C   UNL     1      -3.905  34.628  21.503  1.00  0.00     0.044 C 
ATOM     10  O   UNL     1      -2.819  34.478  22.124  1.00  0.00    -0.550 OA
ATOM     11  O   UNL     1      -4.013  34.172  20.195  1.00  0.00    -0.550 OA
ENDBRANCH   7   9
ENDBRANCH   6   7
ENDBRANCH   5   6
ENDBRANCH   4   5
ENDBRANCH   3   4
ENDBRANCH   2   3
ENDBRANCH   1   2
BRANCH   1  12
ATOM     12  C   UNL     1      -1.167  37.825  17.706  1.00  0.00     0.000 C 
BRANCH  12  13
ATOM     13  C   UNL     1      -2.618  37.653  17.233  1.00  0.00    -0.000 C 
BRANCH  13  14
ATOM     14  C   UNL     1      -2.832  36.346  16.449  1.00  0.00    -0.000 C 
BRANCH  14  15
ATOM     15  C   UNL     1      -2.127  36.353  15.084  1.00  0.00    -0.000 C 
BRANCH  15  16
ATOM     16  C   UNL     1      -3.115  36.327  13.908  1.00  0.00    -0.000 C 
BRANCH  16  17
ATOM     17  C   UNL     1      -4.322  37.236  14.184  1.00  0.00    -0.000 C 
BRANCH  17  18
ATOM     18  C   UNL     1      -3.909  38.672  14.541  1.00  0.00    -0.003 C 
ATOM     19  C   UNL     1      -4.916  39.716  14.058  1.00  0.00     0.004 C 
ENDBRANCH  17  18
ENDBRANCH  16  17
ENDBRANCH  15  16
ENDBRANCH  14  15
ENDBRANCH  13  14
ENDBRANCH  12  13
ENDBRANCH   1  12
TORSDOF 14
ENDMDL
MODEL 4
REMARK VINA RESULT:     0.531      3.562      8.106
REMARK INTER + INTRA:           1.251
REMARK INTER:                   1.866
REMARK INTRA:                  -0.615
REMARK UNBOUND:                 0.286
REMARK SMILES CCCCCCCCCCCCCC[C@H](C)C(=O)[O-]
REMARK SMILES IDX 9 1 10 2 11 3 12 4 13 5 14 6 15 7 16 8 17 9 18 10 19 11 8 12
REMARK SMILES IDX 7 13 6 14 5 15 4 16 3 17 2 18 1 19
REMARK H PARENT
REMARK Flexibility Score: inf
ROOT
ATOM      1  C   UNL     1      -0.222  37.599  18.695  1.00  0.00     0.000 C 
ENDROOT
BRANCH   1   2
ATOM      2  C   UNL     1      -1.248  38.373  19.537  1.00  0.00     0.000 C 
BRANCH   2   3
ATOM      3  C   UNL     1      -2.694  38.144  19.062  1.00  0.00     0.000 C 
BRANCH   3   4
ATOM      4  C   UNL     1      -3.507  37.282  20.040  1.00  0.00     0.000 C 
BRANCH   4   5
ATOM      5  C   UNL     1      -4.410  36.264  19.326  1.00  0.00     0.001 C 
BRANCH   5   6
ATOM      6  C   UNL     1      -5.027  35.277  20.330  1.00  0.00     0.009 C 
BRANCH   6   7
ATOM      7  C   UNL     1      -4.190  35.160  21.620  1.00  0.00     0.032 C 
ATOM      8  C   UNL     1      -3.991  33.689  22.004  1.00  0.00     0.014 C 
BRANCH   7   9
ATOM      9  C   UNL     1      -4.827  35.907  22.761  1.00  0.00     0.044 C 
ATOM     10  O   UNL     1      -5.125  37.125  22.644  1.00  0.00    -0.550 OA
ATOM     11  O   UNL     1      -5.090  35.251  23.958  1.00  0.00    -0.550 OA
ENDBRANCH   7   9
ENDBRANCH   6   7
ENDBRANCH   5   6
ENDBRANCH   4   5
ENDBRANCH   3   4
ENDBRANCH   2   3
ENDBRANCH   1   2
BRANCH   1  12
ATOM     12  C   UNL     1      -0.591  37.556  17.201  1.00  0.00     0.000 C 
BRANCH  12  13
ATOM     13  C   UNL     1      -1.087  36.171  16.758  1.00  0.00    -0.000 C 
BRANCH  13  14
ATOM     14  C   UNL     1      -2.482  36.224  16.110  1.00  0.00    -0.000 C 
BRANCH  14  15
ATOM     15  C   UNL     1      -2.438  36.700  14.650  1.00  0.00    -0.000 C 
BRANCH  15  16
ATOM     16  C   UNL     1      -3.718  36.350  13.875  1.00  0.00    -0.000 C 
BRANCH  16  17
ATOM     17  C   UNL     1      -4.736  37.498  13.951  1.00  0.00    -0.000 C 
BRANCH  17  18
ATOM     18  C   UNL     1      -4.120  38.799  14.489  1.00  0.00    -0.003 C 
ATOM     19  C   UNL     1      -4.862  40.047  14.013  1.00  0.00     0.004 C 
ENDBRANCH  17  18
ENDBRANCH  16  17
ENDBRANCH  15  16
ENDBRANCH  14  15
ENDBRANCH  13  14
ENDBRANCH  12  13
ENDBRANCH   1  12
TORSDOF 14
ENDMDL
MODEL 5
REMARK VINA RESULT:     0.592      2.159      2.521
REMARK INTER + INTRA:           1.362
REMARK INTER:                   1.566
REMARK INTRA:                  -0.204
REMARK UNBOUND:                 0.286
REMARK SMILES CCCCCCCCCCCCCC[C@H](C)C(=O)[O-]
REMARK SMILES IDX 9 1 10 2 11 3 12 4 13 5 14 6 15 7 16 8 17 9 18 10 19 11 8 12
REMARK SMILES IDX 7 13 6 14 5 15 4 16 3 17 2 18 1 19
REMARK H PARENT
REMARK Flexibility Score: inf
ROOT
ATOM      1  C   UNL     1      -3.378  34.698  22.086  1.00  0.00     0.000 C 
ENDROOT
BRANCH   1   2
ATOM      2  C   UNL     1      -3.557  35.316  20.690  1.00  0.00     0.000 C 
BRANCH   2   3
ATOM      3  C   UNL     1      -4.969  35.889  20.475  1.00  0.00     0.000 C 
BRANCH   3   4
ATOM      4  C   UNL     1      -4.980  37.424  20.405  1.00  0.00     0.000 C 
BRANCH   4   5
ATOM      5  C   UNL     1      -4.368  37.964  19.104  1.00  0.00     0.001 C 
BRANCH   5   6
ATOM      6  C   UNL     1      -3.554  36.876  18.386  1.00  0.00     0.009 C 
BRANCH   6   7
ATOM      7  C   UNL     1      -2.322  37.454  17.660  1.00  0.00     0.032 C 
ATOM      8  C   UNL     1      -1.909  36.550  16.493  1.00  0.00     0.014 C 
BRANCH   7   9
ATOM      9  C   UNL     1      -1.163  37.639  18.601  1.00  0.00     0.044 C 
ATOM     10  O   UNL     1       0.023  37.594  18.176  1.00  0.00    -0.550 OA
ATOM     11  O   UNL     1      -1.396  37.859  19.953  1.00  0.00    -0.550 OA
ENDBRANCH   7   9
ENDBRANCH   6   7
ENDBRANCH   5   6
ENDBRANCH   4   5
ENDBRANCH   3   4
ENDBRANCH   2   3
ENDBRANCH   1   2
BRANCH   1  12
ATOM     12  C   UNL     1      -4.612  33.901  22.546  1.00  0.00     0.000 C 
BRANCH  12  13
ATOM     13  C   UNL     1      -5.113  34.340  23.931  1.00  0.00    -0.000 C 
BRANCH  13  14
ATOM     14  C   UNL     1      -5.103  35.869  24.104  1.00  0.00    -0.000 C 
BRANCH  14  15
ATOM     15  C   UNL     1      -5.125  36.297  25.579  1.00  0.00    -0.000 C 
BRANCH  15  16
ATOM     16  C   UNL     1      -4.471  37.668  25.807  1.00  0.00    -0.000 C 
BRANCH  16  17
ATOM     17  C   UNL     1      -4.906  38.670  24.726  1.00  0.00    -0.000 C 
BRANCH  17  18
ATOM     18  C   UNL     1      -4.647  40.128  25.134  1.00  0.00    -0.003 C 
ATOM     19  C   UNL     1      -5.027  41.126  24.041  1.00  0.00     0.004 C 
ENDBRANCH  17  18
ENDBRANCH  16  17
ENDBRANCH  15  16
ENDBRANCH  14  15
ENDBRANCH  13  14
ENDBRANCH  12  13
ENDBRANCH   1  12
TORSDOF 14
ENDMDL
MODEL 6
REMARK VINA RESULT:     1.088      4.100      8.199
REMARK INTER + INTRA:           2.264
REMARK INTER:                   2.682
REMARK INTRA:                  -0.419
REMARK UNBOUND:                 0.286
REMARK SMILES CCCCCCCCCCCCCC[C@H](C)C(=O)[O-]
REMARK SMILES IDX 9 1 10 2 11 3 12 4 13 5 14 6 15 7 16 8 17 9 18 10 19 11 8 12
REMARK SMILES IDX 7 13 6 14 5 15 4 16 3 17 2 18 1 19
REMARK H PARENT
REMARK Flexibility Score: inf
ROOT
ATOM      1  C   UNL     1      -5.061  35.813  20.730  1.00  0.00     0.000 C 
ENDROOT
BRANCH   1   2
ATOM      2  C   UNL     1      -3.740  35.273  21.301  1.00  0.00     0.000 C 
BRANCH   2   3
ATOM      3  C   UNL     1      -3.951  34.089  22.260  1.00  0.00     0.000 C 
BRANCH   3   4
ATOM      4  C   UNL     1      -5.071  34.348  23.280  1.00  0.00     0.000 C 
BRANCH   4   5
ATOM      5  C   UNL     1      -5.125  35.811  23.745  1.00  0.00     0.001 C 
BRANCH   5   6
ATOM      6  C   UNL     1      -4.989  35.907  25.273  1.00  0.00     0.009 C 
BRANCH   6   7
ATOM      7  C   UNL     1      -4.898  37.368  25.759  1.00  0.00     0.032 C 
ATOM      8  C   UNL     1      -5.118  38.340  24.594  1.00  0.00     0.014 C 
BRANCH   7   9
ATOM      9  C   UNL     1      -3.574  37.649  26.418  1.00  0.00     0.044 C 
ATOM     10  O   UNL     1      -3.032  38.782  26.314  1.00  0.00    -0.550 OA
ATOM     11  O   UNL     1      -2.938  36.652  27.147  1.00  0.00    -0.550 OA
ENDBRANCH   7   9
ENDBRANCH   6   7
ENDBRANCH   5   6
ENDBRANCH   4   5
ENDBRANCH   3   4
ENDBRANCH   2   3
ENDBRANCH   1   2
BRANCH   1  12
ATOM     12  C   UNL     1      -4.999  37.318  20.411  1.00  0.00     0.000 C 
BRANCH  12  13
ATOM     13  C   UNL     1      -3.972  37.645  19.316  1.00  0.00    -0.000 C 
BRANCH  13  14
ATOM     14  C   UNL     1      -2.634  38.141  19.891  1.00  0.00    -0.000 C 
BRANCH  14  15
ATOM     15  C   UNL     1      -1.423  37.421  19.278  1.00  0.00    -0.000 C 
BRANCH  15  16
ATOM     16  C   UNL     1      -1.076  37.938  17.874  1.00  0.00    -0.000 C 
BRANCH  16  17
ATOM     17  C   UNL     1      -1.597  36.981  16.791  1.00  0.00    -0.000 C 
BRANCH  17  18
ATOM     18  C   UNL     1      -2.866  37.504  16.102  1.00  0.00    -0.003 C 
ATOM     19  C   UNL     1      -3.469  36.495  15.125  1.00  0.00     0.004 C 
ENDBRANCH  17  18
ENDBRANCH  16  17
ENDBRANCH  15  16
ENDBRANCH  14  15
ENDBRANCH  13  14
ENDBRANCH  12  13
ENDBRANCH   1  12
TORSDOF 14
ENDMDL
MODEL 7
REMARK VINA RESULT:     1.436      1.300      2.242
REMARK INTER + INTRA:           2.896
REMARK INTER:                   2.613
REMARK INTRA:                   0.283
REMARK UNBOUND:                 0.286
REMARK SMILES CCCCCCCCCCCCCC[C@H](C)C(=O)[O-]
REMARK SMILES IDX 9 1 10 2 11 3 12 4 13 5 14 6 15 7 16 8 17 9 18 10 19 11 8 12
REMARK SMILES IDX 7 13 6 14 5 15 4 16 3 17 2 18 1 19
REMARK H PARENT
REMARK Flexibility Score: inf
ROOT
ATOM      1  C   UNL     1      -3.060  36.455  20.915  1.00  0.00     0.000 C 
ENDROOT
BRANCH   1   2
ATOM      2  C   UNL     1      -3.496  37.616  20.007  1.00  0.00     0.000 C 
BRANCH   2   3
ATOM      3  C   UNL     1      -4.139  37.131  18.696  1.00  0.00     0.000 C 
BRANCH   3   4
ATOM      4  C   UNL     1      -4.046  35.607  18.521  1.00  0.00     0.000 C 
BRANCH   4   5
ATOM      5  C   UNL     1      -3.654  35.195  17.094  1.00  0.00     0.001 C 
BRANCH   5   6
ATOM      6  C   UNL     1      -2.836  36.300  16.408  1.00  0.00     0.009 C 
BRANCH   6   7
ATOM      7  C   UNL     1      -3.374  36.636  15.002  1.00  0.00     0.032 C 
ATOM      8  C   UNL     1      -2.313  36.347  13.934  1.00  0.00     0.014 C 
BRANCH   7   9
ATOM      9  C   UNL     1      -3.817  38.071  14.909  1.00  0.00     0.044 C 
ATOM     10  O   UNL     1      -4.398  38.498  13.875  1.00  0.00    -0.550 OA
ATOM     11  O   UNL     1      -3.584  38.939  15.969  1.00  0.00    -0.550 OA
ENDBRANCH   7   9
ENDBRANCH   6   7
ENDBRANCH   5   6
ENDBRANCH   4   5
ENDBRANCH   3   4
ENDBRANCH   2   3
ENDBRANCH   1   2
BRANCH   1  12
ATOM     12  C   UNL     1      -4.161  35.395  21.094  1.00  0.00     0.000 C 
BRANCH  12  13
ATOM     13  C   UNL     1      -3.989  34.580  22.385  1.00  0.00    -0.000 C 
BRANCH  13  14
ATOM     14  C   UNL     1      -5.066  34.904  23.435  1.00  0.00    -0.000 C 
BRANCH  14  15
ATOM     15  C   UNL     1      -5.125  36.400  23.780  1.00  0.00    -0.000 C 
BRANCH  15  16
ATOM     16  C   UNL     1      -5.122  36.658  25.295  1.00  0.00    -0.000 C 
BRANCH  16  17
ATOM     17  C   UNL     1      -4.573  38.057  25.612  1.00  0.00    -0.000 C 
BRANCH  17  18
ATOM     18  C   UNL     1      -3.884  38.123  26.984  1.00  0.00    -0.003 C 
ATOM     19  C   UNL     1      -2.506  37.461  26.988  1.00  0.00     0.004 C 
ENDBRANCH  17  18
ENDBRANCH  16  17
ENDBRANCH  15  16
ENDBRANCH  14  15
ENDBRANCH  13  14
ENDBRANCH  12  13
ENDBRANCH   1  12
TORSDOF 14
ENDMDL
MODEL 8
REMARK VINA RESULT:     1.566      1.243      2.308
REMARK INTER + INTRA:           3.134
REMARK INTER:                   3.088
REMARK INTRA:                   0.046
REMARK UNBOUND:                 0.286
REMARK SMILES CCCCCCCCCCCCCC[C@H](C)C(=O)[O-]
REMARK SMILES IDX 9 1 10 2 11 3 12 4 13 5 14 6 15 7 16 8 17 9 18 10 19 11 8 12
REMARK SMILES IDX 7 13 6 14 5 15 4 16 3 17 2 18 1 19
REMARK H PARENT
REMARK Flexibility Score: inf
ROOT
ATOM      1  C   UNL     1      -3.267  36.767  21.054  1.00  0.00     0.000 C 
ENDROOT
BRANCH   1   2
ATOM      2  C   UNL     1      -3.362  37.981  20.116  1.00  0.00     0.000 C 
BRANCH   2   3
ATOM      3  C   UNL     1      -3.745  37.589  18.679  1.00  0.00     0.000 C 
BRANCH   3   4
ATOM      4  C   UNL     1      -2.719  36.646  18.031  1.00  0.00     0.000 C 
BRANCH   4   5
ATOM      5  C   UNL     1      -2.266  37.123  16.642  1.00  0.00     0.001 C 
BRANCH   5   6
ATOM      6  C   UNL     1      -3.187  38.236  16.116  1.00  0.00     0.009 C 
BRANCH   6   7
ATOM      7  C   UNL     1      -3.375  38.161  14.587  1.00  0.00     0.032 C 
ATOM      8  C   UNL     1      -4.617  38.948  14.156  1.00  0.00     0.014 C 
BRANCH   7   9
ATOM      9  C   UNL     1      -3.480  36.737  14.112  1.00  0.00     0.044 C 
ATOM     10  O   UNL     1      -4.606  36.214  13.897  1.00  0.00    -0.550 OA
ATOM     11  O   UNL     1      -2.328  35.987  13.911  1.00  0.00    -0.550 OA
ENDBRANCH   7   9
ENDBRANCH   6   7
ENDBRANCH   5   6
ENDBRANCH   4   5
ENDBRANCH   3   4
ENDBRANCH   2   3
ENDBRANCH   1   2
BRANCH   1  12
ATOM     12  C   UNL     1      -4.119  35.578  20.574  1.00  0.00     0.000 C 
BRANCH  12  13
ATOM     13  C   UNL     1      -4.004  34.360  21.503  1.00  0.00    -0.000 C 
BRANCH  13  14
ATOM     14  C   UNL     1      -4.964  34.441  22.704  1.00  0.00    -0.000 C 
BRANCH  14  15
ATOM     15  C   UNL     1      -5.125  35.874  23.236  1.00  0.00    -0.000 C 
BRANCH  15  16
ATOM     16  C   UNL     1      -5.010  35.953  24.766  1.00  0.00    -0.000 C 
BRANCH  16  17
ATOM     17  C   UNL     1      -4.872  37.410  25.231  1.00  0.00    -0.000 C 
BRANCH  17  18
ATOM     18  C   UNL     1      -4.920  38.409  24.065  1.00  0.00    -0.003 C 
ATOM     19  C   UNL     1      -5.122  39.852  24.527  1.00  0.00     0.004 C 
ENDBRANCH  17  18
ENDBRANCH  16  17
ENDBRANCH  15  16
ENDBRANCH  14  15
ENDBRANCH  13  14
ENDBRANCH  12  13
ENDBRANCH   1  12
TORSDOF 14
ENDMDL
