MODEL 1
REMARK VINA RESULT:    -4.706      0.000      0.000
REMARK INTER + INTRA:          -8.143
REMARK INTER:                  -7.457
REMARK INTRA:                  -0.686
REMARK UNBOUND:                -0.686
REMARK SMILES CCCCCCCCCCCC(=O)[O-]
REMARK SMILES IDX 7 1 8 2 9 3 10 4 11 5 12 6 13 7 14 8 6 9 5 10 4 11 3 12 2 13
REMARK SMILES IDX 1 14
REMARK H PARENT
REMARK Flexibility Score: inf
ROOT
ATOM      1  C   UNL     1      -1.753 -37.540  21.056  1.00  0.00     0.000 C 
ENDROOT
BRANCH   1   2
ATOM      2  C   UNL     1      -2.424 -36.177  20.835  1.00  0.00     0.000 C 
BRANCH   2   3
ATOM      3  C   UNL     1      -2.756 -35.505  22.174  1.00  0.00     0.000 C 
BRANCH   3   4
ATOM      4  C   UNL     1      -1.717 -34.433  22.525  1.00  0.00     0.006 C 
BRANCH   4   5
ATOM      5  C   UNL     1      -2.384 -33.208  23.158  1.00  0.00     0.053 C 
BRANCH   5   6
ATOM      6  C   UNL     1      -1.544 -32.673  24.274  1.00  0.00     0.041 C 
ATOM      7  O   UNL     1      -1.665 -33.138  25.438  1.00  0.00    -0.550 OA
ATOM      8  O   UNL     1      -0.592 -31.693  24.021  1.00  0.00    -0.550 OA
ENDBRANCH   5   6
ENDBRANCH   4   5
ENDBRANCH   3   4
ENDBRANCH   2   3
ENDBRANCH   1   2
BRANCH   1   9
ATOM      9  C   UNL     1      -0.361 -37.637  20.406  1.00  0.00     0.000 C 
BRANCH   9  10
ATOM     10  C   UNL     1       0.747 -36.825  21.103  1.00  0.00    -0.000 C 
BRANCH  10  11
ATOM     11  C   UNL     1       1.392 -35.778  20.180  1.00  0.00    -0.000 C 
BRANCH  11  12
ATOM     12  C   UNL     1       2.835 -36.142  19.794  1.00  0.00    -0.000 C 
BRANCH  12  13
ATOM     13  C   UNL     1       3.104 -35.984  18.290  1.00  0.00    -0.003 C 
ATOM     14  C   UNL     1       3.023 -37.329  17.574  1.00  0.00     0.004 C 
ENDBRANCH  12  13
ENDBRANCH  11  12
ENDBRANCH  10  11
ENDBRANCH   9  10
ENDBRANCH   1   9
TORSDOF 10
ENDMDL
MODEL 2
REMARK VINA RESULT:    -4.601      3.075      5.699
REMARK INTER + INTRA:          -7.977
REMARK INTER:                  -7.117
REMARK INTRA:                  -0.860
REMARK UNBOUND:                -0.686
REMARK SMILES CCCCCCCCCCCC(=O)[O-]
REMARK SMILES IDX 7 1 8 2 9 3 10 4 11 5 12 6 13 7 14 8 6 9 5 10 4 11 3 12 2 13
REMARK SMILES IDX 1 14
REMARK H PARENT
REMARK Flexibility Score: inf
ROOT
ATOM      1  C   UNL     1      -0.532 -36.182  21.020  1.00  0.00     0.000 C 
ENDROOT
BRANCH   1   2
ATOM      2  C   UNL     1       0.035 -37.595  20.815  1.00  0.00     0.000 C 
BRANCH   2   3
ATOM      3  C   UNL     1       1.393 -37.543  20.103  1.00  0.00     0.000 C 
BRANCH   3   4
ATOM      4  C   UNL     1       1.790 -36.099  19.777  1.00  0.00     0.006 C 
BRANCH   4   5
ATOM      5  C   UNL     1       3.306 -35.909  19.879  1.00  0.00     0.053 C 
BRANCH   5   6
ATOM      6  C   UNL     1       3.724 -35.803  21.312  1.00  0.00     0.041 C 
ATOM      7  O   UNL     1       4.882 -36.153  21.662  1.00  0.00    -0.550 OA
ATOM      8  O   UNL     1       2.852 -35.273  22.254  1.00  0.00    -0.550 OA
ENDBRANCH   5   6
ENDBRANCH   4   5
ENDBRANCH   3   4
ENDBRANCH   2   3
ENDBRANCH   1   2
BRANCH   1   9
ATOM      9  C   UNL     1      -2.020 -36.071  20.640  1.00  0.00     0.000 C 
BRANCH   9  10
ATOM     10  C   UNL     1      -2.946 -37.102  21.312  1.00  0.00    -0.000 C 
BRANCH  10  11
ATOM     11  C   UNL     1      -3.583 -38.078  20.309  1.00  0.00    -0.000 C 
BRANCH  11  12
ATOM     12  C   UNL     1      -3.174 -37.782  18.858  1.00  0.00    -0.000 C 
BRANCH  12  13
ATOM     13  C   UNL     1      -4.376 -37.468  17.955  1.00  0.00    -0.003 C 
ATOM     14  C   UNL     1      -4.427 -35.983  17.605  1.00  0.00     0.004 C 
ENDBRANCH  12  13
ENDBRANCH  11  12
ENDBRANCH  10  11
ENDBRANCH   9  10
ENDBRANCH   1   9
TORSDOF 10
ENDMDL
MODEL 3
REMARK VINA RESULT:    -4.588      1.280      2.014
REMARK INTER + INTRA:          -7.956
REMARK INTER:                  -7.206
REMARK INTRA:                  -0.750
REMARK UNBOUND:                -0.686
REMARK SMILES CCCCCCCCCCCC(=O)[O-]
REMARK SMILES IDX 7 1 8 2 9 3 10 4 11 5 12 6 13 7 14 8 6 9 5 10 4 11 3 12 2 13
REMARK SMILES IDX 1 14
REMARK H PARENT
REMARK Flexibility Score: inf
ROOT
ATOM      1  C   UNL     1      -0.432 -35.870  20.941  1.00  0.00     0.000 C 
ENDROOT
BRANCH   1   2
ATOM      2  C   UNL     1      -1.958 -36.026  20.992  1.00  0.00     0.000 C 
BRANCH   2   3
ATOM      3  C   UNL     1      -2.541 -35.323  22.225  1.00  0.00     0.000 C 
BRANCH   3   4
ATOM      4  C   UNL     1      -1.602 -34.219  22.724  1.00  0.00     0.006 C 
BRANCH   4   5
ATOM      5  C   UNL     1      -2.387 -33.103  23.421  1.00  0.00     0.053 C 
BRANCH   5   6
ATOM      6  C   UNL     1      -1.452 -32.129  24.065  1.00  0.00     0.041 C 
ATOM      7  O   UNL     1      -0.278 -32.475  24.358  1.00  0.00    -0.550 OA
ATOM      8  O   UNL     1      -1.862 -30.822  24.298  1.00  0.00    -0.550 OA
ENDBRANCH   5   6
ENDBRANCH   4   5
ENDBRANCH   3   4
ENDBRANCH   2   3
ENDBRANCH   1   2
BRANCH   1   9
ATOM      9  C   UNL     1       0.310 -37.220  20.933  1.00  0.00     0.000 C 
BRANCH   9  10
ATOM     10  C   UNL     1       1.483 -37.317  19.939  1.00  0.00    -0.000 C 
BRANCH  10  11
ATOM     11  C   UNL     1       2.170 -35.964  19.690  1.00  0.00    -0.000 C 
BRANCH  11  12
ATOM     12  C   UNL     1       3.637 -35.954  20.148  1.00  0.00    -0.000 C 
BRANCH  12  13
ATOM     13  C   UNL     1       3.789 -36.232  21.651  1.00  0.00    -0.003 C 
ATOM     14  C   UNL     1       3.109 -35.147  22.481  1.00  0.00     0.004 C 
ENDBRANCH  12  13
ENDBRANCH  11  12
ENDBRANCH  10  11
ENDBRANCH   9  10
ENDBRANCH   1   9
TORSDOF 10
ENDMDL
MODEL 4
REMARK VINA RESULT:    -4.545      4.193      6.473
REMARK INTER + INTRA:          -7.889
REMARK INTER:                  -7.127
REMARK INTRA:                  -0.762
REMARK UNBOUND:                -0.686
REMARK SMILES CCCCCCCCCCCC(=O)[O-]
REMARK SMILES IDX 7 1 8 2 9 3 10 4 11 5 12 6 13 7 14 8 6 9 5 10 4 11 3 12 2 13
REMARK SMILES IDX 1 14
REMARK H PARENT
REMARK Flexibility Score: inf
ROOT
ATOM      1  C   UNL     1      -0.613 -36.327  20.970  1.00  0.00     0.000 C 
ENDROOT
BRANCH   1   2
ATOM      2  C   UNL     1      -0.072 -37.763  20.996  1.00  0.00     0.000 C 
BRANCH   2   3
ATOM      3  C   UNL     1       0.963 -37.981  19.885  1.00  0.00     0.000 C 
BRANCH   3   4
ATOM      4  C   UNL     1       2.290 -37.294  20.227  1.00  0.00     0.006 C 
BRANCH   4   5
ATOM      5  C   UNL     1       2.535 -36.088  19.315  1.00  0.00     0.053 C 
BRANCH   5   6
ATOM      6  C   UNL     1       3.310 -36.497  18.102  1.00  0.00     0.041 C 
ATOM      7  O   UNL     1       2.720 -37.015  17.118  1.00  0.00    -0.550 OA
ATOM      8  O   UNL     1       4.678 -36.262  18.038  1.00  0.00    -0.550 OA
ENDBRANCH   5   6
ENDBRANCH   4   5
ENDBRANCH   3   4
ENDBRANCH   2   3
ENDBRANCH   1   2
BRANCH   1   9
ATOM      9  C   UNL     1      -2.124 -36.258  20.681  1.00  0.00     0.000 C 
BRANCH   9  10
ATOM     10  C   UNL     1      -2.948 -37.443  21.217  1.00  0.00    -0.000 C 
BRANCH  10  11
ATOM     11  C   UNL     1      -3.794 -38.125  20.128  1.00  0.00    -0.000 C 
BRANCH  11  12
ATOM     12  C   UNL     1      -3.255 -37.863  18.713  1.00  0.00    -0.000 C 
BRANCH  12  13
ATOM     13  C   UNL     1      -4.360 -37.470  17.721  1.00  0.00    -0.003 C 
ATOM     14  C   UNL     1      -4.506 -35.954  17.635  1.00  0.00     0.004 C 
ENDBRANCH  12  13
ENDBRANCH  11  12
ENDBRANCH  10  11
ENDBRANCH   9  10
ENDBRANCH   1   9
TORSDOF 10
ENDMDL
MODEL 5
REMARK VINA RESULT:    -4.455      2.128      3.725
REMARK INTER + INTRA:          -7.746
REMARK INTER:                  -6.658
REMARK INTRA:                  -1.089
REMARK UNBOUND:                -0.686
REMARK SMILES CCCCCCCCCCCC(=O)[O-]
REMARK SMILES IDX 7 1 8 2 9 3 10 4 11 5 12 6 13 7 14 8 6 9 5 10 4 11 3 12 2 13
REMARK SMILES IDX 1 14
REMARK H PARENT
REMARK Flexibility Score: inf
ROOT
ATOM      1  C   UNL     1       2.427 -35.948  21.414  1.00  0.00     0.000 C 
ENDROOT
BRANCH   1   2
ATOM      2  C   UNL     1       1.983 -37.405  21.222  1.00  0.00     0.000 C 
BRANCH   2   3
ATOM      3  C   UNL     1       0.574 -37.475  20.619  1.00  0.00     0.000 C 
BRANCH   3   4
ATOM      4  C   UNL     1      -0.214 -36.193  20.912  1.00  0.00     0.006 C 
BRANCH   4   5
ATOM      5  C   UNL     1      -1.717 -36.477  20.991  1.00  0.00     0.053 C 
BRANCH   5   6
ATOM      6  C   UNL     1      -2.378 -35.541  21.952  1.00  0.00     0.041 C 
ATOM      7  O   UNL     1      -3.586 -35.703  22.268  1.00  0.00    -0.550 OA
ATOM      8  O   UNL     1      -1.646 -34.516  22.540  1.00  0.00    -0.550 OA
ENDBRANCH   5   6
ENDBRANCH   4   5
ENDBRANCH   3   4
ENDBRANCH   2   3
ENDBRANCH   1   2
BRANCH   1   9
ATOM      9  C   UNL     1       3.940 -35.810  21.666  1.00  0.00     0.000 C 
BRANCH   9  10
ATOM     10  C   UNL     1       4.777 -37.057  21.328  1.00  0.00    -0.000 C 
BRANCH  10  11
ATOM     11  C   UNL     1       5.506 -36.943  19.979  1.00  0.00    -0.000 C 
BRANCH  11  12
ATOM     12  C   UNL     1       4.704 -37.560  18.822  1.00  0.00    -0.000 C 
BRANCH  12  13
ATOM     13  C   UNL     1       3.965 -36.505  17.985  1.00  0.00    -0.003 C 
ATOM     14  C   UNL     1       2.585 -37.004  17.568  1.00  0.00     0.004 C 
ENDBRANCH  12  13
ENDBRANCH  11  12
ENDBRANCH  10  11
ENDBRANCH   9  10
ENDBRANCH   1   9
TORSDOF 10
ENDMDL
MODEL 6
REMARK VINA RESULT:    -4.435      2.241      3.941
REMARK INTER + INTRA:          -7.714
REMARK INTER:                  -6.605
REMARK INTRA:                  -1.109
REMARK UNBOUND:                -0.686
REMARK SMILES CCCCCCCCCCCC(=O)[O-]
REMARK SMILES IDX 7 1 8 2 9 3 10 4 11 5 12 6 13 7 14 8 6 9 5 10 4 11 3 12 2 13
REMARK SMILES IDX 1 14
REMARK H PARENT
REMARK Flexibility Score: inf
ROOT
ATOM      1  C   UNL     1       2.311 -35.875  19.190  1.00  0.00     0.000 C 
ENDROOT
BRANCH   1   2
ATOM      2  C   UNL     1       1.536 -35.811  20.514  1.00  0.00     0.000 C 
BRANCH   2   3
ATOM      3  C   UNL     1       0.862 -37.155  20.821  1.00  0.00     0.000 C 
BRANCH   3   4
ATOM      4  C   UNL     1      -0.653 -36.986  20.985  1.00  0.00     0.006 C 
BRANCH   4   5
ATOM      5  C   UNL     1      -1.041 -35.505  21.011  1.00  0.00     0.053 C 
BRANCH   5   6
ATOM      6  C   UNL     1      -2.095 -35.258  22.043  1.00  0.00     0.041 C 
ATOM      7  O   UNL     1      -1.991 -34.286  22.836  1.00  0.00    -0.550 OA
ATOM      8  O   UNL     1      -3.218 -36.074  22.099  1.00  0.00    -0.550 OA
ENDBRANCH   5   6
ENDBRANCH   4   5
ENDBRANCH   3   4
ENDBRANCH   2   3
ENDBRANCH   1   2
BRANCH   1   9
ATOM      9  C   UNL     1       2.292 -37.276  18.550  1.00  0.00     0.000 C 
BRANCH   9  10
ATOM     10  C   UNL     1       3.625 -37.731  17.929  1.00  0.00    -0.000 C 
BRANCH  10  11
ATOM     11  C   UNL     1       4.817 -36.863  18.367  1.00  0.00    -0.000 C 
BRANCH  11  12
ATOM     12  C   UNL     1       5.761 -37.602  19.330  1.00  0.00    -0.000 C 
BRANCH  12  13
ATOM     13  C   UNL     1       5.723 -37.026  20.754  1.00  0.00    -0.003 C 
ATOM     14  C   UNL     1       4.603 -37.661  21.573  1.00  0.00     0.004 C 
ENDBRANCH  12  13
ENDBRANCH  11  12
ENDBRANCH  10  11
ENDBRANCH   9  10
ENDBRANCH   1   9
TORSDOF 10
ENDMDL
MODEL 7
REMARK VINA RESULT:    -4.170      2.321      5.361
REMARK INTER + INTRA:          -7.293
REMARK INTER:                  -6.575
REMARK INTRA:                  -0.718
REMARK UNBOUND:                -0.686
REMARK SMILES CCCCCCCCCCCC(=O)[O-]
REMARK SMILES IDX 7 1 8 2 9 3 10 4 11 5 12 6 13 7 14 8 6 9 5 10 4 11 3 12 2 13
REMARK SMILES IDX 1 14
REMARK H PARENT
REMARK Flexibility Score: inf
ROOT
ATOM      1  C   UNL     1      -1.381 -37.897  20.477  1.00  0.00     0.000 C 
ENDROOT
BRANCH   1   2
ATOM      2  C   UNL     1       0.023 -37.998  21.092  1.00  0.00     0.000 C 
BRANCH   2   3
ATOM      3  C   UNL     1       1.025 -37.132  20.317  1.00  0.00     0.000 C 
BRANCH   3   4
ATOM      4  C   UNL     1       1.440 -35.905  21.137  1.00  0.00     0.006 C 
BRANCH   4   5
ATOM      5  C   UNL     1       2.960 -35.856  21.321  1.00  0.00     0.053 C 
BRANCH   5   6
ATOM      6  C   UNL     1       3.308 -35.241  22.640  1.00  0.00     0.041 C 
ATOM      7  O   UNL     1       4.334 -35.616  23.264  1.00  0.00    -0.550 OA
ATOM      8  O   UNL     1       2.524 -34.217  23.158  1.00  0.00    -0.550 OA
ENDBRANCH   5   6
ENDBRANCH   4   5
ENDBRANCH   3   4
ENDBRANCH   2   3
ENDBRANCH   1   2
BRANCH   1   9
ATOM      9  C   UNL     1      -2.005 -36.498  20.632  1.00  0.00     0.000 C 
BRANCH   9  10
ATOM     10  C   UNL     1      -3.148 -36.400  21.659  1.00  0.00    -0.000 C 
BRANCH  10  11
ATOM     11  C   UNL     1      -3.019 -35.179  22.585  1.00  0.00    -0.000 C 
BRANCH  11  12
ATOM     12  C   UNL     1      -1.668 -34.463  22.430  1.00  0.00    -0.000 C 
BRANCH  12  13
ATOM     13  C   UNL     1      -1.449 -33.374  23.492  1.00  0.00    -0.003 C 
ATOM     14  C   UNL     1      -2.681 -32.485  23.628  1.00  0.00     0.004 C 
ENDBRANCH  12  13
ENDBRANCH  11  12
ENDBRANCH  10  11
ENDBRANCH   9  10
ENDBRANCH   1   9
TORSDOF 10
ENDMDL
MODEL 8
REMARK VINA RESULT:    -4.160      3.305      6.492
REMARK INTER + INTRA:          -7.278
REMARK INTER:                  -6.283
REMARK INTRA:                  -0.996
REMARK UNBOUND:                -0.686
REMARK SMILES CCCCCCCCCCCC(=O)[O-]
REMARK SMILES IDX 7 1 8 2 9 3 10 4 11 5 12 6 13 7 14 8 6 9 5 10 4 11 3 12 2 13
REMARK SMILES IDX 1 14
REMARK H PARENT
REMARK Flexibility Score: inf
ROOT
ATOM      1  C   UNL     1       2.071 -37.132  18.621  1.00  0.00     0.000 C 
ENDROOT
BRANCH   1   2
ATOM      2  C   UNL     1       3.267 -37.117  17.659  1.00  0.00     0.000 C 
BRANCH   2   3
ATOM      3  C   UNL     1       4.528 -36.591  18.359  1.00  0.00     0.000 C 
BRANCH   3   4
ATOM      4  C   UNL     1       5.128 -37.655  19.285  1.00  0.00     0.006 C 
BRANCH   4   5
ATOM      5  C   UNL     1       5.706 -37.018  20.552  1.00  0.00     0.053 C 
BRANCH   5   6
ATOM      6  C   UNL     1       4.674 -36.973  21.634  1.00  0.00     0.041 C 
ATOM      7  O   UNL     1       4.444 -35.899  22.248  1.00  0.00    -0.550 OA
ATOM      8  O   UNL     1       3.930 -38.109  21.932  1.00  0.00    -0.550 OA
ENDBRANCH   5   6
ENDBRANCH   4   5
ENDBRANCH   3   4
ENDBRANCH   2   3
ENDBRANCH   1   2
BRANCH   1   9
ATOM      9  C   UNL     1       1.993 -35.871  19.502  1.00  0.00     0.000 C 
BRANCH   9  10
ATOM     10  C   UNL     1       1.000 -35.952  20.676  1.00  0.00    -0.000 C 
BRANCH  10  11
ATOM     11  C   UNL     1       0.618 -37.397  21.039  1.00  0.00    -0.000 C 
BRANCH  11  12
ATOM     12  C   UNL     1      -0.894 -37.652  20.932  1.00  0.00    -0.000 C 
BRANCH  12  13
ATOM     13  C   UNL     1      -1.724 -36.370  21.098  1.00  0.00    -0.003 C 
ATOM     14  C   UNL     1      -3.145 -36.691  21.550  1.00  0.00     0.004 C 
ENDBRANCH  12  13
ENDBRANCH  11  12
ENDBRANCH  10  11
ENDBRANCH   9  10
ENDBRANCH   1   9
TORSDOF 10
ENDMDL
MODEL 9
REMARK VINA RESULT:    -3.859      3.389      6.251
REMARK INTER + INTRA:          -6.801
REMARK INTER:                  -6.162
REMARK INTRA:                  -0.639
REMARK UNBOUND:                -0.686
REMARK SMILES CCCCCCCCCCCC(=O)[O-]
REMARK SMILES IDX 7 1 8 2 9 3 10 4 11 5 12 6 13 7 14 8 6 9 5 10 4 11 3 12 2 13
REMARK SMILES IDX 1 14
REMARK H PARENT
REMARK Flexibility Score: inf
ROOT
ATOM      1  C   UNL     1       1.210 -37.103  20.841  1.00  0.00     0.000 C 
ENDROOT
BRANCH   1   2
ATOM      2  C   UNL     1       2.025 -37.020  19.543  1.00  0.00     0.000 C 
BRANCH   2   3
ATOM      3  C   UNL     1       3.315 -36.218  19.755  1.00  0.00     0.000 C 
BRANCH   3   4
ATOM      4  C   UNL     1       4.504 -37.148  20.025  1.00  0.00     0.006 C 
BRANCH   4   5
ATOM      5  C   UNL     1       5.419 -36.568  21.108  1.00  0.00     0.053 C 
BRANCH   5   6
ATOM      6  C   UNL     1       4.836 -36.802  22.466  1.00  0.00     0.041 C 
ATOM      7  O   UNL     1       4.867 -35.891  23.335  1.00  0.00    -0.550 OA
ATOM      8  O   UNL     1       4.212 -38.009  22.757  1.00  0.00    -0.550 OA
ENDBRANCH   5   6
ENDBRANCH   4   5
ENDBRANCH   3   4
ENDBRANCH   2   3
ENDBRANCH   1   2
BRANCH   1   9
ATOM      9  C   UNL     1      -0.295 -37.313  20.593  1.00  0.00     0.000 C 
BRANCH   9  10
ATOM     10  C   UNL     1      -1.189 -36.102  20.920  1.00  0.00    -0.000 C 
BRANCH  10  11
ATOM     11  C   UNL     1      -2.689 -36.441  20.895  1.00  0.00    -0.000 C 
BRANCH  11  12
ATOM     12  C   UNL     1      -2.953 -37.923  20.589  1.00  0.00    -0.000 C 
BRANCH  12  13
ATOM     13  C   UNL     1      -3.816 -38.124  19.334  1.00  0.00    -0.003 C 
ATOM     14  C   UNL     1      -4.014 -36.808  18.588  1.00  0.00     0.004 C 
ENDBRANCH  12  13
ENDBRANCH  11  12
ENDBRANCH  10  11
ENDBRANCH   9  10
ENDBRANCH   1   9
TORSDOF 10
ENDMDL
