MODEL 1
REMARK VINA RESULT:    -5.070      0.000      0.000
REMARK INTER + INTRA:          -5.070
REMARK INTER:                  -5.070
REMARK INTRA:                   0.000
REMARK UNBOUND:                 0.000
REMARK SMILES CC(C)=C1CC[C@@H](C)CC1=O
REMARK SMILES IDX 8 1 7 2 6 3 5 4 4 5 2 6 1 7 3 8 10 9 11 10 9 11
REMARK H PARENT
REMARK Flexibility Score: inf
ROOT
ATOM      1  C   UNL     1     -27.119   9.875 -27.075  1.00  0.00     0.008 C 
ATOM      2  C   UNL     1     -26.558  10.702 -28.236  1.00  0.00    -0.006 C 
ATOM      3  C   UNL     1     -25.046  10.921 -28.064  1.00  0.00     0.008 C 
ATOM      4  C   UNL     1     -24.449  11.660 -29.268  1.00  0.00     0.039 C 
ATOM      5  C   UNL     1     -25.194  12.949 -29.591  1.00  0.00    -0.006 C 
ATOM      6  C   UNL     1     -24.547  14.028 -30.122  1.00  0.00    -0.070 C 
ATOM      7  C   UNL     1     -23.067  13.982 -30.428  1.00  0.00     0.039 C 
ATOM      8  C   UNL     1     -25.263  15.331 -30.393  1.00  0.00     0.039 C 
ATOM      9  C   UNL     1     -26.674  12.915 -29.403  1.00  0.00     0.159 C 
ATOM     10  O   UNL     1     -27.443  13.593 -30.136  1.00  0.00    -0.295 OA
ATOM     11  C   UNL     1     -27.277  12.056 -28.328  1.00  0.00     0.084 C 
ENDROOT
TORSDOF 0
ENDMDL
MODEL 2
REMARK VINA RESULT:    -4.932      8.059     10.080
REMARK INTER + INTRA:          -4.932
REMARK INTER:                  -4.932
REMARK INTRA:                   0.000
REMARK UNBOUND:                 0.000
REMARK SMILES CC(C)=C1CC[C@@H](C)CC1=O
REMARK SMILES IDX 8 1 7 2 6 3 5 4 4 5 2 6 1 7 3 8 10 9 11 10 9 11
REMARK H PARENT
REMARK Flexibility Score: inf
ROOT
ATOM      1  C   UNL     1     -19.318  12.043 -29.769  1.00  0.00     0.008 C 
ATOM      2  C   UNL     1     -17.846  12.134 -30.189  1.00  0.00    -0.006 C 
ATOM      3  C   UNL     1     -16.950  12.389 -28.967  1.00  0.00     0.008 C 
ATOM      4  C   UNL     1     -15.465  12.381 -29.353  1.00  0.00     0.039 C 
ATOM      5  C   UNL     1     -15.158  13.323 -30.510  1.00  0.00    -0.006 C 
ATOM      6  C   UNL     1     -13.953  13.957 -30.608  1.00  0.00    -0.070 C 
ATOM      7  C   UNL     1     -12.866  13.737 -29.581  1.00  0.00     0.039 C 
ATOM      8  C   UNL     1     -13.657  14.937 -31.720  1.00  0.00     0.039 C 
ATOM      9  C   UNL     1     -16.201  13.414 -31.575  1.00  0.00     0.159 C 
ATOM     10  O   UNL     1     -15.890  13.621 -32.779  1.00  0.00    -0.295 OA
ATOM     11  C   UNL     1     -17.652  13.251 -31.225  1.00  0.00     0.084 C 
ENDROOT
TORSDOF 0
ENDMDL
MODEL 3
REMARK VINA RESULT:    -4.831      8.454     11.189
REMARK INTER + INTRA:          -4.831
REMARK INTER:                  -4.831
REMARK INTRA:                   0.000
REMARK UNBOUND:                 0.000
REMARK SMILES CC(C)=C1CC[C@@H](C)CC1=O
REMARK SMILES IDX 8 1 7 2 6 3 5 4 4 5 2 6 1 7 3 8 10 9 11 10 9 11
REMARK H PARENT
REMARK Flexibility Score: inf
ROOT
ATOM      1  C   UNL     1     -12.202  13.589 -32.920  1.00  0.00     0.008 C 
ATOM      2  C   UNL     1     -13.465  13.909 -32.112  1.00  0.00    -0.006 C 
ATOM      3  C   UNL     1     -13.382  13.284 -30.710  1.00  0.00     0.008 C 
ATOM      4  C   UNL     1     -14.590  13.679 -29.852  1.00  0.00     0.039 C 
ATOM      5  C   UNL     1     -15.917  13.390 -30.543  1.00  0.00    -0.006 C 
ATOM      6  C   UNL     1     -17.030  13.048 -29.829  1.00  0.00    -0.070 C 
ATOM      7  C   UNL     1     -16.996  12.959 -28.321  1.00  0.00     0.039 C 
ATOM      8  C   UNL     1     -18.336  12.705 -30.508  1.00  0.00     0.039 C 
ATOM      9  C   UNL     1     -15.950  13.618 -32.018  1.00  0.00     0.159 C 
ATOM     10  O   UNL     1     -17.001  14.003 -32.598  1.00  0.00    -0.295 OA
ATOM     11  C   UNL     1     -14.714  13.395 -32.842  1.00  0.00     0.084 C 
ENDROOT
TORSDOF 0
ENDMDL
MODEL 4
REMARK VINA RESULT:    -4.798      3.398      4.747
REMARK INTER + INTRA:          -4.798
REMARK INTER:                  -4.798
REMARK INTRA:                   0.000
REMARK UNBOUND:                 0.000
REMARK SMILES CC(C)=C1CC[C@@H](C)CC1=O
REMARK SMILES IDX 8 1 7 2 6 3 5 4 4 5 2 6 1 7 3 8 10 9 11 10 9 11
REMARK H PARENT
REMARK Flexibility Score: inf
ROOT
ATOM      1  C   UNL     1     -28.332   9.875 -34.406  1.00  0.00     0.008 C 
ATOM      2  C   UNL     1     -28.056  10.113 -32.917  1.00  0.00    -0.006 C 
ATOM      3  C   UNL     1     -29.320  10.624 -32.208  1.00  0.00     0.008 C 
ATOM      4  C   UNL     1     -29.091  10.770 -30.698  1.00  0.00     0.039 C 
ATOM      5  C   UNL     1     -27.859  11.605 -30.372  1.00  0.00    -0.006 C 
ATOM      6  C   UNL     1     -27.804  12.379 -29.248  1.00  0.00    -0.070 C 
ATOM      7  C   UNL     1     -28.956  12.426 -28.271  1.00  0.00     0.039 C 
ATOM      8  C   UNL     1     -26.610  13.255 -28.944  1.00  0.00     0.039 C 
ATOM      9  C   UNL     1     -26.691  11.433 -31.285  1.00  0.00     0.159 C 
ATOM     10  O   UNL     1     -25.509  11.539 -30.862  1.00  0.00    -0.295 OA
ATOM     11  C   UNL     1     -26.910  11.119 -32.737  1.00  0.00     0.084 C 
ENDROOT
TORSDOF 0
ENDMDL
MODEL 5
REMARK VINA RESULT:    -4.778      1.559      4.539
REMARK INTER + INTRA:          -4.778
REMARK INTER:                  -4.778
REMARK INTRA:                   0.000
REMARK UNBOUND:                 0.000
REMARK SMILES CC(C)=C1CC[C@@H](C)CC1=O
REMARK SMILES IDX 8 1 7 2 6 3 5 4 4 5 2 6 1 7 3 8 10 9 11 10 9 11
REMARK H PARENT
REMARK Flexibility Score: inf
ROOT
ATOM      1  C   UNL     1     -23.185  14.254 -30.518  1.00  0.00     0.008 C 
ATOM      2  C   UNL     1     -24.411  13.352 -30.339  1.00  0.00    -0.006 C 
ATOM      3  C   UNL     1     -25.621  14.171 -29.864  1.00  0.00     0.008 C 
ATOM      4  C   UNL     1     -26.883  13.303 -29.777  1.00  0.00     0.039 C 
ATOM      5  C   UNL     1     -26.668  12.042 -28.949  1.00  0.00    -0.006 C 
ATOM      6  C   UNL     1     -27.683  11.491 -28.220  1.00  0.00    -0.070 C 
ATOM      7  C   UNL     1     -29.067  12.099 -28.220  1.00  0.00     0.039 C 
ATOM      8  C   UNL     1     -27.468  10.274 -27.351  1.00  0.00     0.039 C 
ATOM      9  C   UNL     1     -25.330  11.394 -29.078  1.00  0.00     0.159 C 
ATOM     10  O   UNL     1     -25.197  10.144 -28.981  1.00  0.00    -0.295 OA
ATOM     11  C   UNL     1     -24.109  12.230 -29.334  1.00  0.00     0.084 C 
ENDROOT
TORSDOF 0
ENDMDL
MODEL 6
REMARK VINA RESULT:    -4.751      8.479     11.106
REMARK INTER + INTRA:          -4.751
REMARK INTER:                  -4.751
REMARK INTRA:                   0.000
REMARK UNBOUND:                 0.000
REMARK SMILES CC(C)=C1CC[C@@H](C)CC1=O
REMARK SMILES IDX 8 1 7 2 6 3 5 4 4 5 2 6 1 7 3 8 10 9 11 10 9 11
REMARK H PARENT
REMARK Flexibility Score: inf
ROOT
ATOM      1  C   UNL     1     -14.049  16.110 -30.757  1.00  0.00     0.008 C 
ATOM      2  C   UNL     1     -14.847  14.810 -30.906  1.00  0.00    -0.006 C 
ATOM      3  C   UNL     1     -16.088  14.831 -29.999  1.00  0.00     0.008 C 
ATOM      4  C   UNL     1     -16.954  13.582 -30.210  1.00  0.00     0.039 C 
ATOM      5  C   UNL     1     -16.156  12.290 -30.081  1.00  0.00    -0.006 C 
ATOM      6  C   UNL     1     -16.730  11.147 -29.602  1.00  0.00    -0.070 C 
ATOM      7  C   UNL     1     -18.186  11.112 -29.196  1.00  0.00     0.039 C 
ATOM      8  C   UNL     1     -15.935   9.876 -29.415  1.00  0.00     0.039 C 
ATOM      9  C   UNL     1     -14.762  12.325 -30.614  1.00  0.00     0.159 C 
ATOM     10  O   UNL     1     -14.229  11.300 -31.118  1.00  0.00    -0.295 OA
ATOM     11  C   UNL     1     -13.968  13.598 -30.564  1.00  0.00     0.084 C 
ENDROOT
TORSDOF 0
ENDMDL
MODEL 7
REMARK VINA RESULT:    -4.614     10.338     12.680
REMARK INTER + INTRA:          -4.614
REMARK INTER:                  -4.614
REMARK INTRA:                   0.000
REMARK UNBOUND:                 0.000
REMARK SMILES CC(C)=C1CC[C@@H](C)CC1=O
REMARK SMILES IDX 8 1 7 2 6 3 5 4 4 5 2 6 1 7 3 8 10 9 11 10 9 11
REMARK H PARENT
REMARK Flexibility Score: inf
ROOT
ATOM      1  C   UNL     1     -17.202  13.323 -31.226  1.00  0.00     0.008 C 
ATOM      2  C   UNL     1     -15.771  13.838 -31.416  1.00  0.00    -0.006 C 
ATOM      3  C   UNL     1     -15.044  13.029 -32.502  1.00  0.00     0.008 C 
ATOM      4  C   UNL     1     -13.646  13.596 -32.779  1.00  0.00     0.039 C 
ATOM      5  C   UNL     1     -12.817  13.749 -31.509  1.00  0.00    -0.006 C 
ATOM      6  C   UNL     1     -11.459  13.606 -31.528  1.00  0.00    -0.070 C 
ATOM      7  C   UNL     1     -10.720  13.307 -32.812  1.00  0.00     0.039 C 
ATOM      8  C   UNL     1     -10.632  13.699 -30.267  1.00  0.00     0.039 C 
ATOM      9  C   UNL     1     -13.561  14.175 -30.288  1.00  0.00     0.159 C 
ATOM     10  O   UNL     1     -13.015  14.888 -29.404  1.00  0.00    -0.295 OA
ATOM     11  C   UNL     1     -14.992  13.762 -30.095  1.00  0.00     0.084 C 
ENDROOT
TORSDOF 0
ENDMDL
MODEL 8
REMARK VINA RESULT:    -4.581     10.058     12.731
REMARK INTER + INTRA:          -4.581
REMARK INTER:                  -4.581
REMARK INTRA:                   0.000
REMARK UNBOUND:                 0.000
REMARK SMILES CC(C)=C1CC[C@@H](C)CC1=O
REMARK SMILES IDX 8 1 7 2 6 3 5 4 4 5 2 6 1 7 3 8 10 9 11 10 9 11
REMARK H PARENT
REMARK Flexibility Score: inf
ROOT
ATOM      1  C   UNL     1     -10.120  13.925 -31.469  1.00  0.00     0.008 C 
ATOM      2  C   UNL     1     -11.574  13.477 -31.283  1.00  0.00    -0.006 C 
ATOM      3  C   UNL     1     -12.443  13.958 -32.456  1.00  0.00     0.008 C 
ATOM      4  C   UNL     1     -13.879  13.432 -32.339  1.00  0.00     0.039 C 
ATOM      5  C   UNL     1     -14.504  13.740 -30.984  1.00  0.00    -0.006 C 
ATOM      6  C   UNL     1     -15.845  13.965 -30.856  1.00  0.00    -0.070 C 
ATOM      7  C   UNL     1     -16.768  13.901 -32.052  1.00  0.00     0.039 C 
ATOM      8  C   UNL     1     -16.468  14.327 -29.528  1.00  0.00     0.039 C 
ATOM      9  C   UNL     1     -13.589  13.664 -29.807  1.00  0.00     0.159 C 
ATOM     10  O   UNL     1     -14.007  13.301 -28.675  1.00  0.00    -0.295 OA
ATOM     11  C   UNL     1     -12.137  14.016 -29.959  1.00  0.00     0.084 C 
ENDROOT
TORSDOF 0
ENDMDL
MODEL 9
REMARK VINA RESULT:    -4.539      9.661     10.670
REMARK INTER + INTRA:          -4.539
REMARK INTER:                  -4.539
REMARK INTRA:                   0.000
REMARK UNBOUND:                 0.000
REMARK SMILES CC(C)=C1CC[C@@H](C)CC1=O
REMARK SMILES IDX 8 1 7 2 6 3 5 4 4 5 2 6 1 7 3 8 10 9 11 10 9 11
REMARK H PARENT
REMARK Flexibility Score: inf
ROOT
ATOM      1  C   UNL     1     -16.443  10.097 -28.405  1.00  0.00     0.008 C 
ATOM      2  C   UNL     1     -16.197  11.254 -29.379  1.00  0.00    -0.006 C 
ATOM      3  C   UNL     1     -14.915  11.014 -30.192  1.00  0.00     0.008 C 
ATOM      4  C   UNL     1     -14.707  12.111 -31.244  1.00  0.00     0.039 C 
ATOM      5  C   UNL     1     -14.768  13.512 -30.647  1.00  0.00    -0.006 C 
ATOM      6  C   UNL     1     -14.029  14.536 -31.165  1.00  0.00    -0.070 C 
ATOM      7  C   UNL     1     -13.133  14.328 -32.364  1.00  0.00     0.039 C 
ATOM      8  C   UNL     1     -14.038  15.915 -30.547  1.00  0.00     0.039 C 
ATOM      9  C   UNL     1     -15.762  13.714 -29.551  1.00  0.00     0.159 C 
ATOM     10  O   UNL     1     -16.340  14.822 -29.388  1.00  0.00    -0.295 OA
ATOM     11  C   UNL     1     -16.096  12.584 -28.619  1.00  0.00     0.084 C 
ENDROOT
TORSDOF 0
ENDMDL
