MODEL 1
REMARK VINA RESULT:     4.487      0.000      0.000
REMARK INTER + INTRA:           4.881
REMARK INTER:                   4.881
REMARK INTRA:                   0.000
REMARK UNBOUND:                 0.000
REMARK SMILES Cc1cc(O)c2c(c1)C(=O)c1cc(O)cc(O)c1C2=O
REMARK SMILES IDX 1 1 2 2 8 3 7 4 6 5 4 6 3 7 19 8 20 9 18 10 11 11 9 12 10 13
REMARK SMILES IDX 12 14 13 15 15 16 16 17 5 18 17 20 14 22
REMARK H PARENT 5 19 17 21 14 23
REMARK Flexibility Score: inf
ROOT
ATOM      1  C   UNL     1      10.031 -15.125 -22.027  1.00  0.00     0.044 C 
ATOM      2  C   UNL     1      10.264 -13.958 -22.940  1.00  0.00    -0.047 A 
ATOM      3  C   UNL     1      10.427 -14.160 -24.315  1.00  0.00     0.016 A 
ATOM      4  C   UNL     1      10.683 -13.078 -25.175  1.00  0.00     0.038 A 
ATOM      5  C   UNL     1      10.786 -11.773 -24.647  1.00  0.00     0.076 A 
ATOM      6  C   UNL     1      10.649 -11.576 -23.254  1.00  0.00     0.127 A 
ATOM      7  C   UNL     1      10.394 -12.668 -22.414  1.00  0.00     0.050 A 
ATOM      8  C   UNL     1      11.018 -10.634 -25.574  1.00  0.00     0.201 C 
ATOM      9  O   UNL     1      10.752  -9.463 -25.195  1.00  0.00    -0.288 OA
ATOM     10  C   UNL     1      11.446 -10.887 -26.978  1.00  0.00     0.076 A 
ATOM     11  C   UNL     1      11.280 -12.188 -27.508  1.00  0.00     0.041 A 
ATOM     12  C   UNL     1      10.846 -13.300 -26.629  1.00  0.00     0.194 C 
ATOM     13  O   UNL     1      10.633 -14.444 -27.119  1.00  0.00    -0.289 OA
ATOM     14  C   UNL     1      11.537 -12.428 -28.869  1.00  0.00     0.059 A 
ATOM     15  C   UNL     1      11.971 -11.395 -29.703  1.00  0.00     0.120 A 
ATOM     16  C   UNL     1      12.181 -10.123 -29.177  1.00  0.00     0.093 A 
ATOM     17  C   UNL     1      11.959  -9.862 -27.821  1.00  0.00     0.131 A 
ENDROOT
BRANCH   6  18
ATOM     18  O   UNL     1      10.776 -10.302 -22.700  1.00  0.00    -0.507 OA
ATOM     19  H   UNL     1      10.202  -9.999 -21.922  1.00  0.00     0.293 HD
ENDBRANCH   6  18
BRANCH  17  20
ATOM     20  O   UNL     1      12.298  -8.590 -27.353  1.00  0.00    -0.507 OA
ATOM     21  H   UNL     1      12.992  -7.999 -27.787  1.00  0.00     0.293 HD
ENDBRANCH  17  20
BRANCH  15  22
ATOM     22  O   UNL     1      12.210 -11.627 -31.056  1.00  0.00    -0.508 OA
ATOM     23  H   UNL     1      11.494 -11.470 -31.755  1.00  0.00     0.293 HD
ENDBRANCH  15  22
TORSDOF 3
ENDMDL
MODEL 2
REMARK VINA RESULT:     5.772      1.636      6.118
REMARK INTER + INTRA:           6.278
REMARK INTER:                   6.278
REMARK INTRA:                   0.000
REMARK UNBOUND:                 0.000
REMARK SMILES Cc1cc(O)c2c(c1)C(=O)c1cc(O)cc(O)c1C2=O
REMARK SMILES IDX 1 1 2 2 8 3 7 4 6 5 4 6 3 7 19 8 20 9 18 10 11 11 9 12 10 13
REMARK SMILES IDX 12 14 13 15 15 16 16 17 5 18 17 20 14 22
REMARK H PARENT 5 19 17 21 14 23
REMARK Flexibility Score: inf
ROOT
ATOM      1  C   UNL     1      13.588  -6.960 -28.255  1.00  0.00     0.044 C 
ATOM      2  C   UNL     1      12.922  -8.303 -28.201  1.00  0.00    -0.047 A 
ATOM      3  C   UNL     1      12.578  -8.870 -26.968  1.00  0.00     0.016 A 
ATOM      4  C   UNL     1      11.987 -10.144 -26.904  1.00  0.00     0.038 A 
ATOM      5  C   UNL     1      11.744 -10.864 -28.093  1.00  0.00     0.076 A 
ATOM      6  C   UNL     1      12.117 -10.300 -29.333  1.00  0.00     0.127 A 
ATOM      7  C   UNL     1      12.706  -9.029 -29.377  1.00  0.00     0.050 A 
ATOM      8  C   UNL     1      11.082 -12.193 -28.011  1.00  0.00     0.201 C 
ATOM      9  O   UNL     1      10.534 -12.677 -29.037  1.00  0.00    -0.288 OA
ATOM     10  C   UNL     1      10.964 -12.891 -26.700  1.00  0.00     0.076 A 
ATOM     11  C   UNL     1      11.154 -12.137 -25.518  1.00  0.00     0.041 A 
ATOM     12  C   UNL     1      11.621 -10.733 -25.597  1.00  0.00     0.194 C 
ATOM     13  O   UNL     1      11.723 -10.043 -24.544  1.00  0.00    -0.289 OA
ATOM     14  C   UNL     1      10.908 -12.727 -24.265  1.00  0.00     0.059 A 
ATOM     15  C   UNL     1      10.493 -14.057 -24.175  1.00  0.00     0.120 A 
ATOM     16  C   UNL     1      10.349 -14.817 -25.333  1.00  0.00     0.093 A 
ATOM     17  C   UNL     1      10.613 -14.265 -26.591  1.00  0.00     0.131 A 
ENDROOT
BRANCH   6  18
ATOM     18  O   UNL     1      11.918 -11.001 -30.523  1.00  0.00    -0.507 OA
ATOM     19  H   UNL     1      10.995 -11.300 -30.818  1.00  0.00     0.293 HD
ENDBRANCH   6  18
BRANCH  17  20
ATOM     20  O   UNL     1      10.550 -15.125 -27.690  1.00  0.00    -0.507 OA
ATOM     21  H   UNL     1      10.983 -14.928 -28.582  1.00  0.00     0.293 HD
ENDBRANCH  17  20
BRANCH  15  22
ATOM     22  O   UNL     1      10.233 -14.638 -22.936  1.00  0.00    -0.508 OA
ATOM     23  H   UNL     1       9.404 -15.199 -22.777  1.00  0.00     0.293 HD
ENDBRANCH  15  22
TORSDOF 3
ENDMDL
MODEL 3
REMARK VINA RESULT:     6.182      1.245      5.493
REMARK INTER + INTRA:           6.724
REMARK INTER:                   6.724
REMARK INTRA:                   0.000
REMARK UNBOUND:                 0.000
REMARK SMILES Cc1cc(O)c2c(c1)C(=O)c1cc(O)cc(O)c1C2=O
REMARK SMILES IDX 1 1 2 2 8 3 7 4 6 5 4 6 3 7 19 8 20 9 18 10 11 11 9 12 10 13
REMARK SMILES IDX 12 14 13 15 15 16 16 17 5 18 17 20 14 22
REMARK H PARENT 5 19 17 21 14 23
REMARK Flexibility Score: inf
ROOT
ATOM      1  C   UNL     1      11.744 -11.747 -31.348  1.00  0.00     0.044 C 
ATOM      2  C   UNL     1      11.726 -11.529 -29.863  1.00  0.00    -0.047 A 
ATOM      3  C   UNL     1      11.417 -12.585 -28.999  1.00  0.00     0.016 A 
ATOM      4  C   UNL     1      11.361 -12.382 -27.609  1.00  0.00     0.038 A 
ATOM      5  C   UNL     1      11.611 -11.099 -27.077  1.00  0.00     0.076 A 
ATOM      6  C   UNL     1      11.895 -10.028 -27.956  1.00  0.00     0.127 A 
ATOM      7  C   UNL     1      11.946 -10.251 -29.338  1.00  0.00     0.050 A 
ATOM      8  C   UNL     1      11.587 -10.909 -25.603  1.00  0.00     0.201 C 
ATOM      9  O   UNL     1      12.151  -9.901 -25.099  1.00  0.00    -0.288 OA
ATOM     10  C   UNL     1      11.007 -11.960 -24.723  1.00  0.00     0.076 A 
ATOM     11  C   UNL     1      10.819 -13.256 -25.257  1.00  0.00     0.041 A 
ATOM     12  C   UNL     1      11.041 -13.506 -26.701  1.00  0.00     0.194 C 
ATOM     13  O   UNL     1      10.939 -14.677 -27.161  1.00  0.00    -0.289 OA
ATOM     14  C   UNL     1      10.411 -14.308 -24.417  1.00  0.00     0.059 A 
ATOM     15  C   UNL     1      10.173 -14.081 -23.060  1.00  0.00     0.120 A 
ATOM     16  C   UNL     1      10.311 -12.798 -22.538  1.00  0.00     0.093 A 
ATOM     17  C   UNL     1      10.690 -11.728 -23.355  1.00  0.00     0.131 A 
ENDROOT
BRANCH   6  18
ATOM     18  O   UNL     1      12.116  -8.742 -27.462  1.00  0.00    -0.507 OA
ATOM     19  H   UNL     1      12.913  -8.188 -27.754  1.00  0.00     0.293 HD
ENDBRANCH   6  18
BRANCH  17  20
ATOM     20  O   UNL     1      10.699 -10.456 -22.777  1.00  0.00    -0.507 OA
ATOM     21  H   UNL     1      11.540  -9.979 -22.485  1.00  0.00     0.293 HD
ENDBRANCH  17  20
BRANCH  15  22
ATOM     22  O   UNL     1       9.785 -15.125 -22.223  1.00  0.00    -0.508 OA
ATOM     23  H   UNL     1       9.574 -16.047 -22.587  1.00  0.00     0.293 HD
ENDBRANCH  15  22
TORSDOF 3
ENDMDL
MODEL 4
REMARK VINA RESULT:     6.531      1.289      3.470
REMARK INTER + INTRA:           7.104
REMARK INTER:                   7.104
REMARK INTRA:                   0.000
REMARK UNBOUND:                 0.000
REMARK SMILES Cc1cc(O)c2c(c1)C(=O)c1cc(O)cc(O)c1C2=O
REMARK SMILES IDX 1 1 2 2 8 3 7 4 6 5 4 6 3 7 19 8 20 9 18 10 11 11 9 12 10 13
REMARK SMILES IDX 12 14 13 15 15 16 16 17 5 18 17 20 14 22
REMARK H PARENT 5 19 17 21 14 23
REMARK Flexibility Score: inf
ROOT
ATOM      1  C   UNL     1       9.941 -14.861 -22.627  1.00  0.00     0.044 C 
ATOM      2  C   UNL     1      10.355 -14.296 -23.954  1.00  0.00    -0.047 A 
ATOM      3  C   UNL     1      11.003 -13.057 -24.021  1.00  0.00     0.016 A 
ATOM      4  C   UNL     1      11.362 -12.501 -25.261  1.00  0.00     0.038 A 
ATOM      5  C   UNL     1      11.062 -13.193 -26.453  1.00  0.00     0.076 A 
ATOM      6  C   UNL     1      10.383 -14.431 -26.383  1.00  0.00     0.127 A 
ATOM      7  C   UNL     1      10.033 -14.969 -25.137  1.00  0.00     0.050 A 
ATOM      8  C   UNL     1      11.484 -12.611 -27.754  1.00  0.00     0.201 C 
ATOM      9  O   UNL     1      11.560 -13.353 -28.769  1.00  0.00    -0.288 OA
ATOM     10  C   UNL     1      11.928 -11.191 -27.830  1.00  0.00     0.076 A 
ATOM     11  C   UNL     1      12.281 -10.532 -26.629  1.00  0.00     0.041 A 
ATOM     12  C   UNL     1      12.053 -11.193 -25.322  1.00  0.00     0.194 C 
ATOM     13  O   UNL     1      12.432 -10.631 -24.257  1.00  0.00    -0.289 OA
ATOM     14  C   UNL     1      12.841  -9.243 -26.676  1.00  0.00     0.059 A 
ATOM     15  C   UNL     1      13.038  -8.599 -27.899  1.00  0.00     0.120 A 
ATOM     16  C   UNL     1      12.649  -9.224 -29.081  1.00  0.00     0.093 A 
ATOM     17  C   UNL     1      12.065 -10.494 -29.063  1.00  0.00     0.131 A 
ENDROOT
BRANCH   6  18
ATOM     18  O   UNL     1      10.045 -15.124 -27.545  1.00  0.00    -0.507 OA
ATOM     19  H   UNL     1       9.655 -16.060 -27.515  1.00  0.00     0.293 HD
ENDBRANCH   6  18
BRANCH  17  20
ATOM     20  O   UNL     1      11.604 -11.002 -30.280  1.00  0.00    -0.507 OA
ATOM     21  H   UNL     1      11.991 -10.746 -31.177  1.00  0.00     0.293 HD
ENDBRANCH  17  20
BRANCH  15  22
ATOM     22  O   UNL     1      13.608  -7.329 -27.949  1.00  0.00    -0.508 OA
ATOM     23  H   UNL     1      13.039  -6.496 -28.047  1.00  0.00     0.293 HD
ENDBRANCH  15  22
TORSDOF 3
ENDMDL
