MODEL 1
REMARK VINA RESULT:    -5.077      0.000      0.000
REMARK INTER + INTRA:          -6.422
REMARK INTER:                  -6.264
REMARK INTRA:                  -0.159
REMARK UNBOUND:                -0.159
REMARK SMILES CCCCC=CC(C)=O
REMARK SMILES IDX 4 1 3 2 2 3 1 4 5 5 6 6 7 7 9 8 8 9
REMARK H PARENT
REMARK Flexibility Score: inf
ROOT
ATOM      1  C   UNL     1      15.461  26.588  53.064  1.00  0.00     0.027 C 
ENDROOT
BRANCH   1   2
ATOM      2  C   UNL     1      14.010  26.326  52.648  1.00  0.00     0.004 C 
BRANCH   2   3
ATOM      3  C   UNL     1      13.795  24.848  52.303  1.00  0.00    -0.003 C 
ATOM      4  C   UNL     1      12.347  24.578  51.906  1.00  0.00     0.004 C 
ENDBRANCH   2   3
ENDBRANCH   1   2
BRANCH   1   5
ATOM      5  C   UNL     1      15.853  25.736  54.237  1.00  0.00    -0.023 C 
ATOM      6  C   UNL     1      17.136  25.565  54.579  1.00  0.00     0.042 C 
BRANCH   6   7
ATOM      7  C   UNL     1      17.569  24.729  55.717  1.00  0.00     0.152 C 
ATOM      8  O   UNL     1      17.018  23.608  55.887  1.00  0.00    -0.295 OA
ATOM      9  C   UNL     1      18.637  25.165  56.675  1.00  0.00     0.093 C 
ENDBRANCH   6   7
ENDBRANCH   1   5
TORSDOF 4
ENDMDL
MODEL 2
REMARK VINA RESULT:    -4.367      2.113      5.262
REMARK INTER + INTRA:          -5.546
REMARK INTER:                  -5.423
REMARK INTRA:                  -0.124
REMARK UNBOUND:                -0.159
REMARK SMILES CCCCC=CC(C)=O
REMARK SMILES IDX 4 1 3 2 2 3 1 4 5 5 6 6 7 7 9 8 8 9
REMARK H PARENT
REMARK Flexibility Score: inf
ROOT
ATOM      1  C   UNL     1      16.999  26.171  53.972  1.00  0.00     0.027 C 
ENDROOT
BRANCH   1   2
ATOM      2  C   UNL     1      17.047  25.077  55.045  1.00  0.00     0.004 C 
BRANCH   2   3
ATOM      3  C   UNL     1      18.489  24.807  55.489  1.00  0.00    -0.003 C 
ATOM      4  C   UNL     1      18.704  25.215  56.944  1.00  0.00     0.004 C 
ENDBRANCH   2   3
ENDBRANCH   1   2
BRANCH   1   5
ATOM      5  C   UNL     1      15.603  26.361  53.450  1.00  0.00    -0.023 C 
ATOM      6  C   UNL     1      14.873  25.326  53.018  1.00  0.00     0.042 C 
BRANCH   6   7
ATOM      7  C   UNL     1      13.502  25.465  52.487  1.00  0.00     0.152 C 
ATOM      8  O   UNL     1      12.803  26.442  52.869  1.00  0.00    -0.295 OA
ATOM      9  C   UNL     1      12.913  24.487  51.515  1.00  0.00     0.093 C 
ENDBRANCH   6   7
ENDBRANCH   1   5
TORSDOF 4
ENDMDL
MODEL 3
REMARK VINA RESULT:    -4.149      3.716      6.187
REMARK INTER + INTRA:          -5.278
REMARK INTER:                  -5.167
REMARK INTRA:                  -0.111
REMARK UNBOUND:                -0.159
REMARK SMILES CCCCC=CC(C)=O
REMARK SMILES IDX 4 1 3 2 2 3 1 4 5 5 6 6 7 7 9 8 8 9
REMARK H PARENT
REMARK Flexibility Score: inf
ROOT
ATOM      1  C   UNL     1      13.172  24.755  51.975  1.00  0.00     0.027 C 
ENDROOT
BRANCH   1   2
ATOM      2  C   UNL     1      13.611  26.133  52.482  1.00  0.00     0.004 C 
BRANCH   2   3
ATOM      3  C   UNL     1      14.843  26.018  53.388  1.00  0.00    -0.003 C 
ATOM      4  C   UNL     1      15.895  27.062  53.024  1.00  0.00     0.004 C 
ENDBRANCH   2   3
ENDBRANCH   1   2
BRANCH   1   5
ATOM      5  C   UNL     1      11.712  24.518  52.238  1.00  0.00    -0.023 C 
ATOM      6  C   UNL     1      11.270  23.349  52.715  1.00  0.00     0.042 C 
BRANCH   6   7
ATOM      7  C   UNL     1       9.844  23.067  52.978  1.00  0.00     0.152 C 
ATOM      8  O   UNL     1       9.243  22.247  52.234  1.00  0.00    -0.295 OA
ATOM      9  C   UNL     1       9.089  23.720  54.097  1.00  0.00     0.093 C 
ENDBRANCH   6   7
ENDBRANCH   1   5
TORSDOF 4
ENDMDL
MODEL 4
REMARK VINA RESULT:    -4.079      8.355      9.566
REMARK INTER + INTRA:          -5.192
REMARK INTER:                  -5.111
REMARK INTRA:                  -0.081
REMARK UNBOUND:                -0.159
REMARK SMILES CCCCC=CC(C)=O
REMARK SMILES IDX 4 1 3 2 2 3 1 4 5 5 6 6 7 7 9 8 8 9
REMARK H PARENT
REMARK Flexibility Score: inf
ROOT
ATOM      1  C   UNL     1      13.659  18.863  58.492  1.00  0.00     0.027 C 
ENDROOT
BRANCH   1   2
ATOM      2  C   UNL     1      14.396  18.940  57.150  1.00  0.00     0.004 C 
BRANCH   2   3
ATOM      3  C   UNL     1      15.731  19.679  57.299  1.00  0.00    -0.003 C 
ATOM      4  C   UNL     1      16.762  19.163  56.300  1.00  0.00     0.004 C 
ENDBRANCH   2   3
ENDBRANCH   1   2
BRANCH   1   5
ATOM      5  C   UNL     1      12.170  18.930  58.299  1.00  0.00    -0.023 C 
ATOM      6  C   UNL     1      11.325  18.443  59.216  1.00  0.00     0.042 C 
BRANCH   6   7
ATOM      7  C   UNL     1       9.856  18.477  59.065  1.00  0.00     0.152 C 
ATOM      8  O   UNL     1       9.370  18.533  57.904  1.00  0.00    -0.295 OA
ATOM      9  C   UNL     1       8.927  18.448  60.241  1.00  0.00     0.093 C 
ENDBRANCH   6   7
ENDBRANCH   1   5
TORSDOF 4
ENDMDL
MODEL 5
REMARK VINA RESULT:    -4.040      8.662      9.294
REMARK INTER + INTRA:          -5.144
REMARK INTER:                  -4.997
REMARK INTRA:                  -0.146
REMARK UNBOUND:                -0.159
REMARK SMILES CCCCC=CC(C)=O
REMARK SMILES IDX 4 1 3 2 2 3 1 4 5 5 6 6 7 7 9 8 8 9
REMARK H PARENT
REMARK Flexibility Score: inf
ROOT
ATOM      1  C   UNL     1      11.081  18.488  59.416  1.00  0.00     0.027 C 
ENDROOT
BRANCH   1   2
ATOM      2  C   UNL     1       9.631  18.549  58.924  1.00  0.00     0.004 C 
BRANCH   2   3
ATOM      3  C   UNL     1       8.651  18.553  60.103  1.00  0.00    -0.003 C 
ATOM      4  C   UNL     1       9.041  19.602  61.141  1.00  0.00     0.004 C 
ENDBRANCH   2   3
ENDBRANCH   1   2
BRANCH   1   5
ATOM      5  C   UNL     1      12.047  18.760  58.298  1.00  0.00    -0.023 C 
ATOM      6  C   UNL     1      13.368  18.795  58.509  1.00  0.00     0.042 C 
BRANCH   6   7
ATOM      7  C   UNL     1      14.354  19.069  57.444  1.00  0.00     0.152 C 
ATOM      8  O   UNL     1      15.314  19.845  57.694  1.00  0.00    -0.295 OA
ATOM      9  C   UNL     1      14.251  18.459  56.077  1.00  0.00     0.093 C 
ENDBRANCH   6   7
ENDBRANCH   1   5
TORSDOF 4
ENDMDL
MODEL 6
REMARK VINA RESULT:    -3.957      9.064      9.747
REMARK INTER + INTRA:          -5.041
REMARK INTER:                  -4.811
REMARK INTRA:                  -0.230
REMARK UNBOUND:                -0.159
REMARK SMILES CCCCC=CC(C)=O
REMARK SMILES IDX 4 1 3 2 2 3 1 4 5 5 6 6 7 7 9 8 8 9
REMARK H PARENT
REMARK Flexibility Score: inf
ROOT
ATOM      1  C   UNL     1       9.588  18.735  57.730  1.00  0.00     0.027 C 
ENDROOT
BRANCH   1   2
ATOM      2  C   UNL     1       8.381  18.750  58.673  1.00  0.00     0.004 C 
BRANCH   2   3
ATOM      3  C   UNL     1       8.798  18.391  60.104  1.00  0.00    -0.003 C 
ATOM      4  C   UNL     1       8.544  19.553  61.061  1.00  0.00     0.004 C 
ENDBRANCH   2   3
ENDBRANCH   1   2
BRANCH   1   5
ATOM      5  C   UNL     1      10.867  18.513  58.486  1.00  0.00    -0.023 C 
ATOM      6  C   UNL     1      12.041  18.949  58.015  1.00  0.00     0.042 C 
BRANCH   6   7
ATOM      7  C   UNL     1      13.324  18.744  58.717  1.00  0.00     0.152 C 
ATOM      8  O   UNL     1      14.379  19.186  58.188  1.00  0.00    -0.295 OA
ATOM      9  C   UNL     1      13.416  18.030  60.033  1.00  0.00     0.093 C 
ENDBRANCH   6   7
ENDBRANCH   1   5
TORSDOF 4
ENDMDL
MODEL 7
REMARK VINA RESULT:    -3.833     13.275     13.994
REMARK INTER + INTRA:          -4.889
REMARK INTER:                  -4.690
REMARK INTRA:                  -0.198
REMARK UNBOUND:                -0.159
REMARK SMILES CCCCC=CC(C)=O
REMARK SMILES IDX 4 1 3 2 2 3 1 4 5 5 6 6 7 7 9 8 8 9
REMARK H PARENT
REMARK Flexibility Score: inf
ROOT
ATOM      1  C   UNL     1      19.088  12.898  53.014  1.00  0.00     0.027 C 
ENDROOT
BRANCH   1   2
ATOM      2  C   UNL     1      19.509  13.722  51.792  1.00  0.00     0.004 C 
BRANCH   2   3
ATOM      3  C   UNL     1      18.788  13.238  50.529  1.00  0.00    -0.003 C 
ATOM      4  C   UNL     1      18.392  14.410  49.636  1.00  0.00     0.004 C 
ENDBRANCH   2   3
ENDBRANCH   1   2
BRANCH   1   5
ATOM      5  C   UNL     1      17.780  12.200  52.775  1.00  0.00    -0.023 C 
ATOM      6  C   UNL     1      17.448  11.090  53.445  1.00  0.00     0.042 C 
BRANCH   6   7
ATOM      7  C   UNL     1      16.179  10.364  53.236  1.00  0.00     0.152 C 
ATOM      8  O   UNL     1      15.520  10.590  52.187  1.00  0.00    -0.295 OA
ATOM      9  C   UNL     1      15.648   9.371  54.227  1.00  0.00     0.093 C 
ENDBRANCH   6   7
ENDBRANCH   1   5
TORSDOF 4
ENDMDL
MODEL 8
REMARK VINA RESULT:    -3.816      6.812      7.496
REMARK INTER + INTRA:          -4.868
REMARK INTER:                  -4.667
REMARK INTRA:                  -0.201
REMARK UNBOUND:                -0.159
REMARK SMILES CCCCC=CC(C)=O
REMARK SMILES IDX 4 1 3 2 2 3 1 4 5 5 6 6 7 7 9 8 8 9
REMARK H PARENT
REMARK Flexibility Score: inf
ROOT
ATOM      1  C   UNL     1      13.166  17.241  54.000  1.00  0.00     0.027 C 
ENDROOT
BRANCH   1   2
ATOM      2  C   UNL     1      13.498  18.185  52.838  1.00  0.00     0.004 C 
BRANCH   2   3
ATOM      3  C   UNL     1      12.977  17.624  51.510  1.00  0.00    -0.003 C 
ATOM      4  C   UNL     1      12.329  16.255  51.705  1.00  0.00     0.004 C 
ENDBRANCH   2   3
ENDBRANCH   1   2
BRANCH   1   5
ATOM      5  C   UNL     1      13.902  17.637  55.249  1.00  0.00    -0.023 C 
ATOM      6  C   UNL     1      14.626  18.761  55.306  1.00  0.00     0.042 C 
BRANCH   6   7
ATOM      7  C   UNL     1      15.373  19.185  56.507  1.00  0.00     0.152 C 
ATOM      8  O   UNL     1      14.726  19.537  57.529  1.00  0.00    -0.295 OA
ATOM      9  C   UNL     1      16.872  19.212  56.553  1.00  0.00     0.093 C 
ENDBRANCH   6   7
ENDBRANCH   1   5
TORSDOF 4
ENDMDL
