MODEL 1
REMARK VINA RESULT:    -3.550      0.000      0.000
REMARK INTER + INTRA:         -11.953
REMARK INTER:                  -8.115
REMARK INTRA:                  -3.838
REMARK UNBOUND:                -3.838
REMARK SMILES CCCCCCCCCCCCCCCCCCCCCCCC(=O)[O-]
REMARK SMILES IDX 13 1 14 2 15 3 16 4 17 5 18 6 19 7 20 8 21 9 22 10 23 11
REMARK SMILES IDX 24 12 25 13 26 14 12 15 11 16 10 17 9 18 8 19 7 20 6 21 5 22
REMARK SMILES IDX 4 23 3 24 2 25 1 26
REMARK H PARENT
REMARK Flexibility Score: inf
ROOT
ATOM      1  C   UNL     1       4.830   4.412  -4.462  1.00  0.00     0.000 C 
ENDROOT
BRANCH   1   2
ATOM      2  C   UNL     1       4.908   4.658  -5.980  1.00  0.00     0.000 C 
BRANCH   2   3
ATOM      3  C   UNL     1       5.784   5.849  -6.408  1.00  0.00     0.000 C 
BRANCH   3   4
ATOM      4  C   UNL     1       7.227   5.750  -5.884  1.00  0.00     0.000 C 
BRANCH   4   5
ATOM      5  C   UNL     1       8.133   4.914  -6.804  1.00  0.00     0.000 C 
BRANCH   5   6
ATOM      6  C   UNL     1       8.996   3.905  -6.032  1.00  0.00     0.000 C 
BRANCH   6   7
ATOM      7  C   UNL     1       8.468   3.719  -4.601  1.00  0.00     0.000 C 
BRANCH   7   8
ATOM      8  C   UNL     1       7.715   2.390  -4.408  1.00  0.00     0.000 C 
BRANCH   8   9
ATOM      9  C   UNL     1       7.206   1.738  -5.706  1.00  0.00     0.000 C 
BRANCH   9  10
ATOM     10  C   UNL     1       5.886   0.975  -5.515  1.00  0.00     0.006 C 
BRANCH  10  11
ATOM     11  C   UNL     1       5.612   0.722  -4.028  1.00  0.00     0.053 C 
BRANCH  11  12
ATOM     12  C   UNL     1       5.165  -0.689  -3.803  1.00  0.00     0.041 C 
ATOM     13  O   UNL     1       4.426  -0.970  -2.821  1.00  0.00    -0.550 OA
ATOM     14  O   UNL     1       5.569  -1.696  -4.673  1.00  0.00    -0.550 OA
ENDBRANCH  11  12
ENDBRANCH  10  11
ENDBRANCH   9  10
ENDBRANCH   8   9
ENDBRANCH   7   8
ENDBRANCH   6   7
ENDBRANCH   5   6
ENDBRANCH   4   5
ENDBRANCH   3   4
ENDBRANCH   2   3
ENDBRANCH   1   2
BRANCH   1  15
ATOM     15  C   UNL     1       3.510   4.906  -3.842  1.00  0.00     0.000 C 
BRANCH  15  16
ATOM     16  C   UNL     1       3.511   6.422  -3.584  1.00  0.00     0.000 C 
BRANCH  16  17
ATOM     17  C   UNL     1       2.290   7.125  -4.202  1.00  0.00     0.000 C 
BRANCH  17  18
ATOM     18  C   UNL     1       2.323   7.122  -5.738  1.00  0.00    -0.000 C 
BRANCH  18  19
ATOM     19  C   UNL     1       1.093   6.439  -6.357  1.00  0.00    -0.000 C 
BRANCH  19  20
ATOM     20  C   UNL     1       1.454   5.044  -6.886  1.00  0.00    -0.000 C 
BRANCH  20  21
ATOM     21  C   UNL     1       0.245   4.094  -6.944  1.00  0.00    -0.000 C 
BRANCH  21  22
ATOM     22  C   UNL     1       0.551   2.622  -6.598  1.00  0.00    -0.000 C 
BRANCH  22  23
ATOM     23  C   UNL     1       1.946   2.373  -5.995  1.00  0.00    -0.000 C 
BRANCH  23  24
ATOM     24  C   UNL     1       1.922   1.356  -4.840  1.00  0.00    -0.000 C 
BRANCH  24  25
ATOM     25  C   UNL     1       0.493   1.013  -4.391  1.00  0.00    -0.003 C 
ATOM     26  C   UNL     1       0.193  -0.484  -4.484  1.00  0.00     0.004 C 
ENDBRANCH  24  25
ENDBRANCH  23  24
ENDBRANCH  22  23
ENDBRANCH  21  22
ENDBRANCH  20  21
ENDBRANCH  19  20
ENDBRANCH  18  19
ENDBRANCH  17  18
ENDBRANCH  16  17
ENDBRANCH  15  16
ENDBRANCH   1  15
TORSDOF 22
ENDMDL
MODEL 2
REMARK VINA RESULT:    -3.542      2.673      5.114
REMARK INTER + INTRA:         -11.934
REMARK INTER:                  -7.949
REMARK INTRA:                  -3.985
REMARK UNBOUND:                -3.838
REMARK SMILES CCCCCCCCCCCCCCCCCCCCCCCC(=O)[O-]
REMARK SMILES IDX 13 1 14 2 15 3 16 4 17 5 18 6 19 7 20 8 21 9 22 10 23 11
REMARK SMILES IDX 24 12 25 13 26 14 12 15 11 16 10 17 9 18 8 19 7 20 6 21 5 22
REMARK SMILES IDX 4 23 3 24 2 25 1 26
REMARK H PARENT
REMARK Flexibility Score: inf
ROOT
ATOM      1  C   UNL     1       4.696  -0.670  -4.020  1.00  0.00     0.000 C 
ENDROOT
BRANCH   1   2
ATOM      2  C   UNL     1       5.356   0.269  -2.993  1.00  0.00     0.000 C 
BRANCH   2   3
ATOM      3  C   UNL     1       5.423   1.751  -3.406  1.00  0.00     0.000 C 
BRANCH   3   4
ATOM      4  C   UNL     1       6.864   2.282  -3.500  1.00  0.00     0.000 C 
BRANCH   4   5
ATOM      5  C   UNL     1       7.324   2.485  -4.953  1.00  0.00     0.000 C 
BRANCH   5   6
ATOM      6  C   UNL     1       8.247   3.702  -5.121  1.00  0.00     0.000 C 
BRANCH   6   7
ATOM      7  C   UNL     1       7.662   4.691  -6.142  1.00  0.00     0.000 C 
BRANCH   7   8
ATOM      8  C   UNL     1       6.807   5.791  -5.489  1.00  0.00     0.000 C 
BRANCH   8   9
ATOM      9  C   UNL     1       5.289   5.640  -5.694  1.00  0.00     0.000 C 
BRANCH   9  10
ATOM     10  C   UNL     1       4.578   5.041  -4.471  1.00  0.00     0.006 C 
BRANCH  10  11
ATOM     11  C   UNL     1       4.011   6.146  -3.573  1.00  0.00     0.053 C 
BRANCH  11  12
ATOM     12  C   UNL     1       2.716   6.662  -4.117  1.00  0.00     0.041 C 
ATOM     13  O   UNL     1       2.282   7.790  -3.758  1.00  0.00    -0.550 OA
ATOM     14  O   UNL     1       1.983   5.896  -5.017  1.00  0.00    -0.550 OA
ENDBRANCH  11  12
ENDBRANCH  10  11
ENDBRANCH   9  10
ENDBRANCH   8   9
ENDBRANCH   7   8
ENDBRANCH   6   7
ENDBRANCH   5   6
ENDBRANCH   4   5
ENDBRANCH   3   4
ENDBRANCH   2   3
ENDBRANCH   1   2
BRANCH   1  15
ATOM     15  C   UNL     1       5.698  -1.248  -5.034  1.00  0.00     0.000 C 
BRANCH  15  16
ATOM     16  C   UNL     1       5.773  -0.419  -6.327  1.00  0.00     0.000 C 
BRANCH  16  17
ATOM     17  C   UNL     1       4.426   0.230  -6.690  1.00  0.00     0.000 C 
BRANCH  17  18
ATOM     18  C   UNL     1       4.576   1.696  -7.125  1.00  0.00    -0.000 C 
BRANCH  18  19
ATOM     19  C   UNL     1       3.286   2.509  -6.929  1.00  0.00    -0.000 C 
BRANCH  19  20
ATOM     20  C   UNL     1       2.497   1.994  -5.717  1.00  0.00    -0.000 C 
BRANCH  20  21
ATOM     21  C   UNL     1       0.995   2.322  -5.797  1.00  0.00    -0.000 C 
BRANCH  21  22
ATOM     22  C   UNL     1       0.056   1.098  -5.763  1.00  0.00    -0.000 C 
BRANCH  22  23
ATOM     23  C   UNL     1       0.332   0.036  -6.843  1.00  0.00    -0.000 C 
BRANCH  23  24
ATOM     24  C   UNL     1       0.916  -1.264  -6.263  1.00  0.00    -0.000 C 
BRANCH  24  25
ATOM     25  C   UNL     1       0.639  -1.411  -4.759  1.00  0.00    -0.003 C 
ATOM     26  C   UNL     1       1.410  -2.573  -4.131  1.00  0.00     0.004 C 
ENDBRANCH  24  25
ENDBRANCH  23  24
ENDBRANCH  22  23
ENDBRANCH  21  22
ENDBRANCH  20  21
ENDBRANCH  19  20
ENDBRANCH  18  19
ENDBRANCH  17  18
ENDBRANCH  16  17
ENDBRANCH  15  16
ENDBRANCH   1  15
TORSDOF 22
ENDMDL
MODEL 3
REMARK VINA RESULT:    -3.450      1.798      5.595
REMARK INTER + INTRA:         -11.724
REMARK INTER:                  -8.863
REMARK INTRA:                  -2.861
REMARK UNBOUND:                -3.838
REMARK SMILES CCCCCCCCCCCCCCCCCCCCCCCC(=O)[O-]
REMARK SMILES IDX 13 1 14 2 15 3 16 4 17 5 18 6 19 7 20 8 21 9 22 10 23 11
REMARK SMILES IDX 24 12 25 13 26 14 12 15 11 16 10 17 9 18 8 19 7 20 6 21 5 22
REMARK SMILES IDX 4 23 3 24 2 25 1 26
REMARK H PARENT
REMARK Flexibility Score: inf
ROOT
ATOM      1  C   UNL     1      -0.262  -0.921  -4.187  1.00  0.00     0.000 C 
ENDROOT
BRANCH   1   2
ATOM      2  C   UNL     1       0.880  -1.623  -4.946  1.00  0.00     0.000 C 
BRANCH   2   3
ATOM      3  C   UNL     1       2.120  -1.962  -4.100  1.00  0.00     0.000 C 
BRANCH   3   4
ATOM      4  C   UNL     1       3.322  -1.053  -4.408  1.00  0.00     0.000 C 
BRANCH   4   5
ATOM      5  C   UNL     1       4.479  -1.248  -3.413  1.00  0.00     0.000 C 
BRANCH   5   6
ATOM      6  C   UNL     1       5.394  -0.018  -3.316  1.00  0.00     0.000 C 
BRANCH   6   7
ATOM      7  C   UNL     1       5.527   0.671  -4.683  1.00  0.00     0.000 C 
BRANCH   7   8
ATOM      8  C   UNL     1       6.810   1.512  -4.809  1.00  0.00     0.000 C 
BRANCH   8   9
ATOM      9  C   UNL     1       7.631   1.256  -6.085  1.00  0.00     0.000 C 
BRANCH   9  10
ATOM     10  C   UNL     1       7.054   0.124  -6.950  1.00  0.00     0.006 C 
BRANCH  10  11
ATOM     11  C   UNL     1       8.076  -1.005  -7.125  1.00  0.00     0.053 C 
BRANCH  11  12
ATOM     12  C   UNL     1       7.658  -2.223  -6.362  1.00  0.00     0.041 C 
ATOM     13  O   UNL     1       6.450  -2.386  -6.040  1.00  0.00    -0.550 OA
ATOM     14  O   UNL     1       8.603  -3.177  -6.000  1.00  0.00    -0.550 OA
ENDBRANCH  11  12
ENDBRANCH  10  11
ENDBRANCH   9  10
ENDBRANCH   8   9
ENDBRANCH   7   8
ENDBRANCH   6   7
ENDBRANCH   5   6
ENDBRANCH   4   5
ENDBRANCH   3   4
ENDBRANCH   2   3
ENDBRANCH   1   2
BRANCH   1  15
ATOM     15  C   UNL     1      -0.068   0.602  -4.089  1.00  0.00     0.000 C 
BRANCH  15  16
ATOM     16  C   UNL     1      -0.006   1.278  -5.469  1.00  0.00     0.000 C 
BRANCH  16  17
ATOM     17  C   UNL     1       1.250   2.151  -5.642  1.00  0.00     0.000 C 
BRANCH  17  18
ATOM     18  C   UNL     1       2.068   2.268  -4.347  1.00  0.00    -0.000 C 
BRANCH  18  19
ATOM     19  C   UNL     1       3.434   2.937  -4.566  1.00  0.00    -0.000 C 
BRANCH  19  20
ATOM     20  C   UNL     1       3.612   4.135  -3.622  1.00  0.00    -0.000 C 
BRANCH  20  21
ATOM     21  C   UNL     1       4.602   5.182  -4.163  1.00  0.00    -0.000 C 
BRANCH  21  22
ATOM     22  C   UNL     1       4.630   5.324  -5.700  1.00  0.00    -0.000 C 
BRANCH  22  23
ATOM     23  C   UNL     1       3.757   6.460  -6.263  1.00  0.00    -0.000 C 
BRANCH  23  24
ATOM     24  C   UNL     1       2.257   6.120  -6.251  1.00  0.00    -0.000 C 
BRANCH  24  25
ATOM     25  C   UNL     1       1.404   7.255  -5.664  1.00  0.00    -0.003 C 
ATOM     26  C   UNL     1       1.877   7.688  -4.276  1.00  0.00     0.004 C 
ENDBRANCH  24  25
ENDBRANCH  23  24
ENDBRANCH  22  23
ENDBRANCH  21  22
ENDBRANCH  20  21
ENDBRANCH  19  20
ENDBRANCH  18  19
ENDBRANCH  17  18
ENDBRANCH  16  17
ENDBRANCH  15  16
ENDBRANCH   1  15
TORSDOF 22
ENDMDL
MODEL 4
REMARK VINA RESULT:    -3.397      2.532      6.085
REMARK INTER + INTRA:         -11.604
REMARK INTER:                  -8.047
REMARK INTRA:                  -3.557
REMARK UNBOUND:                -3.838
REMARK SMILES CCCCCCCCCCCCCCCCCCCCCCCC(=O)[O-]
REMARK SMILES IDX 13 1 14 2 15 3 16 4 17 5 18 6 19 7 20 8 21 9 22 10 23 11
REMARK SMILES IDX 24 12 25 13 26 14 12 15 11 16 10 17 9 18 8 19 7 20 6 21 5 22
REMARK SMILES IDX 4 23 3 24 2 25 1 26
REMARK H PARENT
REMARK Flexibility Score: inf
ROOT
ATOM      1  C   UNL     1      -0.262  -0.895  -4.168  1.00  0.00     0.000 C 
ENDROOT
BRANCH   1   2
ATOM      2  C   UNL     1       0.846  -1.602  -4.969  1.00  0.00     0.000 C 
BRANCH   2   3
ATOM      3  C   UNL     1       2.110  -1.960  -4.166  1.00  0.00     0.000 C 
BRANCH   3   4
ATOM      4  C   UNL     1       3.303  -1.043  -4.487  1.00  0.00     0.000 C 
BRANCH   4   5
ATOM      5  C   UNL     1       4.450  -1.191  -3.473  1.00  0.00     0.000 C 
BRANCH   5   6
ATOM      6  C   UNL     1       5.696  -0.381  -3.861  1.00  0.00     0.000 C 
BRANCH   6   7
ATOM      7  C   UNL     1       5.726  -0.121  -5.375  1.00  0.00     0.000 C 
BRANCH   7   8
ATOM      8  C   UNL     1       6.800   0.903  -5.787  1.00  0.00     0.000 C 
BRANCH   8   9
ATOM      9  C   UNL     1       6.974   2.086  -4.818  1.00  0.00     0.000 C 
BRANCH   9  10
ATOM     10  C   UNL     1       8.326   2.797  -4.979  1.00  0.00     0.006 C 
BRANCH  10  11
ATOM     11  C   UNL     1       8.221   3.951  -5.982  1.00  0.00     0.053 C 
BRANCH  11  12
ATOM     12  C   UNL     1       8.267   5.272  -5.279  1.00  0.00     0.041 C 
ATOM     13  O   UNL     1       7.816   6.306  -5.843  1.00  0.00    -0.550 OA
ATOM     14  O   UNL     1       8.814   5.364  -4.003  1.00  0.00    -0.550 OA
ENDBRANCH  11  12
ENDBRANCH  10  11
ENDBRANCH   9  10
ENDBRANCH   8   9
ENDBRANCH   7   8
ENDBRANCH   6   7
ENDBRANCH   5   6
ENDBRANCH   4   5
ENDBRANCH   3   4
ENDBRANCH   2   3
ENDBRANCH   1   2
BRANCH   1  15
ATOM     15  C   UNL     1      -0.097   0.635  -4.138  1.00  0.00     0.000 C 
BRANCH  15  16
ATOM     16  C   UNL     1       0.135   1.231  -5.537  1.00  0.00     0.000 C 
BRANCH  16  17
ATOM     17  C   UNL     1       1.406   2.095  -5.606  1.00  0.00     0.000 C 
BRANCH  17  18
ATOM     18  C   UNL     1       2.116   2.210  -4.248  1.00  0.00    -0.000 C 
BRANCH  18  19
ATOM     19  C   UNL     1       3.575   2.675  -4.378  1.00  0.00    -0.000 C 
BRANCH  19  20
ATOM     20  C   UNL     1       3.827   3.923  -3.520  1.00  0.00    -0.000 C 
BRANCH  20  21
ATOM     21  C   UNL     1       4.694   4.975  -4.234  1.00  0.00    -0.000 C 
BRANCH  21  22
ATOM     22  C   UNL     1       4.597   4.969  -5.774  1.00  0.00    -0.000 C 
BRANCH  22  23
ATOM     23  C   UNL     1       3.765   6.115  -6.377  1.00  0.00    -0.000 C 
BRANCH  23  24
ATOM     24  C   UNL     1       2.266   5.996  -6.055  1.00  0.00    -0.000 C 
BRANCH  24  25
ATOM     25  C   UNL     1       1.684   7.298  -5.484  1.00  0.00    -0.003 C 
ATOM     26  C   UNL     1       2.100   7.539  -4.032  1.00  0.00     0.004 C 
ENDBRANCH  24  25
ENDBRANCH  23  24
ENDBRANCH  22  23
ENDBRANCH  21  22
ENDBRANCH  20  21
ENDBRANCH  19  20
ENDBRANCH  18  19
ENDBRANCH  17  18
ENDBRANCH  16  17
ENDBRANCH  15  16
ENDBRANCH   1  15
TORSDOF 22
ENDMDL
MODEL 5
REMARK VINA RESULT:    -3.377      1.864      5.852
REMARK INTER + INTRA:         -11.558
REMARK INTER:                  -7.525
REMARK INTRA:                  -4.033
REMARK UNBOUND:                -3.838
REMARK SMILES CCCCCCCCCCCCCCCCCCCCCCCC(=O)[O-]
REMARK SMILES IDX 13 1 14 2 15 3 16 4 17 5 18 6 19 7 20 8 21 9 22 10 23 11
REMARK SMILES IDX 24 12 25 13 26 14 12 15 11 16 10 17 9 18 8 19 7 20 6 21 5 22
REMARK SMILES IDX 4 23 3 24 2 25 1 26
REMARK H PARENT
REMARK Flexibility Score: inf
ROOT
ATOM      1  C   UNL     1       4.985   1.021  -3.376  1.00  0.00     0.000 C 
ENDROOT
BRANCH   1   2
ATOM      2  C   UNL     1       5.122  -0.513  -3.364  1.00  0.00     0.000 C 
BRANCH   2   3
ATOM      3  C   UNL     1       5.053  -1.189  -4.745  1.00  0.00     0.000 C 
BRANCH   3   4
ATOM      4  C   UNL     1       6.281  -0.887  -5.621  1.00  0.00     0.000 C 
BRANCH   4   5
ATOM      5  C   UNL     1       5.899  -0.277  -6.980  1.00  0.00     0.000 C 
BRANCH   5   6
ATOM      6  C   UNL     1       4.409   0.082  -7.075  1.00  0.00     0.000 C 
BRANCH   6   7
ATOM      7  C   UNL     1       4.205   1.600  -6.954  1.00  0.00     0.000 C 
BRANCH   7   8
ATOM      8  C   UNL     1       2.794   1.980  -6.469  1.00  0.00     0.000 C 
BRANCH   8   9
ATOM      9  C   UNL     1       2.145   0.969  -5.508  1.00  0.00     0.000 C 
BRANCH   9  10
ATOM     10  C   UNL     1       0.828   0.391  -6.047  1.00  0.00     0.006 C 
BRANCH  10  11
ATOM     11  C   UNL     1       0.889  -1.139  -6.114  1.00  0.00     0.053 C 
BRANCH  11  12
ATOM     12  C   UNL     1       0.938  -1.730  -4.740  1.00  0.00     0.041 C 
ATOM     13  O   UNL     1       1.689  -2.714  -4.499  1.00  0.00    -0.550 OA
ATOM     14  O   UNL     1       0.150  -1.199  -3.723  1.00  0.00    -0.550 OA
ENDBRANCH  11  12
ENDBRANCH  10  11
ENDBRANCH   9  10
ENDBRANCH   8   9
ENDBRANCH   7   8
ENDBRANCH   6   7
ENDBRANCH   5   6
ENDBRANCH   4   5
ENDBRANCH   3   4
ENDBRANCH   2   3
ENDBRANCH   1   2
BRANCH   1  15
ATOM     15  C   UNL     1       6.340   1.745  -3.281  1.00  0.00     0.000 C 
BRANCH  15  16
ATOM     16  C   UNL     1       6.574   2.716  -4.450  1.00  0.00     0.000 C 
BRANCH  16  17
ATOM     17  C   UNL     1       7.850   2.385  -5.244  1.00  0.00     0.000 C 
BRANCH  17  18
ATOM     18  C   UNL     1       9.061   3.213  -4.786  1.00  0.00    -0.000 C 
BRANCH  18  19
ATOM     19  C   UNL     1       9.108   4.606  -5.433  1.00  0.00    -0.000 C 
BRANCH  19  20
ATOM     20  C   UNL     1       8.241   4.647  -6.699  1.00  0.00    -0.000 C 
BRANCH  20  21
ATOM     21  C   UNL     1       7.380   5.920  -6.795  1.00  0.00    -0.000 C 
BRANCH  21  22
ATOM     22  C   UNL     1       6.107   5.916  -5.923  1.00  0.00    -0.000 C 
BRANCH  22  23
ATOM     23  C   UNL     1       4.857   5.326  -6.600  1.00  0.00    -0.000 C 
BRANCH  23  24
ATOM     24  C   UNL     1       3.589   5.477  -5.743  1.00  0.00    -0.000 C 
BRANCH  24  25
ATOM     25  C   UNL     1       3.902   5.559  -4.241  1.00  0.00    -0.003 C 
ATOM     26  C   UNL     1       3.472   4.302  -3.483  1.00  0.00     0.004 C 
ENDBRANCH  24  25
ENDBRANCH  23  24
ENDBRANCH  22  23
ENDBRANCH  21  22
ENDBRANCH  20  21
ENDBRANCH  19  20
ENDBRANCH  18  19
ENDBRANCH  17  18
ENDBRANCH  16  17
ENDBRANCH  15  16
ENDBRANCH   1  15
TORSDOF 22
ENDMDL
MODEL 6
REMARK VINA RESULT:    -3.331      3.463      7.264
REMARK INTER + INTRA:         -11.453
REMARK INTER:                  -8.667
REMARK INTRA:                  -2.786
REMARK UNBOUND:                -3.838
REMARK SMILES CCCCCCCCCCCCCCCCCCCCCCCC(=O)[O-]
REMARK SMILES IDX 13 1 14 2 15 3 16 4 17 5 18 6 19 7 20 8 21 9 22 10 23 11
REMARK SMILES IDX 24 12 25 13 26 14 12 15 11 16 10 17 9 18 8 19 7 20 6 21 5 22
REMARK SMILES IDX 4 23 3 24 2 25 1 26
REMARK H PARENT
REMARK Flexibility Score: inf
ROOT
ATOM      1  C   UNL     1       4.059   2.958  -4.211  1.00  0.00     0.000 C 
ENDROOT
BRANCH   1   2
ATOM      2  C   UNL     1       3.482   4.221  -3.546  1.00  0.00     0.000 C 
BRANCH   2   3
ATOM      3  C   UNL     1       4.171   5.542  -3.936  1.00  0.00     0.000 C 
BRANCH   3   4
ATOM      4  C   UNL     1       3.209   6.549  -4.588  1.00  0.00     0.000 C 
BRANCH   4   5
ATOM      5  C   UNL     1       2.382   7.330  -3.552  1.00  0.00     0.000 C 
BRANCH   5   6
ATOM      6  C   UNL     1       1.229   8.123  -4.186  1.00  0.00     0.000 C 
BRANCH   6   7
ATOM      7  C   UNL     1       0.967   7.647  -5.623  1.00  0.00     0.000 C 
BRANCH   7   8
ATOM      8  C   UNL     1      -0.496   7.840  -6.062  1.00  0.00     0.000 C 
BRANCH   8   9
ATOM      9  C   UNL     1      -1.502   8.007  -4.910  1.00  0.00     0.000 C 
BRANCH   9  10
ATOM     10  C   UNL     1      -2.596   6.928  -4.909  1.00  0.00     0.006 C 
BRANCH  10  11
ATOM     11  C   UNL     1      -2.312   5.862  -5.974  1.00  0.00     0.053 C 
BRANCH  11  12
ATOM     12  C   UNL     1      -3.461   4.909  -6.091  1.00  0.00     0.041 C 
ATOM     13  O   UNL     1      -3.269   3.668  -5.980  1.00  0.00    -0.550 OA
ATOM     14  O   UNL     1      -4.744   5.390  -6.331  1.00  0.00    -0.550 OA
ENDBRANCH  11  12
ENDBRANCH  10  11
ENDBRANCH   9  10
ENDBRANCH   8   9
ENDBRANCH   7   8
ENDBRANCH   6   7
ENDBRANCH   5   6
ENDBRANCH   4   5
ENDBRANCH   3   4
ENDBRANCH   2   3
ENDBRANCH   1   2
BRANCH   1  15
ATOM     15  C   UNL     1       5.588   3.014  -4.379  1.00  0.00     0.000 C 
BRANCH  15  16
ATOM     16  C   UNL     1       6.295   1.800  -3.754  1.00  0.00     0.000 C 
BRANCH  16  17
ATOM     17  C   UNL     1       5.307   0.812  -3.109  1.00  0.00     0.000 C 
BRANCH  17  18
ATOM     18  C   UNL     1       5.405  -0.598  -3.711  1.00  0.00    -0.000 C 
BRANCH  18  19
ATOM     19  C   UNL     1       4.034  -1.178  -4.093  1.00  0.00    -0.000 C 
BRANCH  19  20
ATOM     20  C   UNL     1       3.210  -0.152  -4.884  1.00  0.00    -0.000 C 
BRANCH  20  21
ATOM     21  C   UNL     1       1.712  -0.188  -4.534  1.00  0.00    -0.000 C 
BRANCH  21  22
ATOM     22  C   UNL     1       1.033   1.193  -4.422  1.00  0.00    -0.000 C 
BRANCH  22  23
ATOM     23  C   UNL     1      -0.253   1.354  -5.253  1.00  0.00    -0.000 C 
BRANCH  23  24
ATOM     24  C   UNL     1      -0.052   2.239  -6.495  1.00  0.00    -0.000 C 
BRANCH  24  25
ATOM     25  C   UNL     1       1.377   2.796  -6.593  1.00  0.00    -0.003 C 
ATOM     26  C   UNL     1       1.404   4.287  -6.927  1.00  0.00     0.004 C 
ENDBRANCH  24  25
ENDBRANCH  23  24
ENDBRANCH  22  23
ENDBRANCH  21  22
ENDBRANCH  20  21
ENDBRANCH  19  20
ENDBRANCH  18  19
ENDBRANCH  17  18
ENDBRANCH  16  17
ENDBRANCH  15  16
ENDBRANCH   1  15
TORSDOF 22
ENDMDL
MODEL 7
REMARK VINA RESULT:    -3.080      3.386      6.884
REMARK INTER + INTRA:         -10.879
REMARK INTER:                  -8.327
REMARK INTRA:                  -2.552
REMARK UNBOUND:                -3.838
REMARK SMILES CCCCCCCCCCCCCCCCCCCCCCCC(=O)[O-]
REMARK SMILES IDX 13 1 14 2 15 3 16 4 17 5 18 6 19 7 20 8 21 9 22 10 23 11
REMARK SMILES IDX 24 12 25 13 26 14 12 15 11 16 10 17 9 18 8 19 7 20 6 21 5 22
REMARK SMILES IDX 4 23 3 24 2 25 1 26
REMARK H PARENT
REMARK Flexibility Score: inf
ROOT
ATOM      1  C   UNL     1       5.171   3.778  -6.901  1.00  0.00     0.000 C 
ENDROOT
BRANCH   1   2
ATOM      2  C   UNL     1       4.930   5.052  -6.071  1.00  0.00     0.000 C 
BRANCH   2   3
ATOM      3  C   UNL     1       3.804   4.952  -5.026  1.00  0.00     0.000 C 
BRANCH   3   4
ATOM      4  C   UNL     1       3.795   6.133  -4.040  1.00  0.00     0.000 C 
BRANCH   4   5
ATOM      5  C   UNL     1       2.371   6.605  -3.699  1.00  0.00     0.000 C 
BRANCH   5   6
ATOM      6  C   UNL     1       1.979   7.895  -4.436  1.00  0.00     0.000 C 
BRANCH   6   7
ATOM      7  C   UNL     1       1.573   7.591  -5.886  1.00  0.00     0.000 C 
BRANCH   7   8
ATOM      8  C   UNL     1       0.068   7.789  -6.142  1.00  0.00     0.000 C 
BRANCH   8   9
ATOM      9  C   UNL     1      -0.796   7.901  -4.873  1.00  0.00     0.000 C 
BRANCH   9  10
ATOM     10  C   UNL     1      -2.130   7.147  -4.990  1.00  0.00     0.006 C 
BRANCH  10  11
ATOM     11  C   UNL     1      -2.081   6.122  -6.128  1.00  0.00     0.053 C 
BRANCH  11  12
ATOM     12  C   UNL     1      -3.237   5.175  -6.041  1.00  0.00     0.041 C 
ATOM     13  O   UNL     1      -3.035   3.930  -6.010  1.00  0.00    -0.550 OA
ATOM     14  O   UNL     1      -4.538   5.664  -6.000  1.00  0.00    -0.550 OA
ENDBRANCH  11  12
ENDBRANCH  10  11
ENDBRANCH   9  10
ENDBRANCH   8   9
ENDBRANCH   7   8
ENDBRANCH   6   7
ENDBRANCH   5   6
ENDBRANCH   4   5
ENDBRANCH   3   4
ENDBRANCH   2   3
ENDBRANCH   1   2
BRANCH   1  15
ATOM     15  C   UNL     1       6.559   3.159  -6.658  1.00  0.00     0.000 C 
BRANCH  15  16
ATOM     16  C   UNL     1       7.059   3.377  -5.220  1.00  0.00     0.000 C 
BRANCH  16  17
ATOM     17  C   UNL     1       6.922   2.116  -4.351  1.00  0.00     0.000 C 
BRANCH  17  18
ATOM     18  C   UNL     1       5.569   2.043  -3.626  1.00  0.00    -0.000 C 
BRANCH  18  19
ATOM     19  C   UNL     1       5.146   0.602  -3.301  1.00  0.00    -0.000 C 
BRANCH  19  20
ATOM     20  C   UNL     1       4.053   0.124  -4.269  1.00  0.00    -0.000 C 
BRANCH  20  21
ATOM     21  C   UNL     1       3.291   1.285  -4.932  1.00  0.00    -0.000 C 
BRANCH  21  22
ATOM     22  C   UNL     1       1.999   1.718  -4.209  1.00  0.00    -0.000 C 
BRANCH  22  23
ATOM     23  C   UNL     1       0.692   1.299  -4.907  1.00  0.00    -0.000 C 
BRANCH  23  24
ATOM     24  C   UNL     1       0.171  -0.066  -4.423  1.00  0.00    -0.000 C 
BRANCH  24  25
ATOM     25  C   UNL     1       0.766  -1.236  -5.222  1.00  0.00    -0.003 C 
ATOM     26  C   UNL     1       1.229  -2.383  -4.324  1.00  0.00     0.004 C 
ENDBRANCH  24  25
ENDBRANCH  23  24
ENDBRANCH  22  23
ENDBRANCH  21  22
ENDBRANCH  20  21
ENDBRANCH  19  20
ENDBRANCH  18  19
ENDBRANCH  17  18
ENDBRANCH  16  17
ENDBRANCH  15  16
ENDBRANCH   1  15
TORSDOF 22
ENDMDL
MODEL 8
REMARK VINA RESULT:    -2.978      2.359      4.161
REMARK INTER + INTRA:         -10.645
REMARK INTER:                  -7.639
REMARK INTRA:                  -3.006
REMARK UNBOUND:                -3.838
REMARK SMILES CCCCCCCCCCCCCCCCCCCCCCCC(=O)[O-]
REMARK SMILES IDX 13 1 14 2 15 3 16 4 17 5 18 6 19 7 20 8 21 9 22 10 23 11
REMARK SMILES IDX 24 12 25 13 26 14 12 15 11 16 10 17 9 18 8 19 7 20 6 21 5 22
REMARK SMILES IDX 4 23 3 24 2 25 1 26
REMARK H PARENT
REMARK Flexibility Score: inf
ROOT
ATOM      1  C   UNL     1       3.103   2.907  -6.102  1.00  0.00     0.000 C 
ENDROOT
BRANCH   1   2
ATOM      2  C   UNL     1       4.144   3.617  -6.988  1.00  0.00     0.000 C 
BRANCH   2   3
ATOM      3  C   UNL     1       5.548   2.985  -6.985  1.00  0.00     0.000 C 
BRANCH   3   4
ATOM      4  C   UNL     1       6.557   3.774  -6.134  1.00  0.00     0.000 C 
BRANCH   4   5
ATOM      5  C   UNL     1       6.828   3.110  -4.774  1.00  0.00     0.000 C 
BRANCH   5   6
ATOM      6  C   UNL     1       6.562   1.597  -4.786  1.00  0.00     0.000 C 
BRANCH   6   7
ATOM      7  C   UNL     1       5.639   1.197  -3.625  1.00  0.00     0.000 C 
BRANCH   7   8
ATOM      8  C   UNL     1       5.490  -0.328  -3.475  1.00  0.00     0.000 C 
BRANCH   8   9
ATOM      9  C   UNL     1       4.212  -0.919  -4.097  1.00  0.00     0.000 C 
BRANCH   9  10
ATOM     10  C   UNL     1       3.112   0.131  -4.317  1.00  0.00     0.006 C 
BRANCH  10  11
ATOM     11  C   UNL     1       1.930  -0.468  -5.085  1.00  0.00     0.053 C 
BRANCH  11  12
ATOM     12  C   UNL     1       0.635   0.108  -4.603  1.00  0.00     0.041 C 
ATOM     13  O   UNL     1       0.178   1.163  -5.120  1.00  0.00    -0.550 OA
ATOM     14  O   UNL     1      -0.067  -0.517  -3.577  1.00  0.00    -0.550 OA
ENDBRANCH  11  12
ENDBRANCH  10  11
ENDBRANCH   9  10
ENDBRANCH   8   9
ENDBRANCH   7   8
ENDBRANCH   6   7
ENDBRANCH   5   6
ENDBRANCH   4   5
ENDBRANCH   3   4
ENDBRANCH   2   3
ENDBRANCH   1   2
BRANCH   1  15
ATOM     15  C   UNL     1       2.533   3.819  -5.001  1.00  0.00     0.000 C 
BRANCH  15  16
ATOM     16  C   UNL     1       3.486   3.963  -3.803  1.00  0.00     0.000 C 
BRANCH  16  17
ATOM     17  C   UNL     1       3.842   5.430  -3.506  1.00  0.00     0.000 C 
BRANCH  17  18
ATOM     18  C   UNL     1       3.233   6.403  -4.527  1.00  0.00    -0.000 C 
BRANCH  18  19
ATOM     19  C   UNL     1       2.234   7.383  -3.892  1.00  0.00    -0.000 C 
BRANCH  19  20
ATOM     20  C   UNL     1       1.372   8.056  -4.970  1.00  0.00    -0.000 C 
BRANCH  20  21
ATOM     21  C   UNL     1       0.943   7.087  -6.086  1.00  0.00    -0.000 C 
BRANCH  21  22
ATOM     22  C   UNL     1      -0.520   7.236  -6.555  1.00  0.00    -0.000 C 
BRANCH  22  23
ATOM     23  C   UNL     1      -1.552   7.394  -5.424  1.00  0.00    -0.000 C 
BRANCH  23  24
ATOM     24  C   UNL     1      -2.944   6.863  -5.810  1.00  0.00    -0.000 C 
BRANCH  24  25
ATOM     25  C   UNL     1      -3.072   5.347  -5.597  1.00  0.00    -0.003 C 
ATOM     26  C   UNL     1      -4.181   4.727  -6.447  1.00  0.00     0.004 C 
ENDBRANCH  24  25
ENDBRANCH  23  24
ENDBRANCH  22  23
ENDBRANCH  21  22
ENDBRANCH  20  21
ENDBRANCH  19  20
ENDBRANCH  18  19
ENDBRANCH  17  18
ENDBRANCH  16  17
ENDBRANCH  15  16
ENDBRANCH   1  15
TORSDOF 22
ENDMDL
MODEL 9
REMARK VINA RESULT:    -2.764      1.781      5.903
REMARK INTER + INTRA:         -10.155
REMARK INTER:                  -6.237
REMARK INTRA:                  -3.918
REMARK UNBOUND:                -3.838
REMARK SMILES CCCCCCCCCCCCCCCCCCCCCCCC(=O)[O-]
REMARK SMILES IDX 13 1 14 2 15 3 16 4 17 5 18 6 19 7 20 8 21 9 22 10 23 11
REMARK SMILES IDX 24 12 25 13 26 14 12 15 11 16 10 17 9 18 8 19 7 20 6 21 5 22
REMARK SMILES IDX 4 23 3 24 2 25 1 26
REMARK H PARENT
REMARK Flexibility Score: inf
ROOT
ATOM      1  C   UNL     1       4.685  -0.685  -3.872  1.00  0.00     0.000 C 
ENDROOT
BRANCH   1   2
ATOM      2  C   UNL     1       5.845  -0.899  -4.863  1.00  0.00     0.000 C 
BRANCH   2   3
ATOM      3  C   UNL     1       5.622  -0.313  -6.269  1.00  0.00     0.000 C 
BRANCH   3   4
ATOM      4  C   UNL     1       4.247   0.357  -6.428  1.00  0.00     0.000 C 
BRANCH   4   5
ATOM      5  C   UNL     1       4.334   1.725  -7.125  1.00  0.00     0.000 C 
BRANCH   5   6
ATOM      6  C   UNL     1       3.413   2.777  -6.490  1.00  0.00     0.000 C 
BRANCH   6   7
ATOM      7  C   UNL     1       2.792   2.243  -5.189  1.00  0.00     0.000 C 
BRANCH   7   8
ATOM      8  C   UNL     1       1.257   2.148  -5.252  1.00  0.00     0.000 C 
BRANCH   8   9
ATOM      9  C   UNL     1       0.631   1.130  -4.282  1.00  0.00     0.000 C 
BRANCH   9  10
ATOM     10  C   UNL     1       0.138  -0.143  -4.988  1.00  0.00     0.006 C 
BRANCH  10  11
ATOM     11  C   UNL     1       1.290  -1.131  -5.200  1.00  0.00     0.053 C 
BRANCH  11  12
ATOM     12  C   UNL     1       1.139  -2.323  -4.307  1.00  0.00     0.041 C 
ATOM     13  O   UNL     1       1.545  -3.455  -4.688  1.00  0.00    -0.550 OA
ATOM     14  O   UNL     1       0.545  -2.188  -3.057  1.00  0.00    -0.550 OA
ENDBRANCH  11  12
ENDBRANCH  10  11
ENDBRANCH   9  10
ENDBRANCH   8   9
ENDBRANCH   7   8
ENDBRANCH   6   7
ENDBRANCH   5   6
ENDBRANCH   4   5
ENDBRANCH   3   4
ENDBRANCH   2   3
ENDBRANCH   1   2
BRANCH   1  15
ATOM     15  C   UNL     1       4.985   0.399  -2.822  1.00  0.00     0.000 C 
BRANCH  15  16
ATOM     16  C   UNL     1       6.303   1.141  -3.102  1.00  0.00     0.000 C 
BRANCH  16  17
ATOM     17  C   UNL     1       6.081   2.491  -3.806  1.00  0.00     0.000 C 
BRANCH  17  18
ATOM     18  C   UNL     1       7.080   2.733  -4.948  1.00  0.00    -0.000 C 
BRANCH  18  19
ATOM     19  C   UNL     1       8.168   3.753  -4.580  1.00  0.00    -0.000 C 
BRANCH  19  20
ATOM     20  C   UNL     1       7.734   5.175  -4.965  1.00  0.00    -0.000 C 
BRANCH  20  21
ATOM     21  C   UNL     1       6.636   5.195  -6.042  1.00  0.00    -0.000 C 
BRANCH  21  22
ATOM     22  C   UNL     1       5.303   5.840  -5.607  1.00  0.00    -0.000 C 
BRANCH  22  23
ATOM     23  C   UNL     1       5.025   5.799  -4.094  1.00  0.00    -0.000 C 
BRANCH  23  24
ATOM     24  C   UNL     1       3.541   5.557  -3.768  1.00  0.00    -0.000 C 
BRANCH  24  25
ATOM     25  C   UNL     1       2.602   6.331  -4.706  1.00  0.00    -0.003 C 
ATOM     26  C   UNL     1       2.094   7.632  -4.085  1.00  0.00     0.004 C 
ENDBRANCH  24  25
ENDBRANCH  23  24
ENDBRANCH  22  23
ENDBRANCH  21  22
ENDBRANCH  20  21
ENDBRANCH  19  20
ENDBRANCH  18  19
ENDBRANCH  17  18
ENDBRANCH  16  17
ENDBRANCH  15  16
ENDBRANCH   1  15
TORSDOF 22
ENDMDL
