MODEL 1
REMARK VINA RESULT:    -3.029      0.000      0.000
REMARK INTER + INTRA:          -3.029
REMARK INTER:                  -3.029
REMARK INTRA:                   0.000
REMARK UNBOUND:                 0.000
REMARK SMILES CC(=O)[O-]
REMARK SMILES IDX 1 1 2 2 3 3 4 4
REMARK H PARENT
REMARK Flexibility Score: inf
ROOT
ATOM      1  C   UNL     1      74.557  64.224  98.383  1.00  0.00     0.063 C 
ATOM      2  C   UNL     1      74.900  63.289  97.273  1.00  0.00     0.038 C 
ATOM      3  O   UNL     1      74.820  63.672  96.077  1.00  0.00    -0.550 OA
ATOM      4  O   UNL     1      75.361  62.010  97.558  1.00  0.00    -0.550 OA
ENDROOT
TORSDOF 0
ENDMDL
MODEL 2
REMARK VINA RESULT:    -2.848      1.410      1.777
REMARK INTER + INTRA:          -2.848
REMARK INTER:                  -2.848
REMARK INTRA:                   0.000
REMARK UNBOUND:                 0.000
REMARK SMILES CC(=O)[O-]
REMARK SMILES IDX 1 1 2 2 3 3 4 4
REMARK H PARENT
REMARK Flexibility Score: inf
ROOT
ATOM      1  C   UNL     1      75.353  62.140  97.733  1.00  0.00     0.063 C 
ATOM      2  C   UNL     1      74.835  63.499  97.404  1.00  0.00     0.038 C 
ATOM      3  O   UNL     1      74.860  63.914  96.216  1.00  0.00    -0.550 OA
ATOM      4  O   UNL     1      74.273  64.290  98.398  1.00  0.00    -0.550 OA
ENDROOT
TORSDOF 0
ENDMDL
MODEL 3
REMARK VINA RESULT:    -2.035     15.076     15.545
REMARK INTER + INTRA:          -2.035
REMARK INTER:                  -2.035
REMARK INTRA:                   0.000
REMARK UNBOUND:                 0.000
REMARK SMILES CC(=O)[O-]
REMARK SMILES IDX 1 1 2 2 3 3 4 4
REMARK H PARENT
REMARK Flexibility Score: inf
ROOT
ATOM      1  C   UNL     1      67.875  76.757  93.123  1.00  0.00     0.063 C 
ATOM      2  C   UNL     1      68.269  76.237  91.782  1.00  0.00     0.038 C 
ATOM      3  O   UNL     1      68.627  77.034  90.876  1.00  0.00    -0.550 OA
ATOM      4  O   UNL     1      68.292  74.869  91.545  1.00  0.00    -0.550 OA
ENDROOT
TORSDOF 0
ENDMDL
MODEL 4
REMARK VINA RESULT:    -1.954     17.541     18.007
REMARK INTER + INTRA:          -1.954
REMARK INTER:                  -1.954
REMARK INTRA:                   0.000
REMARK UNBOUND:                 0.000
REMARK SMILES CC(=O)[O-]
REMARK SMILES IDX 1 1 2 2 3 3 4 4
REMARK H PARENT
REMARK Flexibility Score: inf
ROOT
ATOM      1  C   UNL     1      86.644  65.649 109.695  1.00  0.00     0.063 C 
ATOM      2  C   UNL     1      86.354  66.716 110.695  1.00  0.00     0.038 C 
ATOM      3  O   UNL     1      87.282  67.448 111.125  1.00  0.00    -0.550 OA
ATOM      4  O   UNL     1      85.048  66.942 111.113  1.00  0.00    -0.550 OA
ENDROOT
TORSDOF 0
ENDMDL
MODEL 5
REMARK VINA RESULT:    -1.949     17.613     17.827
REMARK INTER + INTRA:          -1.949
REMARK INTER:                  -1.949
REMARK INTRA:                   0.000
REMARK UNBOUND:                 0.000
REMARK SMILES CC(=O)[O-]
REMARK SMILES IDX 1 1 2 2 3 3 4 4
REMARK H PARENT
REMARK Flexibility Score: inf
ROOT
ATOM      1  C   UNL     1      85.661  66.597 110.744  1.00  0.00     0.063 C 
ATOM      2  C   UNL     1      86.931  66.069 110.167  1.00  0.00     0.038 C 
ATOM      3  O   UNL     1      87.841  66.862 109.812  1.00  0.00    -0.550 OA
ATOM      4  O   UNL     1      87.135  64.699 110.070  1.00  0.00    -0.550 OA
ENDROOT
TORSDOF 0
ENDMDL
MODEL 6
REMARK VINA RESULT:    -1.908     13.306     13.604
REMARK INTER + INTRA:          -1.908
REMARK INTER:                  -1.908
REMARK INTRA:                   0.000
REMARK UNBOUND:                 0.000
REMARK SMILES CC(=O)[O-]
REMARK SMILES IDX 1 1 2 2 3 3 4 4
REMARK H PARENT
REMARK Flexibility Score: inf
ROOT
ATOM      1  C   UNL     1      68.356  75.074  91.264  1.00  0.00     0.063 C 
ATOM      2  C   UNL     1      68.914  73.701  91.098  1.00  0.00     0.038 C 
ATOM      3  O   UNL     1      70.142  73.541  90.876  1.00  0.00    -0.550 OA
ATOM      4  O   UNL     1      68.090  72.593  91.242  1.00  0.00    -0.550 OA
ENDROOT
TORSDOF 0
ENDMDL
MODEL 7
REMARK VINA RESULT:    -1.906     17.650     17.957
REMARK INTER + INTRA:          -1.906
REMARK INTER:                  -1.906
REMARK INTRA:                   0.000
REMARK UNBOUND:                 0.000
REMARK SMILES CC(=O)[O-]
REMARK SMILES IDX 1 1 2 2 3 3 4 4
REMARK H PARENT
REMARK Flexibility Score: inf
ROOT
ATOM      1  C   UNL     1      87.300  64.590 110.246  1.00  0.00     0.063 C 
ATOM      2  C   UNL     1      86.923  66.031 110.193  1.00  0.00     0.038 C 
ATOM      3  O   UNL     1      85.764  66.394 110.523  1.00  0.00    -0.550 OA
ATOM      4  O   UNL     1      87.866  66.985 109.831  1.00  0.00    -0.550 OA
ENDROOT
TORSDOF 0
ENDMDL
MODEL 8
REMARK VINA RESULT:    -1.879     15.018     15.492
REMARK INTER + INTRA:          -1.879
REMARK INTER:                  -1.879
REMARK INTRA:                   0.000
REMARK UNBOUND:                 0.000
REMARK SMILES CC(=O)[O-]
REMARK SMILES IDX 1 1 2 2 3 3 4 4
REMARK H PARENT
REMARK Flexibility Score: inf
ROOT
ATOM      1  C   UNL     1      68.977  74.853  91.952  1.00  0.00     0.063 C 
ATOM      2  C   UNL     1      68.238  76.148  91.960  1.00  0.00     0.038 C 
ATOM      3  O   UNL     1      67.885  76.681  90.876  1.00  0.00    -0.550 OA
ATOM      4  O   UNL     1      67.889  76.743  93.166  1.00  0.00    -0.550 OA
ENDROOT
TORSDOF 0
ENDMDL
MODEL 9
REMARK VINA RESULT:    -1.816     16.956     17.575
REMARK INTER + INTRA:          -1.816
REMARK INTER:                  -1.816
REMARK INTRA:                   0.000
REMARK UNBOUND:                 0.000
REMARK SMILES CC(=O)[O-]
REMARK SMILES IDX 1 1 2 2 3 3 4 4
REMARK H PARENT
REMARK Flexibility Score: inf
ROOT
ATOM      1  C   UNL     1      68.517  80.125 101.034  1.00  0.00     0.063 C 
ATOM      2  C   UNL     1      68.806  79.601  99.668  1.00  0.00     0.038 C 
ATOM      3  O   UNL     1      68.246  80.112  98.664  1.00  0.00    -0.550 OA
ATOM      4  O   UNL     1      69.736  78.583  99.495  1.00  0.00    -0.550 OA
ENDROOT
TORSDOF 0
ENDMDL
