MODEL 1
REMARK VINA RESULT:    -3.453      0.000      0.000
REMARK INTER + INTRA:          -5.246
REMARK INTER:                  -4.665
REMARK INTRA:                  -0.581
REMARK UNBOUND:                -0.581
REMARK SMILES CCCCCCCC(=O)[O-]
REMARK SMILES IDX 5 1 6 2 7 3 8 4 9 5 10 6 4 7 3 8 2 9 1 10
REMARK H PARENT
REMARK Flexibility Score: inf
ROOT
ATOM      1  C   UNL     1     159.881 160.436 182.138  1.00  0.00     0.000 C 
ENDROOT
BRANCH   1   2
ATOM      2  C   UNL     1     160.054 160.160 180.640  1.00  0.00     0.006 C 
BRANCH   2   3
ATOM      3  C   UNL     1     160.601 161.392 179.913  1.00  0.00     0.053 C 
BRANCH   3   4
ATOM      4  C   UNL     1     161.921 161.085 179.281  1.00  0.00     0.041 C 
ATOM      5  O   UNL     1     162.576 160.072 179.642  1.00  0.00    -0.550 OA
ATOM      6  O   UNL     1     162.406 161.889 178.257  1.00  0.00    -0.550 OA
ENDBRANCH   3   4
ENDBRANCH   2   3
ENDBRANCH   1   2
BRANCH   1   7
ATOM      7  C   UNL     1     160.211 161.899 182.470  1.00  0.00     0.000 C 
BRANCH   7   8
ATOM      8  C   UNL     1     161.248 162.032 183.596  1.00  0.00    -0.000 C 
BRANCH   8   9
ATOM      9  C   UNL     1     162.672 162.255 183.066  1.00  0.00    -0.003 C 
ATOM     10  C   UNL     1     163.442 160.940 182.989  1.00  0.00     0.004 C 
ENDBRANCH   8   9
ENDBRANCH   7   8
ENDBRANCH   1   7
TORSDOF 6
ENDMDL
MODEL 2
REMARK VINA RESULT:    -3.442      1.402      1.988
REMARK INTER + INTRA:          -5.231
REMARK INTER:                  -4.659
REMARK INTRA:                  -0.572
REMARK UNBOUND:                -0.581
REMARK SMILES CCCCCCCC(=O)[O-]
REMARK SMILES IDX 5 1 6 2 7 3 8 4 9 5 10 6 4 7 3 8 2 9 1 10
REMARK H PARENT
REMARK Flexibility Score: inf
ROOT
ATOM      1  C   UNL     1     160.002 160.300 182.463  1.00  0.00     0.000 C 
ENDROOT
BRANCH   1   2
ATOM      2  C   UNL     1     159.875 160.266 180.936  1.00  0.00     0.006 C 
BRANCH   2   3
ATOM      3  C   UNL     1     161.232 160.498 180.266  1.00  0.00     0.053 C 
BRANCH   3   4
ATOM      4  C   UNL     1     161.120 161.542 179.201  1.00  0.00     0.041 C 
ATOM      5  O   UNL     1     160.173 162.371 179.224  1.00  0.00    -0.550 OA
ATOM      6  O   UNL     1     162.091 161.634 178.212  1.00  0.00    -0.550 OA
ENDBRANCH   3   4
ENDBRANCH   2   3
ENDBRANCH   1   2
BRANCH   1   7
ATOM      7  C   UNL     1     161.251 161.085 182.894  1.00  0.00     0.000 C 
BRANCH   7   8
ATOM      8  C   UNL     1     160.906 162.401 183.608  1.00  0.00    -0.000 C 
BRANCH   8   9
ATOM      9  C   UNL     1     160.310 163.451 182.658  1.00  0.00    -0.003 C 
ATOM     10  C   UNL     1     161.407 164.284 182.002  1.00  0.00     0.004 C 
ENDBRANCH   8   9
ENDBRANCH   7   8
ENDBRANCH   1   7
TORSDOF 6
ENDMDL
MODEL 3
REMARK VINA RESULT:    -3.397      1.263      1.956
REMARK INTER + INTRA:          -5.170
REMARK INTER:                  -4.665
REMARK INTRA:                  -0.505
REMARK UNBOUND:                -0.581
REMARK SMILES CCCCCCCC(=O)[O-]
REMARK SMILES IDX 5 1 6 2 7 3 8 4 9 5 10 6 4 7 3 8 2 9 1 10
REMARK H PARENT
REMARK Flexibility Score: inf
ROOT
ATOM      1  C   UNL     1     161.030 161.756 183.619  1.00  0.00     0.000 C 
ENDROOT
BRANCH   1   2
ATOM      2  C   UNL     1     160.190 161.105 182.515  1.00  0.00     0.006 C 
BRANCH   2   3
ATOM      3  C   UNL     1     160.234 161.933 181.228  1.00  0.00     0.053 C 
BRANCH   3   4
ATOM      4  C   UNL     1     160.569 161.066 180.057  1.00  0.00     0.041 C 
ATOM      5  O   UNL     1     161.414 160.140 180.175  1.00  0.00    -0.550 OA
ATOM      6  O   UNL     1     159.910 161.246 178.847  1.00  0.00    -0.550 OA
ENDBRANCH   3   4
ENDBRANCH   2   3
ENDBRANCH   1   2
BRANCH   1   7
ATOM      7  C   UNL     1     161.952 162.840 183.041  1.00  0.00     0.000 C 
BRANCH   7   8
ATOM      8  C   UNL     1     163.442 162.498 183.205  1.00  0.00    -0.000 C 
BRANCH   8   9
ATOM      9  C   UNL     1     163.753 161.034 182.861  1.00  0.00    -0.003 C 
ATOM     10  C   UNL     1     164.498 160.928 181.534  1.00  0.00     0.004 C 
ENDBRANCH   8   9
ENDBRANCH   7   8
ENDBRANCH   1   7
TORSDOF 6
ENDMDL
MODEL 4
REMARK VINA RESULT:    -3.357      1.926      3.004
REMARK INTER + INTRA:          -5.116
REMARK INTER:                  -4.601
REMARK INTRA:                  -0.515
REMARK UNBOUND:                -0.581
REMARK SMILES CCCCCCCC(=O)[O-]
REMARK SMILES IDX 5 1 6 2 7 3 8 4 9 5 10 6 4 7 3 8 2 9 1 10
REMARK H PARENT
REMARK Flexibility Score: inf
ROOT
ATOM      1  C   UNL     1     160.944 161.168 179.911  1.00  0.00     0.000 C 
ENDROOT
BRANCH   1   2
ATOM      2  C   UNL     1     162.360 160.582 179.890  1.00  0.00     0.006 C 
BRANCH   2   3
ATOM      3  C   UNL     1     163.326 161.449 180.702  1.00  0.00     0.053 C 
BRANCH   3   4
ATOM      4  C   UNL     1     164.090 160.611 181.677  1.00  0.00     0.041 C 
ATOM      5  O   UNL     1     163.677 160.479 182.859  1.00  0.00    -0.550 OA
ATOM      6  O   UNL     1     165.232 159.934 181.267  1.00  0.00    -0.550 OA
ENDBRANCH   3   4
ENDBRANCH   2   3
ENDBRANCH   1   2
BRANCH   1   7
ATOM      7  C   UNL     1     159.987 160.263 180.703  1.00  0.00     0.000 C 
BRANCH   7   8
ATOM      8  C   UNL     1     159.994 160.568 182.209  1.00  0.00    -0.000 C 
BRANCH   8   9
ATOM      9  C   UNL     1     160.154 162.066 182.509  1.00  0.00    -0.003 C 
ATOM     10  C   UNL     1     161.051 162.290 183.723  1.00  0.00     0.004 C 
ENDBRANCH   8   9
ENDBRANCH   7   8
ENDBRANCH   1   7
TORSDOF 6
ENDMDL
MODEL 5
REMARK VINA RESULT:    -3.330      1.621      3.540
REMARK INTER + INTRA:          -5.079
REMARK INTER:                  -4.498
REMARK INTRA:                  -0.581
REMARK UNBOUND:                -0.581
REMARK SMILES CCCCCCCC(=O)[O-]
REMARK SMILES IDX 5 1 6 2 7 3 8 4 9 5 10 6 4 7 3 8 2 9 1 10
REMARK H PARENT
REMARK Flexibility Score: inf
ROOT
ATOM      1  C   UNL     1     162.793 163.251 182.823  1.00  0.00     0.000 C 
ENDROOT
BRANCH   1   2
ATOM      2  C   UNL     1     164.053 162.412 183.065  1.00  0.00     0.006 C 
BRANCH   2   3
ATOM      3  C   UNL     1     163.762 160.918 182.888  1.00  0.00     0.053 C 
BRANCH   3   4
ATOM      4  C   UNL     1     164.203 160.454 181.537  1.00  0.00     0.041 C 
ATOM      5  O   UNL     1     163.462 160.628 180.534  1.00  0.00    -0.550 OA
ATOM      6  O   UNL     1     165.456 159.876 181.375  1.00  0.00    -0.550 OA
ENDBRANCH   3   4
ENDBRANCH   2   3
ENDBRANCH   1   2
BRANCH   1   7
ATOM      7  C   UNL     1     161.604 162.701 183.625  1.00  0.00     0.000 C 
BRANCH   7   8
ATOM      8  C   UNL     1     160.269 162.843 182.876  1.00  0.00    -0.000 C 
BRANCH   8   9
ATOM      9  C   UNL     1     160.248 162.064 181.552  1.00  0.00    -0.003 C 
ATOM     10  C   UNL     1     160.127 160.564 181.799  1.00  0.00     0.004 C 
ENDBRANCH   8   9
ENDBRANCH   7   8
ENDBRANCH   1   7
TORSDOF 6
ENDMDL
MODEL 6
REMARK VINA RESULT:    -3.322      3.040      4.083
REMARK INTER + INTRA:          -5.069
REMARK INTER:                  -4.631
REMARK INTRA:                  -0.438
REMARK UNBOUND:                -0.581
REMARK SMILES CCCCCCCC(=O)[O-]
REMARK SMILES IDX 5 1 6 2 7 3 8 4 9 5 10 6 4 7 3 8 2 9 1 10
REMARK H PARENT
REMARK Flexibility Score: inf
ROOT
ATOM      1  C   UNL     1     161.234 163.515 182.866  1.00  0.00     0.000 C 
ENDROOT
BRANCH   1   2
ATOM      2  C   UNL     1     160.076 163.900 181.937  1.00  0.00     0.006 C 
BRANCH   2   3
ATOM      3  C   UNL     1     160.585 164.226 180.530  1.00  0.00     0.053 C 
BRANCH   3   4
ATOM      4  C   UNL     1     160.802 165.698 180.378  1.00  0.00     0.041 C 
ATOM      5  O   UNL     1     161.702 166.131 179.611  1.00  0.00    -0.550 OA
ATOM      6  O   UNL     1     159.977 166.595 181.046  1.00  0.00    -0.550 OA
ENDBRANCH   3   4
ENDBRANCH   2   3
ENDBRANCH   1   2
BRANCH   1   7
ATOM      7  C   UNL     1     160.911 162.229 183.642  1.00  0.00     0.000 C 
BRANCH   7   8
ATOM      8  C   UNL     1     161.194 160.958 182.825  1.00  0.00    -0.000 C 
BRANCH   8   9
ATOM      9  C   UNL     1     159.912 160.290 182.307  1.00  0.00    -0.003 C 
ATOM     10  C   UNL     1     159.897 160.238 180.783  1.00  0.00     0.004 C 
ENDBRANCH   8   9
ENDBRANCH   7   8
ENDBRANCH   1   7
TORSDOF 6
ENDMDL
MODEL 7
REMARK VINA RESULT:    -3.281      1.870      2.911
REMARK INTER + INTRA:          -5.013
REMARK INTER:                  -4.392
REMARK INTRA:                  -0.621
REMARK UNBOUND:                -0.581
REMARK SMILES CCCCCCCC(=O)[O-]
REMARK SMILES IDX 5 1 6 2 7 3 8 4 9 5 10 6 4 7 3 8 2 9 1 10
REMARK H PARENT
REMARK Flexibility Score: inf
ROOT
ATOM      1  C   UNL     1     161.027 162.273 183.553  1.00  0.00     0.000 C 
ENDROOT
BRANCH   1   2
ATOM      2  C   UNL     1     160.984 160.912 182.849  1.00  0.00     0.006 C 
BRANCH   2   3
ATOM      3  C   UNL     1     159.913 160.892 181.754  1.00  0.00     0.053 C 
BRANCH   3   4
ATOM      4  C   UNL     1     160.546 160.796 180.403  1.00  0.00     0.041 C 
ATOM      5  O   UNL     1     159.875 161.056 179.369  1.00  0.00    -0.550 OA
ATOM      6  O   UNL     1     161.891 160.468 180.287  1.00  0.00    -0.550 OA
ENDBRANCH   3   4
ENDBRANCH   2   3
ENDBRANCH   1   2
BRANCH   1   7
ATOM      7  C   UNL     1     162.402 162.937 183.384  1.00  0.00     0.000 C 
BRANCH   7   8
ATOM      8  C   UNL     1     162.426 163.965 182.243  1.00  0.00    -0.000 C 
BRANCH   8   9
ATOM      9  C   UNL     1     161.054 164.612 181.999  1.00  0.00    -0.003 C 
ATOM     10  C   UNL     1     160.662 164.529 180.527  1.00  0.00     0.004 C 
ENDBRANCH   8   9
ENDBRANCH   7   8
ENDBRANCH   1   7
TORSDOF 6
ENDMDL
MODEL 8
REMARK VINA RESULT:    -3.225      1.741      2.623
REMARK INTER + INTRA:          -4.937
REMARK INTER:                  -4.485
REMARK INTRA:                  -0.453
REMARK UNBOUND:                -0.581
REMARK SMILES CCCCCCCC(=O)[O-]
REMARK SMILES IDX 5 1 6 2 7 3 8 4 9 5 10 6 4 7 3 8 2 9 1 10
REMARK H PARENT
REMARK Flexibility Score: inf
ROOT
ATOM      1  C   UNL     1     163.196 161.180 181.118  1.00  0.00     0.000 C 
ENDROOT
BRANCH   1   2
ATOM      2  C   UNL     1     162.108 160.630 180.190  1.00  0.00     0.006 C 
BRANCH   2   3
ATOM      3  C   UNL     1     162.043 161.427 178.884  1.00  0.00     0.053 C 
BRANCH   3   4
ATOM      4  C   UNL     1     160.756 162.182 178.793  1.00  0.00     0.041 C 
ATOM      5  O   UNL     1     160.086 162.167 177.727  1.00  0.00    -0.550 OA
ATOM      6  O   UNL     1     160.269 162.861 179.903  1.00  0.00    -0.550 OA
ENDBRANCH   3   4
ENDBRANCH   2   3
ENDBRANCH   1   2
BRANCH   1   7
ATOM      7  C   UNL     1     162.783 161.044 182.592  1.00  0.00     0.000 C 
BRANCH   7   8
ATOM      8  C   UNL     1     162.330 162.379 183.205  1.00  0.00    -0.000 C 
BRANCH   8   9
ATOM      9  C   UNL     1     160.811 162.443 183.428  1.00  0.00    -0.003 C 
ATOM     10  C   UNL     1     160.186 161.053 183.349  1.00  0.00     0.004 C 
ENDBRANCH   8   9
ENDBRANCH   7   8
ENDBRANCH   1   7
TORSDOF 6
ENDMDL
