MODEL 1
REMARK VINA RESULT:    -4.478      0.000      0.000
REMARK INTER + INTRA:          -8.801
REMARK INTER:                  -7.881
REMARK INTRA:                  -0.920
REMARK UNBOUND:                -0.920
REMARK SMILES CCCCCCC=CCCCCCCCC(=O)[O-]
REMARK SMILES IDX 10 1 11 2 12 3 13 4 14 5 15 6 16 7 17 8 18 9 9 10 8 11 7 12
REMARK SMILES IDX 6 13 5 14 4 15 3 16 2 17 1 18
REMARK H PARENT
REMARK Flexibility Score: inf
ROOT
ATOM      1  C   UNL     1      29.612  -8.017 -14.912  1.00  0.00     0.004 C 
ENDROOT
BRANCH   1   2
ATOM      2  C   UNL     1      29.797  -7.528 -13.466  1.00  0.00     0.000 C 
BRANCH   2   3
ATOM      3  C   UNL     1      28.872  -6.352 -13.106  1.00  0.00     0.000 C 
BRANCH   3   4
ATOM      4  C   UNL     1      29.590  -5.094 -12.583  1.00  0.00     0.000 C 
BRANCH   4   5
ATOM      5  C   UNL     1      31.117  -5.255 -12.524  1.00  0.00     0.006 C 
BRANCH   5   6
ATOM      6  C   UNL     1      31.609  -5.293 -11.074  1.00  0.00     0.053 C 
BRANCH   6   7
ATOM      7  C   UNL     1      32.625  -6.376 -10.895  1.00  0.00     0.041 C 
ATOM      8  O   UNL     1      32.950  -7.108 -11.868  1.00  0.00    -0.550 OA
ATOM      9  O   UNL     1      33.177  -6.611  -9.642  1.00  0.00    -0.550 OA
ENDBRANCH   6   7
ENDBRANCH   5   6
ENDBRANCH   4   5
ENDBRANCH   3   4
ENDBRANCH   2   3
ENDBRANCH   1   2
BRANCH   1  10
ATOM     10  C   UNL     1      30.673  -7.437 -15.854  1.00  0.00     0.027 C 
BRANCH  10  11
ATOM     11  C   UNL     1      30.673  -5.926 -15.813  1.00  0.00    -0.031 C 
ATOM     12  C   UNL     1      31.729  -5.142 -16.097  1.00  0.00    -0.031 C 
BRANCH  12  13
ATOM     13  C   UNL     1      33.106  -5.646 -16.445  1.00  0.00     0.027 C 
BRANCH  13  14
ATOM     14  C   UNL     1      33.627  -4.987 -17.728  1.00  0.00     0.004 C 
BRANCH  14  15
ATOM     15  C   UNL     1      35.070  -5.423 -18.023  1.00  0.00     0.000 C 
BRANCH  15  16
ATOM     16  C   UNL     1      36.116  -4.420 -17.505  1.00  0.00    -0.000 C 
BRANCH  16  17
ATOM     17  C   UNL     1      37.070  -4.976 -16.433  1.00  0.00    -0.003 C 
ATOM     18  C   UNL     1      37.503  -6.416 -16.707  1.00  0.00     0.004 C 
ENDBRANCH  16  17
ENDBRANCH  15  16
ENDBRANCH  14  15
ENDBRANCH  13  14
ENDBRANCH  12  13
ENDBRANCH  10  11
ENDBRANCH   1  10
TORSDOF 13
ENDMDL
MODEL 2
REMARK VINA RESULT:    -4.464      2.533      6.164
REMARK INTER + INTRA:          -8.777
REMARK INTER:                  -7.752
REMARK INTRA:                  -1.025
REMARK UNBOUND:                -0.920
REMARK SMILES CCCCCCC=CCCCCCCCC(=O)[O-]
REMARK SMILES IDX 10 1 11 2 12 3 13 4 14 5 15 6 16 7 17 8 18 9 9 10 8 11 7 12
REMARK SMILES IDX 6 13 5 14 4 15 3 16 2 17 1 18
REMARK H PARENT
REMARK Flexibility Score: inf
ROOT
ATOM      1  C   UNL     1      31.025  -7.115 -15.923  1.00  0.00     0.004 C 
ENDROOT
BRANCH   1   2
ATOM      2  C   UNL     1      31.294  -5.616 -15.717  1.00  0.00     0.000 C 
BRANCH   2   3
ATOM      3  C   UNL     1      32.188  -5.009 -16.815  1.00  0.00     0.000 C 
BRANCH   3   4
ATOM      4  C   UNL     1      33.668  -5.426 -16.754  1.00  0.00     0.000 C 
BRANCH   4   5
ATOM      5  C   UNL     1      34.370  -5.353 -18.119  1.00  0.00     0.006 C 
BRANCH   5   6
ATOM      6  C   UNL     1      35.829  -5.805 -18.010  1.00  0.00     0.053 C 
BRANCH   6   7
ATOM      7  C   UNL     1      36.629  -4.808 -17.234  1.00  0.00     0.041 C 
ATOM      8  O   UNL     1      36.646  -3.597 -17.584  1.00  0.00    -0.550 OA
ATOM      9  O   UNL     1      37.396  -5.222 -16.152  1.00  0.00    -0.550 OA
ENDBRANCH   6   7
ENDBRANCH   5   6
ENDBRANCH   4   5
ENDBRANCH   3   4
ENDBRANCH   2   3
ENDBRANCH   1   2
BRANCH   1  10
ATOM     10  C   UNL     1      29.631  -7.520 -15.429  1.00  0.00     0.027 C 
BRANCH  10  11
ATOM     11  C   UNL     1      29.682  -8.035 -14.009  1.00  0.00    -0.031 C 
ATOM     12  C   UNL     1      29.275  -7.354 -12.922  1.00  0.00    -0.031 C 
BRANCH  12  13
ATOM     13  C   UNL     1      28.756  -5.939 -12.937  1.00  0.00     0.027 C 
BRANCH  13  14
ATOM     14  C   UNL     1      29.909  -4.928 -12.966  1.00  0.00     0.004 C 
BRANCH  14  15
ATOM     15  C   UNL     1      30.853  -5.138 -11.773  1.00  0.00     0.000 C 
BRANCH  15  16
ATOM     16  C   UNL     1      32.186  -5.794 -12.173  1.00  0.00    -0.000 C 
BRANCH  16  17
ATOM     17  C   UNL     1      32.702  -6.861 -11.190  1.00  0.00    -0.003 C 
ATOM     18  C   UNL     1      32.900  -6.322  -9.774  1.00  0.00     0.004 C 
ENDBRANCH  16  17
ENDBRANCH  15  16
ENDBRANCH  14  15
ENDBRANCH  13  14
ENDBRANCH  12  13
ENDBRANCH  10  11
ENDBRANCH   1  10
TORSDOF 13
ENDMDL
MODEL 3
REMARK VINA RESULT:    -4.293      0.532      1.141
REMARK INTER + INTRA:          -8.475
REMARK INTER:                  -7.563
REMARK INTRA:                  -0.912
REMARK UNBOUND:                -0.920
REMARK SMILES CCCCCCC=CCCCCCCCC(=O)[O-]
REMARK SMILES IDX 10 1 11 2 12 3 13 4 14 5 15 6 16 7 17 8 18 9 9 10 8 11 7 12
REMARK SMILES IDX 6 13 5 14 4 15 3 16 2 17 1 18
REMARK H PARENT
REMARK Flexibility Score: inf
ROOT
ATOM      1  C   UNL     1      29.533  -8.078 -14.764  1.00  0.00     0.004 C 
ENDROOT
BRANCH   1   2
ATOM      2  C   UNL     1      29.879  -7.626 -13.335  1.00  0.00     0.000 C 
BRANCH   2   3
ATOM      3  C   UNL     1      28.933  -6.533 -12.805  1.00  0.00     0.000 C 
BRANCH   3   4
ATOM      4  C   UNL     1      29.578  -5.146 -12.624  1.00  0.00     0.000 C 
BRANCH   4   5
ATOM      5  C   UNL     1      31.108  -5.207 -12.502  1.00  0.00     0.006 C 
BRANCH   5   6
ATOM      6  C   UNL     1      31.537  -5.309 -11.035  1.00  0.00     0.053 C 
BRANCH   6   7
ATOM      7  C   UNL     1      32.558  -6.389 -10.864  1.00  0.00     0.041 C 
ATOM      8  O   UNL     1      33.063  -6.611  -9.731  1.00  0.00    -0.550 OA
ATOM      9  O   UNL     1      32.988  -7.120 -11.964  1.00  0.00    -0.550 OA
ENDBRANCH   6   7
ENDBRANCH   5   6
ENDBRANCH   4   5
ENDBRANCH   3   4
ENDBRANCH   2   3
ENDBRANCH   1   2
BRANCH   1  10
ATOM     10  C   UNL     1      30.501  -7.492 -15.799  1.00  0.00     0.027 C 
BRANCH  10  11
ATOM     11  C   UNL     1      30.499  -5.981 -15.757  1.00  0.00    -0.031 C 
ATOM     12  C   UNL     1      31.567  -5.197 -15.993  1.00  0.00    -0.031 C 
BRANCH  12  13
ATOM     13  C   UNL     1      32.957  -5.700 -16.282  1.00  0.00     0.027 C 
BRANCH  13  14
ATOM     14  C   UNL     1      33.494  -5.116 -17.594  1.00  0.00     0.004 C 
BRANCH  14  15
ATOM     15  C   UNL     1      34.846  -5.745 -17.962  1.00  0.00     0.000 C 
BRANCH  15  16
ATOM     16  C   UNL     1      35.864  -5.694 -16.808  1.00  0.00    -0.000 C 
BRANCH  16  17
ATOM     17  C   UNL     1      37.140  -4.887 -17.105  1.00  0.00    -0.003 C 
ATOM     18  C   UNL     1      36.867  -3.609 -17.898  1.00  0.00     0.004 C 
ENDBRANCH  16  17
ENDBRANCH  15  16
ENDBRANCH  14  15
ENDBRANCH  13  14
ENDBRANCH  12  13
ENDBRANCH  10  11
ENDBRANCH   1  10
TORSDOF 13
ENDMDL
MODEL 4
REMARK VINA RESULT:    -3.803      2.324      6.428
REMARK INTER + INTRA:          -7.614
REMARK INTER:                  -7.752
REMARK INTRA:                   0.138
REMARK UNBOUND:                -0.920
REMARK SMILES CCCCCCC=CCCCCCCCC(=O)[O-]
REMARK SMILES IDX 10 1 11 2 12 3 13 4 14 5 15 6 16 7 17 8 18 9 9 10 8 11 7 12
REMARK SMILES IDX 6 13 5 14 4 15 3 16 2 17 1 18
REMARK H PARENT
REMARK Flexibility Score: inf
ROOT
ATOM      1  C   UNL     1      31.815  -5.906 -15.538  1.00  0.00     0.004 C 
ENDROOT
BRANCH   1   2
ATOM      2  C   UNL     1      32.431  -5.163 -16.735  1.00  0.00     0.000 C 
BRANCH   2   3
ATOM      3  C   UNL     1      33.899  -5.550 -16.991  1.00  0.00     0.000 C 
BRANCH   3   4
ATOM      4  C   UNL     1      34.551  -4.865 -18.206  1.00  0.00     0.000 C 
BRANCH   4   5
ATOM      5  C   UNL     1      35.974  -4.362 -17.920  1.00  0.00     0.006 C 
BRANCH   5   6
ATOM      6  C   UNL     1      36.988  -5.506 -18.009  1.00  0.00     0.053 C 
BRANCH   6   7
ATOM      7  C   UNL     1      37.461  -5.893 -16.644  1.00  0.00     0.041 C 
ATOM      8  O   UNL     1      37.124  -5.211 -15.639  1.00  0.00    -0.550 OA
ATOM      9  O   UNL     1      38.316  -6.977 -16.485  1.00  0.00    -0.550 OA
ENDBRANCH   6   7
ENDBRANCH   5   6
ENDBRANCH   4   5
ENDBRANCH   3   4
ENDBRANCH   2   3
ENDBRANCH   1   2
BRANCH   1  10
ATOM     10  C   UNL     1      30.302  -6.100 -15.701  1.00  0.00     0.027 C 
BRANCH  10  11
ATOM     11  C   UNL     1      29.926  -7.562 -15.612  1.00  0.00    -0.031 C 
ATOM     12  C   UNL     1      29.609  -8.214 -14.479  1.00  0.00    -0.031 C 
BRANCH  12  13
ATOM     13  C   UNL     1      29.636  -7.606 -13.100  1.00  0.00     0.027 C 
BRANCH  13  14
ATOM     14  C   UNL     1      29.173  -6.145 -13.132  1.00  0.00     0.004 C 
BRANCH  14  15
ATOM     15  C   UNL     1      30.242  -5.218 -12.534  1.00  0.00     0.000 C 
BRANCH  15  16
ATOM     16  C   UNL     1      31.509  -5.972 -12.092  1.00  0.00    -0.000 C 
BRANCH  16  17
ATOM     17  C   UNL     1      32.149  -5.455 -10.790  1.00  0.00    -0.003 C 
ATOM     18  C   UNL     1      33.020  -6.501 -10.096  1.00  0.00     0.004 C 
ENDBRANCH  16  17
ENDBRANCH  15  16
ENDBRANCH  14  15
ENDBRANCH  13  14
ENDBRANCH  12  13
ENDBRANCH  10  11
ENDBRANCH   1  10
TORSDOF 13
ENDMDL
MODEL 5
REMARK VINA RESULT:    -3.774      3.017      6.785
REMARK INTER + INTRA:          -7.563
REMARK INTER:                  -6.872
REMARK INTRA:                  -0.690
REMARK UNBOUND:                -0.920
REMARK SMILES CCCCCCC=CCCCCCCCC(=O)[O-]
REMARK SMILES IDX 10 1 11 2 12 3 13 4 14 5 15 6 16 7 17 8 18 9 9 10 8 11 7 12
REMARK SMILES IDX 6 13 5 14 4 15 3 16 2 17 1 18
REMARK H PARENT
REMARK Flexibility Score: inf
ROOT
ATOM      1  C   UNL     1      30.976  -5.729 -15.720  1.00  0.00     0.004 C 
ENDROOT
BRANCH   1   2
ATOM      2  C   UNL     1      32.186  -4.931 -16.236  1.00  0.00     0.000 C 
BRANCH   2   3
ATOM      3  C   UNL     1      33.256  -5.820 -16.894  1.00  0.00     0.000 C 
BRANCH   3   4
ATOM      4  C   UNL     1      33.960  -5.197 -18.113  1.00  0.00     0.000 C 
BRANCH   4   5
ATOM      5  C   UNL     1      35.315  -5.852 -18.424  1.00  0.00     0.006 C 
BRANCH   5   6
ATOM      6  C   UNL     1      36.059  -6.211 -17.134  1.00  0.00     0.053 C 
BRANCH   6   7
ATOM      7  C   UNL     1      37.089  -5.173 -16.819  1.00  0.00     0.041 C 
ATOM      8  O   UNL     1      37.918  -5.365 -15.889  1.00  0.00    -0.550 OA
ATOM      9  O   UNL     1      37.103  -3.972 -17.517  1.00  0.00    -0.550 OA
ENDBRANCH   6   7
ENDBRANCH   5   6
ENDBRANCH   4   5
ENDBRANCH   3   4
ENDBRANCH   2   3
ENDBRANCH   1   2
BRANCH   1  10
ATOM     10  C   UNL     1      30.467  -5.194 -14.376  1.00  0.00     0.027 C 
BRANCH  10  11
ATOM     11  C   UNL     1      30.666  -6.209 -13.273  1.00  0.00    -0.031 C 
ATOM     12  C   UNL     1      30.164  -7.457 -13.268  1.00  0.00    -0.031 C 
BRANCH  12  13
ATOM     13  C   UNL     1      29.269  -8.030 -14.337  1.00  0.00     0.027 C 
BRANCH  13  14
ATOM     14  C   UNL     1      29.879  -9.297 -14.947  1.00  0.00     0.004 C 
BRANCH  14  15
ATOM     15  C   UNL     1      30.070  -9.140 -16.463  1.00  0.00     0.000 C 
BRANCH  15  16
ATOM     16  C   UNL     1      28.770  -8.755 -17.193  1.00  0.00    -0.000 C 
BRANCH  16  17
ATOM     17  C   UNL     1      28.692  -9.215 -18.660  1.00  0.00    -0.003 C 
ATOM     18  C   UNL     1      27.262  -9.490 -19.124  1.00  0.00     0.004 C 
ENDBRANCH  16  17
ENDBRANCH  15  16
ENDBRANCH  14  15
ENDBRANCH  13  14
ENDBRANCH  12  13
ENDBRANCH  10  11
ENDBRANCH   1  10
TORSDOF 13
ENDMDL
MODEL 6
REMARK VINA RESULT:    -3.451      2.647      6.329
REMARK INTER + INTRA:          -6.995
REMARK INTER:                  -6.648
REMARK INTRA:                  -0.346
REMARK UNBOUND:                -0.920
REMARK SMILES CCCCCCC=CCCCCCCCC(=O)[O-]
REMARK SMILES IDX 10 1 11 2 12 3 13 4 14 5 15 6 16 7 17 8 18 9 9 10 8 11 7 12
REMARK SMILES IDX 6 13 5 14 4 15 3 16 2 17 1 18
REMARK H PARENT
REMARK Flexibility Score: inf
ROOT
ATOM      1  C   UNL     1      30.784  -5.509 -15.403  1.00  0.00     0.004 C 
ENDROOT
BRANCH   1   2
ATOM      2  C   UNL     1      31.870  -4.879 -16.292  1.00  0.00     0.000 C 
BRANCH   2   3
ATOM      3  C   UNL     1      33.014  -5.853 -16.624  1.00  0.00     0.000 C 
BRANCH   3   4
ATOM      4  C   UNL     1      33.887  -5.447 -17.826  1.00  0.00     0.000 C 
BRANCH   4   5
ATOM      5  C   UNL     1      35.139  -4.656 -17.418  1.00  0.00     0.006 C 
BRANCH   5   6
ATOM      6  C   UNL     1      35.976  -5.440 -16.402  1.00  0.00     0.053 C 
BRANCH   6   7
ATOM      7  C   UNL     1      37.258  -5.898 -17.023  1.00  0.00     0.041 C 
ATOM      8  O   UNL     1      37.548  -5.559 -18.202  1.00  0.00    -0.550 OA
ATOM      9  O   UNL     1      38.110  -6.739 -16.319  1.00  0.00    -0.550 OA
ENDBRANCH   6   7
ENDBRANCH   5   6
ENDBRANCH   4   5
ENDBRANCH   3   4
ENDBRANCH   2   3
ENDBRANCH   1   2
BRANCH   1  10
ATOM     10  C   UNL     1      30.506  -6.968 -15.785  1.00  0.00     0.027 C 
BRANCH  10  11
ATOM     11  C   UNL     1      29.533  -7.610 -14.823  1.00  0.00    -0.031 C 
ATOM     12  C   UNL     1      29.687  -7.668 -13.488  1.00  0.00    -0.031 C 
BRANCH  12  13
ATOM     13  C   UNL     1      30.888  -7.153 -12.736  1.00  0.00     0.027 C 
BRANCH  13  14
ATOM     14  C   UNL     1      30.667  -5.710 -12.266  1.00  0.00     0.004 C 
BRANCH  14  15
ATOM     15  C   UNL     1      31.823  -5.243 -11.369  1.00  0.00     0.000 C 
BRANCH  15  16
ATOM     16  C   UNL     1      32.720  -6.401 -10.896  1.00  0.00    -0.000 C 
BRANCH  16  17
ATOM     17  C   UNL     1      33.101  -6.356  -9.405  1.00  0.00    -0.003 C 
ATOM     18  C   UNL     1      33.902  -7.579  -8.957  1.00  0.00     0.004 C 
ENDBRANCH  16  17
ENDBRANCH  15  16
ENDBRANCH  14  15
ENDBRANCH  13  14
ENDBRANCH  12  13
ENDBRANCH  10  11
ENDBRANCH   1  10
TORSDOF 13
ENDMDL
MODEL 7
REMARK VINA RESULT:    -3.285      3.380      4.772
REMARK INTER + INTRA:          -6.701
REMARK INTER:                  -5.516
REMARK INTRA:                  -1.185
REMARK UNBOUND:                -0.920
REMARK SMILES CCCCCCC=CCCCCCCCC(=O)[O-]
REMARK SMILES IDX 10 1 11 2 12 3 13 4 14 5 15 6 16 7 17 8 18 9 9 10 8 11 7 12
REMARK SMILES IDX 6 13 5 14 4 15 3 16 2 17 1 18
REMARK H PARENT
REMARK Flexibility Score: inf
ROOT
ATOM      1  C   UNL     1      30.163  -5.703 -13.437  1.00  0.00     0.004 C 
ENDROOT
BRANCH   1   2
ATOM      2  C   UNL     1      29.262  -6.874 -13.864  1.00  0.00     0.000 C 
BRANCH   2   3
ATOM      3  C   UNL     1      29.992  -8.229 -13.853  1.00  0.00     0.000 C 
BRANCH   3   4
ATOM      4  C   UNL     1      29.624  -9.177 -15.010  1.00  0.00     0.000 C 
BRANCH   4   5
ATOM      5  C   UNL     1      29.783  -8.527 -16.392  1.00  0.00     0.006 C 
BRANCH   5   6
ATOM      6  C   UNL     1      28.440  -8.457 -17.124  1.00  0.00     0.053 C 
BRANCH   6   7
ATOM      7  C   UNL     1      28.491  -9.252 -18.390  1.00  0.00     0.041 C 
ATOM      8  O   UNL     1      29.599  -9.633 -18.855  1.00  0.00    -0.550 OA
ATOM      9  O   UNL     1      27.320  -9.532 -19.084  1.00  0.00    -0.550 OA
ENDBRANCH   6   7
ENDBRANCH   5   6
ENDBRANCH   4   5
ENDBRANCH   3   4
ENDBRANCH   2   3
ENDBRANCH   1   2
BRANCH   1  10
ATOM     10  C   UNL     1      31.420  -5.600 -14.309  1.00  0.00     0.027 C 
BRANCH  10  11
ATOM     11  C   UNL     1      31.076  -5.161 -15.714  1.00  0.00    -0.031 C 
ATOM     12  C   UNL     1      31.936  -5.130 -16.749  1.00  0.00    -0.031 C 
BRANCH  12  13
ATOM     13  C   UNL     1      33.400  -5.473 -16.663  1.00  0.00     0.027 C 
BRANCH  13  14
ATOM     14  C   UNL     1      34.105  -5.225 -18.002  1.00  0.00     0.004 C 
BRANCH  14  15
ATOM     15  C   UNL     1      35.527  -5.805 -17.989  1.00  0.00     0.000 C 
BRANCH  15  16
ATOM     16  C   UNL     1      36.600  -4.751 -17.658  1.00  0.00    -0.000 C 
BRANCH  16  17
ATOM     17  C   UNL     1      37.509  -5.106 -16.468  1.00  0.00    -0.003 C 
ATOM     18  C   UNL     1      37.820  -6.600 -16.378  1.00  0.00     0.004 C 
ENDBRANCH  16  17
ENDBRANCH  15  16
ENDBRANCH  14  15
ENDBRANCH  13  14
ENDBRANCH  12  13
ENDBRANCH  10  11
ENDBRANCH   1  10
TORSDOF 13
ENDMDL
MODEL 8
REMARK VINA RESULT:    -3.077      1.262      2.140
REMARK INTER + INTRA:          -6.335
REMARK INTER:                  -5.648
REMARK INTRA:                  -0.687
REMARK UNBOUND:                -0.920
REMARK SMILES CCCCCCC=CCCCCCCCC(=O)[O-]
REMARK SMILES IDX 10 1 11 2 12 3 13 4 14 5 15 6 16 7 17 8 18 9 9 10 8 11 7 12
REMARK SMILES IDX 6 13 5 14 4 15 3 16 2 17 1 18
REMARK H PARENT
REMARK Flexibility Score: inf
ROOT
ATOM      1  C   UNL     1      30.460  -6.411 -15.769  1.00  0.00     0.004 C 
ENDROOT
BRANCH   1   2
ATOM      2  C   UNL     1      29.518  -6.360 -14.555  1.00  0.00     0.000 C 
BRANCH   2   3
ATOM      3  C   UNL     1      29.673  -7.576 -13.623  1.00  0.00     0.000 C 
BRANCH   3   4
ATOM      4  C   UNL     1      30.375  -7.285 -12.285  1.00  0.00     0.000 C 
BRANCH   4   5
ATOM      5  C   UNL     1      31.461  -6.205 -12.398  1.00  0.00     0.006 C 
BRANCH   5   6
ATOM      6  C   UNL     1      32.743  -6.639 -11.682  1.00  0.00     0.053 C 
BRANCH   6   7
ATOM      7  C   UNL     1      32.707  -6.224 -10.246  1.00  0.00     0.041 C 
ATOM      8  O   UNL     1      31.994  -5.249  -9.885  1.00  0.00    -0.550 OA
ATOM      9  O   UNL     1      33.497  -6.882  -9.311  1.00  0.00    -0.550 OA
ENDBRANCH   6   7
ENDBRANCH   5   6
ENDBRANCH   4   5
ENDBRANCH   3   4
ENDBRANCH   2   3
ENDBRANCH   1   2
BRANCH   1  10
ATOM     10  C   UNL     1      31.638  -5.440 -15.621  1.00  0.00     0.027 C 
BRANCH  10  11
ATOM     11  C   UNL     1      32.284  -5.155 -16.958  1.00  0.00    -0.031 C 
ATOM     12  C   UNL     1      33.595  -5.286 -17.230  1.00  0.00    -0.031 C 
BRANCH  12  13
ATOM     13  C   UNL     1      34.647  -5.683 -16.227  1.00  0.00     0.027 C 
BRANCH  13  14
ATOM     14  C   UNL     1      35.739  -6.538 -16.883  1.00  0.00     0.004 C 
BRANCH  14  15
ATOM     15  C   UNL     1      37.134  -6.093 -16.420  1.00  0.00     0.000 C 
BRANCH  15  16
ATOM     16  C   UNL     1      37.515  -4.691 -16.929  1.00  0.00    -0.000 C 
BRANCH  16  17
ATOM     17  C   UNL     1      37.058  -4.378 -18.365  1.00  0.00    -0.003 C 
ATOM     18  C   UNL     1      37.486  -2.989 -18.839  1.00  0.00     0.004 C 
ENDBRANCH  16  17
ENDBRANCH  15  16
ENDBRANCH  14  15
ENDBRANCH  13  14
ENDBRANCH  12  13
ENDBRANCH  10  11
ENDBRANCH   1  10
TORSDOF 13
ENDMDL
MODEL 9
REMARK VINA RESULT:    -2.734      2.686      6.526
REMARK INTER + INTRA:          -5.733
REMARK INTER:                  -5.701
REMARK INTRA:                  -0.032
REMARK UNBOUND:                -0.920
REMARK SMILES CCCCCCC=CCCCCCCCC(=O)[O-]
REMARK SMILES IDX 10 1 11 2 12 3 13 4 14 5 15 6 16 7 17 8 18 9 9 10 8 11 7 12
REMARK SMILES IDX 6 13 5 14 4 15 3 16 2 17 1 18
REMARK H PARENT
REMARK Flexibility Score: inf
ROOT
ATOM      1  C   UNL     1      32.478  -5.895 -14.063  1.00  0.00     0.004 C 
ENDROOT
BRANCH   1   2
ATOM      2  C   UNL     1      31.489  -5.467 -15.160  1.00  0.00     0.000 C 
BRANCH   2   3
ATOM      3  C   UNL     1      32.170  -5.211 -16.517  1.00  0.00     0.000 C 
BRANCH   3   4
ATOM      4  C   UNL     1      33.686  -5.476 -16.545  1.00  0.00     0.000 C 
BRANCH   4   5
ATOM      5  C   UNL     1      34.288  -5.375 -17.955  1.00  0.00     0.006 C 
BRANCH   5   6
ATOM      6  C   UNL     1      35.745  -5.847 -17.964  1.00  0.00     0.053 C 
BRANCH   6   7
ATOM      7  C   UNL     1      36.628  -4.830 -17.314  1.00  0.00     0.041 C 
ATOM      8  O   UNL     1      37.449  -5.179 -16.423  1.00  0.00    -0.550 OA
ATOM      9  O   UNL     1      36.512  -3.488 -17.655  1.00  0.00    -0.550 OA
ENDBRANCH   6   7
ENDBRANCH   5   6
ENDBRANCH   4   5
ENDBRANCH   3   4
ENDBRANCH   2   3
ENDBRANCH   1   2
BRANCH   1  10
ATOM     10  C   UNL     1      31.769  -6.191 -12.736  1.00  0.00     0.027 C 
BRANCH  10  11
ATOM     11  C   UNL     1      30.736  -5.134 -12.420  1.00  0.00    -0.031 C 
ATOM     12  C   UNL     1      29.440  -5.183 -12.779  1.00  0.00    -0.031 C 
BRANCH  12  13
ATOM     13  C   UNL     1      28.818  -6.275 -13.610  1.00  0.00     0.027 C 
BRANCH  13  14
ATOM     14  C   UNL     1      29.136  -7.659 -13.030  1.00  0.00     0.004 C 
BRANCH  14  15
ATOM     15  C   UNL     1      29.825  -8.547 -14.076  1.00  0.00     0.000 C 
BRANCH  15  16
ATOM     16  C   UNL     1      29.571  -8.079 -15.520  1.00  0.00    -0.000 C 
BRANCH  16  17
ATOM     17  C   UNL     1      29.584  -9.199 -16.575  1.00  0.00    -0.003 C 
ATOM     18  C   UNL     1      28.492  -9.037 -17.633  1.00  0.00     0.004 C 
ENDBRANCH  16  17
ENDBRANCH  15  16
ENDBRANCH  14  15
ENDBRANCH  13  14
ENDBRANCH  12  13
ENDBRANCH  10  11
ENDBRANCH   1  10
TORSDOF 13
ENDMDL
