MODEL 1
REMARK VINA RESULT:    -3.526      0.000      0.000
REMARK INTER + INTRA:          -4.874
REMARK INTER:                  -4.557
REMARK INTRA:                  -0.317
REMARK UNBOUND:                -0.317
REMARK SMILES CCCCCCC(=O)[O-]
REMARK SMILES IDX 5 1 6 2 7 3 8 4 9 5 4 6 3 7 2 8 1 9
REMARK H PARENT
REMARK Flexibility Score: inf
ROOT
ATOM      1  C   UNL     1      42.653  27.429   0.824  1.00  0.00     0.006 C 
ENDROOT
BRANCH   1   2
ATOM      2  C   UNL     1      43.040  27.832  -0.602  1.00  0.00     0.053 C 
BRANCH   2   3
ATOM      3  C   UNL     1      44.149  26.964  -1.109  1.00  0.00     0.041 C 
ATOM      4  O   UNL     1      43.886  25.879  -1.692  1.00  0.00    -0.550 OA
ATOM      5  O   UNL     1      45.471  27.328  -0.893  1.00  0.00    -0.550 OA
ENDBRANCH   2   3
ENDBRANCH   1   2
BRANCH   1   6
ATOM      6  C   UNL     1      43.233  28.411   1.850  1.00  0.00     0.000 C 
BRANCH   6   7
ATOM      7  C   UNL     1      44.485  27.829   2.523  1.00  0.00    -0.000 C 
BRANCH   7   8
ATOM      8  C   UNL     1      44.479  26.293   2.554  1.00  0.00    -0.003 C 
ATOM      9  C   UNL     1      45.265  25.723   3.734  1.00  0.00     0.004 C 
ENDBRANCH   7   8
ENDBRANCH   6   7
ENDBRANCH   1   6
TORSDOF 5
ENDMDL
MODEL 2
REMARK VINA RESULT:    -3.427      0.213      1.079
REMARK INTER + INTRA:          -4.747
REMARK INTER:                  -4.479
REMARK INTRA:                  -0.268
REMARK UNBOUND:                -0.317
REMARK SMILES CCCCCCC(=O)[O-]
REMARK SMILES IDX 5 1 6 2 7 3 8 4 9 5 4 6 3 7 2 8 1 9
REMARK H PARENT
REMARK Flexibility Score: inf
ROOT
ATOM      1  C   UNL     1      42.638  27.550   0.716  1.00  0.00     0.006 C 
ENDROOT
BRANCH   1   2
ATOM      2  C   UNL     1      43.204  28.006  -0.632  1.00  0.00     0.053 C 
BRANCH   2   3
ATOM      3  C   UNL     1      44.168  26.993  -1.165  1.00  0.00     0.041 C 
ATOM      4  O   UNL     1      45.375  27.303  -1.346  1.00  0.00    -0.550 OA
ATOM      5  O   UNL     1      43.723  25.724  -1.508  1.00  0.00    -0.550 OA
ENDBRANCH   2   3
ENDBRANCH   1   2
BRANCH   1   6
ATOM      6  C   UNL     1      43.176  28.417   1.861  1.00  0.00     0.000 C 
BRANCH   6   7
ATOM      7  C   UNL     1      44.479  27.835   2.428  1.00  0.00    -0.000 C 
BRANCH   7   8
ATOM      8  C   UNL     1      44.459  26.301   2.498  1.00  0.00    -0.003 C 
ATOM      9  C   UNL     1      45.219  25.755   3.707  1.00  0.00     0.004 C 
ENDBRANCH   7   8
ENDBRANCH   6   7
ENDBRANCH   1   6
TORSDOF 5
ENDMDL
MODEL 3
REMARK VINA RESULT:    -3.256      1.344      2.406
REMARK INTER + INTRA:          -4.525
REMARK INTER:                  -4.090
REMARK INTRA:                  -0.435
REMARK UNBOUND:                -0.317
REMARK SMILES CCCCCCC(=O)[O-]
REMARK SMILES IDX 5 1 6 2 7 3 8 4 9 5 4 6 3 7 2 8 1 9
REMARK H PARENT
REMARK Flexibility Score: inf
ROOT
ATOM      1  C   UNL     1      42.705  28.867  -1.466  1.00  0.00     0.006 C 
ENDROOT
BRANCH   1   2
ATOM      2  C   UNL     1      43.846  28.332  -2.336  1.00  0.00     0.053 C 
BRANCH   2   3
ATOM      3  C   UNL     1      44.541  27.199  -1.649  1.00  0.00     0.041 C 
ATOM      4  O   UNL     1      45.758  27.296  -1.341  1.00  0.00    -0.550 OA
ATOM      5  O   UNL     1      43.858  26.017  -1.394  1.00  0.00    -0.550 OA
ENDBRANCH   2   3
ENDBRANCH   1   2
BRANCH   1   6
ATOM      6  C   UNL     1      43.239  29.444  -0.149  1.00  0.00     0.000 C 
BRANCH   6   7
ATOM      7  C   UNL     1      42.267  29.170   1.007  1.00  0.00    -0.000 C 
BRANCH   7   8
ATOM      8  C   UNL     1      42.276  27.699   1.450  1.00  0.00    -0.003 C 
ATOM      9  C   UNL     1      43.633  27.254   1.995  1.00  0.00     0.004 C 
ENDBRANCH   7   8
ENDBRANCH   6   7
ENDBRANCH   1   6
TORSDOF 5
ENDMDL
MODEL 4
REMARK VINA RESULT:    -3.248      5.316      7.137
REMARK INTER + INTRA:          -4.515
REMARK INTER:                  -4.284
REMARK INTRA:                  -0.231
REMARK UNBOUND:                -0.317
REMARK SMILES CCCCCCC(=O)[O-]
REMARK SMILES IDX 5 1 6 2 7 3 8 4 9 5 4 6 3 7 2 8 1 9
REMARK H PARENT
REMARK Flexibility Score: inf
ROOT
ATOM      1  C   UNL     1      46.003  27.720   6.220  1.00  0.00     0.006 C 
ENDROOT
BRANCH   1   2
ATOM      2  C   UNL     1      45.966  26.440   7.061  1.00  0.00     0.053 C 
BRANCH   2   3
ATOM      3  C   UNL     1      45.473  26.736   8.443  1.00  0.00     0.041 C 
ATOM      4  O   UNL     1      45.051  27.887   8.731  1.00  0.00    -0.550 OA
ATOM      5  O   UNL     1      45.528  25.756   9.425  1.00  0.00    -0.550 OA
ENDBRANCH   2   3
ENDBRANCH   1   2
BRANCH   1   6
ATOM      6  C   UNL     1      46.091  27.393   4.724  1.00  0.00     0.000 C 
BRANCH   6   7
ATOM      7  C   UNL     1      46.240  25.881   4.499  1.00  0.00    -0.000 C 
BRANCH   7   8
ATOM      8  C   UNL     1      45.216  25.331   3.495  1.00  0.00    -0.003 C 
ATOM      9  C   UNL     1      44.576  26.426   2.641  1.00  0.00     0.004 C 
ENDBRANCH   7   8
ENDBRANCH   6   7
ENDBRANCH   1   6
TORSDOF 5
ENDMDL
MODEL 5
REMARK VINA RESULT:    -3.242     16.551     18.424
REMARK INTER + INTRA:          -4.507
REMARK INTER:                  -4.245
REMARK INTRA:                  -0.262
REMARK UNBOUND:                -0.317
REMARK SMILES CCCCCCC(=O)[O-]
REMARK SMILES IDX 5 1 6 2 7 3 8 4 9 5 4 6 3 7 2 8 1 9
REMARK H PARENT
REMARK Flexibility Score: inf
ROOT
ATOM      1  C   UNL     1      44.975  13.068  11.404  1.00  0.00     0.006 C 
ENDROOT
BRANCH   1   2
ATOM      2  C   UNL     1      45.625  13.911  12.505  1.00  0.00     0.053 C 
BRANCH   2   3
ATOM      3  C   UNL     1      46.488  14.977  11.907  1.00  0.00     0.041 C 
ATOM      4  O   UNL     1      46.734  14.974  10.672  1.00  0.00    -0.550 OA
ATOM      5  O   UNL     1      47.061  15.945  12.720  1.00  0.00    -0.550 OA
ENDBRANCH   2   3
ENDBRANCH   1   2
BRANCH   1   6
ATOM      6  C   UNL     1      45.015  11.576  11.758  1.00  0.00     0.000 C 
BRANCH   6   7
ATOM      7  C   UNL     1      45.825  11.335  13.040  1.00  0.00    -0.000 C 
BRANCH   7   8
ATOM      8  C   UNL     1      47.090  10.500  12.791  1.00  0.00    -0.003 C 
ATOM      9  C   UNL     1      47.125   9.881  11.394  1.00  0.00     0.004 C 
ENDBRANCH   7   8
ENDBRANCH   6   7
ENDBRANCH   1   6
TORSDOF 5
ENDMDL
MODEL 6
REMARK VINA RESULT:    -3.241      1.823      2.985
REMARK INTER + INTRA:          -4.506
REMARK INTER:                  -4.331
REMARK INTRA:                  -0.175
REMARK UNBOUND:                -0.317
REMARK SMILES CCCCCCC(=O)[O-]
REMARK SMILES IDX 5 1 6 2 7 3 8 4 9 5 4 6 3 7 2 8 1 9
REMARK H PARENT
REMARK Flexibility Score: inf
ROOT
ATOM      1  C   UNL     1      45.182  26.692   2.492  1.00  0.00     0.006 C 
ENDROOT
BRANCH   1   2
ATOM      2  C   UNL     1      43.720  26.965   2.128  1.00  0.00     0.053 C 
BRANCH   2   3
ATOM      3  C   UNL     1      43.557  27.048   0.643  1.00  0.00     0.041 C 
ATOM      4  O   UNL     1      42.444  27.367   0.146  1.00  0.00    -0.550 OA
ATOM      5  O   UNL     1      44.618  26.726  -0.192  1.00  0.00    -0.550 OA
ENDBRANCH   2   3
ENDBRANCH   1   2
BRANCH   1   6
ATOM      6  C   UNL     1      45.302  25.471   3.413  1.00  0.00     0.000 C 
BRANCH   6   7
ATOM      7  C   UNL     1      46.335  25.717   4.522  1.00  0.00    -0.000 C 
BRANCH   7   8
ATOM      8  C   UNL     1      45.990  26.936   5.391  1.00  0.00    -0.003 C 
ATOM      9  C   UNL     1      45.933  26.602   6.881  1.00  0.00     0.004 C 
ENDBRANCH   7   8
ENDBRANCH   6   7
ENDBRANCH   1   6
TORSDOF 5
ENDMDL
MODEL 7
REMARK VINA RESULT:    -3.192      1.707      3.693
REMARK INTER + INTRA:          -4.443
REMARK INTER:                  -4.011
REMARK INTRA:                  -0.432
REMARK UNBOUND:                -0.317
REMARK SMILES CCCCCCC(=O)[O-]
REMARK SMILES IDX 5 1 6 2 7 3 8 4 9 5 4 6 3 7 2 8 1 9
REMARK H PARENT
REMARK Flexibility Score: inf
ROOT
ATOM      1  C   UNL     1      42.759  27.640   1.844  1.00  0.00     0.006 C 
ENDROOT
BRANCH   1   2
ATOM      2  C   UNL     1      44.228  27.942   2.150  1.00  0.00     0.053 C 
BRANCH   2   3
ATOM      3  C   UNL     1      45.066  26.717   1.954  1.00  0.00     0.041 C 
ATOM      4  O   UNL     1      45.985  26.710   1.093  1.00  0.00    -0.550 OA
ATOM      5  O   UNL     1      44.800  25.568   2.687  1.00  0.00    -0.550 OA
ENDBRANCH   2   3
ENDBRANCH   1   2
BRANCH   1   6
ATOM      6  C   UNL     1      42.559  27.322   0.357  1.00  0.00     0.000 C 
BRANCH   6   7
ATOM      7  C   UNL     1      42.788  28.571  -0.508  1.00  0.00    -0.000 C 
BRANCH   7   8
ATOM      8  C   UNL     1      43.725  28.304  -1.695  1.00  0.00    -0.003 C 
ATOM      9  C   UNL     1      44.060  26.822  -1.862  1.00  0.00     0.004 C 
ENDBRANCH   7   8
ENDBRANCH   6   7
ENDBRANCH   1   6
TORSDOF 5
ENDMDL
MODEL 8
REMARK VINA RESULT:    -3.107      2.831      4.371
REMARK INTER + INTRA:          -4.332
REMARK INTER:                  -4.118
REMARK INTRA:                  -0.215
REMARK UNBOUND:                -0.317
REMARK SMILES CCCCCCC(=O)[O-]
REMARK SMILES IDX 5 1 6 2 7 3 8 4 9 5 4 6 3 7 2 8 1 9
REMARK H PARENT
REMARK Flexibility Score: inf
ROOT
ATOM      1  C   UNL     1      43.909  26.829   2.237  1.00  0.00     0.006 C 
ENDROOT
BRANCH   1   2
ATOM      2  C   UNL     1      45.369  26.792   2.697  1.00  0.00     0.053 C 
BRANCH   2   3
ATOM      3  C   UNL     1      45.589  25.660   3.651  1.00  0.00     0.041 C 
ATOM      4  O   UNL     1      45.602  24.473   3.231  1.00  0.00    -0.550 OA
ATOM      5  O   UNL     1      45.730  25.912   5.009  1.00  0.00    -0.550 OA
ENDBRANCH   2   3
ENDBRANCH   1   2
BRANCH   1   6
ATOM      6  C   UNL     1      43.816  27.006   0.716  1.00  0.00     0.000 C 
BRANCH   6   7
ATOM      7  C   UNL     1      42.635  27.913   0.339  1.00  0.00    -0.000 C 
BRANCH   7   8
ATOM      8  C   UNL     1      41.914  28.485   1.569  1.00  0.00    -0.003 C 
ATOM      9  C   UNL     1      41.935  30.013   1.608  1.00  0.00     0.004 C 
ENDBRANCH   7   8
ENDBRANCH   6   7
ENDBRANCH   1   6
TORSDOF 5
ENDMDL
MODEL 9
REMARK VINA RESULT:    -3.059      2.633      3.744
REMARK INTER + INTRA:          -4.271
REMARK INTER:                  -4.142
REMARK INTRA:                  -0.129
REMARK UNBOUND:                -0.317
REMARK SMILES CCCCCCC(=O)[O-]
REMARK SMILES IDX 5 1 6 2 7 3 8 4 9 5 4 6 3 7 2 8 1 9
REMARK H PARENT
REMARK Flexibility Score: inf
ROOT
ATOM      1  C   UNL     1      43.653  28.040  -2.293  1.00  0.00     0.006 C 
ENDROOT
BRANCH   1   2
ATOM      2  C   UNL     1      42.964  28.753  -3.460  1.00  0.00     0.053 C 
BRANCH   2   3
ATOM      3  C   UNL     1      42.642  27.781  -4.551  1.00  0.00     0.041 C 
ATOM      4  O   UNL     1      41.747  28.051  -5.395  1.00  0.00    -0.550 OA
ATOM      5  O   UNL     1      43.295  26.557  -4.606  1.00  0.00    -0.550 OA
ENDBRANCH   2   3
ENDBRANCH   1   2
BRANCH   1   6
ATOM      6  C   UNL     1      42.965  28.371  -0.962  1.00  0.00     0.000 C 
BRANCH   6   7
ATOM      7  C   UNL     1      42.952  27.150  -0.031  1.00  0.00    -0.000 C 
BRANCH   7   8
ATOM      8  C   UNL     1      42.625  27.519   1.423  1.00  0.00    -0.003 C 
ATOM      9  C   UNL     1      41.982  28.900   1.553  1.00  0.00     0.004 C 
ENDBRANCH   7   8
ENDBRANCH   6   7
ENDBRANCH   1   6
TORSDOF 5
ENDMDL
