MODEL 1
REMARK VINA RESULT:    24.395      0.000      0.000
REMARK INTER + INTRA:          28.382
REMARK INTER:                  28.673
REMARK INTRA:                  -0.292
REMARK UNBOUND:                -0.292
REMARK SMILES O=c1c(O)c(-c2ccc(O)cc2)oc2cc(O)cc(O)c12
REMARK SMILES IDX 5 1 3 2 2 3 1 4 21 5 19 6 18 7 16 8 15 9 14 10 13 11 6 12
REMARK SMILES IDX 7 13 8 14 9 15 12 16 11 17 10 18 4 20 20 22 17 24
REMARK H PARENT 10 19 4 21 20 23 17 25
REMARK Flexibility Score: inf
ROOT
ATOM      1  C   UNL     1      -5.112  -0.542  14.951  1.00  0.00     0.180 A 
ATOM      2  C   UNL     1      -5.629  -1.239  16.057  1.00  0.00     0.208 A 
ATOM      3  C   UNL     1      -5.656  -2.642  16.025  1.00  0.00     0.238 A 
ATOM      4  O   UNL     1      -6.051  -3.261  17.048  1.00  0.00    -0.285 OA
ATOM      5  C   UNL     1      -5.221  -3.330  14.866  1.00  0.00     0.111 A 
ATOM      6  C   UNL     1      -5.247  -4.749  14.706  1.00  0.00     0.134 A 
ATOM      7  C   UNL     1      -4.692  -5.324  13.556  1.00  0.00     0.093 A 
ATOM      8  C   UNL     1      -4.170  -4.529  12.532  1.00  0.00     0.123 A 
ATOM      9  C   UNL     1      -4.190  -3.142  12.656  1.00  0.00     0.094 A 
ATOM     10  C   UNL     1      -4.702  -2.540  13.807  1.00  0.00     0.146 A 
ATOM     11  O   UNL     1      -4.682  -1.215  13.892  1.00  0.00    -0.452 OA
ENDROOT
BRANCH   1  12
ATOM     12  C   UNL     1      -5.037   0.937  14.917  1.00  0.00     0.021 A 
ATOM     13  C   UNL     1      -6.125   1.672  14.420  1.00  0.00     0.016 A 
ATOM     14  C   UNL     1      -6.067   3.068  14.357  1.00  0.00     0.047 A 
ATOM     15  C   UNL     1      -4.913   3.744  14.775  1.00  0.00     0.115 A 
ATOM     16  C   UNL     1      -3.874   1.621  15.316  1.00  0.00     0.016 A 
ATOM     17  C   UNL     1      -3.818   3.016  15.251  1.00  0.00     0.047 A 
BRANCH  15  18
ATOM     18  O   UNL     1      -4.843   5.134  14.717  1.00  0.00    -0.508 OA
ATOM     19  H   UNL     1      -5.585   5.718  15.085  1.00  0.00     0.293 HD
ENDBRANCH  15  18
ENDBRANCH   1  12
BRANCH   2  20
ATOM     20  O   UNL     1      -6.124  -0.539  17.162  1.00  0.00    -0.502 OA
ATOM     21  H   UNL     1      -5.990  -0.860  18.113  1.00  0.00     0.293 HD
ENDBRANCH   2  20
BRANCH   6  22
ATOM     22  O   UNL     1      -5.824  -5.631  15.624  1.00  0.00    -0.507 OA
ATOM     23  H   UNL     1      -5.475  -6.551  15.841  1.00  0.00     0.293 HD
ENDBRANCH   6  22
BRANCH   8  24
ATOM     24  O   UNL     1      -3.634  -5.108  11.384  1.00  0.00    -0.508 OA
ATOM     25  H   UNL     1      -2.751  -4.796  10.996  1.00  0.00     0.293 HD
ENDBRANCH   8  24
TORSDOF 5
ENDMDL
MODEL 2
REMARK VINA RESULT:    24.663      1.724      7.072
REMARK INTER + INTRA:          28.697
REMARK INTER:                  28.945
REMARK INTRA:                  -0.248
REMARK UNBOUND:                -0.292
REMARK SMILES O=c1c(O)c(-c2ccc(O)cc2)oc2cc(O)cc(O)c12
REMARK SMILES IDX 5 1 3 2 2 3 1 4 21 5 19 6 18 7 16 8 15 9 14 10 13 11 6 12
REMARK SMILES IDX 7 13 8 14 9 15 12 16 11 17 10 18 4 20 20 22 17 24
REMARK H PARENT 10 19 4 21 20 23 17 25
REMARK Flexibility Score: inf
ROOT
ATOM      1  C   UNL     1      -4.896  -0.434  14.931  1.00  0.00     0.180 A 
ATOM      2  C   UNL     1      -5.405   0.327  13.865  1.00  0.00     0.208 A 
ATOM      3  C   UNL     1      -5.195   1.715  13.859  1.00  0.00     0.238 A 
ATOM      4  O   UNL     1      -5.588   2.380  12.865  1.00  0.00    -0.285 OA
ATOM      5  C   UNL     1      -4.531   2.333  14.946  1.00  0.00     0.111 A 
ATOM      6  C   UNL     1      -4.303   3.738  15.067  1.00  0.00     0.134 A 
ATOM      7  C   UNL     1      -3.540   4.224  16.136  1.00  0.00     0.093 A 
ATOM      8  C   UNL     1      -3.051   3.365  17.123  1.00  0.00     0.123 A 
ATOM      9  C   UNL     1      -3.314   1.999  17.042  1.00  0.00     0.094 A 
ATOM     10  C   UNL     1      -4.040   1.479  15.969  1.00  0.00     0.146 A 
ATOM     11  O   UNL     1      -4.249   0.169  15.920  1.00  0.00    -0.452 OA
ENDROOT
BRANCH   1  12
ATOM     12  C   UNL     1      -5.064  -1.904  15.001  1.00  0.00     0.021 A 
ATOM     13  C   UNL     1      -5.967  -2.453  15.926  1.00  0.00     0.016 A 
ATOM     14  C   UNL     1      -6.125  -3.838  16.026  1.00  0.00     0.047 A 
ATOM     15  C   UNL     1      -5.370  -4.693  15.211  1.00  0.00     0.115 A 
ATOM     16  C   UNL     1      -4.295  -2.769  14.201  1.00  0.00     0.016 A 
ATOM     17  C   UNL     1      -4.454  -4.154  14.302  1.00  0.00     0.047 A 
BRANCH  15  18
ATOM     18  O   UNL     1      -5.518  -6.075  15.301  1.00  0.00    -0.508 OA
ATOM     19  H   UNL     1      -5.328  -6.681  14.511  1.00  0.00     0.293 HD
ENDBRANCH  15  18
ENDBRANCH   1  12
BRANCH   2  20
ATOM     20  O   UNL     1      -6.125  -0.292  12.839  1.00  0.00    -0.502 OA
ATOM     21  H   UNL     1      -6.552   0.231  12.083  1.00  0.00     0.293 HD
ENDBRANCH   2  20
BRANCH   6  22
ATOM     22  O   UNL     1      -4.821   4.694  14.187  1.00  0.00    -0.507 OA
ATOM     23  H   UNL     1      -4.474   5.635  14.086  1.00  0.00     0.293 HD
ENDBRANCH   6  22
BRANCH   8  24
ATOM     24  O   UNL     1      -2.307   3.859  18.192  1.00  0.00    -0.508 OA
ATOM     25  H   UNL     1      -2.235   3.351  19.066  1.00  0.00     0.293 HD
ENDBRANCH   8  24
TORSDOF 5
ENDMDL
