MODEL 1
REMARK VINA RESULT:    -2.570      0.000      0.000
REMARK INTER + INTRA:          -2.570
REMARK INTER:                  -2.570
REMARK INTRA:                   0.000
REMARK UNBOUND:                 0.000
REMARK SMILES CC(=O)[O-]
REMARK SMILES IDX 1 1 2 2 3 3 4 4
REMARK H PARENT
REMARK Flexibility Score: inf
ROOT
ATOM      1  C   UNL     1      49.262  25.775   7.512  1.00  0.00     0.063 C 
ATOM      2  C   UNL     1      49.108  24.399   8.069  1.00  0.00     0.038 C 
ATOM      3  O   UNL     1      48.270  24.177   8.982  1.00  0.00    -0.550 OA
ATOM      4  O   UNL     1      49.851  23.349   7.544  1.00  0.00    -0.550 OA
ENDROOT
TORSDOF 0
ENDMDL
MODEL 2
REMARK VINA RESULT:    -2.480      1.387      1.772
REMARK INTER + INTRA:          -2.480
REMARK INTER:                  -2.480
REMARK INTRA:                   0.000
REMARK UNBOUND:                 0.000
REMARK SMILES CC(=O)[O-]
REMARK SMILES IDX 1 1 2 2 3 3 4 4
REMARK H PARENT
REMARK Flexibility Score: inf
ROOT
ATOM      1  C   UNL     1      49.863  23.126   7.509  1.00  0.00     0.063 C 
ATOM      2  C   UNL     1      49.146  24.333   8.014  1.00  0.00     0.038 C 
ATOM      3  O   UNL     1      48.322  24.228   8.960  1.00  0.00    -0.550 OA
ATOM      4  O   UNL     1      49.425  25.583   7.477  1.00  0.00    -0.550 OA
ENDROOT
TORSDOF 0
ENDMDL
MODEL 3
REMARK VINA RESULT:    -2.472     17.097     17.403
REMARK INTER + INTRA:          -2.472
REMARK INTER:                  -2.472
REMARK INTRA:                   0.000
REMARK UNBOUND:                 0.000
REMARK SMILES CC(=O)[O-]
REMARK SMILES IDX 1 1 2 2 3 3 4 4
REMARK H PARENT
REMARK Flexibility Score: inf
ROOT
ATOM      1  C   UNL     1      46.309  17.462  -7.041  1.00  0.00     0.063 C 
ATOM      2  C   UNL     1      44.871  17.709  -7.353  1.00  0.00     0.038 C 
ATOM      3  O   UNL     1      44.552  18.533  -8.249  1.00  0.00    -0.550 OA
ATOM      4  O   UNL     1      43.883  16.990  -6.693  1.00  0.00    -0.550 OA
ENDROOT
TORSDOF 0
ENDMDL
MODEL 4
REMARK VINA RESULT:    -2.422     17.134     17.406
REMARK INTER + INTRA:          -2.422
REMARK INTER:                  -2.422
REMARK INTRA:                   0.000
REMARK UNBOUND:                 0.000
REMARK SMILES CC(=O)[O-]
REMARK SMILES IDX 1 1 2 2 3 3 4 4
REMARK H PARENT
REMARK Flexibility Score: inf
ROOT
ATOM      1  C   UNL     1      43.879  17.096  -6.714  1.00  0.00     0.063 C 
ATOM      2  C   UNL     1      45.018  17.739  -7.431  1.00  0.00     0.038 C 
ATOM      3  O   UNL     1      44.799  18.606  -8.317  1.00  0.00    -0.550 OA
ATOM      4  O   UNL     1      46.325  17.421  -7.085  1.00  0.00    -0.550 OA
ENDROOT
TORSDOF 0
ENDMDL
MODEL 5
REMARK VINA RESULT:    -2.305     22.437     22.769
REMARK INTER + INTRA:          -2.305
REMARK INTER:                  -2.305
REMARK INTRA:                   0.000
REMARK UNBOUND:                 0.000
REMARK SMILES CC(=O)[O-]
REMARK SMILES IDX 1 1 2 2 3 3 4 4
REMARK H PARENT
REMARK Flexibility Score: inf
ROOT
ATOM      1  C   UNL     1      60.830   7.020   0.686  1.00  0.00     0.063 C 
ATOM      2  C   UNL     1      62.079   7.566   0.080  1.00  0.00     0.038 C 
ATOM      3  O   UNL     1      63.200   7.281   0.578  1.00  0.00    -0.550 OA
ATOM      4  O   UNL     1      62.012   8.347  -1.066  1.00  0.00    -0.550 OA
ENDROOT
TORSDOF 0
ENDMDL
MODEL 6
REMARK VINA RESULT:    -2.285     11.363     11.515
REMARK INTER + INTRA:          -2.285
REMARK INTER:                  -2.285
REMARK INTRA:                   0.000
REMARK UNBOUND:                 0.000
REMARK SMILES CC(=O)[O-]
REMARK SMILES IDX 1 1 2 2 3 3 4 4
REMARK H PARENT
REMARK Flexibility Score: inf
ROOT
ATOM      1  C   UNL     1      45.813  23.048  -3.521  1.00  0.00     0.063 C 
ATOM      2  C   UNL     1      44.814  22.862  -2.429  1.00  0.00     0.038 C 
ATOM      3  O   UNL     1      44.180  23.852  -1.979  1.00  0.00    -0.550 OA
ATOM      4  O   UNL     1      44.541  21.590  -1.945  1.00  0.00    -0.550 OA
ENDROOT
TORSDOF 0
ENDMDL
MODEL 7
REMARK VINA RESULT:    -2.254     22.358     22.629
REMARK INTER + INTRA:          -2.254
REMARK INTER:                  -2.254
REMARK INTRA:                   0.000
REMARK UNBOUND:                 0.000
REMARK SMILES CC(=O)[O-]
REMARK SMILES IDX 1 1 2 2 3 3 4 4
REMARK H PARENT
REMARK Flexibility Score: inf
ROOT
ATOM      1  C   UNL     1      63.099   7.444   0.380  1.00  0.00     0.063 C 
ATOM      2  C   UNL     1      61.697   7.609  -0.103  1.00  0.00     0.038 C 
ATOM      3  O   UNL     1      61.466   8.242  -1.165  1.00  0.00    -0.550 OA
ATOM      4  O   UNL     1      60.649   7.018   0.591  1.00  0.00    -0.550 OA
ENDROOT
TORSDOF 0
ENDMDL
MODEL 8
REMARK VINA RESULT:    -2.215     11.584     11.832
REMARK INTER + INTRA:          -2.215
REMARK INTER:                  -2.215
REMARK INTRA:                   0.000
REMARK UNBOUND:                 0.000
REMARK SMILES CC(=O)[O-]
REMARK SMILES IDX 1 1 2 2 3 3 4 4
REMARK H PARENT
REMARK Flexibility Score: inf
ROOT
ATOM      1  C   UNL     1      44.331  23.482  -2.158  1.00  0.00     0.063 C 
ATOM      2  C   UNL     1      45.276  22.624  -2.930  1.00  0.00     0.038 C 
ATOM      3  O   UNL     1      46.097  23.148  -3.727  1.00  0.00    -0.550 OA
ATOM      4  O   UNL     1      45.288  21.249  -2.731  1.00  0.00    -0.550 OA
ENDROOT
TORSDOF 0
ENDMDL
MODEL 9
REMARK VINA RESULT:    -2.187     12.805     13.217
REMARK INTER + INTRA:          -2.187
REMARK INTER:                  -2.187
REMARK INTRA:                   0.000
REMARK UNBOUND:                 0.000
REMARK SMILES CC(=O)[O-]
REMARK SMILES IDX 1 1 2 2 3 3 4 4
REMARK H PARENT
REMARK Flexibility Score: inf
ROOT
ATOM      1  C   UNL     1      53.251  15.154  -1.525  1.00  0.00     0.063 C 
ATOM      2  C   UNL     1      53.103  16.632  -1.660  1.00  0.00     0.038 C 
ATOM      3  O   UNL     1      52.142  17.113  -2.315  1.00  0.00    -0.550 OA
ATOM      4  O   UNL     1      53.994  17.482  -1.019  1.00  0.00    -0.550 OA
ENDROOT
TORSDOF 0
ENDMDL
