MODEL 1
REMARK VINA RESULT:    -3.331      0.000      0.000
REMARK INTER + INTRA:          -3.759
REMARK INTER:                  -3.721
REMARK INTRA:                  -0.038
REMARK UNBOUND:                -0.038
REMARK SMILES CCCC(=O)[O-]
REMARK SMILES IDX 3 1 4 2 5 3 6 4 2 5 1 6
REMARK H PARENT
REMARK Flexibility Score: inf
ROOT
ATOM      1  C   UNL     1       1.789 -37.542  16.854  1.00  0.00     0.052 C 
ENDROOT
BRANCH   1   2
ATOM      2  C   UNL     1       2.324 -38.116  18.127  1.00  0.00     0.041 C 
ATOM      3  O   UNL     1       3.566 -38.143  18.337  1.00  0.00    -0.550 OA
ATOM      4  O   UNL     1       1.457 -38.665  19.062  1.00  0.00    -0.550 OA
ENDBRANCH   1   2
BRANCH   1   5
ATOM      5  C   UNL     1       2.906 -36.852  16.065  1.00  0.00     0.003 C 
ATOM      6  C   UNL     1       3.146 -37.546  14.729  1.00  0.00     0.004 C 
ENDBRANCH   1   5
TORSDOF 2
ENDMDL
MODEL 2
REMARK VINA RESULT:    -3.068      2.117      3.254
REMARK INTER + INTRA:          -3.464
REMARK INTER:                  -3.452
REMARK INTRA:                  -0.013
REMARK UNBOUND:                -0.038
REMARK SMILES CCCC(=O)[O-]
REMARK SMILES IDX 3 1 4 2 5 3 6 4 2 5 1 6
REMARK H PARENT
REMARK Flexibility Score: inf
ROOT
ATOM      1  C   UNL     1       2.257 -37.919  18.046  1.00  0.00     0.052 C 
ENDROOT
BRANCH   1   2
ATOM      2  C   UNL     1       2.283 -37.639  16.577  1.00  0.00     0.041 C 
ATOM      3  O   UNL     1       1.501 -36.787  16.080  1.00  0.00    -0.550 OA
ATOM      4  O   UNL     1       3.139 -38.354  15.748  1.00  0.00    -0.550 OA
ENDBRANCH   1   2
BRANCH   1   5
ATOM      5  C   UNL     1       3.682 -37.981  18.605  1.00  0.00     0.003 C 
ATOM      6  C   UNL     1       3.887 -36.944  19.705  1.00  0.00     0.004 C 
ENDBRANCH   1   5
TORSDOF 2
ENDMDL
MODEL 3
REMARK VINA RESULT:    -3.058      1.788      2.038
REMARK INTER + INTRA:          -3.453
REMARK INTER:                  -3.421
REMARK INTRA:                  -0.032
REMARK UNBOUND:                -0.038
REMARK SMILES CCCC(=O)[O-]
REMARK SMILES IDX 3 1 4 2 5 3 6 4 2 5 1 6
REMARK H PARENT
REMARK Flexibility Score: inf
ROOT
ATOM      1  C   UNL     1       2.557 -37.965  18.323  1.00  0.00     0.052 C 
ENDROOT
BRANCH   1   2
ATOM      2  C   UNL     1       3.720 -37.469  19.122  1.00  0.00     0.041 C 
ATOM      3  O   UNL     1       4.251 -36.360  18.848  1.00  0.00    -0.550 OA
ATOM      4  O   UNL     1       4.249 -38.252  20.140  1.00  0.00    -0.550 OA
ENDBRANCH   1   2
BRANCH   1   5
ATOM      5  C   UNL     1       2.858 -37.869  16.824  1.00  0.00     0.003 C 
ATOM      6  C   UNL     1       1.733 -37.156  16.081  1.00  0.00     0.004 C 
ENDBRANCH   1   5
TORSDOF 2
ENDMDL
MODEL 4
REMARK VINA RESULT:    -3.046      2.307      3.315
REMARK INTER + INTRA:          -3.439
REMARK INTER:                  -3.403
REMARK INTRA:                  -0.036
REMARK UNBOUND:                -0.038
REMARK SMILES CCCC(=O)[O-]
REMARK SMILES IDX 3 1 4 2 5 3 6 4 2 5 1 6
REMARK H PARENT
REMARK Flexibility Score: inf
ROOT
ATOM      1  C   UNL     1       2.852 -36.949  16.732  1.00  0.00     0.052 C 
ENDROOT
BRANCH   1   2
ATOM      2  C   UNL     1       2.800 -37.643  15.408  1.00  0.00     0.041 C 
ATOM      3  O   UNL     1       3.471 -38.692  15.216  1.00  0.00    -0.550 OA
ATOM      4  O   UNL     1       2.050 -37.107  14.370  1.00  0.00    -0.550 OA
ENDBRANCH   1   2
BRANCH   1   5
ATOM      5  C   UNL     1       3.143 -37.953  17.852  1.00  0.00     0.003 C 
ATOM      6  C   UNL     1       1.871 -38.314  18.611  1.00  0.00     0.004 C 
ENDBRANCH   1   5
TORSDOF 2
ENDMDL
MODEL 5
REMARK VINA RESULT:    -3.021      7.338      7.953
REMARK INTER + INTRA:          -3.412
REMARK INTER:                  -3.399
REMARK INTRA:                  -0.012
REMARK UNBOUND:                -0.038
REMARK SMILES CCCC(=O)[O-]
REMARK SMILES IDX 3 1 4 2 5 3 6 4 2 5 1 6
REMARK H PARENT
REMARK Flexibility Score: inf
ROOT
ATOM      1  C   UNL     1       5.612 -37.148  23.650  1.00  0.00     0.052 C 
ENDROOT
BRANCH   1   2
ATOM      2  C   UNL     1       5.035 -38.319  24.379  1.00  0.00     0.041 C 
ATOM      3  O   UNL     1       4.960 -39.443  23.814  1.00  0.00    -0.550 OA
ATOM      4  O   UNL     1       4.536 -38.162  25.666  1.00  0.00    -0.550 OA
ENDBRANCH   1   2
BRANCH   1   5
ATOM      5  C   UNL     1       5.984 -36.035  24.634  1.00  0.00     0.003 C 
ATOM      6  C   UNL     1       6.118 -34.693  23.923  1.00  0.00     0.004 C 
ENDBRANCH   1   5
TORSDOF 2
ENDMDL
MODEL 6
REMARK VINA RESULT:    -3.002      2.354      3.674
REMARK INTER + INTRA:          -3.391
REMARK INTER:                  -3.355
REMARK INTRA:                  -0.036
REMARK UNBOUND:                -0.038
REMARK SMILES CCCC(=O)[O-]
REMARK SMILES IDX 3 1 4 2 5 3 6 4 2 5 1 6
REMARK H PARENT
REMARK Flexibility Score: inf
ROOT
ATOM      1  C   UNL     1       3.870 -37.244  19.380  1.00  0.00     0.052 C 
ENDROOT
BRANCH   1   2
ATOM      2  C   UNL     1       2.891 -37.976  18.519  1.00  0.00     0.041 C 
ATOM      3  O   UNL     1       3.087 -38.076  17.279  1.00  0.00    -0.550 OA
ATOM      4  O   UNL     1       1.735 -38.507  19.077  1.00  0.00    -0.550 OA
ENDBRANCH   1   2
BRANCH   1   5
ATOM      5  C   UNL     1       4.953 -38.199  19.891  1.00  0.00     0.003 C 
ATOM      6  C   UNL     1       4.748 -38.524  21.367  1.00  0.00     0.004 C 
ENDBRANCH   1   5
TORSDOF 2
ENDMDL
MODEL 7
REMARK VINA RESULT:    -2.966      2.950      3.755
REMARK INTER + INTRA:          -3.351
REMARK INTER:                  -3.324
REMARK INTRA:                  -0.027
REMARK UNBOUND:                -0.038
REMARK SMILES CCCC(=O)[O-]
REMARK SMILES IDX 3 1 4 2 5 3 6 4 2 5 1 6
REMARK H PARENT
REMARK Flexibility Score: inf
ROOT
ATOM      1  C   UNL     1       4.159 -37.892  19.630  1.00  0.00     0.052 C 
ENDROOT
BRANCH   1   2
ATOM      2  C   UNL     1       4.889 -36.592  19.744  1.00  0.00     0.041 C 
ATOM      3  O   UNL     1       4.722 -35.693  18.879  1.00  0.00    -0.550 OA
ATOM      4  O   UNL     1       5.792 -36.390  20.780  1.00  0.00    -0.550 OA
ENDBRANCH   1   2
BRANCH   1   5
ATOM      5  C   UNL     1       3.257 -37.893  18.392  1.00  0.00     0.003 C 
ATOM      6  C   UNL     1       1.841 -38.337  18.744  1.00  0.00     0.004 C 
ENDBRANCH   1   5
TORSDOF 2
ENDMDL
MODEL 8
REMARK VINA RESULT:    -2.921      6.398      7.133
REMARK INTER + INTRA:          -3.301
REMARK INTER:                  -3.290
REMARK INTRA:                  -0.011
REMARK UNBOUND:                -0.038
REMARK SMILES CCCC(=O)[O-]
REMARK SMILES IDX 3 1 4 2 5 3 6 4 2 5 1 6
REMARK H PARENT
REMARK Flexibility Score: inf
ROOT
ATOM      1  C   UNL     1       5.039 -37.719  23.299  1.00  0.00     0.052 C 
ENDROOT
BRANCH   1   2
ATOM      2  C   UNL     1       5.250 -37.433  24.752  1.00  0.00     0.041 C 
ATOM      3  O   UNL     1       6.111 -36.588  25.113  1.00  0.00    -0.550 OA
ATOM      4  O   UNL     1       4.530 -38.134  25.711  1.00  0.00    -0.550 OA
ENDBRANCH   1   2
BRANCH   1   5
ATOM      5  C   UNL     1       5.516 -36.540  22.446  1.00  0.00     0.003 C 
ATOM      6  C   UNL     1       5.246 -36.788  20.965  1.00  0.00     0.004 C 
ENDBRANCH   1   5
TORSDOF 2
ENDMDL
MODEL 9
REMARK VINA RESULT:    -2.903      4.696      5.935
REMARK INTER + INTRA:          -3.280
REMARK INTER:                  -3.272
REMARK INTRA:                  -0.008
REMARK UNBOUND:                -0.038
REMARK SMILES CCCC(=O)[O-]
REMARK SMILES IDX 3 1 4 2 5 3 6 4 2 5 1 6
REMARK H PARENT
REMARK Flexibility Score: inf
ROOT
ATOM      1  C   UNL     1       5.743 -36.346  21.393  1.00  0.00     0.052 C 
ENDROOT
BRANCH   1   2
ATOM      2  C   UNL     1       4.855 -37.067  20.430  1.00  0.00     0.041 C 
ATOM      3  O   UNL     1       3.828 -36.501  19.970  1.00  0.00    -0.550 OA
ATOM      4  O   UNL     1       5.133 -38.381  20.076  1.00  0.00    -0.550 OA
ENDBRANCH   1   2
BRANCH   1   5
ATOM      5  C   UNL     1       5.029 -36.146  22.733  1.00  0.00     0.003 C 
ATOM      6  C   UNL     1       5.754 -35.117  23.595  1.00  0.00     0.004 C 
ENDBRANCH   1   5
TORSDOF 2
ENDMDL
