MODEL 1
REMARK VINA RESULT:    -1.826      0.000      0.000
REMARK INTER + INTRA:          -2.497
REMARK INTER:                  -2.253
REMARK INTRA:                  -0.244
REMARK UNBOUND:                -0.244
REMARK SMILES CCCCCC(C)=O
REMARK SMILES IDX 4 1 3 2 2 3 1 4 5 5 6 6 8 7 7 8
REMARK H PARENT
REMARK Flexibility Score: inf
ROOT
ATOM      1  C   UNL     1     126.111 110.006 134.304  1.00  0.00     0.008 C 
ENDROOT
BRANCH   1   2
ATOM      2  C   UNL     1     127.125 109.295 133.383  1.00  0.00     0.000 C 
BRANCH   2   3
ATOM      3  C   UNL     1     127.042 107.760 133.445  1.00  0.00    -0.003 C 
ATOM      4  C   UNL     1     126.392 107.247 134.727  1.00  0.00     0.004 C 
ENDBRANCH   2   3
ENDBRANCH   1   2
BRANCH   1   5
ATOM      5  C   UNL     1     126.742 111.176 135.070  1.00  0.00     0.075 C 
BRANCH   5   6
ATOM      6  C   UNL     1     126.152 111.289 136.451  1.00  0.00     0.129 C 
ATOM      7  O   UNL     1     125.780 112.378 136.859  1.00  0.00    -0.300 OA
ATOM      8  C   UNL     1     126.004 110.087 137.337  1.00  0.00     0.087 C 
ENDBRANCH   5   6
ENDBRANCH   1   5
TORSDOF 4
ENDMDL
MODEL 2
REMARK VINA RESULT:    -1.768      1.999      2.697
REMARK INTER + INTRA:          -2.426
REMARK INTER:                  -2.159
REMARK INTRA:                  -0.267
REMARK UNBOUND:                -0.244
REMARK SMILES CCCCCC(C)=O
REMARK SMILES IDX 4 1 3 2 2 3 1 4 5 5 6 6 8 7 7 8
REMARK H PARENT
REMARK Flexibility Score: inf
ROOT
ATOM      1  C   UNL     1     125.466 109.829 135.727  1.00  0.00     0.008 C 
ENDROOT
BRANCH   1   2
ATOM      2  C   UNL     1     126.460 110.686 134.914  1.00  0.00     0.000 C 
BRANCH   2   3
ATOM      3  C   UNL     1     127.125 109.925 133.755  1.00  0.00    -0.003 C 
ATOM      4  C   UNL     1     126.758 108.443 133.724  1.00  0.00     0.004 C 
ENDBRANCH   2   3
ENDBRANCH   1   2
BRANCH   1   5
ATOM      5  C   UNL     1     125.706 109.937 137.239  1.00  0.00     0.075 C 
BRANCH   5   6
ATOM      6  C   UNL     1     126.105 108.604 137.811  1.00  0.00     0.129 C 
ATOM      7  O   UNL     1     126.675 108.559 138.891  1.00  0.00    -0.300 OA
ATOM      8  C   UNL     1     125.810 107.323 137.087  1.00  0.00     0.087 C 
ENDBRANCH   5   6
ENDBRANCH   1   5
TORSDOF 4
ENDMDL
MODEL 3
REMARK VINA RESULT:    -1.692      2.303      3.972
REMARK INTER + INTRA:          -2.332
REMARK INTER:                  -2.065
REMARK INTRA:                  -0.266
REMARK UNBOUND:                -0.244
REMARK SMILES CCCCCC(C)=O
REMARK SMILES IDX 4 1 3 2 2 3 1 4 5 5 6 6 8 7 7 8
REMARK H PARENT
REMARK Flexibility Score: inf
ROOT
ATOM      1  C   UNL     1     125.818 110.422 135.238  1.00  0.00     0.008 C 
ENDROOT
BRANCH   1   2
ATOM      2  C   UNL     1     126.435 111.646 135.948  1.00  0.00     0.000 C 
BRANCH   2   3
ATOM      3  C   UNL     1     126.760 111.398 137.431  1.00  0.00    -0.003 C 
ATOM      4  C   UNL     1     126.038 110.182 138.007  1.00  0.00     0.004 C 
ENDBRANCH   2   3
ENDBRANCH   1   2
BRANCH   1   5
ATOM      5  C   UNL     1     126.776 109.799 134.214  1.00  0.00     0.075 C 
BRANCH   5   6
ATOM      6  C   UNL     1     126.669 108.298 134.229  1.00  0.00     0.129 C 
ATOM      7  O   UNL     1     127.125 107.653 133.297  1.00  0.00    -0.300 OA
ATOM      8  C   UNL     1     126.019 107.572 135.370  1.00  0.00     0.087 C 
ENDBRANCH   5   6
ENDBRANCH   1   5
TORSDOF 4
ENDMDL
MODEL 4
REMARK VINA RESULT:    -1.665      1.817      2.867
REMARK INTER + INTRA:          -2.299
REMARK INTER:                  -2.129
REMARK INTRA:                  -0.170
REMARK UNBOUND:                -0.244
REMARK SMILES CCCCCC(C)=O
REMARK SMILES IDX 4 1 3 2 2 3 1 4 5 5 6 6 8 7 7 8
REMARK H PARENT
REMARK Flexibility Score: inf
ROOT
ATOM      1  C   UNL     1     125.651 108.082 135.095  1.00  0.00     0.008 C 
ENDROOT
BRANCH   1   2
ATOM      2  C   UNL     1     126.720 107.979 133.986  1.00  0.00     0.000 C 
BRANCH   2   3
ATOM      3  C   UNL     1     127.125 109.340 133.395  1.00  0.00    -0.003 C 
ATOM      4  C   UNL     1     126.408 110.516 134.053  1.00  0.00     0.004 C 
ENDBRANCH   2   3
ENDBRANCH   1   2
BRANCH   1   5
ATOM      5  C   UNL     1     126.071 107.350 136.377  1.00  0.00     0.075 C 
BRANCH   5   6
ATOM      6  C   UNL     1     125.890 108.237 137.580  1.00  0.00     0.129 C 
ATOM      7  O   UNL     1     125.284 109.291 137.464  1.00  0.00    -0.300 OA
ATOM      8  C   UNL     1     126.431 107.850 138.925  1.00  0.00     0.087 C 
ENDBRANCH   5   6
ENDBRANCH   1   5
TORSDOF 4
ENDMDL
MODEL 5
REMARK VINA RESULT:    -1.615      1.671      4.202
REMARK INTER + INTRA:          -2.236
REMARK INTER:                  -2.035
REMARK INTRA:                  -0.202
REMARK UNBOUND:                -0.244
REMARK SMILES CCCCCC(C)=O
REMARK SMILES IDX 4 1 3 2 2 3 1 4 5 5 6 6 8 7 7 8
REMARK H PARENT
REMARK Flexibility Score: inf
ROOT
ATOM      1  C   UNL     1     125.326 108.937 136.874  1.00  0.00     0.008 C 
ENDROOT
BRANCH   1   2
ATOM      2  C   UNL     1     126.137 108.778 138.178  1.00  0.00     0.000 C 
BRANCH   2   3
ATOM      3  C   UNL     1     126.267 110.082 138.984  1.00  0.00    -0.003 C 
ATOM      4  C   UNL     1     127.003 111.184 138.226  1.00  0.00     0.004 C 
ENDBRANCH   2   3
ENDBRANCH   1   2
BRANCH   1   5
ATOM      5  C   UNL     1     125.991 108.229 135.686  1.00  0.00     0.075 C 
BRANCH   5   6
ATOM      6  C   UNL     1     126.418 109.227 134.643  1.00  0.00     0.129 C 
ATOM      7  O   UNL     1     126.193 110.414 134.819  1.00  0.00    -0.300 OA
ATOM      8  C   UNL     1     127.124 108.794 133.391  1.00  0.00     0.087 C 
ENDBRANCH   5   6
ENDBRANCH   1   5
TORSDOF 4
ENDMDL
MODEL 6
REMARK VINA RESULT:    -1.599      1.701      4.007
REMARK INTER + INTRA:          -2.217
REMARK INTER:                  -2.055
REMARK INTRA:                  -0.163
REMARK UNBOUND:                -0.244
REMARK SMILES CCCCCC(C)=O
REMARK SMILES IDX 4 1 3 2 2 3 1 4 5 5 6 6 8 7 7 8
REMARK H PARENT
REMARK Flexibility Score: inf
ROOT
ATOM      1  C   UNL     1     125.935 111.700 136.211  1.00  0.00     0.008 C 
ENDROOT
BRANCH   1   2
ATOM      2  C   UNL     1     127.114 112.090 137.128  1.00  0.00     0.000 C 
BRANCH   2   3
ATOM      3  C   UNL     1     126.969 111.573 138.570  1.00  0.00    -0.003 C 
ATOM      4  C   UNL     1     126.385 110.164 138.645  1.00  0.00     0.004 C 
ENDBRANCH   2   3
ENDBRANCH   1   2
BRANCH   1   5
ATOM      5  C   UNL     1     126.398 111.317 134.799  1.00  0.00     0.075 C 
BRANCH   5   6
ATOM      6  C   UNL     1     126.466 109.820 134.649  1.00  0.00     0.129 C 
ATOM      7  O   UNL     1     125.969 109.107 135.507  1.00  0.00    -0.300 OA
ATOM      8  C   UNL     1     127.125 109.184 133.460  1.00  0.00     0.087 C 
ENDBRANCH   5   6
ENDBRANCH   1   5
TORSDOF 4
ENDMDL
MODEL 7
REMARK VINA RESULT:    -1.587      2.358      4.441
REMARK INTER + INTRA:          -2.203
REMARK INTER:                  -1.934
REMARK INTRA:                  -0.269
REMARK UNBOUND:                -0.244
REMARK SMILES CCCCCC(C)=O
REMARK SMILES IDX 4 1 3 2 2 3 1 4 5 5 6 6 8 7 7 8
REMARK H PARENT
REMARK Flexibility Score: inf
ROOT
ATOM      1  C   UNL     1     125.479 109.816 136.716  1.00  0.00     0.008 C 
ENDROOT
BRANCH   1   2
ATOM      2  C   UNL     1     126.154 110.299 138.017  1.00  0.00     0.000 C 
BRANCH   2   3
ATOM      3  C   UNL     1     127.101 111.493 137.812  1.00  0.00    -0.003 C 
ATOM      4  C   UNL     1     126.965 112.137 136.435  1.00  0.00     0.004 C 
ENDBRANCH   2   3
ENDBRANCH   1   2
BRANCH   1   5
ATOM      5  C   UNL     1     125.813 108.353 136.396  1.00  0.00     0.075 C 
BRANCH   5   6
ATOM      6  C   UNL     1     126.042 108.169 134.919  1.00  0.00     0.129 C 
ATOM      7  O   UNL     1     125.622 107.164 134.366  1.00  0.00    -0.300 OA
ATOM      8  C   UNL     1     126.770 109.200 134.107  1.00  0.00     0.087 C 
ENDBRANCH   5   6
ENDBRANCH   1   5
TORSDOF 4
ENDMDL
MODEL 8
REMARK VINA RESULT:    -1.547      1.391      2.096
REMARK INTER + INTRA:          -2.153
REMARK INTER:                  -1.948
REMARK INTRA:                  -0.205
REMARK UNBOUND:                -0.244
REMARK SMILES CCCCCC(C)=O
REMARK SMILES IDX 4 1 3 2 2 3 1 4 5 5 6 6 8 7 7 8
REMARK H PARENT
REMARK Flexibility Score: inf
ROOT
ATOM      1  C   UNL     1     125.935 110.312 136.473  1.00  0.00     0.008 C 
ENDROOT
BRANCH   1   2
ATOM      2  C   UNL     1     126.029 109.157 135.453  1.00  0.00     0.000 C 
BRANCH   2   3
ATOM      3  C   UNL     1     126.759 109.541 134.155  1.00  0.00    -0.003 C 
ATOM      4  C   UNL     1     127.121 108.335 133.292  1.00  0.00     0.004 C 
ENDBRANCH   2   3
ENDBRANCH   1   2
BRANCH   1   5
ATOM      5  C   UNL     1     126.665 111.573 135.993  1.00  0.00     0.075 C 
BRANCH   5   6
ATOM      6  C   UNL     1     125.772 112.780 136.100  1.00  0.00     0.129 C 
ATOM      7  O   UNL     1     126.256 113.897 136.007  1.00  0.00    -0.300 OA
ATOM      8  C   UNL     1     124.292 112.640 136.310  1.00  0.00     0.087 C 
ENDBRANCH   5   6
ENDBRANCH   1   5
TORSDOF 4
ENDMDL
MODEL 9
REMARK VINA RESULT:     0.808      2.452      4.065
REMARK INTER + INTRA:           0.752
REMARK INTER:                   0.955
REMARK INTRA:                  -0.202
REMARK UNBOUND:                -0.244
REMARK SMILES CCCCCC(C)=O
REMARK SMILES IDX 4 1 3 2 2 3 1 4 5 5 6 6 8 7 7 8
REMARK H PARENT
REMARK Flexibility Score: inf
ROOT
ATOM      1  C   UNL     1     126.160 111.032 134.552  1.00  0.00     0.008 C 
ENDROOT
BRANCH   1   2
ATOM      2  C   UNL     1     126.841 112.395 134.303  1.00  0.00     0.000 C 
BRANCH   2   3
ATOM      3  C   UNL     1     127.125 113.185 135.592  1.00  0.00    -0.003 C 
ATOM      4  C   UNL     1     127.077 112.318 136.848  1.00  0.00     0.004 C 
ENDBRANCH   2   3
ENDBRANCH   1   2
BRANCH   1   5
ATOM      5  C   UNL     1     126.698 109.935 133.623  1.00  0.00     0.075 C 
BRANCH   5   6
ATOM      6  C   UNL     1     126.613 108.586 134.286  1.00  0.00     0.129 C 
ATOM      7  O   UNL     1     127.086 107.610 133.726  1.00  0.00    -0.300 OA
ATOM      8  C   UNL     1     125.963 108.415 135.628  1.00  0.00     0.087 C 
ENDBRANCH   5   6
ENDBRANCH   1   5
TORSDOF 4
ENDMDL
