MODEL 1
REMARK VINA RESULT:    -5.354      0.000      0.000
REMARK INTER + INTRA:          -5.354
REMARK INTER:                  -5.354
REMARK INTRA:                   0.000
REMARK UNBOUND:                 0.000
REMARK SMILES CC1=CC[C@@]2(C)CCCC(C)(C)[C@]23C[C@H]13
REMARK SMILES IDX 1 1 2 2 3 3 4 4 5 5 7 6 8 7 9 8 10 9 13 10 15 11 14 12 11 13
REMARK SMILES IDX 12 14 6 15
REMARK H PARENT
REMARK Flexibility Score: inf
ROOT
ATOM      1  C   UNL     1      32.026  11.688  32.242  1.00  0.00     0.039 C 
ATOM      2  C   UNL     1      31.902  10.353  32.919  1.00  0.00    -0.074 C 
ATOM      3  C   UNL     1      31.796   9.242  32.185  1.00  0.00    -0.027 C 
ATOM      4  C   UNL     1      31.799   7.900  32.840  1.00  0.00     0.034 C 
ATOM      5  C   UNL     1      30.881   7.790  34.101  1.00  0.00    -0.022 C 
ATOM      6  C   UNL     1      31.311   6.448  34.784  1.00  0.00     0.008 C 
ATOM      7  C   UNL     1      30.927   6.341  36.246  1.00  0.00     0.001 C 
ATOM      8  C   UNL     1      31.635   7.444  37.021  1.00  0.00     0.007 C 
ATOM      9  C   UNL     1      31.096   8.848  36.658  1.00  0.00    -0.029 C 
ATOM     10  C   UNL     1      31.052   9.054  35.073  1.00  0.00    -0.012 C 
ATOM     11  C   UNL     1      31.735  10.293  34.416  1.00  0.00     0.022 C 
ATOM     12  C   UNL     1      30.254  10.336  34.722  1.00  0.00     0.017 C 
ATOM     13  C   UNL     1      29.678   8.996  37.283  1.00  0.00     0.012 C 
ATOM     14  C   UNL     1      32.026   9.869  37.363  1.00  0.00     0.012 C 
ATOM     15  C   UNL     1      29.408   7.638  33.639  1.00  0.00     0.012 C 
ENDROOT
TORSDOF 0
ENDMDL
MODEL 2
REMARK VINA RESULT:    -5.053      1.552      3.457
REMARK INTER + INTRA:          -5.053
REMARK INTER:                  -5.053
REMARK INTRA:                   0.000
REMARK UNBOUND:                 0.000
REMARK SMILES CC1=CC[C@@]2(C)CCCC(C)(C)[C@]23C[C@H]13
REMARK SMILES IDX 1 1 2 2 3 3 4 4 5 5 7 6 8 7 9 8 10 9 13 10 15 11 14 12 11 13
REMARK SMILES IDX 12 14 6 15
REMARK H PARENT
REMARK Flexibility Score: inf
ROOT
ATOM      1  C   UNL     1      31.251   6.783  29.932  1.00  0.00     0.039 C 
ATOM      2  C   UNL     1      30.863   7.626  31.114  1.00  0.00    -0.074 C 
ATOM      3  C   UNL     1      30.841   8.957  31.002  1.00  0.00    -0.027 C 
ATOM      4  C   UNL     1      30.338   9.801  32.127  1.00  0.00     0.034 C 
ATOM      5  C   UNL     1      30.881   9.397  33.537  1.00  0.00    -0.022 C 
ATOM      6  C   UNL     1      29.971  10.176  34.546  1.00  0.00     0.008 C 
ATOM      7  C   UNL     1      29.969   9.606  35.950  1.00  0.00     0.001 C 
ATOM      8  C   UNL     1      29.415   8.188  35.903  1.00  0.00     0.007 C 
ATOM      9  C   UNL     1      30.370   7.215  35.173  1.00  0.00    -0.029 C 
ATOM     10  C   UNL     1      30.828   7.811  33.762  1.00  0.00    -0.012 C 
ATOM     11  C   UNL     1      30.661   6.973  32.457  1.00  0.00     0.022 C 
ATOM     12  C   UNL     1      31.991   6.968  33.178  1.00  0.00     0.017 C 
ATOM     13  C   UNL     1      31.595   6.957  36.098  1.00  0.00     0.012 C 
ATOM     14  C   UNL     1      29.603   5.875  35.031  1.00  0.00     0.012 C 
ATOM     15  C   UNL     1      32.328   9.934  33.690  1.00  0.00     0.012 C 
ENDROOT
TORSDOF 0
ENDMDL
MODEL 3
REMARK VINA RESULT:    -4.739      6.299      9.469
REMARK INTER + INTRA:          -4.739
REMARK INTER:                  -4.739
REMARK INTRA:                   0.000
REMARK UNBOUND:                 0.000
REMARK SMILES CC1=CC[C@@]2(C)CCCC(C)(C)[C@]23C[C@H]13
REMARK SMILES IDX 1 1 2 2 3 3 4 4 5 5 7 6 8 7 9 8 10 9 13 10 15 11 14 12 11 13
REMARK SMILES IDX 12 14 6 15
REMARK H PARENT
REMARK Flexibility Score: inf
ROOT
ATOM      1  C   UNL     1      30.087   7.126  29.301  1.00  0.00     0.039 C 
ATOM      2  C   UNL     1      30.000   8.482  28.659  1.00  0.00    -0.074 C 
ATOM      3  C   UNL     1      29.634   9.540  29.387  1.00  0.00    -0.027 C 
ATOM      4  C   UNL     1      29.665  10.912  28.796  1.00  0.00     0.034 C 
ATOM      5  C   UNL     1      29.047  11.016  27.363  1.00  0.00    -0.022 C 
ATOM      6  C   UNL     1      29.499  12.422  26.843  1.00  0.00     0.008 C 
ATOM      7  C   UNL     1      29.443  12.576  25.336  1.00  0.00     0.001 C 
ATOM      8  C   UNL     1      30.402  11.574  24.706  1.00  0.00     0.007 C 
ATOM      9  C   UNL     1      29.921  10.115  24.888  1.00  0.00    -0.029 C 
ATOM     10  C   UNL     1      29.542   9.823  26.414  1.00  0.00    -0.012 C 
ATOM     11  C   UNL     1      30.168   8.609  27.166  1.00  0.00     0.022 C 
ATOM     12  C   UNL     1      28.803   8.465  26.530  1.00  0.00     0.017 C 
ATOM     13  C   UNL     1      28.698   9.890  23.952  1.00  0.00     0.012 C 
ATOM     14  C   UNL     1      31.072   9.210  24.379  1.00  0.00     0.012 C 
ATOM     15  C   UNL     1      27.500  11.027  27.483  1.00  0.00     0.012 C 
ENDROOT
TORSDOF 0
ENDMDL
MODEL 4
REMARK VINA RESULT:    -4.556      1.375      4.352
REMARK INTER + INTRA:          -4.556
REMARK INTER:                  -4.556
REMARK INTRA:                   0.000
REMARK UNBOUND:                 0.000
REMARK SMILES CC1=CC[C@@]2(C)CCCC(C)(C)[C@]23C[C@H]13
REMARK SMILES IDX 1 1 2 2 3 3 4 4 5 5 7 6 8 7 9 8 10 9 13 10 15 11 14 12 11 13
REMARK SMILES IDX 12 14 6 15
REMARK H PARENT
REMARK Flexibility Score: inf
ROOT
ATOM      1  C   UNL     1      30.511   9.470  39.925  1.00  0.00     0.039 C 
ATOM      2  C   UNL     1      30.273   8.667  38.678  1.00  0.00    -0.074 C 
ATOM      3  C   UNL     1      30.090   7.347  38.762  1.00  0.00    -0.027 C 
ATOM      4  C   UNL     1      29.727   6.555  37.547  1.00  0.00     0.034 C 
ATOM      5  C   UNL     1      30.572   6.893  36.276  1.00  0.00    -0.022 C 
ATOM      6  C   UNL     1      29.797   6.211  35.098  1.00  0.00     0.008 C 
ATOM      7  C   UNL     1      30.126   6.771  33.729  1.00  0.00     0.001 C 
ATOM      8  C   UNL     1      29.726   8.239  33.691  1.00  0.00     0.007 C 
ATOM      9  C   UNL     1      30.619   9.110  34.606  1.00  0.00    -0.029 C 
ATOM     10  C   UNL     1      30.730   8.475  36.070  1.00  0.00    -0.012 C 
ATOM     11  C   UNL     1      30.403   9.332  37.331  1.00  0.00     0.022 C 
ATOM     12  C   UNL     1      31.840   9.192  36.880  1.00  0.00     0.017 C 
ATOM     13  C   UNL     1      32.020   9.232  33.939  1.00  0.00     0.012 C 
ATOM     14  C   UNL     1      29.983  10.524  34.620  1.00  0.00     0.012 C 
ATOM     15  C   UNL     1      31.957   6.205  36.395  1.00  0.00     0.012 C 
ENDROOT
TORSDOF 0
ENDMDL
MODEL 5
REMARK VINA RESULT:    -4.504      1.421      3.697
REMARK INTER + INTRA:          -4.504
REMARK INTER:                  -4.504
REMARK INTRA:                   0.000
REMARK UNBOUND:                 0.000
REMARK SMILES CC1=CC[C@@]2(C)CCCC(C)(C)[C@]23C[C@H]13
REMARK SMILES IDX 1 1 2 2 3 3 4 4 5 5 7 6 8 7 9 8 10 9 13 10 15 11 14 12 11 13
REMARK SMILES IDX 12 14 6 15
REMARK H PARENT
REMARK Flexibility Score: inf
ROOT
ATOM      1  C   UNL     1      31.963   6.991  32.982  1.00  0.00     0.039 C 
ATOM      2  C   UNL     1      31.304   7.856  34.019  1.00  0.00    -0.074 C 
ATOM      3  C   UNL     1      31.553   9.168  34.047  1.00  0.00    -0.027 C 
ATOM      4  C   UNL     1      30.811  10.059  34.988  1.00  0.00     0.034 C 
ATOM      5  C   UNL     1      30.698   9.511  36.449  1.00  0.00    -0.022 C 
ATOM      6  C   UNL     1      29.619  10.421  37.126  1.00  0.00     0.008 C 
ATOM      7  C   UNL     1      28.984   9.819  38.364  1.00  0.00     0.001 C 
ATOM      8  C   UNL     1      28.257   8.541  37.969  1.00  0.00     0.007 C 
ATOM      9  C   UNL     1      29.236   7.421  37.545  1.00  0.00    -0.029 C 
ATOM     10  C   UNL     1      30.293   7.960  36.472  1.00  0.00    -0.012 C 
ATOM     11  C   UNL     1      30.496   7.213  35.118  1.00  0.00     0.022 C 
ATOM     12  C   UNL     1      31.428   6.923  36.273  1.00  0.00     0.017 C 
ATOM     13  C   UNL     1      29.952   6.897  38.824  1.00  0.00     0.012 C 
ATOM     14  C   UNL     1      28.365   6.265  36.991  1.00  0.00     0.012 C 
ATOM     15  C   UNL     1      32.045   9.746  37.180  1.00  0.00     0.012 C 
ENDROOT
TORSDOF 0
ENDMDL
MODEL 6
REMARK VINA RESULT:    -4.460      1.528      3.916
REMARK INTER + INTRA:          -4.460
REMARK INTER:                  -4.460
REMARK INTRA:                   0.000
REMARK UNBOUND:                 0.000
REMARK SMILES CC1=CC[C@@]2(C)CCCC(C)(C)[C@]23C[C@H]13
REMARK SMILES IDX 1 1 2 2 3 3 4 4 5 5 7 6 8 7 9 8 10 9 13 10 15 11 14 12 11 13
REMARK SMILES IDX 12 14 6 15
REMARK H PARENT
REMARK Flexibility Score: inf
ROOT
ATOM      1  C   UNL     1      27.281  11.181  35.772  1.00  0.00     0.039 C 
ATOM      2  C   UNL     1      28.135  10.016  35.359  1.00  0.00    -0.074 C 
ATOM      3  C   UNL     1      28.125   8.894  36.083  1.00  0.00    -0.027 C 
ATOM      4  C   UNL     1      28.870   7.686  35.616  1.00  0.00     0.034 C 
ATOM      5  C   UNL     1      30.320   7.973  35.106  1.00  0.00    -0.022 C 
ATOM      6  C   UNL     1      30.746   6.656  34.374  1.00  0.00     0.008 C 
ATOM      7  C   UNL     1      31.891   6.830  33.396  1.00  0.00     0.001 C 
ATOM      8  C   UNL     1      31.456   7.790  32.297  1.00  0.00     0.007 C 
ATOM      9  C   UNL     1      31.275   9.233  32.825  1.00  0.00    -0.029 C 
ATOM     10  C   UNL     1      30.368   9.253  34.141  1.00  0.00    -0.012 C 
ATOM     11  C   UNL     1      29.116  10.180  34.226  1.00  0.00     0.022 C 
ATOM     12  C   UNL     1      30.429  10.650  34.812  1.00  0.00     0.017 C 
ATOM     13  C   UNL     1      32.687   9.824  33.107  1.00  0.00     0.012 C 
ATOM     14  C   UNL     1      30.652  10.048  31.662  1.00  0.00     0.012 C 
ATOM     15  C   UNL     1      31.255   8.162  36.329  1.00  0.00     0.012 C 
ENDROOT
TORSDOF 0
ENDMDL
MODEL 7
REMARK VINA RESULT:    -4.460      8.777     11.228
REMARK INTER + INTRA:          -4.460
REMARK INTER:                  -4.460
REMARK INTRA:                   0.000
REMARK UNBOUND:                 0.000
REMARK SMILES CC1=CC[C@@]2(C)CCCC(C)(C)[C@]23C[C@H]13
REMARK SMILES IDX 1 1 2 2 3 3 4 4 5 5 7 6 8 7 9 8 10 9 13 10 15 11 14 12 11 13
REMARK SMILES IDX 12 14 6 15
REMARK H PARENT
REMARK Flexibility Score: inf
ROOT
ATOM      1  C   UNL     1      29.787   7.250  20.461  1.00  0.00     0.039 C 
ATOM      2  C   UNL     1      29.347   8.012  21.680  1.00  0.00    -0.074 C 
ATOM      3  C   UNL     1      28.916   9.270  21.557  1.00  0.00    -0.027 C 
ATOM      4  C   UNL     1      28.358   9.997  22.737  1.00  0.00     0.034 C 
ATOM      5  C   UNL     1      29.200   9.851  24.047  1.00  0.00    -0.022 C 
ATOM      6  C   UNL     1      28.260  10.389  25.178  1.00  0.00     0.008 C 
ATOM      7  C   UNL     1      28.635   9.927  26.572  1.00  0.00     0.001 C 
ATOM      8  C   UNL     1      28.525   8.409  26.631  1.00  0.00     0.007 C 
ATOM      9  C   UNL     1      29.605   7.713  25.771  1.00  0.00    -0.029 C 
ATOM     10  C   UNL     1      29.652   8.333  24.297  1.00  0.00    -0.012 C 
ATOM     11  C   UNL     1      29.549   7.408  23.046  1.00  0.00     0.022 C 
ATOM     12  C   UNL     1      30.912   7.831  23.546  1.00  0.00     0.017 C 
ATOM     13  C   UNL     1      30.975   7.876  26.492  1.00  0.00     0.012 C 
ATOM     14  C   UNL     1      29.256   6.203  25.768  1.00  0.00     0.012 C 
ATOM     15  C   UNL     1      30.430  10.792  23.962  1.00  0.00     0.012 C 
ENDROOT
TORSDOF 0
ENDMDL
MODEL 8
REMARK VINA RESULT:    -4.386      8.928     11.323
REMARK INTER + INTRA:          -4.386
REMARK INTER:                  -4.386
REMARK INTRA:                   0.000
REMARK UNBOUND:                 0.000
REMARK SMILES CC1=CC[C@@]2(C)CCCC(C)(C)[C@]23C[C@H]13
REMARK SMILES IDX 1 1 2 2 3 3 4 4 5 5 7 6 8 7 9 8 10 9 13 10 15 11 14 12 11 13
REMARK SMILES IDX 12 14 6 15
REMARK H PARENT
REMARK Flexibility Score: inf
ROOT
ATOM      1  C   UNL     1      30.483   5.877  26.629  1.00  0.00     0.039 C 
ATOM      2  C   UNL     1      30.052   6.718  25.461  1.00  0.00    -0.074 C 
ATOM      3  C   UNL     1      30.137   6.227  24.222  1.00  0.00    -0.027 C 
ATOM      4  C   UNL     1      29.596   7.001  23.064  1.00  0.00     0.034 C 
ATOM      5  C   UNL     1      29.978   8.517  23.060  1.00  0.00    -0.022 C 
ATOM      6  C   UNL     1      29.038   9.155  21.981  1.00  0.00     0.008 C 
ATOM      7  C   UNL     1      28.867  10.655  22.113  1.00  0.00     0.001 C 
ATOM      8  C   UNL     1      28.218  10.957  23.457  1.00  0.00     0.007 C 
ATOM      9  C   UNL     1      29.162  10.646  24.642  1.00  0.00    -0.029 C 
ATOM     10  C   UNL     1      29.789   9.181  24.506  1.00  0.00    -0.012 C 
ATOM     11  C   UNL     1      29.681   8.162  25.682  1.00  0.00     0.022 C 
ATOM     12  C   UNL     1      30.936   8.993  25.533  1.00  0.00     0.017 C 
ATOM     13  C   UNL     1      30.276  11.733  24.670  1.00  0.00     0.012 C 
ATOM     14  C   UNL     1      28.315  10.812  25.930  1.00  0.00     0.012 C 
ATOM     15  C   UNL     1      31.440   8.666  22.565  1.00  0.00     0.012 C 
ENDROOT
TORSDOF 0
ENDMDL
MODEL 9
REMARK VINA RESULT:    -4.373      8.186     10.272
REMARK INTER + INTRA:          -4.373
REMARK INTER:                  -4.373
REMARK INTRA:                   0.000
REMARK UNBOUND:                 0.000
REMARK SMILES CC1=CC[C@@]2(C)CCCC(C)(C)[C@]23C[C@H]13
REMARK SMILES IDX 1 1 2 2 3 3 4 4 5 5 7 6 8 7 9 8 10 9 13 10 15 11 14 12 11 13
REMARK SMILES IDX 12 14 6 15
REMARK H PARENT
REMARK Flexibility Score: inf
ROOT
ATOM      1  C   UNL     1      32.683  12.268  22.350  1.00  0.00     0.039 C 
ATOM      2  C   UNL     1      31.845  11.334  23.177  1.00  0.00    -0.074 C 
ATOM      3  C   UNL     1      31.556  10.115  22.714  1.00  0.00    -0.027 C 
ATOM      4  C   UNL     1      30.832   9.131  23.575  1.00  0.00     0.034 C 
ATOM      5  C   UNL     1      29.595   9.717  24.332  1.00  0.00    -0.022 C 
ATOM      6  C   UNL     1      29.233   8.626  25.395  1.00  0.00     0.008 C 
ATOM      7  C   UNL     1      28.396   9.136  26.550  1.00  0.00     0.001 C 
ATOM      8  C   UNL     1      29.191  10.195  27.301  1.00  0.00     0.007 C 
ATOM      9  C   UNL     1      29.382  11.482  26.463  1.00  0.00    -0.029 C 
ATOM     10  C   UNL     1      29.925  11.137  24.999  1.00  0.00    -0.012 C 
ATOM     11  C   UNL     1      31.203  11.837  24.445  1.00  0.00     0.022 C 
ATOM     12  C   UNL     1      29.841  12.390  24.089  1.00  0.00     0.017 C 
ATOM     13  C   UNL     1      28.013  12.220  26.395  1.00  0.00     0.012 C 
ATOM     14  C   UNL     1      30.358  12.383  27.262  1.00  0.00     0.012 C 
ATOM     15  C   UNL     1      28.407   9.829  23.341  1.00  0.00     0.012 C 
ENDROOT
TORSDOF 0
ENDMDL
