MODEL 1
REMARK VINA RESULT:     0.859      0.000      0.000
REMARK INTER + INTRA:           0.745
REMARK INTER:                   1.009
REMARK INTRA:                  -0.264
REMARK UNBOUND:                -0.264
REMARK SMILES O=c1cc(-c2ccc(O)c(O)c2)oc2cc(O)cc(O)c12
REMARK SMILES IDX 4 1 3 2 2 3 1 4 21 5 19 6 18 7 16 8 15 9 14 10 13 11 5 12
REMARK SMILES IDX 6 13 7 14 8 15 12 16 10 17 9 18 11 20 20 22 17 24
REMARK H PARENT 9 19 11 21 20 23 17 25
REMARK Flexibility Score: inf
ROOT
ATOM      1  C   UNL     1      75.493  40.731  24.301  1.00  0.00     0.138 A 
ATOM      2  C   UNL     1      76.234  41.765  23.714  1.00  0.00     0.100 A 
ATOM      3  C   UNL     1      75.960  42.153  22.401  1.00  0.00     0.197 A 
ATOM      4  O   UNL     1      76.598  43.125  21.923  1.00  0.00    -0.289 OA
ATOM      5  C   UNL     1      74.958  41.476  21.665  1.00  0.00     0.107 A 
ATOM      6  C   UNL     1      74.620  41.758  20.307  1.00  0.00     0.134 A 
ATOM      7  C   UNL     1      73.532  41.103  19.717  1.00  0.00     0.093 A 
ATOM      8  C   UNL     1      72.808  40.134  20.417  1.00  0.00     0.123 A 
ATOM      9  C   UNL     1      73.165  39.813  21.725  1.00  0.00     0.094 A 
ATOM     10  C   UNL     1      74.223  40.474  22.352  1.00  0.00     0.146 A 
ATOM     11  O   UNL     1      74.521  40.149  23.606  1.00  0.00    -0.456 OA
ENDROOT
BRANCH   1  12
ATOM     12  C   UNL     1      75.745  40.278  25.694  1.00  0.00     0.021 A 
ATOM     13  C   UNL     1      76.217  38.981  25.976  1.00  0.00     0.016 A 
ATOM     14  C   UNL     1      76.435  38.579  27.295  1.00  0.00     0.051 A 
ATOM     15  C   UNL     1      76.180  39.459  28.355  1.00  0.00     0.157 A 
ATOM     16  C   UNL     1      75.478  41.150  26.764  1.00  0.00     0.062 A 
ATOM     17  C   UNL     1      75.698  40.745  28.089  1.00  0.00     0.158 A 
BRANCH  15  18
ATOM     18  O   UNL     1      76.397  39.060  29.673  1.00  0.00    -0.504 OA
ATOM     19  H   UNL     1      77.232  39.332  30.178  1.00  0.00     0.293 HD
ENDBRANCH  15  18
BRANCH  17  20
ATOM     20  O   UNL     1      75.441  41.618  29.145  1.00  0.00    -0.504 OA
ATOM     21  H   UNL     1      76.146  41.831  29.842  1.00  0.00     0.293 HD
ENDBRANCH  17  20
ENDBRANCH   1  12
BRANCH   6  22
ATOM     22  O   UNL     1      75.330  42.645  19.493  1.00  0.00    -0.507 OA
ATOM     23  H   UNL     1      75.809  43.470  19.820  1.00  0.00     0.293 HD
ENDBRANCH   6  22
BRANCH   8  24
ATOM     24  O   UNL     1      71.737  39.476  19.816  1.00  0.00    -0.508 OA
ATOM     25  H   UNL     1      71.799  38.503  19.539  1.00  0.00     0.293 HD
ENDBRANCH   8  24
TORSDOF 5
ENDMDL
MODEL 2
REMARK VINA RESULT:     2.763      1.401      2.724
REMARK INTER + INTRA:           2.983
REMARK INTER:                   3.245
REMARK INTRA:                  -0.262
REMARK UNBOUND:                -0.264
REMARK SMILES O=c1cc(-c2ccc(O)c(O)c2)oc2cc(O)cc(O)c12
REMARK SMILES IDX 4 1 3 2 2 3 1 4 21 5 19 6 18 7 16 8 15 9 14 10 13 11 5 12
REMARK SMILES IDX 6 13 7 14 8 15 12 16 10 17 9 18 11 20 20 22 17 24
REMARK H PARENT 9 19 11 21 20 23 17 25
REMARK Flexibility Score: inf
ROOT
ATOM      1  C   UNL     1      75.275  40.772  23.782  1.00  0.00     0.138 A 
ATOM      2  C   UNL     1      73.952  40.680  23.327  1.00  0.00     0.100 A 
ATOM      3  C   UNL     1      73.629  41.134  22.047  1.00  0.00     0.197 A 
ATOM      4  O   UNL     1      72.448  40.981  21.643  1.00  0.00    -0.289 OA
ATOM      5  C   UNL     1      74.632  41.712  21.232  1.00  0.00     0.107 A 
ATOM      6  C   UNL     1      74.410  42.246  19.927  1.00  0.00     0.134 A 
ATOM      7  C   UNL     1      75.501  42.687  19.168  1.00  0.00     0.093 A 
ATOM      8  C   UNL     1      76.797  42.669  19.690  1.00  0.00     0.123 A 
ATOM      9  C   UNL     1      77.016  42.200  20.984  1.00  0.00     0.094 A 
ATOM     10  C   UNL     1      75.953  41.721  21.752  1.00  0.00     0.146 A 
ATOM     11  O   UNL     1      76.208  41.269  22.976  1.00  0.00    -0.456 OA
ENDROOT
BRANCH   1  12
ATOM     12  C   UNL     1      75.673  40.305  25.135  1.00  0.00     0.021 A 
ATOM     13  C   UNL     1      76.228  39.027  25.342  1.00  0.00     0.016 A 
ATOM     14  C   UNL     1      76.585  38.610  26.627  1.00  0.00     0.051 A 
ATOM     15  C   UNL     1      76.388  39.457  27.725  1.00  0.00     0.157 A 
ATOM     16  C   UNL     1      75.468  41.144  26.245  1.00  0.00     0.062 A 
ATOM     17  C   UNL     1      75.827  40.725  27.534  1.00  0.00     0.158 A 
BRANCH  15  18
ATOM     18  O   UNL     1      76.745  39.044  29.008  1.00  0.00    -0.504 OA
ATOM     19  H   UNL     1      77.455  38.338  29.159  1.00  0.00     0.293 HD
ENDBRANCH  15  18
BRANCH  17  20
ATOM     20  O   UNL     1      75.629  41.564  28.630  1.00  0.00    -0.504 OA
ATOM     21  H   UNL     1      76.402  41.871  29.209  1.00  0.00     0.293 HD
ENDBRANCH  17  20
ENDBRANCH   1  12
BRANCH   6  22
ATOM     22  O   UNL     1      73.147  42.387  19.346  1.00  0.00    -0.507 OA
ATOM     23  H   UNL     1      72.951  42.289  18.361  1.00  0.00     0.293 HD
ENDBRANCH   6  22
BRANCH   8  24
ATOM     24  O   UNL     1      77.874  43.124  18.933  1.00  0.00    -0.508 OA
ATOM     25  H   UNL     1      77.958  42.909  17.946  1.00  0.00     0.293 HD
ENDBRANCH   8  24
TORSDOF 5
ENDMDL
MODEL 3
REMARK VINA RESULT:     3.278      2.652      4.493
REMARK INTER + INTRA:           3.589
REMARK INTER:                   3.862
REMARK INTRA:                  -0.273
REMARK UNBOUND:                -0.264
REMARK SMILES O=c1cc(-c2ccc(O)c(O)c2)oc2cc(O)cc(O)c12
REMARK SMILES IDX 4 1 3 2 2 3 1 4 21 5 19 6 18 7 16 8 15 9 14 10 13 11 5 12
REMARK SMILES IDX 6 13 7 14 8 15 12 16 10 17 9 18 11 20 20 22 17 24
REMARK H PARENT 9 19 11 21 20 23 17 25
REMARK Flexibility Score: inf
ROOT
ATOM      1  C   UNL     1      73.818  40.811  21.701  1.00  0.00     0.138 A 
ATOM      2  C   UNL     1      72.655  41.566  21.498  1.00  0.00     0.100 A 
ATOM      3  C   UNL     1      71.602  41.026  20.758  1.00  0.00     0.197 A 
ATOM      4  O   UNL     1      70.547  41.702  20.645  1.00  0.00    -0.289 OA
ATOM      5  C   UNL     1      71.729  39.734  20.194  1.00  0.00     0.107 A 
ATOM      6  C   UNL     1      70.737  39.099  19.388  1.00  0.00     0.134 A 
ATOM      7  C   UNL     1      70.925  37.772  18.981  1.00  0.00     0.093 A 
ATOM      8  C   UNL     1      72.096  37.079  19.301  1.00  0.00     0.123 A 
ATOM      9  C   UNL     1      73.094  37.709  20.041  1.00  0.00     0.094 A 
ATOM     10  C   UNL     1      72.920  39.020  20.491  1.00  0.00     0.146 A 
ATOM     11  O   UNL     1      73.890  39.579  21.207  1.00  0.00    -0.456 OA
ENDROOT
BRANCH   1  12
ATOM     12  C   UNL     1      74.969  41.337  22.479  1.00  0.00     0.021 A 
ATOM     13  C   UNL     1      75.739  42.422  22.018  1.00  0.00     0.016 A 
ATOM     14  C   UNL     1      76.823  42.891  22.764  1.00  0.00     0.051 A 
ATOM     15  C   UNL     1      77.160  42.280  23.979  1.00  0.00     0.157 A 
ATOM     16  C   UNL     1      75.323  40.722  23.693  1.00  0.00     0.062 A 
ATOM     17  C   UNL     1      76.411  41.194  24.443  1.00  0.00     0.158 A 
BRANCH  15  18
ATOM     18  O   UNL     1      78.241  42.746  24.727  1.00  0.00    -0.504 OA
ATOM     19  H   UNL     1      79.062  42.174  24.885  1.00  0.00     0.293 HD
ENDBRANCH  15  18
BRANCH  17  20
ATOM     20  O   UNL     1      76.752  40.585  25.651  1.00  0.00    -0.504 OA
ATOM     21  H   UNL     1      77.715  40.526  25.962  1.00  0.00     0.293 HD
ENDBRANCH  17  20
ENDBRANCH   1  12
BRANCH   6  22
ATOM     22  O   UNL     1      69.572  39.729  18.943  1.00  0.00    -0.507 OA
ATOM     23  H   UNL     1      69.162  40.548  19.363  1.00  0.00     0.293 HD
ENDBRANCH   6  22
BRANCH   8  24
ATOM     24  O   UNL     1      72.281  35.764  18.878  1.00  0.00    -0.508 OA
ATOM     25  H   UNL     1      72.940  35.147  19.336  1.00  0.00     0.293 HD
ENDBRANCH   8  24
TORSDOF 5
ENDMDL
