MODEL 1
REMARK VINA RESULT:    -4.281      0.000      0.000
REMARK INTER + INTRA:          -8.222
REMARK INTER:                  -6.534
REMARK INTRA:                  -1.689
REMARK UNBOUND:                -1.689
REMARK SMILES OC[C@@H]1O[C@H](O[C@]2(CO)O[C@H](CO)[C@H](O)[C@H]2O)[C@H](O)[C@H](O)[C@H]1O
REMARK SMILES IDX 6 1 5 2 3 3 22 4 4 5 20 6 18 7 2 8 1 9 23 11 21 13 19 15
REMARK SMILES IDX 7 17 16 18 10 19 14 20 11 21 8 22 9 23 17 25 15 27 12 29
REMARK SMILES IDX 13 30
REMARK H PARENT 1 10 23 12 21 14 19 16 9 24 17 26 15 28 13 31
REMARK Flexibility Score: inf
ROOT
ATOM      1  O   UNL     1     142.141 128.979 115.762  1.00  0.00    -0.313 OA
ENDROOT
BRANCH   1   2
ATOM      2  C   UNL     1     142.841 128.700 116.972  1.00  0.00     0.285 C 
ATOM      3  C   UNL     1     144.639 127.139 116.513  1.00  0.00     0.178 C 
ATOM      4  C   UNL     1     145.693 127.961 117.331  1.00  0.00     0.177 C 
ATOM      5  O   UNL     1     143.296 127.343 116.947  1.00  0.00    -0.341 OA
ATOM      6  C   UNL     1     145.036 129.122 118.099  1.00  0.00     0.179 C 
ATOM      7  C   UNL     1     143.950 129.753 117.227  1.00  0.00     0.202 C 
BRANCH   3   8
ATOM      8  C   UNL     1     144.739 127.240 114.971  1.00  0.00     0.191 C 
BRANCH   8   9
ATOM      9  O   UNL     1     145.775 128.100 114.563  1.00  0.00    -0.394 OA
ATOM     10  H   UNL     1     145.766 128.124 113.568  1.00  0.00     0.210 HD
ENDBRANCH   8   9
ENDBRANCH   3   8
BRANCH   4  11
ATOM     11  O   UNL     1     146.355 127.118 118.239  1.00  0.00    -0.387 OA
ATOM     12  H   UNL     1     147.318 127.144 118.003  1.00  0.00     0.211 HD
ENDBRANCH   4  11
BRANCH   6  13
ATOM     13  O   UNL     1     145.987 130.074 118.514  1.00  0.00    -0.387 OA
ATOM     14  H   UNL     1     145.812 130.298 119.466  1.00  0.00     0.211 HD
ENDBRANCH   6  13
BRANCH   7  15
ATOM     15  O   UNL     1     144.508 130.175 116.006  1.00  0.00    -0.385 OA
ATOM     16  H   UNL     1     144.408 129.436 115.354  1.00  0.00     0.211 HD
ENDBRANCH   7  15
ENDBRANCH   1   2
BRANCH   1  17
ATOM     17  C   UNL     1     140.865 129.631 115.883  1.00  0.00     0.224 C 
ATOM     18  C   UNL     1     139.921 129.027 114.819  1.00  0.00     0.208 C 
ATOM     19  O   UNL     1     140.247 129.460 117.157  1.00  0.00    -0.337 OA
ATOM     20  C   UNL     1     138.581 129.023 115.512  1.00  0.00     0.180 C 
ATOM     21  C   UNL     1     138.988 128.840 116.972  1.00  0.00     0.179 C 
BRANCH  17  22
ATOM     22  C   UNL     1     141.055 131.152 115.672  1.00  0.00     0.225 C 
BRANCH  22  23
ATOM     23  O   UNL     1     142.095 131.395 114.768  1.00  0.00    -0.391 OA
ATOM     24  H   UNL     1     142.939 131.243 115.268  1.00  0.00     0.210 HD
ENDBRANCH  22  23
ENDBRANCH  17  22
BRANCH  18  25
ATOM     25  O   UNL     1     139.910 129.707 113.579  1.00  0.00    -0.385 OA
ATOM     26  H   UNL     1     140.047 130.677 113.742  1.00  0.00     0.211 HD
ENDBRANCH  18  25
BRANCH  20  27
ATOM     27  O   UNL     1     137.758 127.988 115.040  1.00  0.00    -0.387 OA
ATOM     28  H   UNL     1     137.090 127.817 115.755  1.00  0.00     0.211 HD
ENDBRANCH  20  27
BRANCH  21  29
ATOM     29  C   UNL     1     139.083 127.364 117.406  1.00  0.00     0.191 C 
BRANCH  29  30
ATOM     30  O   UNL     1     137.811 126.875 117.741  1.00  0.00    -0.394 OA
ATOM     31  H   UNL     1     137.159 127.381 117.193  1.00  0.00     0.210 HD
ENDBRANCH  29  30
ENDBRANCH  21  29
ENDBRANCH   1  17
TORSDOF 13
ENDMDL
MODEL 2
REMARK VINA RESULT:    -4.272      2.411      4.772
REMARK INTER + INTRA:          -8.209
REMARK INTER:                  -6.601
REMARK INTRA:                  -1.608
REMARK UNBOUND:                -1.689
REMARK SMILES OC[C@@H]1O[C@H](O[C@]2(CO)O[C@H](CO)[C@H](O)[C@H]2O)[C@H](O)[C@H](O)[C@H]1O
REMARK SMILES IDX 6 1 5 2 3 3 22 4 4 5 20 6 18 7 2 8 1 9 23 11 21 13 19 15
REMARK SMILES IDX 7 17 16 18 10 19 14 20 11 21 8 22 9 23 17 25 15 27 12 29
REMARK SMILES IDX 13 30
REMARK H PARENT 1 10 23 12 21 14 19 16 9 24 17 26 15 28 13 31
REMARK Flexibility Score: inf
ROOT
ATOM      1  O   UNL     1     143.797 129.556 117.386  1.00  0.00    -0.313 OA
ENDROOT
BRANCH   1   2
ATOM      2  C   UNL     1     144.162 130.712 116.636  1.00  0.00     0.285 C 
ATOM      3  C   UNL     1     143.154 132.672 117.647  1.00  0.00     0.178 C 
ATOM      4  C   UNL     1     144.479 133.508 117.581  1.00  0.00     0.177 C 
ATOM      5  O   UNL     1     143.078 131.646 116.659  1.00  0.00    -0.341 OA
ATOM      6  C   UNL     1     145.575 132.773 116.789  1.00  0.00     0.179 C 
ATOM      7  C   UNL     1     145.522 131.280 117.118  1.00  0.00     0.202 C 
BRANCH   3   8
ATOM      8  C   UNL     1     142.760 132.123 119.040  1.00  0.00     0.191 C 
BRANCH   8   9
ATOM      9  O   UNL     1     143.699 132.466 120.029  1.00  0.00    -0.394 OA
ATOM     10  H   UNL     1     143.815 131.671 120.618  1.00  0.00     0.210 HD
ENDBRANCH   8   9
ENDBRANCH   3   8
BRANCH   4  11
ATOM     11  O   UNL     1     144.228 134.753 116.982  1.00  0.00    -0.387 OA
ATOM     12  H   UNL     1     143.478 135.165 117.484  1.00  0.00     0.211 HD
ENDBRANCH   4  11
BRANCH   6  13
ATOM     13  O   UNL     1     146.850 133.315 117.041  1.00  0.00    -0.387 OA
ATOM     14  H   UNL     1     146.820 134.290 116.854  1.00  0.00     0.211 HD
ENDBRANCH   6  13
BRANCH   7  15
ATOM     15  O   UNL     1     145.658 131.096 118.507  1.00  0.00    -0.385 OA
ATOM     16  H   UNL     1     144.878 130.575 118.823  1.00  0.00     0.211 HD
ENDBRANCH   7  15
ENDBRANCH   1   2
BRANCH   1  17
ATOM     17  C   UNL     1     143.444 128.380 116.638  1.00  0.00     0.224 C 
ATOM     18  C   UNL     1     142.117 127.834 117.211  1.00  0.00     0.208 C 
ATOM     19  O   UNL     1     143.249 128.617 115.246  1.00  0.00    -0.337 OA
ATOM     20  C   UNL     1     141.409 127.300 115.992  1.00  0.00     0.180 C 
ATOM     21  C   UNL     1     141.932 128.230 114.899  1.00  0.00     0.179 C 
BRANCH  17  22
ATOM     22  C   UNL     1     144.583 127.341 116.766  1.00  0.00     0.225 C 
BRANCH  22  23
ATOM     23  O   UNL     1     145.229 127.471 118.001  1.00  0.00    -0.391 OA
ATOM     24  H   UNL     1     145.025 128.387 118.325  1.00  0.00     0.210 HD
ENDBRANCH  22  23
ENDBRANCH  17  22
BRANCH  18  25
ATOM     25  O   UNL     1     142.262 126.875 118.241  1.00  0.00    -0.385 OA
ATOM     26  H   UNL     1     141.723 126.073 118.013  1.00  0.00     0.211 HD
ENDBRANCH  18  25
BRANCH  20  27
ATOM     27  O   UNL     1     140.013 127.357 116.136  1.00  0.00    -0.387 OA
ATOM     28  H   UNL     1     139.639 126.718 115.474  1.00  0.00     0.211 HD
ENDBRANCH  20  27
BRANCH  21  29
ATOM     29  C   UNL     1     141.071 129.492 114.698  1.00  0.00     0.191 C 
BRANCH  29  30
ATOM     30  O   UNL     1     141.815 130.486 114.045  1.00  0.00    -0.394 OA
ATOM     31  H   UNL     1     142.079 130.113 113.166  1.00  0.00     0.210 HD
ENDBRANCH  29  30
ENDBRANCH  21  29
ENDBRANCH   1  17
TORSDOF 13
ENDMDL
MODEL 3
REMARK VINA RESULT:    -4.257     11.109     13.868
REMARK INTER + INTRA:          -8.185
REMARK INTER:                  -7.027
REMARK INTRA:                  -1.158
REMARK UNBOUND:                -1.689
REMARK SMILES OC[C@@H]1O[C@H](O[C@]2(CO)O[C@H](CO)[C@H](O)[C@H]2O)[C@H](O)[C@H](O)[C@H]1O
REMARK SMILES IDX 6 1 5 2 3 3 22 4 4 5 20 6 18 7 2 8 1 9 23 11 21 13 19 15
REMARK SMILES IDX 7 17 16 18 10 19 14 20 11 21 8 22 9 23 17 25 15 27 12 29
REMARK SMILES IDX 13 30
REMARK H PARENT 1 10 23 12 21 14 19 16 9 24 17 26 15 28 13 31
REMARK Flexibility Score: inf
ROOT
ATOM      1  O   UNL     1     129.148 129.399 116.328  1.00  0.00    -0.313 OA
ENDROOT
BRANCH   1   2
ATOM      2  C   UNL     1     129.621 130.706 116.645  1.00  0.00     0.285 C 
ATOM      3  C   UNL     1     129.176 132.193 114.782  1.00  0.00     0.178 C 
ATOM      4  C   UNL     1     128.598 133.326 115.697  1.00  0.00     0.177 C 
ATOM      5  O   UNL     1     130.098 131.334 115.450  1.00  0.00    -0.341 OA
ATOM      6  C   UNL     1     128.791 133.005 117.190  1.00  0.00     0.179 C 
ATOM      7  C   UNL     1     128.547 131.513 117.420  1.00  0.00     0.202 C 
BRANCH   3   8
ATOM      8  C   UNL     1     128.140 131.367 113.979  1.00  0.00     0.191 C 
BRANCH   8   9
ATOM      9  O   UNL     1     127.633 132.081 112.879  1.00  0.00    -0.394 OA
ATOM     10  H   UNL     1     128.023 131.677 112.056  1.00  0.00     0.210 HD
ENDBRANCH   8   9
ENDBRANCH   3   8
BRANCH   4  11
ATOM     11  O   UNL     1     129.227 134.546 115.399  1.00  0.00    -0.387 OA
ATOM     12  H   UNL     1     128.769 135.243 115.936  1.00  0.00     0.211 HD
ENDBRANCH   4  11
BRANCH   6  13
ATOM     13  O   UNL     1     127.961 133.799 118.004  1.00  0.00    -0.387 OA
ATOM     14  H   UNL     1     128.488 134.103 118.788  1.00  0.00     0.211 HD
ENDBRANCH   6  13
BRANCH   7  15
ATOM     15  O   UNL     1     127.261 131.167 116.966  1.00  0.00    -0.385 OA
ATOM     16  H   UNL     1     126.614 131.394 117.681  1.00  0.00     0.211 HD
ENDBRANCH   7  15
ENDBRANCH   1   2
BRANCH   1  17
ATOM     17  C   UNL     1     129.771 128.298 117.009  1.00  0.00     0.224 C 
ATOM     18  C   UNL     1     131.130 128.787 117.558  1.00  0.00     0.208 C 
ATOM     19  O   UNL     1     129.015 127.797 118.110  1.00  0.00    -0.337 OA
ATOM     20  C   UNL     1     131.262 128.045 118.864  1.00  0.00     0.180 C 
ATOM     21  C   UNL     1     129.800 127.897 119.284  1.00  0.00     0.179 C 
BRANCH  17  22
ATOM     22  C   UNL     1     129.952 127.128 116.014  1.00  0.00     0.225 C 
BRANCH  22  23
ATOM     23  O   UNL     1     130.159 127.614 114.718  1.00  0.00    -0.391 OA
ATOM     24  H   UNL     1     130.109 126.827 114.115  1.00  0.00     0.210 HD
ENDBRANCH  22  23
ENDBRANCH  17  22
BRANCH  18  25
ATOM     25  O   UNL     1     132.228 128.592 116.688  1.00  0.00    -0.385 OA
ATOM     26  H   UNL     1     132.212 129.294 115.985  1.00  0.00     0.211 HD
ENDBRANCH  18  25
BRANCH  20  27
ATOM     27  O   UNL     1     132.027 128.765 119.795  1.00  0.00    -0.387 OA
ATOM     28  H   UNL     1     132.679 128.121 120.176  1.00  0.00     0.211 HD
ENDBRANCH  20  27
BRANCH  21  29
ATOM     29  C   UNL     1     129.282 129.069 120.140  1.00  0.00     0.191 C 
BRANCH  29  30
ATOM     30  O   UNL     1     127.896 129.212 119.976  1.00  0.00    -0.394 OA
ATOM     31  H   UNL     1     127.762 129.866 119.245  1.00  0.00     0.210 HD
ENDBRANCH  29  30
ENDBRANCH  21  29
ENDBRANCH   1  17
TORSDOF 13
ENDMDL
MODEL 4
REMARK VINA RESULT:    -4.231     12.023     14.377
REMARK INTER + INTRA:          -8.146
REMARK INTER:                  -6.665
REMARK INTRA:                  -1.481
REMARK UNBOUND:                -1.689
REMARK SMILES OC[C@@H]1O[C@H](O[C@]2(CO)O[C@H](CO)[C@H](O)[C@H]2O)[C@H](O)[C@H](O)[C@H]1O
REMARK SMILES IDX 6 1 5 2 3 3 22 4 4 5 20 6 18 7 2 8 1 9 23 11 21 13 19 15
REMARK SMILES IDX 7 17 16 18 10 19 14 20 11 21 8 22 9 23 17 25 15 27 12 29
REMARK SMILES IDX 13 30
REMARK H PARENT 1 10 23 12 21 14 19 16 9 24 17 26 15 28 13 31
REMARK Flexibility Score: inf
ROOT
ATOM      1  O   UNL     1     128.832 129.623 117.831  1.00  0.00    -0.313 OA
ENDROOT
BRANCH   1   2
ATOM      2  C   UNL     1     129.253 130.977 117.687  1.00  0.00     0.285 C 
ATOM      3  C   UNL     1     129.140 131.605 115.347  1.00  0.00     0.178 C 
ATOM      4  C   UNL     1     128.423 132.966 115.646  1.00  0.00     0.177 C 
ATOM      5  O   UNL     1     129.930 131.126 116.434  1.00  0.00    -0.341 OA
ATOM      6  C   UNL     1     128.358 133.255 117.156  1.00  0.00     0.179 C 
ATOM      7  C   UNL     1     128.068 131.953 117.906  1.00  0.00     0.202 C 
BRANCH   3   8
ATOM      8  C   UNL     1     128.250 130.474 114.774  1.00  0.00     0.191 C 
BRANCH   8   9
ATOM      9  O   UNL     1     128.831 129.205 114.947  1.00  0.00    -0.394 OA
ATOM     10  H   UNL     1     129.051 129.108 115.914  1.00  0.00     0.210 HD
ENDBRANCH   8   9
ENDBRANCH   3   8
BRANCH   4  11
ATOM     11  O   UNL     1     129.101 134.014 115.001  1.00  0.00    -0.387 OA
ATOM     12  H   UNL     1     129.631 134.481 115.697  1.00  0.00     0.211 HD
ENDBRANCH   4  11
BRANCH   6  13
ATOM     13  O   UNL     1     127.406 134.248 117.455  1.00  0.00    -0.387 OA
ATOM     14  H   UNL     1     127.822 135.137 117.302  1.00  0.00     0.211 HD
ENDBRANCH   6  13
BRANCH   7  15
ATOM     15  O   UNL     1     126.875 131.383 117.424  1.00  0.00    -0.385 OA
ATOM     16  H   UNL     1     126.813 130.461 117.778  1.00  0.00     0.211 HD
ENDBRANCH   7  15
ENDBRANCH   1   2
BRANCH   1  17
ATOM     17  C   UNL     1     129.252 128.933 119.020  1.00  0.00     0.224 C 
ATOM     18  C   UNL     1     130.511 129.647 119.561  1.00  0.00     0.208 C 
ATOM     19  O   UNL     1     128.277 128.928 120.060  1.00  0.00    -0.337 OA
ATOM     20  C   UNL     1     130.354 129.534 121.057  1.00  0.00     0.180 C 
ATOM     21  C   UNL     1     128.834 129.539 121.209  1.00  0.00     0.179 C 
BRANCH  17  22
ATOM     22  C   UNL     1     129.548 127.456 118.668  1.00  0.00     0.225 C 
BRANCH  22  23
ATOM     23  O   UNL     1     129.948 127.342 117.332  1.00  0.00    -0.391 OA
ATOM     24  H   UNL     1     130.063 126.371 117.159  1.00  0.00     0.210 HD
ENDBRANCH  22  23
ENDBRANCH  17  22
BRANCH  18  25
ATOM     25  O   UNL     1     131.739 129.130 119.086  1.00  0.00    -0.385 OA
ATOM     26  H   UNL     1     132.054 128.423 119.708  1.00  0.00     0.211 HD
ENDBRANCH  18  25
BRANCH  20  27
ATOM     27  O   UNL     1     130.973 130.603 121.725  1.00  0.00    -0.387 OA
ATOM     28  H   UNL     1     130.541 130.660 122.617  1.00  0.00     0.211 HD
ENDBRANCH  20  27
BRANCH  21  29
ATOM     29  C   UNL     1     128.234 130.950 121.372  1.00  0.00     0.191 C 
BRANCH  29  30
ATOM     30  O   UNL     1     126.880 130.944 121.005  1.00  0.00    -0.394 OA
ATOM     31  H   UNL     1     126.660 131.866 120.717  1.00  0.00     0.210 HD
ENDBRANCH  29  30
ENDBRANCH  21  29
ENDBRANCH   1  17
TORSDOF 13
ENDMDL
MODEL 5
REMARK VINA RESULT:    -4.225      9.503     13.873
REMARK INTER + INTRA:          -8.137
REMARK INTER:                  -6.535
REMARK INTRA:                  -1.602
REMARK UNBOUND:                -1.689
REMARK SMILES OC[C@@H]1O[C@H](O[C@]2(CO)O[C@H](CO)[C@H](O)[C@H]2O)[C@H](O)[C@H](O)[C@H]1O
REMARK SMILES IDX 6 1 5 2 3 3 22 4 4 5 20 6 18 7 2 8 1 9 23 11 21 13 19 15
REMARK SMILES IDX 7 17 16 18 10 19 14 20 11 21 8 22 9 23 17 25 15 27 12 29
REMARK SMILES IDX 13 30
REMARK H PARENT 1 10 23 12 21 14 19 16 9 24 17 26 15 28 13 31
REMARK Flexibility Score: inf
ROOT
ATOM      1  O   UNL     1     129.291 129.798 117.928  1.00  0.00    -0.313 OA
ENDROOT
BRANCH   1   2
ATOM      2  C   UNL     1     129.446 131.161 117.542  1.00  0.00     0.285 C 
ATOM      3  C   UNL     1     128.969 131.381 115.174  1.00  0.00     0.178 C 
ATOM      4  C   UNL     1     128.057 132.641 115.375  1.00  0.00     0.177 C 
ATOM      5  O   UNL     1     129.945 131.215 116.201  1.00  0.00    -0.341 OA
ATOM      6  C   UNL     1     128.106 133.152 116.826  1.00  0.00     0.179 C 
ATOM      7  C   UNL     1     128.137 131.958 117.781  1.00  0.00     0.202 C 
BRANCH   3   8
ATOM      8  C   UNL     1     128.238 130.046 114.889  1.00  0.00     0.191 C 
BRANCH   8   9
ATOM      9  O   UNL     1     129.101 128.940 114.985  1.00  0.00    -0.394 OA
ATOM     10  H   UNL     1     129.616 128.890 114.133  1.00  0.00     0.210 HD
ENDBRANCH   8   9
ENDBRANCH   3   8
BRANCH   4  11
ATOM     11  O   UNL     1     128.463 133.666 114.506  1.00  0.00    -0.387 OA
ATOM     12  H   UNL     1     128.900 133.228 113.731  1.00  0.00     0.211 HD
ENDBRANCH   4  11
BRANCH   6  13
ATOM     13  O   UNL     1     127.031 134.016 117.109  1.00  0.00    -0.387 OA
ATOM     14  H   UNL     1     127.162 134.858 116.599  1.00  0.00     0.211 HD
ENDBRANCH   6  13
BRANCH   7  15
ATOM     15  O   UNL     1     127.020 131.135 117.548  1.00  0.00    -0.385 OA
ATOM     16  H   UNL     1     126.245 131.531 118.021  1.00  0.00     0.211 HD
ENDBRANCH   7  15
ENDBRANCH   1   2
BRANCH   1  17
ATOM     17  C   UNL     1     129.973 129.378 119.122  1.00  0.00     0.224 C 
ATOM     18  C   UNL     1     130.697 128.048 118.811  1.00  0.00     0.208 C 
ATOM     19  O   UNL     1     130.951 130.306 119.585  1.00  0.00    -0.337 OA
ATOM     20  C   UNL     1     131.965 128.149 119.623  1.00  0.00     0.180 C 
ATOM     21  C   UNL     1     132.209 129.657 119.627  1.00  0.00     0.179 C 
BRANCH  17  22
ATOM     22  C   UNL     1     128.938 129.204 120.258  1.00  0.00     0.225 C 
BRANCH  22  23
ATOM     23  O   UNL     1     127.665 128.961 119.729  1.00  0.00    -0.391 OA
ATOM     24  H   UNL     1     127.423 129.770 119.206  1.00  0.00     0.210 HD
ENDBRANCH  22  23
ENDBRANCH  17  22
BRANCH  18  25
ATOM     25  O   UNL     1     129.946 126.882 119.087  1.00  0.00    -0.385 OA
ATOM     26  H   UNL     1     129.140 127.134 119.610  1.00  0.00     0.211 HD
ENDBRANCH  18  25
BRANCH  20  27
ATOM     27  O   UNL     1     133.015 127.428 119.035  1.00  0.00    -0.387 OA
ATOM     28  H   UNL     1     132.773 126.468 119.117  1.00  0.00     0.211 HD
ENDBRANCH  20  27
BRANCH  21  29
ATOM     29  C   UNL     1     133.069 130.146 118.445  1.00  0.00     0.191 C 
BRANCH  29  30
ATOM     30  O   UNL     1     134.428 129.912 118.706  1.00  0.00    -0.394 OA
ATOM     31  H   UNL     1     134.852 129.703 117.836  1.00  0.00     0.210 HD
ENDBRANCH  29  30
ENDBRANCH  21  29
ENDBRANCH   1  17
TORSDOF 13
ENDMDL
MODEL 6
REMARK VINA RESULT:    -4.163     14.239     16.643
REMARK INTER + INTRA:          -8.042
REMARK INTER:                  -6.469
REMARK INTRA:                  -1.573
REMARK UNBOUND:                -1.689
REMARK SMILES OC[C@@H]1O[C@H](O[C@]2(CO)O[C@H](CO)[C@H](O)[C@H]2O)[C@H](O)[C@H](O)[C@H]1O
REMARK SMILES IDX 6 1 5 2 3 3 22 4 4 5 20 6 18 7 2 8 1 9 23 11 21 13 19 15
REMARK SMILES IDX 7 17 16 18 10 19 14 20 11 21 8 22 9 23 17 25 15 27 12 29
REMARK SMILES IDX 13 30
REMARK H PARENT 1 10 23 12 21 14 19 16 9 24 17 26 15 28 13 31
REMARK Flexibility Score: inf
ROOT
ATOM      1  O   UNL     1     128.200 131.901 124.416  1.00  0.00    -0.313 OA
ENDROOT
BRANCH   1   2
ATOM      2  C   UNL     1     129.079 131.826 123.296  1.00  0.00     0.285 C 
ATOM      3  C   UNL     1     128.444 129.943 121.906  1.00  0.00     0.178 C 
ATOM      4  C   UNL     1     128.528 130.770 120.577  1.00  0.00     0.177 C 
ATOM      5  O   UNL     1     129.275 130.451 122.947  1.00  0.00    -0.341 OA
ATOM      6  C   UNL     1     129.118 132.171 120.816  1.00  0.00     0.179 C 
ATOM      7  C   UNL     1     128.580 132.726 122.136  1.00  0.00     0.202 C 
BRANCH   3   8
ATOM      8  C   UNL     1     127.020 129.643 122.437  1.00  0.00     0.191 C 
BRANCH   8   9
ATOM      9  O   UNL     1     127.040 129.145 123.752  1.00  0.00    -0.394 OA
ATOM     10  H   UNL     1     127.648 128.356 123.762  1.00  0.00     0.210 HD
ENDBRANCH   8   9
ENDBRANCH   3   8
BRANCH   4  11
ATOM     11  O   UNL     1     129.318 130.086 119.639  1.00  0.00    -0.387 OA
ATOM     12  H   UNL     1     128.756 129.955 118.833  1.00  0.00     0.211 HD
ENDBRANCH   4  11
BRANCH   6  13
ATOM     13  O   UNL     1     128.849 133.039 119.741  1.00  0.00    -0.387 OA
ATOM     14  H   UNL     1     129.713 133.354 119.367  1.00  0.00     0.211 HD
ENDBRANCH   6  13
BRANCH   7  15
ATOM     15  O   UNL     1     127.174 132.742 122.106  1.00  0.00    -0.385 OA
ATOM     16  H   UNL     1     126.846 132.254 122.903  1.00  0.00     0.211 HD
ENDBRANCH   7  15
ENDBRANCH   1   2
BRANCH   1  17
ATOM     17  C   UNL     1     128.781 132.275 125.676  1.00  0.00     0.224 C 
ATOM     18  C   UNL     1     127.910 131.667 126.799  1.00  0.00     0.208 C 
ATOM     19  O   UNL     1     130.114 131.803 125.860  1.00  0.00    -0.337 OA
ATOM     20  C   UNL     1     128.919 131.307 127.860  1.00  0.00     0.180 C 
ATOM     21  C   UNL     1     130.153 130.990 127.018  1.00  0.00     0.179 C 
BRANCH  17  22
ATOM     22  C   UNL     1     128.829 133.818 125.771  1.00  0.00     0.225 C 
BRANCH  22  23
ATOM     23  O   UNL     1     127.660 134.378 125.244  1.00  0.00    -0.391 OA
ATOM     24  H   UNL     1     126.993 133.643 125.206  1.00  0.00     0.210 HD
ENDBRANCH  22  23
ENDBRANCH  17  22
BRANCH  18  25
ATOM     25  O   UNL     1     126.875 132.509 127.270  1.00  0.00    -0.385 OA
ATOM     26  H   UNL     1     126.653 133.172 126.566  1.00  0.00     0.211 HD
ENDBRANCH  18  25
BRANCH  20  27
ATOM     27  O   UNL     1     128.490 130.215 128.633  1.00  0.00    -0.387 OA
ATOM     28  H   UNL     1     127.541 130.057 128.387  1.00  0.00     0.211 HD
ENDBRANCH  20  27
BRANCH  21  29
ATOM     29  C   UNL     1     130.248 129.511 126.595  1.00  0.00     0.191 C 
BRANCH  29  30
ATOM     30  O   UNL     1     129.213 129.197 125.700  1.00  0.00    -0.394 OA
ATOM     31  H   UNL     1     129.645 128.876 124.868  1.00  0.00     0.210 HD
ENDBRANCH  29  30
ENDBRANCH  21  29
ENDBRANCH   1  17
TORSDOF 13
ENDMDL
MODEL 7
REMARK VINA RESULT:    -4.109     12.446     13.968
REMARK INTER + INTRA:          -7.961
REMARK INTER:                  -6.303
REMARK INTRA:                  -1.657
REMARK UNBOUND:                -1.689
REMARK SMILES OC[C@@H]1O[C@H](O[C@]2(CO)O[C@H](CO)[C@H](O)[C@H]2O)[C@H](O)[C@H](O)[C@H]1O
REMARK SMILES IDX 6 1 5 2 3 3 22 4 4 5 20 6 18 7 2 8 1 9 23 11 21 13 19 15
REMARK SMILES IDX 7 17 16 18 10 19 14 20 11 21 8 22 9 23 17 25 15 27 12 29
REMARK SMILES IDX 13 30
REMARK H PARENT 1 10 23 12 21 14 19 16 9 24 17 26 15 28 13 31
REMARK Flexibility Score: inf
ROOT
ATOM      1  O   UNL     1     128.930 129.928 117.028  1.00  0.00    -0.313 OA
ENDROOT
BRANCH   1   2
ATOM      2  C   UNL     1     129.865 130.030 118.099  1.00  0.00     0.285 C 
ATOM      3  C   UNL     1     128.728 130.855 120.076  1.00  0.00     0.178 C 
ATOM      4  C   UNL     1     129.372 129.778 121.016  1.00  0.00     0.177 C 
ATOM      5  O   UNL     1     129.513 131.148 118.922  1.00  0.00    -0.341 OA
ATOM      6  C   UNL     1     130.454 128.961 120.286  1.00  0.00     0.179 C 
ATOM      7  C   UNL     1     129.994 128.682 118.854  1.00  0.00     0.202 C 
BRANCH   3   8
ATOM      8  C   UNL     1     127.246 130.626 119.689  1.00  0.00     0.191 C 
BRANCH   8   9
ATOM      9  O   UNL     1     126.875 131.372 118.556  1.00  0.00    -0.394 OA
ATOM     10  H   UNL     1     125.990 131.030 118.252  1.00  0.00     0.210 HD
ENDBRANCH   8   9
ENDBRANCH   3   8
BRANCH   4  11
ATOM     11  O   UNL     1     129.940 130.403 122.138  1.00  0.00    -0.387 OA
ATOM     12  H   UNL     1     130.102 129.691 122.810  1.00  0.00     0.211 HD
ENDBRANCH   4  11
BRANCH   6  13
ATOM     13  O   UNL     1     130.760 127.772 120.975  1.00  0.00    -0.387 OA
ATOM     14  H   UNL     1     130.146 127.692 121.751  1.00  0.00     0.211 HD
ENDBRANCH   6  13
BRANCH   7  15
ATOM     15  O   UNL     1     128.754 128.018 118.875  1.00  0.00    -0.385 OA
ATOM     16  H   UNL     1     128.140 128.537 119.454  1.00  0.00     0.211 HD
ENDBRANCH   7  15
ENDBRANCH   1   2
BRANCH   1  17
ATOM     17  C   UNL     1     129.383 130.340 115.727  1.00  0.00     0.224 C 
ATOM     18  C   UNL     1     128.137 130.611 114.855  1.00  0.00     0.208 C 
ATOM     19  O   UNL     1     130.170 131.530 115.740  1.00  0.00    -0.337 OA
ATOM     20  C   UNL     1     128.564 131.775 113.996  1.00  0.00     0.180 C 
ATOM     21  C   UNL     1     129.541 132.499 114.921  1.00  0.00     0.179 C 
BRANCH  17  22
ATOM     22  C   UNL     1     130.263 129.221 115.123  1.00  0.00     0.225 C 
BRANCH  22  23
ATOM     23  O   UNL     1     129.676 127.968 115.333  1.00  0.00    -0.391 OA
ATOM     24  H   UNL     1     130.037 127.634 116.195  1.00  0.00     0.210 HD
ENDBRANCH  22  23
ENDBRANCH  17  22
BRANCH  18  25
ATOM     25  O   UNL     1     127.680 129.500 114.108  1.00  0.00    -0.385 OA
ATOM     26  H   UNL     1     128.445 129.112 113.608  1.00  0.00     0.211 HD
ENDBRANCH  18  25
BRANCH  20  27
ATOM     27  O   UNL     1     127.471 132.574 113.625  1.00  0.00    -0.387 OA
ATOM     28  H   UNL     1     126.872 131.991 113.088  1.00  0.00     0.211 HD
ENDBRANCH  20  27
BRANCH  21  29
ATOM     29  C   UNL     1     128.872 133.560 115.817  1.00  0.00     0.191 C 
BRANCH  29  30
ATOM     30  O   UNL     1     128.925 133.160 117.161  1.00  0.00    -0.394 OA
ATOM     31  H   UNL     1     129.681 132.524 117.239  1.00  0.00     0.210 HD
ENDBRANCH  29  30
ENDBRANCH  21  29
ENDBRANCH   1  17
TORSDOF 13
ENDMDL
MODEL 8
REMARK VINA RESULT:    -4.098     17.874     19.152
REMARK INTER + INTRA:          -7.943
REMARK INTER:                  -6.457
REMARK INTRA:                  -1.486
REMARK UNBOUND:                -1.689
REMARK SMILES OC[C@@H]1O[C@H](O[C@]2(CO)O[C@H](CO)[C@H](O)[C@H]2O)[C@H](O)[C@H](O)[C@H]1O
REMARK SMILES IDX 6 1 5 2 3 3 22 4 4 5 20 6 18 7 2 8 1 9 23 11 21 13 19 15
REMARK SMILES IDX 7 17 16 18 10 19 14 20 11 21 8 22 9 23 17 25 15 27 12 29
REMARK SMILES IDX 13 30
REMARK H PARENT 1 10 23 12 21 14 19 16 9 24 17 26 15 28 13 31
REMARK Flexibility Score: inf
ROOT
ATOM      1  O   UNL     1     131.507 144.592 117.449  1.00  0.00    -0.313 OA
ENDROOT
BRANCH   1   2
ATOM      2  C   UNL     1     132.876 144.277 117.207  1.00  0.00     0.285 C 
ATOM      3  C   UNL     1     133.854 145.992 115.798  1.00  0.00     0.178 C 
ATOM      4  C   UNL     1     135.138 146.128 116.687  1.00  0.00     0.177 C 
ATOM      5  O   UNL     1     133.231 144.712 115.890  1.00  0.00    -0.341 OA
ATOM      6  C   UNL     1     135.189 145.047 117.782  1.00  0.00     0.179 C 
ATOM      7  C   UNL     1     133.782 144.827 118.340  1.00  0.00     0.202 C 
BRANCH   3   8
ATOM      8  C   UNL     1     132.806 147.124 115.931  1.00  0.00     0.191 C 
BRANCH   8   9
ATOM      9  O   UNL     1     131.521 146.703 115.546  1.00  0.00    -0.394 OA
ATOM     10  H   UNL     1     131.129 147.424 114.981  1.00  0.00     0.210 HD
ENDBRANCH   8   9
ENDBRANCH   3   8
BRANCH   4  11
ATOM     11  O   UNL     1     136.286 146.032 115.885  1.00  0.00    -0.387 OA
ATOM     12  H   UNL     1     136.563 145.080 115.895  1.00  0.00     0.211 HD
ENDBRANCH   4  11
BRANCH   6  13
ATOM     13  O   UNL     1     136.104 145.379 118.798  1.00  0.00    -0.387 OA
ATOM     14  H   UNL     1     137.023 145.209 118.462  1.00  0.00     0.211 HD
ENDBRANCH   6  13
BRANCH   7  15
ATOM     15  O   UNL     1     133.267 146.045 118.822  1.00  0.00    -0.385 OA
ATOM     16  H   UNL     1     134.027 146.666 118.952  1.00  0.00     0.211 HD
ENDBRANCH   7  15
ENDBRANCH   1   2
BRANCH   1  17
ATOM     17  C   UNL     1     130.580 143.494 117.466  1.00  0.00     0.224 C 
ATOM     18  C   UNL     1     129.161 144.068 117.255  1.00  0.00     0.208 C 
ATOM     19  O   UNL     1     130.811 142.526 116.444  1.00  0.00    -0.337 OA
ATOM     20  C   UNL     1     128.477 143.003 116.435  1.00  0.00     0.180 C 
ATOM     21  C   UNL     1     129.648 142.422 115.644  1.00  0.00     0.179 C 
BRANCH  17  22
ATOM     22  C   UNL     1     130.695 142.758 118.822  1.00  0.00     0.225 C 
BRANCH  22  23
ATOM     23  O   UNL     1     130.773 143.678 119.874  1.00  0.00    -0.391 OA
ATOM     24  H   UNL     1     130.167 143.339 120.584  1.00  0.00     0.210 HD
ENDBRANCH  22  23
ENDBRANCH  17  22
BRANCH  18  25
ATOM     25  O   UNL     1     128.467 144.393 118.445  1.00  0.00    -0.385 OA
ATOM     26  H   UNL     1     128.603 145.356 118.645  1.00  0.00     0.211 HD
ENDBRANCH  18  25
BRANCH  20  27
ATOM     27  O   UNL     1     127.478 143.546 115.611  1.00  0.00    -0.387 OA
ATOM     28  H   UNL     1     126.757 143.859 116.219  1.00  0.00     0.211 HD
ENDBRANCH  20  27
BRANCH  21  29
ATOM     29  C   UNL     1     129.895 143.132 114.299  1.00  0.00     0.191 C 
BRANCH  29  30
ATOM     30  O   UNL     1     130.706 144.261 114.489  1.00  0.00    -0.394 OA
ATOM     31  H   UNL     1     130.688 144.771 113.640  1.00  0.00     0.210 HD
ENDBRANCH  29  30
ENDBRANCH  21  29
ENDBRANCH   1  17
TORSDOF 13
ENDMDL
MODEL 9
REMARK VINA RESULT:    -4.043      1.567      5.913
REMARK INTER + INTRA:          -7.859
REMARK INTER:                  -6.393
REMARK INTRA:                  -1.466
REMARK UNBOUND:                -1.689
REMARK SMILES OC[C@@H]1O[C@H](O[C@]2(CO)O[C@H](CO)[C@H](O)[C@H]2O)[C@H](O)[C@H](O)[C@H]1O
REMARK SMILES IDX 6 1 5 2 3 3 22 4 4 5 20 6 18 7 2 8 1 9 23 11 21 13 19 15
REMARK SMILES IDX 7 17 16 18 10 19 14 20 11 21 8 22 9 23 17 25 15 27 12 29
REMARK SMILES IDX 13 30
REMARK H PARENT 1 10 23 12 21 14 19 16 9 24 17 26 15 28 13 31
REMARK Flexibility Score: inf
ROOT
ATOM      1  O   UNL     1     142.734 128.393 116.323  1.00  0.00    -0.313 OA
ENDROOT
BRANCH   1   2
ATOM      2  C   UNL     1     141.733 127.390 116.174  1.00  0.00     0.285 C 
ATOM      3  C   UNL     1     139.751 128.048 117.407  1.00  0.00     0.178 C 
ATOM      4  C   UNL     1     138.781 127.698 116.227  1.00  0.00     0.177 C 
ATOM      5  O   UNL     1     140.969 127.307 117.382  1.00  0.00    -0.341 OA
ATOM      6  C   UNL     1     139.517 126.989 115.077  1.00  0.00     0.179 C 
ATOM      7  C   UNL     1     140.895 127.627 114.891  1.00  0.00     0.202 C 
BRANCH   3   8
ATOM      8  C   UNL     1     140.029 129.553 117.642  1.00  0.00     0.191 C 
BRANCH   8   9
ATOM      9  O   UNL     1     139.333 130.368 116.731  1.00  0.00    -0.394 OA
ATOM     10  H   UNL     1     139.873 130.407 115.895  1.00  0.00     0.210 HD
ENDBRANCH   8   9
ENDBRANCH   3   8
BRANCH   4  11
ATOM     11  O   UNL     1     137.742 126.875 116.692  1.00  0.00    -0.387 OA
ATOM     12  H   UNL     1     137.100 127.465 117.165  1.00  0.00     0.211 HD
ENDBRANCH   4  11
BRANCH   6  13
ATOM     13  O   UNL     1     138.768 127.015 113.886  1.00  0.00    -0.387 OA
ATOM     14  H   UNL     1     137.973 126.431 114.002  1.00  0.00     0.211 HD
ENDBRANCH   6  13
BRANCH   7  15
ATOM     15  O   UNL     1     140.750 129.007 114.655  1.00  0.00    -0.385 OA
ATOM     16  H   UNL     1     140.500 129.129 113.705  1.00  0.00     0.211 HD
ENDBRANCH   7  15
ENDBRANCH   1   2
BRANCH   1  17
ATOM     17  C   UNL     1     144.035 127.956 116.750  1.00  0.00     0.224 C 
ATOM     18  C   UNL     1     144.847 129.207 117.153  1.00  0.00     0.208 C 
ATOM     19  O   UNL     1     144.010 127.077 117.873  1.00  0.00    -0.337 OA
ATOM     20  C   UNL     1     145.679 128.719 118.313  1.00  0.00     0.180 C 
ATOM     21  C   UNL     1     144.767 127.655 118.920  1.00  0.00     0.179 C 
BRANCH  17  22
ATOM     22  C   UNL     1     144.715 127.190 115.590  1.00  0.00     0.225 C 
BRANCH  22  23
ATOM     23  O   UNL     1     144.612 127.915 114.398  1.00  0.00    -0.391 OA
ATOM     24  H   UNL     1     143.646 128.103 114.270  1.00  0.00     0.210 HD
ENDBRANCH  22  23
ENDBRANCH  17  22
BRANCH  18  25
ATOM     25  O   UNL     1     145.617 129.778 116.111  1.00  0.00    -0.385 OA
ATOM     26  H   UNL     1     145.707 130.753 116.275  1.00  0.00     0.211 HD
ENDBRANCH  18  25
BRANCH  20  27
ATOM     27  O   UNL     1     145.977 129.758 119.209  1.00  0.00    -0.387 OA
ATOM     28  H   UNL     1     146.152 130.562 118.653  1.00  0.00     0.211 HD
ENDBRANCH  20  27
BRANCH  21  29
ATOM     29  C   UNL     1     143.807 128.205 119.993  1.00  0.00     0.191 C 
BRANCH  29  30
ATOM     30  O   UNL     1     142.586 127.514 119.949  1.00  0.00    -0.394 OA
ATOM     31  H   UNL     1     142.705 126.692 120.490  1.00  0.00     0.210 HD
ENDBRANCH  29  30
ENDBRANCH  21  29
ENDBRANCH   1  17
TORSDOF 13
ENDMDL
