MODEL 1
REMARK VINA RESULT:    -5.699      0.000      0.000
REMARK INTER + INTRA:          -6.264
REMARK INTER:                  -6.032
REMARK INTRA:                  -0.232
REMARK UNBOUND:                -0.232
REMARK SMILES O=c1cc(-c2ccccc2)oc2ccccc12
REMARK SMILES IDX 4 1 3 2 2 3 1 4 17 5 16 6 15 7 14 8 13 9 12 10 11 11 5 12
REMARK SMILES IDX 8 13 7 14 9 15 6 16 10 17
REMARK H PARENT
REMARK Flexibility Score: inf
ROOT
ATOM      1  C   UNL     1    -118.019 -98.289  44.616  1.00  0.00     0.138 A 
ATOM      2  C   UNL     1    -117.949 -99.377  45.511  1.00  0.00     0.100 A 
ATOM      3  C   UNL     1    -118.097 -99.152  46.881  1.00  0.00     0.193 A 
ATOM      4  O   UNL     1    -118.034-100.125  47.681  1.00  0.00    -0.289 OA
ATOM      5  C   UNL     1    -118.315 -97.848  47.348  1.00  0.00     0.065 A 
ATOM      6  C   UNL     1    -118.471 -97.553  48.715  1.00  0.00     0.016 A 
ATOM      7  C   UNL     1    -118.687 -96.233  49.125  1.00  0.00     0.001 A 
ATOM      8  C   UNL     1    -118.744 -95.203  48.181  1.00  0.00     0.004 A 
ATOM      9  C   UNL     1    -118.589 -95.488  46.821  1.00  0.00     0.048 A 
ATOM     10  C   UNL     1    -118.374 -96.805  46.399  1.00  0.00     0.138 A 
ATOM     11  O   UNL     1    -118.227 -97.065  45.104  1.00  0.00    -0.456 OA
ENDROOT
BRANCH   1  12
ATOM     12  C   UNL     1    -117.870 -98.442  43.136  1.00  0.00     0.017 A 
ATOM     13  C   UNL     1    -117.498 -98.767  40.357  1.00  0.00     0.000 A 
ATOM     14  C   UNL     1    -118.701 -98.255  40.846  1.00  0.00     0.001 A 
ATOM     15  C   UNL     1    -116.481 -99.119  41.242  1.00  0.00     0.001 A 
ATOM     16  C   UNL     1    -118.890 -98.091  42.222  1.00  0.00     0.012 A 
ATOM     17  C   UNL     1    -116.663 -98.959  42.619  1.00  0.00     0.012 A 
ENDBRANCH   1  12
TORSDOF 1
ENDMDL
