MODEL 1
REMARK VINA RESULT:    -3.712      0.000      0.000
REMARK INTER + INTRA:          -7.734
REMARK INTER:                  -6.533
REMARK INTRA:                  -1.201
REMARK UNBOUND:                -1.201
REMARK SMILES CCCCCCC=CCCCCCCCC(=O)[O-]
REMARK SMILES IDX 10 1 11 2 12 3 13 4 14 5 15 6 16 7 17 8 18 9 9 10 8 11 7 12
REMARK SMILES IDX 6 13 5 14 4 15 3 16 2 17 1 18
REMARK H PARENT
REMARK Flexibility Score: inf
ROOT
ATOM      1  C   UNL     1      16.801  21.622   3.352  1.00  0.00     0.004 C 
ENDROOT
BRANCH   1   2
ATOM      2  C   UNL     1      16.166  22.442   2.214  1.00  0.00     0.000 C 
BRANCH   2   3
ATOM      3  C   UNL     1      15.214  21.656   1.295  1.00  0.00     0.000 C 
BRANCH   3   4
ATOM      4  C   UNL     1      14.932  22.378  -0.034  1.00  0.00     0.000 C 
BRANCH   4   5
ATOM      5  C   UNL     1      15.957  23.488  -0.336  1.00  0.00     0.006 C 
BRANCH   5   6
ATOM      6  C   UNL     1      16.238  23.701  -1.832  1.00  0.00     0.053 C 
BRANCH   6   7
ATOM      7  C   UNL     1      17.539  24.406  -2.064  1.00  0.00     0.041 C 
ATOM      8  O   UNL     1      18.236  24.788  -1.089  1.00  0.00    -0.550 OA
ATOM      9  O   UNL     1      17.995  24.614  -3.360  1.00  0.00    -0.550 OA
ENDBRANCH   6   7
ENDBRANCH   5   6
ENDBRANCH   4   5
ENDBRANCH   3   4
ENDBRANCH   2   3
ENDBRANCH   1   2
BRANCH   1  10
ATOM     10  C   UNL     1      17.642  22.477   4.309  1.00  0.00     0.027 C 
BRANCH  10  11
ATOM     11  C   UNL     1      17.215  23.921   4.241  1.00  0.00    -0.031 C 
ATOM     12  C   UNL     1      16.433  24.532   5.151  1.00  0.00    -0.031 C 
BRANCH  12  13
ATOM     13  C   UNL     1      15.935  23.885   6.420  1.00  0.00     0.027 C 
BRANCH  13  14
ATOM     14  C   UNL     1      16.906  24.081   7.601  1.00  0.00     0.004 C 
BRANCH  14  15
ATOM     15  C   UNL     1      16.687  23.091   8.761  1.00  0.00     0.000 C 
BRANCH  15  16
ATOM     16  C   UNL     1      17.362  21.717   8.586  1.00  0.00    -0.000 C 
BRANCH  16  17
ATOM     17  C   UNL     1      16.394  20.527   8.460  1.00  0.00    -0.003 C 
ATOM     18  C   UNL     1      16.019  20.214   7.012  1.00  0.00     0.004 C 
ENDBRANCH  16  17
ENDBRANCH  15  16
ENDBRANCH  14  15
ENDBRANCH  13  14
ENDBRANCH  12  13
ENDBRANCH  10  11
ENDBRANCH   1  10
TORSDOF 13
ENDMDL
MODEL 2
REMARK VINA RESULT:    -3.472      1.088      1.993
REMARK INTER + INTRA:          -7.313
REMARK INTER:                  -6.062
REMARK INTRA:                  -1.251
REMARK UNBOUND:                -1.201
REMARK SMILES CCCCCCC=CCCCCCCCC(=O)[O-]
REMARK SMILES IDX 10 1 11 2 12 3 13 4 14 5 15 6 16 7 17 8 18 9 9 10 8 11 7 12
REMARK SMILES IDX 6 13 5 14 4 15 3 16 2 17 1 18
REMARK H PARENT
REMARK Flexibility Score: inf
ROOT
ATOM      1  C   UNL     1      17.666  23.039   4.535  1.00  0.00     0.004 C 
ENDROOT
BRANCH   1   2
ATOM      2  C   UNL     1      17.162  22.081   3.439  1.00  0.00     0.000 C 
BRANCH   2   3
ATOM      3  C   UNL     1      16.245  22.722   2.382  1.00  0.00     0.000 C 
BRANCH   3   4
ATOM      4  C   UNL     1      16.778  24.069   1.865  1.00  0.00     0.000 C 
BRANCH   4   5
ATOM      5  C   UNL     1      16.034  24.560   0.608  1.00  0.00     0.006 C 
BRANCH   5   6
ATOM      6  C   UNL     1      15.717  23.455  -0.413  1.00  0.00     0.053 C 
BRANCH   6   7
ATOM      7  C   UNL     1      16.351  23.723  -1.744  1.00  0.00     0.041 C 
ATOM      8  O   UNL     1      15.637  23.860  -2.771  1.00  0.00    -0.550 OA
ATOM      9  O   UNL     1      17.731  23.851  -1.842  1.00  0.00    -0.550 OA
ENDBRANCH   6   7
ENDBRANCH   5   6
ENDBRANCH   4   5
ENDBRANCH   3   4
ENDBRANCH   2   3
ENDBRANCH   1   2
BRANCH   1  10
ATOM     10  C   UNL     1      16.535  23.590   5.413  1.00  0.00     0.027 C 
BRANCH  10  11
ATOM     11  C   UNL     1      17.047  24.696   6.301  1.00  0.00    -0.031 C 
ATOM     12  C   UNL     1      16.743  24.832   7.606  1.00  0.00    -0.031 C 
BRANCH  12  13
ATOM     13  C   UNL     1      15.913  23.850   8.396  1.00  0.00     0.027 C 
BRANCH  13  14
ATOM     14  C   UNL     1      16.770  22.970   9.327  1.00  0.00     0.004 C 
BRANCH  14  15
ATOM     15  C   UNL     1      17.416  21.762   8.623  1.00  0.00     0.000 C 
BRANCH  15  16
ATOM     16  C   UNL     1      16.504  20.531   8.462  1.00  0.00    -0.000 C 
BRANCH  16  17
ATOM     17  C   UNL     1      15.960  20.305   7.040  1.00  0.00    -0.003 C 
ATOM     18  C   UNL     1      15.974  18.835   6.622  1.00  0.00     0.004 C 
ENDBRANCH  16  17
ENDBRANCH  15  16
ENDBRANCH  14  15
ENDBRANCH  13  14
ENDBRANCH  12  13
ENDBRANCH  10  11
ENDBRANCH   1  10
TORSDOF 13
ENDMDL
MODEL 3
REMARK VINA RESULT:    -3.388      3.503      8.354
REMARK INTER + INTRA:          -7.164
REMARK INTER:                  -5.986
REMARK INTRA:                  -1.177
REMARK UNBOUND:                -1.201
REMARK SMILES CCCCCCC=CCCCCCCCC(=O)[O-]
REMARK SMILES IDX 10 1 11 2 12 3 13 4 14 5 15 6 16 7 17 8 18 9 9 10 8 11 7 12
REMARK SMILES IDX 6 13 5 14 4 15 3 16 2 17 1 18
REMARK H PARENT
REMARK Flexibility Score: inf
ROOT
ATOM      1  C   UNL     1      16.253  24.317   5.721  1.00  0.00     0.004 C 
ENDROOT
BRANCH   1   2
ATOM      2  C   UNL     1      16.986  24.491   7.064  1.00  0.00     0.000 C 
BRANCH   2   3
ATOM      3  C   UNL     1      16.078  24.502   8.307  1.00  0.00     0.000 C 
BRANCH   3   4
ATOM      4  C   UNL     1      16.378  23.348   9.278  1.00  0.00     0.000 C 
BRANCH   4   5
ATOM      5  C   UNL     1      17.469  22.396   8.752  1.00  0.00     0.006 C 
BRANCH   5   6
ATOM      6  C   UNL     1      17.154  20.904   8.943  1.00  0.00     0.053 C 
BRANCH   6   7
ATOM      7  C   UNL     1      16.028  20.450   8.066  1.00  0.00     0.041 C 
ATOM      8  O   UNL     1      15.020  19.889   8.567  1.00  0.00    -0.550 OA
ATOM      9  O   UNL     1      16.081  20.676   6.696  1.00  0.00    -0.550 OA
ENDBRANCH   6   7
ENDBRANCH   5   6
ENDBRANCH   4   5
ENDBRANCH   3   4
ENDBRANCH   2   3
ENDBRANCH   1   2
BRANCH   1  10
ATOM     10  C   UNL     1      17.034  23.455   4.720  1.00  0.00     0.027 C 
BRANCH  10  11
ATOM     11  C   UNL     1      17.252  24.207   3.432  1.00  0.00    -0.031 C 
ATOM     12  C   UNL     1      16.854  23.779   2.219  1.00  0.00    -0.031 C 
BRANCH  12  13
ATOM     13  C   UNL     1      16.054  22.523   1.977  1.00  0.00     0.027 C 
BRANCH  13  14
ATOM     14  C   UNL     1      15.231  22.589   0.676  1.00  0.00     0.004 C 
BRANCH  14  15
ATOM     15  C   UNL     1      15.542  23.821  -0.196  1.00  0.00     0.000 C 
BRANCH  15  16
ATOM     16  C   UNL     1      16.091  23.508  -1.601  1.00  0.00    -0.000 C 
BRANCH  16  17
ATOM     17  C   UNL     1      17.509  24.040  -1.879  1.00  0.00    -0.003 C 
ATOM     18  C   UNL     1      17.944  25.123  -0.893  1.00  0.00     0.004 C 
ENDBRANCH  16  17
ENDBRANCH  15  16
ENDBRANCH  14  15
ENDBRANCH  13  14
ENDBRANCH  12  13
ENDBRANCH  10  11
ENDBRANCH   1  10
TORSDOF 13
ENDMDL
MODEL 4
REMARK VINA RESULT:    -3.375      1.273      2.255
REMARK INTER + INTRA:          -7.142
REMARK INTER:                  -6.235
REMARK INTRA:                  -0.907
REMARK UNBOUND:                -1.201
REMARK SMILES CCCCCCC=CCCCCCCCC(=O)[O-]
REMARK SMILES IDX 10 1 11 2 12 3 13 4 14 5 15 6 16 7 17 8 18 9 9 10 8 11 7 12
REMARK SMILES IDX 6 13 5 14 4 15 3 16 2 17 1 18
REMARK H PARENT
REMARK Flexibility Score: inf
ROOT
ATOM      1  C   UNL     1      17.504  23.408   3.377  1.00  0.00     0.004 C 
ENDROOT
BRANCH   1   2
ATOM      2  C   UNL     1      16.833  24.129   2.193  1.00  0.00     0.000 C 
BRANCH   2   3
ATOM      3  C   UNL     1      15.644  23.381   1.563  1.00  0.00     0.000 C 
BRANCH   3   4
ATOM      4  C   UNL     1      15.755  23.261   0.034  1.00  0.00     0.000 C 
BRANCH   4   5
ATOM      5  C   UNL     1      16.338  24.528  -0.621  1.00  0.00     0.006 C 
BRANCH   5   6
ATOM      6  C   UNL     1      17.588  24.279  -1.480  1.00  0.00     0.053 C 
BRANCH   6   7
ATOM      7  C   UNL     1      17.315  24.483  -2.940  1.00  0.00     0.041 C 
ATOM      8  O   UNL     1      16.145  24.371  -3.388  1.00  0.00    -0.550 OA
ATOM      9  O   UNL     1      18.352  24.829  -3.798  1.00  0.00    -0.550 OA
ENDBRANCH   6   7
ENDBRANCH   5   6
ENDBRANCH   4   5
ENDBRANCH   3   4
ENDBRANCH   2   3
ENDBRANCH   1   2
BRANCH   1  10
ATOM     10  C   UNL     1      17.703  24.319   4.597  1.00  0.00     0.027 C 
BRANCH  10  11
ATOM     11  C   UNL     1      16.473  24.311   5.468  1.00  0.00    -0.031 C 
ATOM     12  C   UNL     1      16.060  23.258   6.199  1.00  0.00    -0.031 C 
BRANCH  12  13
ATOM     13  C   UNL     1      16.814  21.955   6.321  1.00  0.00     0.027 C 
BRANCH  13  14
ATOM     14  C   UNL     1      16.070  20.925   7.193  1.00  0.00     0.004 C 
BRANCH  14  15
ATOM     15  C   UNL     1      16.613  20.816   8.631  1.00  0.00     0.000 C 
BRANCH  15  16
ATOM     16  C   UNL     1      17.696  21.846   9.003  1.00  0.00    -0.000 C 
BRANCH  16  17
ATOM     17  C   UNL     1      17.206  23.023   9.866  1.00  0.00    -0.003 C 
ATOM     18  C   UNL     1      17.914  24.337   9.541  1.00  0.00     0.004 C 
ENDBRANCH  16  17
ENDBRANCH  15  16
ENDBRANCH  14  15
ENDBRANCH  13  14
ENDBRANCH  12  13
ENDBRANCH  10  11
ENDBRANCH   1  10
TORSDOF 13
ENDMDL
MODEL 5
REMARK VINA RESULT:    -3.281      3.635      8.059
REMARK INTER + INTRA:          -6.977
REMARK INTER:                  -5.953
REMARK INTRA:                  -1.024
REMARK UNBOUND:                -1.201
REMARK SMILES CCCCCCC=CCCCCCCCC(=O)[O-]
REMARK SMILES IDX 10 1 11 2 12 3 13 4 14 5 15 6 16 7 17 8 18 9 9 10 8 11 7 12
REMARK SMILES IDX 6 13 5 14 4 15 3 16 2 17 1 18
REMARK H PARENT
REMARK Flexibility Score: inf
ROOT
ATOM      1  C   UNL     1      17.252  21.789   4.622  1.00  0.00     0.004 C 
ENDROOT
BRANCH   1   2
ATOM      2  C   UNL     1      16.748  22.143   6.033  1.00  0.00     0.000 C 
BRANCH   2   3
ATOM      3  C   UNL     1      16.285  20.944   6.882  1.00  0.00     0.000 C 
BRANCH   3   4
ATOM      4  C   UNL     1      16.557  21.133   8.384  1.00  0.00     0.000 C 
BRANCH   4   5
ATOM      5  C   UNL     1      16.324  22.582   8.852  1.00  0.00     0.006 C 
BRANCH   5   6
ATOM      6  C   UNL     1      17.515  23.206   9.598  1.00  0.00     0.053 C 
BRANCH   6   7
ATOM      7  C   UNL     1      18.027  24.434   8.909  1.00  0.00     0.041 C 
ATOM      8  O   UNL     1      17.300  25.052   8.089  1.00  0.00    -0.550 OA
ATOM      9  O   UNL     1      19.300  24.912   9.198  1.00  0.00    -0.550 OA
ENDBRANCH   6   7
ENDBRANCH   5   6
ENDBRANCH   4   5
ENDBRANCH   3   4
ENDBRANCH   2   3
ENDBRANCH   1   2
BRANCH   1  10
ATOM     10  C   UNL     1      17.576  23.026   3.774  1.00  0.00     0.027 C 
BRANCH  10  11
ATOM     11  C   UNL     1      16.661  24.169   4.135  1.00  0.00    -0.031 C 
ATOM     12  C   UNL     1      15.920  24.863   3.252  1.00  0.00    -0.031 C 
BRANCH  12  13
ATOM     13  C   UNL     1      15.829  24.548   1.779  1.00  0.00     0.027 C 
BRANCH  13  14
ATOM     14  C   UNL     1      14.884  23.365   1.487  1.00  0.00     0.004 C 
BRANCH  14  15
ATOM     15  C   UNL     1      15.152  22.671   0.138  1.00  0.00     0.000 C 
BRANCH  15  16
ATOM     16  C   UNL     1      15.006  23.571  -1.104  1.00  0.00    -0.000 C 
BRANCH  16  17
ATOM     17  C   UNL     1      16.177  23.498  -2.101  1.00  0.00    -0.003 C 
ATOM     18  C   UNL     1      17.437  24.199  -1.596  1.00  0.00     0.004 C 
ENDBRANCH  16  17
ENDBRANCH  15  16
ENDBRANCH  14  15
ENDBRANCH  13  14
ENDBRANCH  12  13
ENDBRANCH  10  11
ENDBRANCH   1  10
TORSDOF 13
ENDMDL
MODEL 6
REMARK VINA RESULT:    -3.211      1.694      3.602
REMARK INTER + INTRA:          -6.852
REMARK INTER:                  -5.698
REMARK INTRA:                  -1.154
REMARK UNBOUND:                -1.201
REMARK SMILES CCCCCCC=CCCCCCCCC(=O)[O-]
REMARK SMILES IDX 10 1 11 2 12 3 13 4 14 5 15 6 16 7 17 8 18 9 9 10 8 11 7 12
REMARK SMILES IDX 6 13 5 14 4 15 3 16 2 17 1 18
REMARK H PARENT
REMARK Flexibility Score: inf
ROOT
ATOM      1  C   UNL     1      16.635  20.254   4.479  1.00  0.00     0.004 C 
ENDROOT
BRANCH   1   2
ATOM      2  C   UNL     1      16.820  21.302   3.366  1.00  0.00     0.000 C 
BRANCH   2   3
ATOM      3  C   UNL     1      17.707  22.503   3.741  1.00  0.00     0.000 C 
BRANCH   3   4
ATOM      4  C   UNL     1      17.156  23.841   3.219  1.00  0.00     0.000 C 
BRANCH   4   5
ATOM      5  C   UNL     1      15.993  23.657   2.225  1.00  0.00     0.006 C 
BRANCH   5   6
ATOM      6  C   UNL     1      16.376  23.882   0.753  1.00  0.00     0.053 C 
BRANCH   6   7
ATOM      7  C   UNL     1      15.639  22.956  -0.166  1.00  0.00     0.041 C 
ATOM      8  O   UNL     1      15.668  23.142  -1.410  1.00  0.00    -0.550 OA
ATOM      9  O   UNL     1      14.944  21.870   0.352  1.00  0.00    -0.550 OA
ENDBRANCH   6   7
ENDBRANCH   5   6
ENDBRANCH   4   5
ENDBRANCH   3   4
ENDBRANCH   2   3
ENDBRANCH   1   2
BRANCH   1  10
ATOM     10  C   UNL     1      16.408  20.881   5.861  1.00  0.00     0.027 C 
BRANCH  10  11
ATOM     11  C   UNL     1      16.022  19.824   6.864  1.00  0.00    -0.031 C 
ATOM     12  C   UNL     1      15.866  20.042   8.183  1.00  0.00    -0.031 C 
BRANCH  12  13
ATOM     13  C   UNL     1      15.970  21.396   8.843  1.00  0.00     0.027 C 
BRANCH  13  14
ATOM     14  C   UNL     1      17.431  21.818   9.094  1.00  0.00     0.004 C 
BRANCH  14  15
ATOM     15  C   UNL     1      17.574  23.133   9.885  1.00  0.00     0.000 C 
BRANCH  15  16
ATOM     16  C   UNL     1      18.140  24.321   9.085  1.00  0.00    -0.000 C 
BRANCH  16  17
ATOM     17  C   UNL     1      17.098  25.125   8.287  1.00  0.00    -0.003 C 
ATOM     18  C   UNL     1      17.068  24.757   6.804  1.00  0.00     0.004 C 
ENDBRANCH  16  17
ENDBRANCH  15  16
ENDBRANCH  14  15
ENDBRANCH  13  14
ENDBRANCH  12  13
ENDBRANCH  10  11
ENDBRANCH   1  10
TORSDOF 13
ENDMDL
MODEL 7
REMARK VINA RESULT:    -3.206      1.236      1.781
REMARK INTER + INTRA:          -6.844
REMARK INTER:                  -5.763
REMARK INTRA:                  -1.081
REMARK UNBOUND:                -1.201
REMARK SMILES CCCCCCC=CCCCCCCCC(=O)[O-]
REMARK SMILES IDX 10 1 11 2 12 3 13 4 14 5 15 6 16 7 17 8 18 9 9 10 8 11 7 12
REMARK SMILES IDX 6 13 5 14 4 15 3 16 2 17 1 18
REMARK H PARENT
REMARK Flexibility Score: inf
ROOT
ATOM      1  C   UNL     1      16.408  22.347   2.500  1.00  0.00     0.004 C 
ENDROOT
BRANCH   1   2
ATOM      2  C   UNL     1      15.848  23.696   2.011  1.00  0.00     0.000 C 
BRANCH   2   3
ATOM      3  C   UNL     1      16.372  24.163   0.641  1.00  0.00     0.000 C 
BRANCH   3   4
ATOM      4  C   UNL     1      15.341  23.983  -0.487  1.00  0.00     0.000 C 
BRANCH   4   5
ATOM      5  C   UNL     1      15.987  23.563  -1.821  1.00  0.00     0.006 C 
BRANCH   5   6
ATOM      6  C   UNL     1      17.282  24.316  -2.164  1.00  0.00     0.053 C 
BRANCH   6   7
ATOM      7  C   UNL     1      17.331  24.722  -3.605  1.00  0.00     0.041 C 
ATOM      8  O   UNL     1      18.411  25.114  -4.118  1.00  0.00    -0.550 OA
ATOM      9  O   UNL     1      16.187  24.639  -4.389  1.00  0.00    -0.550 OA
ENDBRANCH   6   7
ENDBRANCH   5   6
ENDBRANCH   4   5
ENDBRANCH   3   4
ENDBRANCH   2   3
ENDBRANCH   1   2
BRANCH   1  10
ATOM     10  C   UNL     1      17.216  22.470   3.799  1.00  0.00     0.027 C 
BRANCH  10  11
ATOM     11  C   UNL     1      18.082  23.703   3.768  1.00  0.00    -0.031 C 
ATOM     12  C   UNL     1      17.846  24.821   4.480  1.00  0.00    -0.031 C 
BRANCH  12  13
ATOM     13  C   UNL     1      16.726  24.976   5.480  1.00  0.00     0.027 C 
BRANCH  13  14
ATOM     14  C   UNL     1      17.243  25.122   6.925  1.00  0.00     0.004 C 
BRANCH  14  15
ATOM     15  C   UNL     1      16.727  24.032   7.885  1.00  0.00     0.000 C 
BRANCH  15  16
ATOM     16  C   UNL     1      15.912  22.906   7.222  1.00  0.00    -0.000 C 
BRANCH  16  17
ATOM     17  C   UNL     1      16.506  21.494   7.377  1.00  0.00    -0.003 C 
ATOM     18  C   UNL     1      17.255  21.304   8.695  1.00  0.00     0.004 C 
ENDBRANCH  16  17
ENDBRANCH  15  16
ENDBRANCH  14  15
ENDBRANCH  13  14
ENDBRANCH  12  13
ENDBRANCH  10  11
ENDBRANCH   1  10
TORSDOF 13
ENDMDL
MODEL 8
REMARK VINA RESULT:    -3.089      1.475      3.038
REMARK INTER + INTRA:          -6.637
REMARK INTER:                  -5.432
REMARK INTRA:                  -1.205
REMARK UNBOUND:                -1.201
REMARK SMILES CCCCCCC=CCCCCCCCC(=O)[O-]
REMARK SMILES IDX 10 1 11 2 12 3 13 4 14 5 15 6 16 7 17 8 18 9 9 10 8 11 7 12
REMARK SMILES IDX 6 13 5 14 4 15 3 16 2 17 1 18
REMARK H PARENT
REMARK Flexibility Score: inf
ROOT
ATOM      1  C   UNL     1      16.855  22.726   4.835  1.00  0.00     0.004 C 
ENDROOT
BRANCH   1   2
ATOM      2  C   UNL     1      16.505  24.145   4.349  1.00  0.00     0.000 C 
BRANCH   2   3
ATOM      3  C   UNL     1      16.182  24.260   2.849  1.00  0.00     0.000 C 
BRANCH   3   4
ATOM      4  C   UNL     1      16.064  22.892   2.155  1.00  0.00     0.000 C 
BRANCH   4   5
ATOM      5  C   UNL     1      15.786  23.013   0.645  1.00  0.00     0.006 C 
BRANCH   5   6
ATOM      6  C   UNL     1      16.480  24.205  -0.034  1.00  0.00     0.053 C 
BRANCH   6   7
ATOM      7  C   UNL     1      16.739  23.950  -1.488  1.00  0.00     0.041 C 
ATOM      8  O   UNL     1      17.869  24.197  -1.984  1.00  0.00    -0.550 OA
ATOM      9  O   UNL     1      15.739  23.411  -2.288  1.00  0.00    -0.550 OA
ENDBRANCH   6   7
ENDBRANCH   5   6
ENDBRANCH   4   5
ENDBRANCH   3   4
ENDBRANCH   2   3
ENDBRANCH   1   2
BRANCH   1  10
ATOM     10  C   UNL     1      17.067  22.648   6.353  1.00  0.00     0.027 C 
BRANCH  10  11
ATOM     11  C   UNL     1      16.143  21.625   6.964  1.00  0.00    -0.031 C 
ATOM     12  C   UNL     1      16.350  21.017   8.147  1.00  0.00    -0.031 C 
BRANCH  12  13
ATOM     13  C   UNL     1      17.495  21.331   9.080  1.00  0.00     0.027 C 
BRANCH  13  14
ATOM     14  C   UNL     1      17.258  22.621   9.890  1.00  0.00     0.004 C 
BRANCH  14  15
ATOM     15  C   UNL     1      17.974  23.859   9.315  1.00  0.00     0.000 C 
BRANCH  15  16
ATOM     16  C   UNL     1      17.092  25.113   9.158  1.00  0.00    -0.000 C 
BRANCH  16  17
ATOM     17  C   UNL     1      15.576  24.853   9.215  1.00  0.00    -0.003 C 
ATOM     18  C   UNL     1      14.875  25.117   7.882  1.00  0.00     0.004 C 
ENDBRANCH  16  17
ENDBRANCH  15  16
ENDBRANCH  14  15
ENDBRANCH  13  14
ENDBRANCH  12  13
ENDBRANCH  10  11
ENDBRANCH   1  10
TORSDOF 13
ENDMDL
MODEL 9
REMARK VINA RESULT:    -3.073      1.433      2.623
REMARK INTER + INTRA:          -6.609
REMARK INTER:                  -5.454
REMARK INTRA:                  -1.155
REMARK UNBOUND:                -1.201
REMARK SMILES CCCCCCC=CCCCCCCCC(=O)[O-]
REMARK SMILES IDX 10 1 11 2 12 3 13 4 14 5 15 6 16 7 17 8 18 9 9 10 8 11 7 12
REMARK SMILES IDX 6 13 5 14 4 15 3 16 2 17 1 18
REMARK H PARENT
REMARK Flexibility Score: inf
ROOT
ATOM      1  C   UNL     1      17.300  23.561   4.004  1.00  0.00     0.004 C 
ENDROOT
BRANCH   1   2
ATOM      2  C   UNL     1      16.214  23.735   2.926  1.00  0.00     0.000 C 
BRANCH   2   3
ATOM      3  C   UNL     1      16.099  22.575   1.921  1.00  0.00     0.000 C 
BRANCH   3   4
ATOM      4  C   UNL     1      15.070  22.845   0.810  1.00  0.00     0.000 C 
BRANCH   4   5
ATOM      5  C   UNL     1      15.460  24.037  -0.084  1.00  0.00     0.006 C 
BRANCH   5   6
ATOM      6  C   UNL     1      16.191  23.646  -1.378  1.00  0.00     0.053 C 
BRANCH   6   7
ATOM      7  C   UNL     1      17.476  24.400  -1.547  1.00  0.00     0.041 C 
ATOM      8  O   UNL     1      18.008  24.500  -2.683  1.00  0.00    -0.550 OA
ATOM      9  O   UNL     1      18.067  25.017  -0.452  1.00  0.00    -0.550 OA
ENDBRANCH   6   7
ENDBRANCH   5   6
ENDBRANCH   4   5
ENDBRANCH   3   4
ENDBRANCH   2   3
ENDBRANCH   1   2
BRANCH   1  10
ATOM     10  C   UNL     1      16.726  23.472   5.424  1.00  0.00     0.027 C 
BRANCH  10  11
ATOM     11  C   UNL     1      16.960  22.101   6.005  1.00  0.00    -0.031 C 
ATOM     12  C   UNL     1      16.260  21.573   7.026  1.00  0.00    -0.031 C 
BRANCH  12  13
ATOM     13  C   UNL     1      15.079  22.241   7.688  1.00  0.00     0.027 C 
BRANCH  13  14
ATOM     14  C   UNL     1      15.415  22.770   9.096  1.00  0.00     0.004 C 
BRANCH  14  15
ATOM     15  C   UNL     1      15.295  24.300   9.233  1.00  0.00     0.000 C 
BRANCH  15  16
ATOM     16  C   UNL     1      16.605  25.032   9.584  1.00  0.00    -0.000 C 
BRANCH  16  17
ATOM     17  C   UNL     1      17.884  24.192   9.419  1.00  0.00    -0.003 C 
ATOM     18  C   UNL     1      19.076  25.011   8.926  1.00  0.00     0.004 C 
ENDBRANCH  16  17
ENDBRANCH  15  16
ENDBRANCH  14  15
ENDBRANCH  13  14
ENDBRANCH  12  13
ENDBRANCH  10  11
ENDBRANCH   1  10
TORSDOF 13
ENDMDL
