MODEL 1
REMARK VINA RESULT:     8.630      0.000      0.000
REMARK INTER + INTRA:          16.908
REMARK INTER:                  16.703
REMARK INTRA:                   0.205
REMARK UNBOUND:                 0.205
REMARK SMILES CCCCCCCCCCCCCCCCCC(=O)[O-]
REMARK SMILES IDX 10 1 11 2 12 3 13 4 14 5 15 6 16 7 17 8 18 9 19 10 20 11
REMARK SMILES IDX 9 12 8 13 7 14 6 15 5 16 4 17 3 18 2 19 1 20
REMARK H PARENT
REMARK Flexibility Score: inf
ROOT
ATOM      1  C   UNL     1      -2.581 -16.167   7.165  1.00  0.00     0.000 C 
ENDROOT
BRANCH   1   2
ATOM      2  C   UNL     1      -3.963 -16.820   6.990  1.00  0.00     0.000 C 
BRANCH   2   3
ATOM      3  C   UNL     1      -4.998 -15.852   6.390  1.00  0.00     0.000 C 
BRANCH   3   4
ATOM      4  C   UNL     1      -6.383 -15.994   7.037  1.00  0.00     0.000 C 
BRANCH   4   5
ATOM      5  C   UNL     1      -7.001 -14.618   7.314  1.00  0.00     0.000 C 
BRANCH   5   6
ATOM      6  C   UNL     1      -6.821 -13.681   6.113  1.00  0.00     0.000 C 
BRANCH   6   7
ATOM      7  C   UNL     1      -5.941 -12.480   6.479  1.00  0.00     0.006 C 
BRANCH   7   8
ATOM      8  C   UNL     1      -4.472 -12.892   6.608  1.00  0.00     0.053 C 
BRANCH   8   9
ATOM      9  C   UNL     1      -3.826 -12.178   7.753  1.00  0.00     0.041 C 
ATOM     10  O   UNL     1      -3.772 -10.920   7.766  1.00  0.00    -0.550 OA
ATOM     11  O   UNL     1      -3.328 -12.899   8.830  1.00  0.00    -0.550 OA
ENDBRANCH   8   9
ENDBRANCH   7   8
ENDBRANCH   6   7
ENDBRANCH   5   6
ENDBRANCH   4   5
ENDBRANCH   3   4
ENDBRANCH   2   3
ENDBRANCH   1   2
BRANCH   1  12
ATOM     12  C   UNL     1      -2.390 -14.935   6.264  1.00  0.00     0.000 C 
BRANCH  12  13
ATOM     13  C   UNL     1      -1.191 -14.071   6.685  1.00  0.00    -0.000 C 
BRANCH  13  14
ATOM     14  C   UNL     1      -0.821 -14.322   8.152  1.00  0.00    -0.000 C 
BRANCH  14  15
ATOM     15  C   UNL     1       0.632 -13.910   8.432  1.00  0.00    -0.000 C 
BRANCH  15  16
ATOM     16  C   UNL     1       1.497 -15.095   8.911  1.00  0.00    -0.000 C 
BRANCH  16  17
ATOM     17  C   UNL     1       2.204 -15.846   7.766  1.00  0.00    -0.000 C 
BRANCH  17  18
ATOM     18  C   UNL     1       1.732 -17.296   7.551  1.00  0.00    -0.000 C 
BRANCH  18  19
ATOM     19  C   UNL     1       2.114 -17.905   6.191  1.00  0.00    -0.003 C 
ATOM     20  C   UNL     1       1.904 -19.417   6.133  1.00  0.00     0.004 C 
ENDBRANCH  18  19
ENDBRANCH  17  18
ENDBRANCH  16  17
ENDBRANCH  15  16
ENDBRANCH  14  15
ENDBRANCH  13  14
ENDBRANCH  12  13
ENDBRANCH   1  12
TORSDOF 16
ENDMDL
MODEL 2
REMARK VINA RESULT:     9.642      1.750      2.340
REMARK INTER + INTRA:          18.866
REMARK INTER:                  19.080
REMARK INTRA:                  -0.214
REMARK UNBOUND:                 0.205
REMARK SMILES CCCCCCCCCCCCCCCCCC(=O)[O-]
REMARK SMILES IDX 10 1 11 2 12 3 13 4 14 5 15 6 16 7 17 8 18 9 19 10 20 11
REMARK SMILES IDX 9 12 8 13 7 14 6 15 5 16 4 17 3 18 2 19 1 20
REMARK H PARENT
REMARK Flexibility Score: inf
ROOT
ATOM      1  C   UNL     1      -3.201 -16.971   6.732  1.00  0.00     0.000 C 
ENDROOT
BRANCH   1   2
ATOM      2  C   UNL     1      -4.683 -17.382   6.741  1.00  0.00     0.000 C 
BRANCH   2   3
ATOM      3  C   UNL     1      -5.614 -16.229   6.330  1.00  0.00     0.000 C 
BRANCH   3   4
ATOM      4  C   UNL     1      -6.768 -16.018   7.323  1.00  0.00     0.000 C 
BRANCH   4   5
ATOM      5  C   UNL     1      -7.103 -14.529   7.464  1.00  0.00     0.000 C 
BRANCH   5   6
ATOM      6  C   UNL     1      -6.797 -13.769   6.167  1.00  0.00     0.000 C 
BRANCH   6   7
ATOM      7  C   UNL     1      -5.972 -12.508   6.449  1.00  0.00     0.006 C 
BRANCH   7   8
ATOM      8  C   UNL     1      -4.482 -12.841   6.571  1.00  0.00     0.053 C 
BRANCH   8   9
ATOM      9  C   UNL     1      -3.873 -12.100   7.719  1.00  0.00     0.041 C 
ATOM     10  O   UNL     1      -3.813 -10.843   7.703  1.00  0.00    -0.550 OA
ATOM     11  O   UNL     1      -3.417 -12.797   8.831  1.00  0.00    -0.550 OA
ENDBRANCH   8   9
ENDBRANCH   7   8
ENDBRANCH   6   7
ENDBRANCH   5   6
ENDBRANCH   4   5
ENDBRANCH   3   4
ENDBRANCH   2   3
ENDBRANCH   1   2
BRANCH   1  12
ATOM     12  C   UNL     1      -2.997 -15.485   7.068  1.00  0.00     0.000 C 
BRANCH  12  13
ATOM     13  C   UNL     1      -2.249 -14.722   5.962  1.00  0.00    -0.000 C 
BRANCH  13  14
ATOM     14  C   UNL     1      -1.189 -13.789   6.561  1.00  0.00    -0.000 C 
BRANCH  14  15
ATOM     15  C   UNL     1      -0.720 -14.295   7.932  1.00  0.00    -0.000 C 
BRANCH  15  16
ATOM     16  C   UNL     1       0.551 -13.569   8.425  1.00  0.00    -0.000 C 
BRANCH  16  17
ATOM     17  C   UNL     1       1.821 -14.439   8.368  1.00  0.00    -0.000 C 
BRANCH  17  18
ATOM     18  C   UNL     1       2.114 -15.245   9.647  1.00  0.00    -0.000 C 
BRANCH  18  19
ATOM     19  C   UNL     1       1.668 -14.566  10.954  1.00  0.00    -0.003 C 
ATOM     20  C   UNL     1       0.822 -15.478  11.842  1.00  0.00     0.004 C 
ENDBRANCH  18  19
ENDBRANCH  17  18
ENDBRANCH  16  17
ENDBRANCH  15  16
ENDBRANCH  14  15
ENDBRANCH  13  14
ENDBRANCH  12  13
ENDBRANCH   1  12
TORSDOF 16
ENDMDL
MODEL 3
REMARK VINA RESULT:     9.934      1.264      2.464
REMARK INTER + INTRA:          19.431
REMARK INTER:                  20.683
REMARK INTRA:                  -1.252
REMARK UNBOUND:                 0.205
REMARK SMILES CCCCCCCCCCCCCCCCCC(=O)[O-]
REMARK SMILES IDX 10 1 11 2 12 3 13 4 14 5 15 6 16 7 17 8 18 9 19 10 20 11
REMARK SMILES IDX 9 12 8 13 7 14 6 15 5 16 4 17 3 18 2 19 1 20
REMARK H PARENT
REMARK Flexibility Score: inf
ROOT
ATOM      1  C   UNL     1      -2.212 -13.976   7.805  1.00  0.00     0.000 C 
ENDROOT
BRANCH   1   2
ATOM      2  C   UNL     1      -2.418 -14.509   6.376  1.00  0.00     0.000 C 
BRANCH   2   3
ATOM      3  C   UNL     1      -2.824 -15.992   6.355  1.00  0.00     0.000 C 
BRANCH   3   4
ATOM      4  C   UNL     1      -3.934 -16.314   7.368  1.00  0.00     0.000 C 
BRANCH   4   5
ATOM      5  C   UNL     1      -5.107 -17.027   6.685  1.00  0.00     0.000 C 
BRANCH   5   6
ATOM      6  C   UNL     1      -6.409 -16.236   6.858  1.00  0.00     0.000 C 
BRANCH   6   7
ATOM      7  C   UNL     1      -6.122 -14.760   7.159  1.00  0.00     0.006 C 
BRANCH   7   8
ATOM      8  C   UNL     1      -6.285 -13.901   5.903  1.00  0.00     0.053 C 
BRANCH   8   9
ATOM      9  C   UNL     1      -6.170 -12.449   6.244  1.00  0.00     0.041 C 
ATOM     10  O   UNL     1      -7.106 -11.655   5.963  1.00  0.00    -0.550 OA
ATOM     11  O   UNL     1      -5.050 -11.980   6.919  1.00  0.00    -0.550 OA
ENDBRANCH   8   9
ENDBRANCH   7   8
ENDBRANCH   6   7
ENDBRANCH   5   6
ENDBRANCH   4   5
ENDBRANCH   3   4
ENDBRANCH   2   3
ENDBRANCH   1   2
BRANCH   1  12
ATOM     12  C   UNL     1      -0.748 -13.604   8.092  1.00  0.00     0.000 C 
BRANCH  12  13
ATOM     13  C   UNL     1      -0.080 -14.554   9.099  1.00  0.00    -0.000 C 
BRANCH  13  14
ATOM     14  C   UNL     1       1.393 -14.181   9.311  1.00  0.00    -0.000 C 
BRANCH  14  15
ATOM     15  C   UNL     1       2.319 -15.133   8.540  1.00  0.00    -0.000 C 
BRANCH  15  16
ATOM     16  C   UNL     1       1.559 -15.971   7.490  1.00  0.00    -0.000 C 
BRANCH  16  17
ATOM     17  C   UNL     1       2.299 -17.256   7.071  1.00  0.00    -0.000 C 
BRANCH  17  18
ATOM     18  C   UNL     1       1.656 -18.024   5.902  1.00  0.00    -0.000 C 
BRANCH  18  19
ATOM     19  C   UNL     1       1.639 -19.554   6.066  1.00  0.00    -0.003 C 
ATOM     20  C   UNL     1       2.317 -20.025   7.352  1.00  0.00     0.004 C 
ENDBRANCH  18  19
ENDBRANCH  17  18
ENDBRANCH  16  17
ENDBRANCH  15  16
ENDBRANCH  14  15
ENDBRANCH  13  14
ENDBRANCH  12  13
ENDBRANCH   1  12
TORSDOF 16
ENDMDL
MODEL 4
REMARK VINA RESULT:    10.173      2.756      6.759
REMARK INTER + INTRA:          19.894
REMARK INTER:                  20.122
REMARK INTRA:                  -0.228
REMARK UNBOUND:                 0.205
REMARK SMILES CCCCCCCCCCCCCCCCCC(=O)[O-]
REMARK SMILES IDX 10 1 11 2 12 3 13 4 14 5 15 6 16 7 17 8 18 9 19 10 20 11
REMARK SMILES IDX 9 12 8 13 7 14 6 15 5 16 4 17 3 18 2 19 1 20
REMARK H PARENT
REMARK Flexibility Score: inf
ROOT
ATOM      1  C   UNL     1      -3.987 -16.787   7.047  1.00  0.00     0.000 C 
ENDROOT
BRANCH   1   2
ATOM      2  C   UNL     1      -2.732 -15.960   6.714  1.00  0.00     0.000 C 
BRANCH   2   3
ATOM      3  C   UNL     1      -3.075 -14.536   6.245  1.00  0.00     0.000 C 
BRANCH   3   4
ATOM      4  C   UNL     1      -1.827 -13.663   6.046  1.00  0.00     0.000 C 
BRANCH   4   5
ATOM      5  C   UNL     1      -0.608 -14.287   6.736  1.00  0.00     0.000 C 
BRANCH   5   6
ATOM      6  C   UNL     1      -0.395 -13.685   8.131  1.00  0.00     0.000 C 
BRANCH   6   7
ATOM      7  C   UNL     1       1.058 -13.858   8.589  1.00  0.00     0.006 C 
BRANCH   7   8
ATOM      8  C   UNL     1       1.257 -15.201   9.297  1.00  0.00     0.053 C 
BRANCH   8   9
ATOM      9  C   UNL     1       1.838 -14.993  10.659  1.00  0.00     0.041 C 
ATOM     10  O   UNL     1       1.115 -15.108  11.682  1.00  0.00    -0.550 OA
ATOM     11  O   UNL     1       3.193 -14.722  10.802  1.00  0.00    -0.550 OA
ENDBRANCH   8   9
ENDBRANCH   7   8
ENDBRANCH   6   7
ENDBRANCH   5   6
ENDBRANCH   4   5
ENDBRANCH   3   4
ENDBRANCH   2   3
ENDBRANCH   1   2
BRANCH   1  12
ATOM     12  C   UNL     1      -5.221 -16.336   6.248  1.00  0.00     0.000 C 
BRANCH  12  13
ATOM     13  C   UNL     1      -6.496 -16.281   7.105  1.00  0.00    -0.000 C 
BRANCH  13  14
ATOM     14  C   UNL     1      -7.044 -14.851   7.183  1.00  0.00    -0.000 C 
BRANCH  14  15
ATOM     15  C   UNL     1      -6.785 -14.089   5.875  1.00  0.00    -0.000 C 
BRANCH  15  16
ATOM     16  C   UNL     1      -5.886 -12.852   6.082  1.00  0.00    -0.000 C 
BRANCH  16  17
ATOM     17  C   UNL     1      -5.453 -12.640   7.546  1.00  0.00    -0.000 C 
BRANCH  17  18
ATOM     18  C   UNL     1      -3.942 -12.427   7.752  1.00  0.00    -0.000 C 
BRANCH  18  19
ATOM     19  C   UNL     1      -3.489 -10.956   7.731  1.00  0.00    -0.003 C 
ATOM     20  C   UNL     1      -3.103 -10.430   9.113  1.00  0.00     0.004 C 
ENDBRANCH  18  19
ENDBRANCH  17  18
ENDBRANCH  16  17
ENDBRANCH  15  16
ENDBRANCH  14  15
ENDBRANCH  13  14
ENDBRANCH  12  13
ENDBRANCH   1  12
TORSDOF 16
ENDMDL
MODEL 5
REMARK VINA RESULT:    10.260      2.760      5.892
REMARK INTER + INTRA:          20.062
REMARK INTER:                  17.370
REMARK INTRA:                   2.693
REMARK UNBOUND:                 0.205
REMARK SMILES CCCCCCCCCCCCCCCCCC(=O)[O-]
REMARK SMILES IDX 10 1 11 2 12 3 13 4 14 5 15 6 16 7 17 8 18 9 19 10 20 11
REMARK SMILES IDX 9 12 8 13 7 14 6 15 5 16 4 17 3 18 2 19 1 20
REMARK H PARENT
REMARK Flexibility Score: inf
ROOT
ATOM      1  C   UNL     1      -4.000 -11.770   7.233  1.00  0.00     0.000 C 
ENDROOT
BRANCH   1   2
ATOM      2  C   UNL     1      -3.454 -12.458   8.497  1.00  0.00     0.000 C 
BRANCH   2   3
ATOM      3  C   UNL     1      -2.797 -13.813   8.189  1.00  0.00     0.000 C 
BRANCH   3   4
ATOM      4  C   UNL     1      -3.059 -14.285   6.751  1.00  0.00     0.000 C 
BRANCH   4   5
ATOM      5  C   UNL     1      -1.796 -14.152   5.892  1.00  0.00     0.000 C 
BRANCH   5   6
ATOM      6  C   UNL     1      -0.633 -13.575   6.708  1.00  0.00     0.000 C 
BRANCH   6   7
ATOM      7  C   UNL     1      -0.499 -14.288   8.059  1.00  0.00     0.006 C 
BRANCH   7   8
ATOM      8  C   UNL     1       0.672 -13.723   8.866  1.00  0.00     0.053 C 
BRANCH   8   9
ATOM      9  C   UNL     1       1.571 -14.827   9.326  1.00  0.00     0.041 C 
ATOM     10  O   UNL     1       1.807 -14.984  10.553  1.00  0.00    -0.550 OA
ATOM     11  O   UNL     1       2.109 -15.715   8.403  1.00  0.00    -0.550 OA
ENDBRANCH   8   9
ENDBRANCH   7   8
ENDBRANCH   6   7
ENDBRANCH   5   6
ENDBRANCH   4   5
ENDBRANCH   3   4
ENDBRANCH   2   3
ENDBRANCH   1   2
BRANCH   1  12
ATOM     12  C   UNL     1      -5.494 -12.052   7.005  1.00  0.00     0.000 C 
BRANCH  12  13
ATOM     13  C   UNL     1      -5.742 -13.069   5.879  1.00  0.00    -0.000 C 
BRANCH  13  14
ATOM     14  C   UNL     1      -6.965 -13.942   6.188  1.00  0.00    -0.000 C 
BRANCH  14  15
ATOM     15  C   UNL     1      -6.778 -14.705   7.508  1.00  0.00    -0.000 C 
BRANCH  15  16
ATOM     16  C   UNL     1      -6.526 -16.211   7.286  1.00  0.00    -0.000 C 
BRANCH  16  17
ATOM     17  C   UNL     1      -5.485 -16.509   6.189  1.00  0.00    -0.000 C 
BRANCH  17  18
ATOM     18  C   UNL     1      -4.017 -16.397   6.640  1.00  0.00    -0.000 C 
BRANCH  18  19
ATOM     19  C   UNL     1      -3.455 -17.653   7.329  1.00  0.00    -0.003 C 
ATOM     20  C   UNL     1      -2.645 -18.541   6.386  1.00  0.00     0.004 C 
ENDBRANCH  18  19
ENDBRANCH  17  18
ENDBRANCH  16  17
ENDBRANCH  15  16
ENDBRANCH  14  15
ENDBRANCH  13  14
ENDBRANCH  12  13
ENDBRANCH   1  12
TORSDOF 16
ENDMDL
MODEL 6
REMARK VINA RESULT:    10.427     15.363     17.032
REMARK INTER + INTRA:          20.386
REMARK INTER:                  21.298
REMARK INTRA:                  -0.912
REMARK UNBOUND:                 0.205
REMARK SMILES CCCCCCCCCCCCCCCCCC(=O)[O-]
REMARK SMILES IDX 10 1 11 2 12 3 13 4 14 5 15 6 16 7 17 8 18 9 19 10 20 11
REMARK SMILES IDX 9 12 8 13 7 14 6 15 5 16 4 17 3 18 2 19 1 20
REMARK H PARENT
REMARK Flexibility Score: inf
ROOT
ATOM      1  C   UNL     1      -0.983  -8.661  20.594  1.00  0.00     0.000 C 
ENDROOT
BRANCH   1   2
ATOM      2  C   UNL     1      -0.736  -7.967  21.945  1.00  0.00     0.000 C 
BRANCH   2   3
ATOM      3  C   UNL     1      -1.474  -6.622  22.058  1.00  0.00     0.000 C 
BRANCH   3   4
ATOM      4  C   UNL     1      -1.511  -6.087  23.497  1.00  0.00     0.000 C 
BRANCH   4   5
ATOM      5  C   UNL     1      -1.510  -4.554  23.510  1.00  0.00     0.000 C 
BRANCH   5   6
ATOM      6  C   UNL     1      -2.540  -4.010  24.507  1.00  0.00     0.000 C 
BRANCH   6   7
ATOM      7  C   UNL     1      -2.894  -5.064  25.564  1.00  0.00     0.006 C 
BRANCH   7   8
ATOM      8  C   UNL     1      -4.323  -4.870  26.078  1.00  0.00     0.053 C 
BRANCH   8   9
ATOM      9  C   UNL     1      -5.312  -5.366  25.072  1.00  0.00     0.041 C 
ATOM     10  O   UNL     1      -6.531  -5.068  25.179  1.00  0.00    -0.550 OA
ATOM     11  O   UNL     1      -4.882  -6.117  23.985  1.00  0.00    -0.550 OA
ENDBRANCH   8   9
ENDBRANCH   7   8
ENDBRANCH   6   7
ENDBRANCH   5   6
ENDBRANCH   4   5
ENDBRANCH   3   4
ENDBRANCH   2   3
ENDBRANCH   1   2
BRANCH   1  12
ATOM     12  C   UNL     1      -2.023  -7.926  19.733  1.00  0.00     0.000 C 
BRANCH  12  13
ATOM     13  C   UNL     1      -3.386  -8.637  19.709  1.00  0.00    -0.000 C 
BRANCH  13  14
ATOM     14  C   UNL     1      -3.247 -10.104  20.135  1.00  0.00    -0.000 C 
BRANCH  14  15
ATOM     15  C   UNL     1      -4.576 -10.647  20.681  1.00  0.00    -0.000 C 
BRANCH  15  16
ATOM     16  C   UNL     1      -4.445 -12.088  21.220  1.00  0.00    -0.000 C 
BRANCH  16  17
ATOM     17  C   UNL     1      -4.599 -13.170  20.134  1.00  0.00    -0.000 C 
BRANCH  17  18
ATOM     18  C   UNL     1      -3.296 -13.552  19.408  1.00  0.00    -0.000 C 
BRANCH  18  19
ATOM     19  C   UNL     1      -2.879 -15.026  19.561  1.00  0.00    -0.003 C 
ATOM     20  C   UNL     1      -3.999 -15.909  20.110  1.00  0.00     0.004 C 
ENDBRANCH  18  19
ENDBRANCH  17  18
ENDBRANCH  16  17
ENDBRANCH  15  16
ENDBRANCH  14  15
ENDBRANCH  13  14
ENDBRANCH  12  13
ENDBRANCH   1  12
TORSDOF 16
ENDMDL
MODEL 7
REMARK VINA RESULT:    10.698      2.002      3.056
REMARK INTER + INTRA:          20.910
REMARK INTER:                  21.114
REMARK INTRA:                  -0.203
REMARK UNBOUND:                 0.205
REMARK SMILES CCCCCCCCCCCCCCCCCC(=O)[O-]
REMARK SMILES IDX 10 1 11 2 12 3 13 4 14 5 15 6 16 7 17 8 18 9 19 10 20 11
REMARK SMILES IDX 9 12 8 13 7 14 6 15 5 16 4 17 3 18 2 19 1 20
REMARK H PARENT
REMARK Flexibility Score: inf
ROOT
ATOM      1  C   UNL     1      -3.315 -13.452   7.530  1.00  0.00     0.000 C 
ENDROOT
BRANCH   1   2
ATOM      2  C   UNL     1      -4.241 -13.398   6.303  1.00  0.00     0.000 C 
BRANCH   2   3
ATOM      3  C   UNL     1      -5.295 -12.283   6.412  1.00  0.00     0.000 C 
BRANCH   3   4
ATOM      4  C   UNL     1      -6.730 -12.830   6.458  1.00  0.00     0.000 C 
BRANCH   4   5
ATOM      5  C   UNL     1      -6.764 -14.311   6.063  1.00  0.00     0.000 C 
BRANCH   5   6
ATOM      6  C   UNL     1      -6.877 -15.210   7.300  1.00  0.00     0.000 C 
BRANCH   6   7
ATOM      7  C   UNL     1      -6.016 -16.470   7.146  1.00  0.00     0.006 C 
BRANCH   7   8
ATOM      8  C   UNL     1      -4.669 -16.141   6.497  1.00  0.00     0.053 C 
BRANCH   8   9
ATOM      9  C   UNL     1      -3.609 -17.073   6.990  1.00  0.00     0.041 C 
ATOM     10  O   UNL     1      -2.500 -17.144   6.399  1.00  0.00    -0.550 OA
ATOM     11  O   UNL     1      -3.827 -17.829   8.136  1.00  0.00    -0.550 OA
ENDBRANCH   8   9
ENDBRANCH   7   8
ENDBRANCH   6   7
ENDBRANCH   5   6
ENDBRANCH   4   5
ENDBRANCH   3   4
ENDBRANCH   2   3
ENDBRANCH   1   2
BRANCH   1  12
ATOM     12  C   UNL     1      -1.828 -13.533   7.146  1.00  0.00     0.000 C 
BRANCH  12  13
ATOM     13  C   UNL     1      -0.993 -14.327   8.164  1.00  0.00    -0.000 C 
BRANCH  13  14
ATOM     14  C   UNL     1       0.402 -13.711   8.328  1.00  0.00    -0.000 C 
BRANCH  14  15
ATOM     15  C   UNL     1       1.475 -14.802   8.454  1.00  0.00    -0.000 C 
BRANCH  15  16
ATOM     16  C   UNL     1       1.006 -16.156   7.880  1.00  0.00    -0.000 C 
BRANCH  16  17
ATOM     17  C   UNL     1       2.076 -16.872   7.032  1.00  0.00    -0.000 C 
BRANCH  17  18
ATOM     18  C   UNL     1       1.523 -17.845   5.975  1.00  0.00    -0.000 C 
BRANCH  18  19
ATOM     19  C   UNL     1       2.215 -19.219   5.936  1.00  0.00    -0.003 C 
ATOM     20  C   UNL     1       1.883 -20.089   7.148  1.00  0.00     0.004 C 
ENDBRANCH  18  19
ENDBRANCH  17  18
ENDBRANCH  16  17
ENDBRANCH  15  16
ENDBRANCH  14  15
ENDBRANCH  13  14
ENDBRANCH  12  13
ENDBRANCH   1  12
TORSDOF 16
ENDMDL
MODEL 8
REMARK VINA RESULT:    10.929     15.007     17.100
REMARK INTER + INTRA:          21.356
REMARK INTER:                  22.254
REMARK INTRA:                  -0.898
REMARK UNBOUND:                 0.205
REMARK SMILES CCCCCCCCCCCCCCCCCC(=O)[O-]
REMARK SMILES IDX 10 1 11 2 12 3 13 4 14 5 15 6 16 7 17 8 18 9 19 10 20 11
REMARK SMILES IDX 9 12 8 13 7 14 6 15 5 16 4 17 3 18 2 19 1 20
REMARK H PARENT
REMARK Flexibility Score: inf
ROOT
ATOM      1  C   UNL     1      -1.179  -8.690  20.168  1.00  0.00     0.000 C 
ENDROOT
BRANCH   1   2
ATOM      2  C   UNL     1      -2.540  -8.241  19.609  1.00  0.00     0.000 C 
BRANCH   2   3
ATOM      3  C   UNL     1      -3.712  -9.035  20.211  1.00  0.00     0.000 C 
BRANCH   3   4
ATOM      4  C   UNL     1      -3.472 -10.552  20.187  1.00  0.00     0.000 C 
BRANCH   4   5
ATOM      5  C   UNL     1      -4.601 -11.295  20.911  1.00  0.00     0.000 C 
BRANCH   5   6
ATOM      6  C   UNL     1      -4.444 -12.814  20.765  1.00  0.00     0.000 C 
BRANCH   6   7
ATOM      7  C   UNL     1      -3.974 -13.186  19.354  1.00  0.00     0.006 C 
BRANCH   7   8
ATOM      8  C   UNL     1      -2.975 -14.345  19.395  1.00  0.00     0.053 C 
BRANCH   8   9
ATOM      9  C   UNL     1      -3.601 -15.555  20.012  1.00  0.00     0.041 C 
ATOM     10  O   UNL     1      -4.337 -16.310  19.323  1.00  0.00    -0.550 OA
ATOM     11  O   UNL     1      -3.333 -15.877  21.336  1.00  0.00    -0.550 OA
ENDBRANCH   8   9
ENDBRANCH   7   8
ENDBRANCH   6   7
ENDBRANCH   5   6
ENDBRANCH   4   5
ENDBRANCH   3   4
ENDBRANCH   2   3
ENDBRANCH   1   2
BRANCH   1  12
ATOM     12  C   UNL     1      -0.808  -7.969  21.474  1.00  0.00     0.000 C 
BRANCH  12  13
ATOM     13  C   UNL     1      -1.758  -6.806  21.802  1.00  0.00    -0.000 C 
BRANCH  13  14
ATOM     14  C   UNL     1      -1.651  -6.412  23.281  1.00  0.00    -0.000 C 
BRANCH  14  15
ATOM     15  C   UNL     1      -1.252  -4.937  23.430  1.00  0.00    -0.000 C 
BRANCH  15  16
ATOM     16  C   UNL     1      -2.127  -4.192  24.461  1.00  0.00    -0.000 C 
BRANCH  16  17
ATOM     17  C   UNL     1      -2.819  -5.125  25.473  1.00  0.00    -0.000 C 
BRANCH  17  18
ATOM     18  C   UNL     1      -4.108  -4.561  26.100  1.00  0.00    -0.000 C 
BRANCH  18  19
ATOM     19  C   UNL     1      -5.413  -5.121  25.507  1.00  0.00    -0.003 C 
ATOM     20  C   UNL     1      -5.189  -5.942  24.238  1.00  0.00     0.004 C 
ENDBRANCH  18  19
ENDBRANCH  17  18
ENDBRANCH  16  17
ENDBRANCH  15  16
ENDBRANCH  14  15
ENDBRANCH  13  14
ENDBRANCH  12  13
ENDBRANCH   1  12
TORSDOF 16
ENDMDL
