MODEL 1
REMARK VINA RESULT:    -0.446      0.000      0.000
REMARK INTER + INTRA:          -0.573
REMARK INTER:                  -0.524
REMARK INTRA:                  -0.050
REMARK UNBOUND:                -0.050
REMARK SMILES CCCCC(=O)[O-]
REMARK SMILES IDX 4 1 5 2 6 3 7 4 3 5 2 6 1 7
REMARK H PARENT
REMARK Flexibility Score: inf
ROOT
ATOM      1  C   UNL     1     104.625 104.555 106.801  1.00  0.00     0.053 C 
ENDROOT
BRANCH   1   2
ATOM      2  C   UNL     1     104.486 105.837 107.559  1.00  0.00     0.041 C 
ATOM      3  O   UNL     1     104.704 105.868 108.798  1.00  0.00    -0.550 OA
ATOM      4  O   UNL     1     104.068 106.989 106.905  1.00  0.00    -0.550 OA
ENDBRANCH   1   2
BRANCH   1   5
ATOM      5  C   UNL     1     103.300 103.787 106.798  1.00  0.00     0.006 C 
BRANCH   5   6
ATOM      6  C   UNL     1     103.340 102.620 107.790  1.00  0.00    -0.003 C 
ATOM      7  C   UNL     1     103.739 101.320 107.096  1.00  0.00     0.004 C 
ENDBRANCH   5   6
ENDBRANCH   1   5
TORSDOF 3
ENDMDL
MODEL 2
REMARK VINA RESULT:    -0.445      2.521      4.001
REMARK INTER + INTRA:          -0.572
REMARK INTER:                  -0.528
REMARK INTRA:                  -0.044
REMARK UNBOUND:                -0.050
REMARK SMILES CCCCC(=O)[O-]
REMARK SMILES IDX 4 1 5 2 6 3 7 4 3 5 2 6 1 7
REMARK H PARENT
REMARK Flexibility Score: inf
ROOT
ATOM      1  C   UNL     1     103.261 103.670 106.889  1.00  0.00     0.053 C 
ENDROOT
BRANCH   1   2
ATOM      2  C   UNL     1     103.517 102.357 107.558  1.00  0.00     0.041 C 
ATOM      3  O   UNL     1     103.900 101.365 106.884  1.00  0.00    -0.550 OA
ATOM      4  O   UNL     1     103.285 102.215 108.921  1.00  0.00    -0.550 OA
ENDBRANCH   1   2
BRANCH   1   5
ATOM      5  C   UNL     1     104.567 104.453 106.727  1.00  0.00     0.006 C 
BRANCH   5   6
ATOM      6  C   UNL     1     104.646 105.602 107.738  1.00  0.00    -0.003 C 
ATOM      7  C   UNL     1     104.215 106.923 107.105  1.00  0.00     0.004 C 
ENDBRANCH   5   6
ENDBRANCH   1   5
TORSDOF 3
ENDMDL
MODEL 3
REMARK VINA RESULT:    -0.439      5.179      6.167
REMARK INTER + INTRA:          -0.566
REMARK INTER:                  -0.512
REMARK INTRA:                  -0.054
REMARK UNBOUND:                -0.050
REMARK SMILES CCCCC(=O)[O-]
REMARK SMILES IDX 4 1 5 2 6 3 7 4 3 5 2 6 1 7
REMARK H PARENT
REMARK Flexibility Score: inf
ROOT
ATOM      1  C   UNL     1     103.163 103.602 102.156  1.00  0.00     0.053 C 
ENDROOT
BRANCH   1   2
ATOM      2  C   UNL     1     103.523 102.341 102.874  1.00  0.00     0.041 C 
ATOM      3  O   UNL     1     103.966 101.351 102.235  1.00  0.00    -0.550 OA
ATOM      4  O   UNL     1     103.324 102.240 104.245  1.00  0.00    -0.550 OA
ENDBRANCH   1   2
BRANCH   1   5
ATOM      5  C   UNL     1     104.423 104.408 101.824  1.00  0.00     0.006 C 
BRANCH   5   6
ATOM      6  C   UNL     1     104.714 105.445 102.915  1.00  0.00    -0.003 C 
ATOM      7  C   UNL     1     104.302 106.845 102.469  1.00  0.00     0.004 C 
ENDBRANCH   5   6
ENDBRANCH   1   5
TORSDOF 3
ENDMDL
MODEL 4
REMARK VINA RESULT:    -0.434      4.347      4.893
REMARK INTER + INTRA:          -0.560
REMARK INTER:                  -0.507
REMARK INTRA:                  -0.052
REMARK UNBOUND:                -0.050
REMARK SMILES CCCCC(=O)[O-]
REMARK SMILES IDX 4 1 5 2 6 3 7 4 3 5 2 6 1 7
REMARK H PARENT
REMARK Flexibility Score: inf
ROOT
ATOM      1  C   UNL     1     104.842 104.672 102.162  1.00  0.00     0.053 C 
ENDROOT
BRANCH   1   2
ATOM      2  C   UNL     1     104.489 105.941 102.870  1.00  0.00     0.041 C 
ATOM      3  O   UNL     1     104.075 106.936 102.219  1.00  0.00    -0.550 OA
ATOM      4  O   UNL     1     104.663 106.042 104.244  1.00  0.00    -0.550 OA
ENDBRANCH   1   2
BRANCH   1   5
ATOM      5  C   UNL     1     103.577 103.882 101.813  1.00  0.00     0.006 C 
BRANCH   5   6
ATOM      6  C   UNL     1     103.276 102.828 102.884  1.00  0.00    -0.003 C 
ATOM      7  C   UNL     1     103.712 101.438 102.427  1.00  0.00     0.004 C 
ENDBRANCH   5   6
ENDBRANCH   1   5
TORSDOF 3
ENDMDL
MODEL 5
REMARK VINA RESULT:    -0.349      9.426     10.267
REMARK INTER + INTRA:          -0.460
REMARK INTER:                  -0.407
REMARK INTRA:                  -0.053
REMARK UNBOUND:                -0.050
REMARK SMILES CCCCC(=O)[O-]
REMARK SMILES IDX 4 1 5 2 6 3 7 4 3 5 2 6 1 7
REMARK H PARENT
REMARK Flexibility Score: inf
ROOT
ATOM      1  C   UNL     1     103.244 103.614  97.344  1.00  0.00     0.053 C 
ENDROOT
BRANCH   1   2
ATOM      2  C   UNL     1     103.555 102.369  98.113  1.00  0.00     0.041 C 
ATOM      3  O   UNL     1     103.948 101.335  97.512  1.00  0.00    -0.550 OA
ATOM      4  O   UNL     1     103.364 102.335  99.488  1.00  0.00    -0.550 OA
ENDBRANCH   1   2
BRANCH   1   5
ATOM      5  C   UNL     1     104.516 104.436  97.117  1.00  0.00     0.006 C 
BRANCH   5   6
ATOM      6  C   UNL     1     104.673 105.513  98.196  1.00  0.00    -0.003 C 
ATOM      7  C   UNL     1     104.253 106.883  97.673  1.00  0.00     0.004 C 
ENDBRANCH   5   6
ENDBRANCH   1   5
TORSDOF 3
ENDMDL
MODEL 6
REMARK VINA RESULT:    -0.341      9.040      9.499
REMARK INTER + INTRA:          -0.450
REMARK INTER:                  -0.402
REMARK INTRA:                  -0.048
REMARK UNBOUND:                -0.050
REMARK SMILES CCCCC(=O)[O-]
REMARK SMILES IDX 4 1 5 2 6 3 7 4 3 5 2 6 1 7
REMARK H PARENT
REMARK Flexibility Score: inf
ROOT
ATOM      1  C   UNL     1     104.640 104.577  97.345  1.00  0.00     0.053 C 
ENDROOT
BRANCH   1   2
ATOM      2  C   UNL     1     104.450 105.876  98.062  1.00  0.00     0.041 C 
ATOM      3  O   UNL     1     104.667 105.956  99.299  1.00  0.00    -0.550 OA
ATOM      4  O   UNL     1     103.984 106.989  97.372  1.00  0.00    -0.550 OA
ENDBRANCH   1   2
BRANCH   1   5
ATOM      5  C   UNL     1     103.326 103.793  97.297  1.00  0.00     0.006 C 
BRANCH   5   6
ATOM      6  C   UNL     1     103.350 102.620  98.283  1.00  0.00    -0.003 C 
ATOM      7  C   UNL     1     103.811 101.335  97.601  1.00  0.00     0.004 C 
ENDBRANCH   5   6
ENDBRANCH   1   5
TORSDOF 3
ENDMDL
MODEL 7
REMARK VINA RESULT:    -0.154      4.950      6.049
REMARK INTER + INTRA:          -0.231
REMARK INTER:                  -0.188
REMARK INTRA:                  -0.042
REMARK UNBOUND:                -0.050
REMARK SMILES CCCCC(=O)[O-]
REMARK SMILES IDX 4 1 5 2 6 3 7 4 3 5 2 6 1 7
REMARK H PARENT
REMARK Flexibility Score: inf
ROOT
ATOM      1  C   UNL     1     104.523 103.825 111.970  1.00  0.00     0.053 C 
ENDROOT
BRANCH   1   2
ATOM      2  C   UNL     1     103.411 102.825 111.995  1.00  0.00     0.041 C 
ATOM      3  O   UNL     1     102.213 103.209 111.964  1.00  0.00    -0.550 OA
ATOM      4  O   UNL     1     103.697 101.469 112.102  1.00  0.00    -0.550 OA
ENDBRANCH   1   2
BRANCH   1   5
ATOM      5  C   UNL     1     104.033 105.158 111.398  1.00  0.00     0.006 C 
BRANCH   5   6
ATOM      6  C   UNL     1     104.416 106.323 112.316  1.00  0.00    -0.003 C 
ATOM      7  C   UNL     1     105.011 107.481 111.519  1.00  0.00     0.004 C 
ENDBRANCH   5   6
ENDBRANCH   1   5
TORSDOF 3
ENDMDL
MODEL 8
REMARK VINA RESULT:    -0.101      4.331      4.704
REMARK INTER + INTRA:          -0.169
REMARK INTER:                  -0.104
REMARK INTRA:                  -0.065
REMARK UNBOUND:                -0.050
REMARK SMILES CCCCC(=O)[O-]
REMARK SMILES IDX 4 1 5 2 6 3 7 4 3 5 2 6 1 7
REMARK H PARENT
REMARK Flexibility Score: inf
ROOT
ATOM      1  C   UNL     1     103.947 104.118 111.268  1.00  0.00     0.053 C 
ENDROOT
BRANCH   1   2
ATOM      2  C   UNL     1     104.738 105.248 111.847  1.00  0.00     0.041 C 
ATOM      3  O   UNL     1     105.940 105.076 112.175  1.00  0.00    -0.550 OA
ATOM      4  O   UNL     1     104.132 106.478 112.070  1.00  0.00    -0.550 OA
ENDBRANCH   1   2
BRANCH   1   5
ATOM      5  C   UNL     1     102.922 103.604 112.284  1.00  0.00     0.006 C 
BRANCH   5   6
ATOM      6  C   UNL     1     103.262 102.178 112.731  1.00  0.00    -0.003 C 
ATOM      7  C   UNL     1     103.844 101.363 111.579  1.00  0.00     0.004 C 
ENDBRANCH   5   6
ENDBRANCH   1   5
TORSDOF 3
ENDMDL
MODEL 9
REMARK VINA RESULT:     1.590      3.523      4.353
REMARK INTER + INTRA:           1.819
REMARK INTER:                   1.854
REMARK INTRA:                  -0.034
REMARK UNBOUND:                -0.050
REMARK SMILES CCCCC(=O)[O-]
REMARK SMILES IDX 4 1 5 2 6 3 7 4 3 5 2 6 1 7
REMARK H PARENT
REMARK Flexibility Score: inf
ROOT
ATOM      1  C   UNL     1     104.725 105.984 104.587  1.00  0.00     0.053 C 
ENDROOT
BRANCH   1   2
ATOM      2  C   UNL     1     104.436 105.751 103.138  1.00  0.00     0.041 C 
ATOM      3  O   UNL     1     104.235 106.726 102.367  1.00  0.00    -0.550 OA
ATOM      4  O   UNL     1     104.339 104.455 102.648  1.00  0.00    -0.550 OA
ENDBRANCH   1   2
BRANCH   1   5
ATOM      5  C   UNL     1     104.280 104.780 105.423  1.00  0.00     0.006 C 
BRANCH   5   6
ATOM      6  C   UNL     1     104.515 105.032 106.916  1.00  0.00    -0.003 C 
ATOM      7  C   UNL     1     104.368 106.513 107.255  1.00  0.00     0.004 C 
ENDBRANCH   5   6
ENDBRANCH   1   5
TORSDOF 3
ENDMDL
