MODEL 1
REMARK VINA RESULT:    -5.059      0.000      0.000
REMARK INTER + INTRA:          -6.210
REMARK INTER:                  -5.947
REMARK INTRA:                  -0.264
REMARK UNBOUND:                -0.264
REMARK SMILES O=c1c(O)c(-c2ccc(O)cc2)oc2cc(O)cc(O)c12
REMARK SMILES IDX 5 1 3 2 2 3 1 4 21 5 19 6 18 7 16 8 15 9 14 10 13 11 6 12
REMARK SMILES IDX 7 13 8 14 9 15 12 16 11 17 10 18 4 20 20 22 17 24
REMARK H PARENT 10 19 4 21 20 23 17 25
REMARK Flexibility Score: inf
ROOT
ATOM      1  C   UNL     1      -8.527  -2.571 -16.400  1.00  0.00     0.180 A 
ATOM      2  C   UNL     1      -9.072  -1.365 -16.875  1.00  0.00     0.208 A 
ATOM      3  C   UNL     1      -8.804  -0.176 -16.178  1.00  0.00     0.238 A 
ATOM      4  O   UNL     1      -9.338   0.892 -16.578  1.00  0.00    -0.285 OA
ATOM      5  C   UNL     1      -7.984  -0.204 -15.024  1.00  0.00     0.111 A 
ATOM      6  C   UNL     1      -7.614   0.946 -14.264  1.00  0.00     0.134 A 
ATOM      7  C   UNL     1      -6.908   0.784 -13.067  1.00  0.00     0.093 A 
ATOM      8  C   UNL     1      -6.499  -0.478 -12.636  1.00  0.00     0.123 A 
ATOM      9  C   UNL     1      -6.803  -1.603 -13.403  1.00  0.00     0.094 A 
ATOM     10  C   UNL     1      -7.539  -1.478 -14.584  1.00  0.00     0.146 A 
ATOM     11  O   UNL     1      -7.816  -2.574 -15.278  1.00  0.00    -0.452 OA
ENDROOT
BRANCH   1  12
ATOM     12  C   UNL     1      -8.744  -3.860 -17.093  1.00  0.00     0.021 A 
ATOM     13  C   UNL     1      -9.931  -4.596 -16.921  1.00  0.00     0.016 A 
ATOM     14  C   UNL     1     -10.124  -5.799 -17.606  1.00  0.00     0.047 A 
ATOM     15  C   UNL     1      -9.143  -6.277 -18.480  1.00  0.00     0.115 A 
ATOM     16  C   UNL     1      -7.772  -4.336 -17.990  1.00  0.00     0.016 A 
ATOM     17  C   UNL     1      -7.967  -5.540 -18.672  1.00  0.00     0.047 A 
BRANCH  15  18
ATOM     18  O   UNL     1      -9.347  -7.478 -19.155  1.00  0.00    -0.508 OA
ATOM     19  H   UNL     1      -9.468  -8.352 -18.656  1.00  0.00     0.293 HD
ENDBRANCH  15  18
ENDBRANCH   1  12
BRANCH   2  20
ATOM     20  O   UNL     1      -9.896  -1.362 -18.003  1.00  0.00    -0.502 OA
ATOM     21  H   UNL     1      -9.613  -1.769 -18.886  1.00  0.00     0.293 HD
ENDBRANCH   2  20
BRANCH   6  22
ATOM     22  O   UNL     1      -7.893   2.260 -14.652  1.00  0.00    -0.507 OA
ATOM     23  H   UNL     1      -7.210   2.908 -15.016  1.00  0.00     0.293 HD
ENDBRANCH   6  22
BRANCH   8  24
ATOM     24  O   UNL     1      -5.783  -0.599 -11.448  1.00  0.00    -0.508 OA
ATOM     25  H   UNL     1      -6.140  -1.139 -10.667  1.00  0.00     0.293 HD
ENDBRANCH   8  24
TORSDOF 5
ENDMDL
MODEL 2
REMARK VINA RESULT:    -4.842     15.817     18.168
REMARK INTER + INTRA:          -5.955
REMARK INTER:                  -5.666
REMARK INTRA:                  -0.289
REMARK UNBOUND:                -0.264
REMARK SMILES O=c1c(O)c(-c2ccc(O)cc2)oc2cc(O)cc(O)c12
REMARK SMILES IDX 5 1 3 2 2 3 1 4 21 5 19 6 18 7 16 8 15 9 14 10 13 11 6 12
REMARK SMILES IDX 7 13 8 14 9 15 12 16 11 17 10 18 4 20 20 22 17 24
REMARK H PARENT 10 19 4 21 20 23 17 25
REMARK Flexibility Score: inf
ROOT
ATOM      1  C   UNL     1       8.683   2.491 -16.606  1.00  0.00     0.180 A 
ATOM      2  C   UNL     1       9.229   1.301 -17.117  1.00  0.00     0.208 A 
ATOM      3  C   UNL     1       8.994   0.096 -16.436  1.00  0.00     0.238 A 
ATOM      4  O   UNL     1       9.531  -0.957 -16.869  1.00  0.00    -0.285 OA
ATOM      5  C   UNL     1       8.205   0.094 -15.260  1.00  0.00     0.111 A 
ATOM      6  C   UNL     1       7.870  -1.075 -14.512  1.00  0.00     0.134 A 
ATOM      7  C   UNL     1       7.193  -0.944 -13.294  1.00  0.00     0.093 A 
ATOM      8  C   UNL     1       6.780   0.305 -12.830  1.00  0.00     0.123 A 
ATOM      9  C   UNL     1       7.050   1.448 -13.583  1.00  0.00     0.094 A 
ATOM     10  C   UNL     1       7.757   1.353 -14.785  1.00  0.00     0.146 A 
ATOM     11  O   UNL     1       8.002   2.466 -15.466  1.00  0.00    -0.452 OA
ENDROOT
BRANCH   1  12
ATOM     12  C   UNL     1       8.866   3.796 -17.281  1.00  0.00     0.021 A 
ATOM     13  C   UNL     1       9.959   4.630 -16.982  1.00  0.00     0.016 A 
ATOM     14  C   UNL     1      10.125   5.846 -17.651  1.00  0.00     0.047 A 
ATOM     15  C   UNL     1       9.211   6.240 -18.633  1.00  0.00     0.115 A 
ATOM     16  C   UNL     1       7.964   4.189 -18.285  1.00  0.00     0.016 A 
ATOM     17  C   UNL     1       8.131   5.406 -18.950  1.00  0.00     0.047 A 
BRANCH  15  18
ATOM     18  O   UNL     1       9.387   7.456 -19.291  1.00  0.00    -0.508 OA
ATOM     19  H   UNL     1       8.619   8.103 -19.421  1.00  0.00     0.293 HD
ENDBRANCH  15  18
ENDBRANCH   1  12
BRANCH   2  20
ATOM     20  O   UNL     1      10.024   1.329 -18.266  1.00  0.00    -0.502 OA
ATOM     21  H   UNL     1       9.652   1.558 -19.180  1.00  0.00     0.293 HD
ENDBRANCH   2  20
BRANCH   6  22
ATOM     22  O   UNL     1       8.153  -2.378 -14.931  1.00  0.00    -0.507 OA
ATOM     23  H   UNL     1       8.857  -2.973 -14.520  1.00  0.00     0.293 HD
ENDBRANCH   6  22
BRANCH   8  24
ATOM     24  O   UNL     1       6.095   0.396 -11.621  1.00  0.00    -0.508 OA
ATOM     25  H   UNL     1       5.131   0.093 -11.534  1.00  0.00     0.293 HD
ENDBRANCH   8  24
TORSDOF 5
ENDMDL
MODEL 3
REMARK VINA RESULT:    -4.824     10.807     13.638
REMARK INTER + INTRA:          -5.934
REMARK INTER:                  -6.005
REMARK INTRA:                   0.070
REMARK UNBOUND:                -0.264
REMARK SMILES O=c1c(O)c(-c2ccc(O)cc2)oc2cc(O)cc(O)c12
REMARK SMILES IDX 5 1 3 2 2 3 1 4 21 5 19 6 18 7 16 8 15 9 14 10 13 11 6 12
REMARK SMILES IDX 7 13 8 14 9 15 12 16 11 17 10 18 4 20 20 22 17 24
REMARK H PARENT 10 19 4 21 20 23 17 25
REMARK Flexibility Score: inf
ROOT
ATOM      1  C   UNL     1       0.373  -1.295  -6.685  1.00  0.00     0.180 A 
ATOM      2  C   UNL     1       0.049  -2.585  -7.139  1.00  0.00     0.208 A 
ATOM      3  C   UNL     1      -1.293  -2.999  -7.112  1.00  0.00     0.238 A 
ATOM      4  O   UNL     1      -1.569  -4.174  -7.469  1.00  0.00    -0.285 OA
ATOM      5  C   UNL     1      -2.294  -2.113  -6.647  1.00  0.00     0.111 A 
ATOM      6  C   UNL     1      -3.689  -2.413  -6.614  1.00  0.00     0.134 A 
ATOM      7  C   UNL     1      -4.575  -1.512  -6.011  1.00  0.00     0.093 A 
ATOM      8  C   UNL     1      -4.127  -0.294  -5.502  1.00  0.00     0.123 A 
ATOM      9  C   UNL     1      -2.774   0.036  -5.583  1.00  0.00     0.094 A 
ATOM     10  C   UNL     1      -1.860  -0.859  -6.145  1.00  0.00     0.146 A 
ATOM     11  O   UNL     1      -0.580  -0.511  -6.194  1.00  0.00    -0.452 OA
ENDROOT
BRANCH   1  12
ATOM     12  C   UNL     1       1.760  -0.778  -6.706  1.00  0.00     0.021 A 
ATOM     13  C   UNL     1       2.589  -0.947  -7.830  1.00  0.00     0.016 A 
ATOM     14  C   UNL     1       3.887  -0.428  -7.837  1.00  0.00     0.047 A 
ATOM     15  C   UNL     1       4.370   0.275  -6.729  1.00  0.00     0.115 A 
ATOM     16  C   UNL     1       2.245  -0.051  -5.605  1.00  0.00     0.016 A 
ATOM     17  C   UNL     1       3.544   0.465  -5.614  1.00  0.00     0.047 A 
BRANCH  15  18
ATOM     18  O   UNL     1       5.666   0.785  -6.748  1.00  0.00    -0.508 OA
ATOM     19  H   UNL     1       5.860   1.750  -6.504  1.00  0.00     0.293 HD
ENDBRANCH  15  18
ENDBRANCH   1  12
BRANCH   2  20
ATOM     20  O   UNL     1       1.055  -3.451  -7.573  1.00  0.00    -0.502 OA
ATOM     21  H   UNL     1       2.013  -3.150  -7.705  1.00  0.00     0.293 HD
ENDBRANCH   2  20
BRANCH   6  22
ATOM     22  O   UNL     1      -4.255  -3.561  -7.177  1.00  0.00    -0.507 OA
ATOM     23  H   UNL     1      -3.877  -4.058  -7.970  1.00  0.00     0.293 HD
ENDBRANCH   6  22
BRANCH   8  24
ATOM     24  O   UNL     1      -5.040   0.586  -4.924  1.00  0.00    -0.508 OA
ATOM     25  H   UNL     1      -5.807   0.252  -4.350  1.00  0.00     0.293 HD
ENDBRANCH   8  24
TORSDOF 5
ENDMDL
MODEL 4
REMARK VINA RESULT:    -4.778     10.057     14.125
REMARK INTER + INTRA:          -5.880
REMARK INTER:                  -5.621
REMARK INTRA:                  -0.259
REMARK UNBOUND:                -0.264
REMARK SMILES O=c1c(O)c(-c2ccc(O)cc2)oc2cc(O)cc(O)c12
REMARK SMILES IDX 5 1 3 2 2 3 1 4 21 5 19 6 18 7 16 8 15 9 14 10 13 11 6 12
REMARK SMILES IDX 7 13 8 14 9 15 12 16 11 17 10 18 4 20 20 22 17 24
REMARK H PARENT 10 19 4 21 20 23 17 25
REMARK Flexibility Score: inf
ROOT
ATOM      1  C   UNL     1       1.618  -0.645  -7.184  1.00  0.00     0.180 A 
ATOM      2  C   UNL     1       0.667   0.273  -7.662  1.00  0.00     0.208 A 
ATOM      3  C   UNL     1      -0.598  -0.197  -8.047  1.00  0.00     0.238 A 
ATOM      4  O   UNL     1      -1.427   0.622  -8.525  1.00  0.00    -0.285 OA
ATOM      5  C   UNL     1      -0.902  -1.575  -7.936  1.00  0.00     0.111 A 
ATOM      6  C   UNL     1      -2.165  -2.155  -8.260  1.00  0.00     0.134 A 
ATOM      7  C   UNL     1      -2.313  -3.547  -8.236  1.00  0.00     0.093 A 
ATOM      8  C   UNL     1      -1.264  -4.375  -7.836  1.00  0.00     0.123 A 
ATOM      9  C   UNL     1      -0.044  -3.815  -7.460  1.00  0.00     0.094 A 
ATOM     10  C   UNL     1       0.146  -2.431  -7.509  1.00  0.00     0.146 A 
ATOM     11  O   UNL     1       1.326  -1.940  -7.152  1.00  0.00    -0.452 OA
ENDROOT
BRANCH   1  12
ATOM     12  C   UNL     1       2.965  -0.222  -6.735  1.00  0.00     0.021 A 
ATOM     13  C   UNL     1       3.163   0.385  -5.481  1.00  0.00     0.016 A 
ATOM     14  C   UNL     1       4.446   0.753  -5.067  1.00  0.00     0.047 A 
ATOM     15  C   UNL     1       5.548   0.509  -5.892  1.00  0.00     0.115 A 
ATOM     16  C   UNL     1       4.080  -0.484  -7.549  1.00  0.00     0.016 A 
ATOM     17  C   UNL     1       5.362  -0.113  -7.133  1.00  0.00     0.047 A 
BRANCH  15  18
ATOM     18  O   UNL     1       6.822   0.882  -5.469  1.00  0.00    -0.508 OA
ATOM     19  H   UNL     1       7.495   1.288  -6.108  1.00  0.00     0.293 HD
ENDBRANCH  15  18
ENDBRANCH   1  12
BRANCH   2  20
ATOM     20  O   UNL     1       0.995   1.626  -7.785  1.00  0.00    -0.502 OA
ATOM     21  H   UNL     1       0.826   2.153  -8.633  1.00  0.00     0.293 HD
ENDBRANCH   2  20
BRANCH   6  22
ATOM     22  O   UNL     1      -3.305  -1.413  -8.584  1.00  0.00    -0.507 OA
ATOM     23  H   UNL     1      -3.513  -1.050  -9.502  1.00  0.00     0.293 HD
ENDBRANCH   6  22
BRANCH   8  24
ATOM     24  O   UNL     1      -1.451  -5.756  -7.809  1.00  0.00    -0.508 OA
ATOM     25  H   UNL     1      -2.356  -6.172  -8.004  1.00  0.00     0.293 HD
ENDBRANCH   8  24
TORSDOF 5
ENDMDL
MODEL 5
REMARK VINA RESULT:    -4.769     10.625     12.546
REMARK INTER + INTRA:          -5.869
REMARK INTER:                  -5.585
REMARK INTRA:                  -0.285
REMARK UNBOUND:                -0.264
REMARK SMILES O=c1c(O)c(-c2ccc(O)cc2)oc2cc(O)cc(O)c12
REMARK SMILES IDX 5 1 3 2 2 3 1 4 21 5 19 6 18 7 16 8 15 9 14 10 13 11 6 12
REMARK SMILES IDX 7 13 8 14 9 15 12 16 11 17 10 18 4 20 20 22 17 24
REMARK H PARENT 10 19 4 21 20 23 17 25
REMARK Flexibility Score: inf
ROOT
ATOM      1  C   UNL     1      -1.453   0.810  -7.270  1.00  0.00     0.180 A 
ATOM      2  C   UNL     1      -0.573  -0.062  -7.935  1.00  0.00     0.208 A 
ATOM      3  C   UNL     1       0.670   0.426  -8.369  1.00  0.00     0.238 A 
ATOM      4  O   UNL     1       1.430  -0.344  -9.011  1.00  0.00    -0.285 OA
ATOM      5  C   UNL     1       1.023   1.775  -8.121  1.00  0.00     0.111 A 
ATOM      6  C   UNL     1       2.272   2.364  -8.480  1.00  0.00     0.134 A 
ATOM      7  C   UNL     1       2.463   3.740  -8.303  1.00  0.00     0.093 A 
ATOM      8  C   UNL     1       1.477   4.534  -7.718  1.00  0.00     0.123 A 
ATOM      9  C   UNL     1       0.275   3.957  -7.308  1.00  0.00     0.094 A 
ATOM     10  C   UNL     1       0.041   2.593  -7.505  1.00  0.00     0.146 A 
ATOM     11  O   UNL     1      -1.120   2.086  -7.109  1.00  0.00    -0.452 OA
ENDROOT
BRANCH   1  12
ATOM     12  C   UNL     1      -2.769   0.363  -6.760  1.00  0.00     0.021 A 
ATOM     13  C   UNL     1      -2.891  -0.303  -5.526  1.00  0.00     0.016 A 
ATOM     14  C   UNL     1      -4.146  -0.693  -5.053  1.00  0.00     0.047 A 
ATOM     15  C   UNL     1      -5.297  -0.414  -5.797  1.00  0.00     0.115 A 
ATOM     16  C   UNL     1      -3.932   0.659  -7.491  1.00  0.00     0.016 A 
ATOM     17  C   UNL     1      -5.187   0.266  -7.017  1.00  0.00     0.047 A 
BRANCH  15  18
ATOM     18  O   UNL     1      -6.543  -0.811  -5.315  1.00  0.00    -0.508 OA
ATOM     19  H   UNL     1      -6.665  -1.125  -4.360  1.00  0.00     0.293 HD
ENDBRANCH  15  18
ENDBRANCH   1  12
BRANCH   2  20
ATOM     20  O   UNL     1      -0.951  -1.383  -8.189  1.00  0.00    -0.502 OA
ATOM     21  H   UNL     1      -0.283  -2.101  -8.443  1.00  0.00     0.293 HD
ENDBRANCH   2  20
BRANCH   6  22
ATOM     22  O   UNL     1       3.358   1.645  -8.987  1.00  0.00    -0.507 OA
ATOM     23  H   UNL     1       4.038   2.011  -9.637  1.00  0.00     0.293 HD
ENDBRANCH   6  22
BRANCH   8  24
ATOM     24  O   UNL     1       1.707   5.897  -7.543  1.00  0.00    -0.508 OA
ATOM     25  H   UNL     1       2.598   6.319  -7.782  1.00  0.00     0.293 HD
ENDBRANCH   8  24
TORSDOF 5
ENDMDL
MODEL 6
REMARK VINA RESULT:    -4.757     10.879     13.534
REMARK INTER + INTRA:          -5.856
REMARK INTER:                  -5.579
REMARK INTRA:                  -0.277
REMARK UNBOUND:                -0.264
REMARK SMILES O=c1c(O)c(-c2ccc(O)cc2)oc2cc(O)cc(O)c12
REMARK SMILES IDX 5 1 3 2 2 3 1 4 21 5 19 6 18 7 16 8 15 9 14 10 13 11 6 12
REMARK SMILES IDX 7 13 8 14 9 15 12 16 11 17 10 18 4 20 20 22 17 24
REMARK H PARENT 10 19 4 21 20 23 17 25
REMARK Flexibility Score: inf
ROOT
ATOM      1  C   UNL     1       1.139  -0.722  -7.190  1.00  0.00     0.180 A 
ATOM      2  C   UNL     1       2.537  -0.686  -7.340  1.00  0.00     0.208 A 
ATOM      3  C   UNL     1       3.229   0.485  -6.994  1.00  0.00     0.238 A 
ATOM      4  O   UNL     1       4.473   0.529  -7.182  1.00  0.00    -0.285 OA
ATOM      5  C   UNL     1       2.518   1.600  -6.488  1.00  0.00     0.111 A 
ATOM      6  C   UNL     1       3.122   2.823  -6.068  1.00  0.00     0.134 A 
ATOM      7  C   UNL     1       2.312   3.906  -5.707  1.00  0.00     0.093 A 
ATOM      8  C   UNL     1       0.922   3.789  -5.687  1.00  0.00     0.123 A 
ATOM      9  C   UNL     1       0.323   2.579  -6.038  1.00  0.00     0.094 A 
ATOM     10  C   UNL     1       1.104   1.492  -6.438  1.00  0.00     0.146 A 
ATOM     11  O   UNL     1       0.494   0.362  -6.774  1.00  0.00    -0.452 OA
ENDROOT
BRANCH   1  12
ATOM     12  C   UNL     1       0.343  -1.928  -7.509  1.00  0.00     0.021 A 
ATOM     13  C   UNL     1      -0.076  -2.204  -8.825  1.00  0.00     0.016 A 
ATOM     14  C   UNL     1      -0.805  -3.362  -9.107  1.00  0.00     0.047 A 
ATOM     15  C   UNL     1      -1.116  -4.265  -8.086  1.00  0.00     0.115 A 
ATOM     16  C   UNL     1       0.046  -2.852  -6.493  1.00  0.00     0.016 A 
ATOM     17  C   UNL     1      -0.685  -4.008  -6.778  1.00  0.00     0.047 A 
BRANCH  15  18
ATOM     18  O   UNL     1      -1.845  -5.415  -8.381  1.00  0.00    -0.508 OA
ATOM     19  H   UNL     1      -2.368  -5.504  -9.245  1.00  0.00     0.293 HD
ENDBRANCH  15  18
ENDBRANCH   1  12
BRANCH   2  20
ATOM     20  O   UNL     1       3.216  -1.790  -7.863  1.00  0.00    -0.502 OA
ATOM     21  H   UNL     1       4.016  -1.697  -8.476  1.00  0.00     0.293 HD
ENDBRANCH   2  20
BRANCH   6  22
ATOM     22  O   UNL     1       4.503   3.016  -5.963  1.00  0.00    -0.507 OA
ATOM     23  H   UNL     1       5.155   2.327  -5.618  1.00  0.00     0.293 HD
ENDBRANCH   6  22
BRANCH   8  24
ATOM     24  O   UNL     1       0.147   4.882  -5.307  1.00  0.00    -0.508 OA
ATOM     25  H   UNL     1      -0.857   4.803  -5.183  1.00  0.00     0.293 HD
ENDBRANCH   8  24
TORSDOF 5
ENDMDL
MODEL 7
REMARK VINA RESULT:    -4.742     10.668     14.509
REMARK INTER + INTRA:          -5.837
REMARK INTER:                  -5.824
REMARK INTRA:                  -0.014
REMARK UNBOUND:                -0.264
REMARK SMILES O=c1c(O)c(-c2ccc(O)cc2)oc2cc(O)cc(O)c12
REMARK SMILES IDX 5 1 3 2 2 3 1 4 21 5 19 6 18 7 16 8 15 9 14 10 13 11 6 12
REMARK SMILES IDX 7 13 8 14 9 15 12 16 11 17 10 18 4 20 20 22 17 24
REMARK H PARENT 10 19 4 21 20 23 17 25
REMARK Flexibility Score: inf
ROOT
ATOM      1  C   UNL     1       0.532   1.905  -6.397  1.00  0.00     0.180 A 
ATOM      2  C   UNL     1       0.711   3.292  -6.538  1.00  0.00     0.208 A 
ATOM      3  C   UNL     1       1.997   3.833  -6.371  1.00  0.00     0.238 A 
ATOM      4  O   UNL     1       2.141   5.081  -6.445  1.00  0.00    -0.285 OA
ATOM      5  C   UNL     1       3.088   2.979  -6.079  1.00  0.00     0.111 A 
ATOM      6  C   UNL     1       4.439   3.414  -5.929  1.00  0.00     0.134 A 
ATOM      7  C   UNL     1       5.415   2.502  -5.512  1.00  0.00     0.093 A 
ATOM      8  C   UNL     1       5.104   1.158  -5.305  1.00  0.00     0.123 A 
ATOM      9  C   UNL     1       3.799   0.710  -5.507  1.00  0.00     0.094 A 
ATOM     10  C   UNL     1       2.794   1.604  -5.888  1.00  0.00     0.146 A 
ATOM     11  O   UNL     1       1.563   1.139  -6.059  1.00  0.00    -0.452 OA
ENDROOT
BRANCH   1  12
ATOM     12  C   UNL     1      -0.787   1.259  -6.583  1.00  0.00     0.021 A 
ATOM     13  C   UNL     1      -1.557   1.483  -7.740  1.00  0.00     0.016 A 
ATOM     14  C   UNL     1      -2.788   0.842  -7.906  1.00  0.00     0.047 A 
ATOM     15  C   UNL     1      -3.260  -0.039  -6.928  1.00  0.00     0.115 A 
ATOM     16  C   UNL     1      -1.258   0.355  -5.616  1.00  0.00     0.016 A 
ATOM     17  C   UNL     1      -2.490  -0.283  -5.784  1.00  0.00     0.047 A 
BRANCH  15  18
ATOM     18  O   UNL     1      -4.489  -0.670  -7.105  1.00  0.00    -0.508 OA
ATOM     19  H   UNL     1      -5.306  -0.399  -6.569  1.00  0.00     0.293 HD
ENDBRANCH  15  18
ENDBRANCH   1  12
BRANCH   2  20
ATOM     20  O   UNL     1      -0.383   4.119  -6.804  1.00  0.00    -0.502 OA
ATOM     21  H   UNL     1      -0.315   5.130  -6.799  1.00  0.00     0.293 HD
ENDBRANCH   2  20
BRANCH   6  22
ATOM     22  O   UNL     1       4.876   4.714  -6.200  1.00  0.00    -0.507 OA
ATOM     23  H   UNL     1       5.461   4.973  -6.981  1.00  0.00     0.293 HD
ENDBRANCH   6  22
BRANCH   8  24
ATOM     24  O   UNL     1       6.105   0.275  -4.906  1.00  0.00    -0.508 OA
ATOM     25  H   UNL     1       7.045   0.596  -4.703  1.00  0.00     0.293 HD
ENDBRANCH   8  24
TORSDOF 5
ENDMDL
MODEL 8
REMARK VINA RESULT:    -4.722     10.912     13.173
REMARK INTER + INTRA:          -5.814
REMARK INTER:                  -5.525
REMARK INTRA:                  -0.289
REMARK UNBOUND:                -0.264
REMARK SMILES O=c1c(O)c(-c2ccc(O)cc2)oc2cc(O)cc(O)c12
REMARK SMILES IDX 5 1 3 2 2 3 1 4 21 5 19 6 18 7 16 8 15 9 14 10 13 11 6 12
REMARK SMILES IDX 7 13 8 14 9 15 12 16 11 17 10 18 4 20 20 22 17 24
REMARK H PARENT 10 19 4 21 20 23 17 25
REMARK Flexibility Score: inf
ROOT
ATOM      1  C   UNL     1      -0.935   0.772  -7.175  1.00  0.00     0.180 A 
ATOM      2  C   UNL     1      -2.338   0.767  -7.267  1.00  0.00     0.208 A 
ATOM      3  C   UNL     1      -3.037  -0.408  -6.948  1.00  0.00     0.238 A 
ATOM      4  O   UNL     1      -4.288  -0.422  -7.084  1.00  0.00    -0.285 OA
ATOM      5  C   UNL     1      -2.327  -1.559  -6.528  1.00  0.00     0.111 A 
ATOM      6  C   UNL     1      -2.935  -2.790  -6.142  1.00  0.00     0.134 A 
ATOM      7  C   UNL     1      -2.130  -3.903  -5.869  1.00  0.00     0.093 A 
ATOM      8  C   UNL     1      -0.739  -3.810  -5.903  1.00  0.00     0.123 A 
ATOM      9  C   UNL     1      -0.133  -2.595  -6.221  1.00  0.00     0.094 A 
ATOM     10  C   UNL     1      -0.910  -1.476  -6.533  1.00  0.00     0.146 A 
ATOM     11  O   UNL     1      -0.294  -0.342  -6.840  1.00  0.00    -0.452 OA
ENDROOT
BRANCH   1  12
ATOM     12  C   UNL     1      -0.131   1.980  -7.469  1.00  0.00     0.021 A 
ATOM     13  C   UNL     1       0.329   2.255  -8.771  1.00  0.00     0.016 A 
ATOM     14  C   UNL     1       1.066   3.414  -9.031  1.00  0.00     0.047 A 
ATOM     15  C   UNL     1       1.342   4.318  -8.001  1.00  0.00     0.115 A 
ATOM     16  C   UNL     1       0.133   2.904  -6.444  1.00  0.00     0.016 A 
ATOM     17  C   UNL     1       0.871   4.061  -6.707  1.00  0.00     0.047 A 
BRANCH  15  18
ATOM     18  O   UNL     1       2.079   5.469  -8.273  1.00  0.00    -0.508 OA
ATOM     19  H   UNL     1       1.639   6.380  -8.324  1.00  0.00     0.293 HD
ENDBRANCH  15  18
ENDBRANCH   1  12
BRANCH   2  20
ATOM     20  O   UNL     1      -3.018   1.906  -7.705  1.00  0.00    -0.502 OA
ATOM     21  H   UNL     1      -3.467   2.552  -7.067  1.00  0.00     0.293 HD
ENDBRANCH   2  20
BRANCH   6  22
ATOM     22  O   UNL     1      -4.314  -2.965  -5.987  1.00  0.00    -0.507 OA
ATOM     23  H   UNL     1      -4.799  -2.950  -5.102  1.00  0.00     0.293 HD
ENDBRANCH   6  22
BRANCH   8  24
ATOM     24  O   UNL     1       0.031  -4.934  -5.611  1.00  0.00    -0.508 OA
ATOM     25  H   UNL     1      -0.045  -5.785  -6.157  1.00  0.00     0.293 HD
ENDBRANCH   8  24
TORSDOF 5
ENDMDL
MODEL 9
REMARK VINA RESULT:    -4.708     11.406     14.386
REMARK INTER + INTRA:          -5.798
REMARK INTER:                  -5.511
REMARK INTRA:                  -0.287
REMARK UNBOUND:                -0.264
REMARK SMILES O=c1c(O)c(-c2ccc(O)cc2)oc2cc(O)cc(O)c12
REMARK SMILES IDX 5 1 3 2 2 3 1 4 21 5 19 6 18 7 16 8 15 9 14 10 13 11 6 12
REMARK SMILES IDX 7 13 8 14 9 15 12 16 11 17 10 18 4 20 20 22 17 24
REMARK H PARENT 10 19 4 21 20 23 17 25
REMARK Flexibility Score: inf
ROOT
ATOM      1  C   UNL     1       1.099   0.175  -6.249  1.00  0.00     0.180 A 
ATOM      2  C   UNL     1       0.314   1.173  -6.853  1.00  0.00     0.208 A 
ATOM      3  C   UNL     1      -1.079   1.004  -6.905  1.00  0.00     0.238 A 
ATOM      4  O   UNL     1      -1.772   1.874  -7.494  1.00  0.00    -0.285 OA
ATOM      5  C   UNL     1      -1.670  -0.153  -6.341  1.00  0.00     0.111 A 
ATOM      6  C   UNL     1      -3.074  -0.408  -6.301  1.00  0.00     0.134 A 
ATOM      7  C   UNL     1      -3.538  -1.644  -5.836  1.00  0.00     0.093 A 
ATOM      8  C   UNL     1      -2.656  -2.607  -5.346  1.00  0.00     0.123 A 
ATOM      9  C   UNL     1      -1.286  -2.344  -5.325  1.00  0.00     0.094 A 
ATOM     10  C   UNL     1      -0.789  -1.134  -5.817  1.00  0.00     0.146 A 
ATOM     11  O   UNL     1       0.521  -0.928  -5.787  1.00  0.00    -0.452 OA
ENDROOT
BRANCH   1  12
ATOM     12  C   UNL     1       2.571   0.294  -6.134  1.00  0.00     0.021 A 
ATOM     13  C   UNL     1       3.424  -0.131  -7.169  1.00  0.00     0.016 A 
ATOM     14  C   UNL     1       4.809   0.014  -7.049  1.00  0.00     0.047 A 
ATOM     15  C   UNL     1       5.359   0.594  -5.902  1.00  0.00     0.115 A 
ATOM     16  C   UNL     1       3.130   0.896  -4.994  1.00  0.00     0.016 A 
ATOM     17  C   UNL     1       4.515   1.037  -4.875  1.00  0.00     0.047 A 
BRANCH  15  18
ATOM     18  O   UNL     1       6.741   0.731  -5.793  1.00  0.00    -0.508 OA
ATOM     19  H   UNL     1       7.161   1.337  -5.098  1.00  0.00     0.293 HD
ENDBRANCH  15  18
ENDBRANCH   1  12
BRANCH   2  20
ATOM     20  O   UNL     1       0.919   2.295  -7.424  1.00  0.00    -0.502 OA
ATOM     21  H   UNL     1       1.905   2.325  -7.652  1.00  0.00     0.293 HD
ENDBRANCH   2  20
BRANCH   6  22
ATOM     22  O   UNL     1      -4.047   0.521  -6.680  1.00  0.00    -0.507 OA
ATOM     23  H   UNL     1      -3.865   1.491  -6.893  1.00  0.00     0.293 HD
ENDBRANCH   6  22
BRANCH   8  24
ATOM     24  O   UNL     1      -3.154  -3.819  -4.876  1.00  0.00    -0.508 OA
ATOM     25  H   UNL     1      -3.677  -3.877  -4.009  1.00  0.00     0.293 HD
ENDBRANCH   8  24
TORSDOF 5
ENDMDL
