MODEL 1
REMARK VINA RESULT:    -4.129      0.000      0.000
REMARK INTER + INTRA:          -4.387
REMARK INTER:                  -4.371
REMARK INTRA:                  -0.016
REMARK UNBOUND:                -0.016
REMARK SMILES O=C([O-])c1cccnc1
REMARK SMILES IDX 4 1 5 2 9 3 6 4 8 5 7 6 2 7 1 8 3 9
REMARK H PARENT
REMARK Flexibility Score: inf
ROOT
ATOM      1  C   UNL     1       5.203   1.490  17.272  1.00  0.00     0.016 A 
ATOM      2  C   UNL     1       4.805   2.168  16.108  1.00  0.00     0.013 A 
ATOM      3  C   UNL     1       5.100   2.161  18.503  1.00  0.00     0.120 A 
ATOM      4  C   UNL     1       4.323   3.476  16.189  1.00  0.00     0.021 A 
ATOM      5  N   UNL     1       4.626   3.434  18.554  1.00  0.00    -0.264 NA
ATOM      6  C   UNL     1       4.239   4.099  17.434  1.00  0.00     0.111 A 
ENDROOT
BRANCH   1   7
ATOM      7  C   UNL     1       5.717   0.106  17.199  1.00  0.00     0.073 C 
ATOM      8  O   UNL     1       4.990  -0.865  17.541  1.00  0.00    -0.545 OA
ATOM      9  O   UNL     1       7.009  -0.143  16.751  1.00  0.00    -0.545 OA
ENDBRANCH   1   7
TORSDOF 1
ENDMDL
MODEL 2
REMARK VINA RESULT:    -3.947      0.911      1.933
REMARK INTER + INTRA:          -4.194
REMARK INTER:                  -4.178
REMARK INTRA:                  -0.016
REMARK UNBOUND:                -0.016
REMARK SMILES O=C([O-])c1cccnc1
REMARK SMILES IDX 4 1 5 2 9 3 6 4 8 5 7 6 2 7 1 8 3 9
REMARK H PARENT
REMARK Flexibility Score: inf
ROOT
ATOM      1  C   UNL     1       5.145   1.591  17.294  1.00  0.00     0.016 A 
ATOM      2  C   UNL     1       5.069   2.266  18.523  1.00  0.00     0.013 A 
ATOM      3  C   UNL     1       4.728   2.266  16.134  1.00  0.00     0.120 A 
ATOM      4  C   UNL     1       4.586   3.575  18.574  1.00  0.00     0.021 A 
ATOM      5  N   UNL     1       4.263   3.541  16.212  1.00  0.00    -0.264 NA
ATOM      6  C   UNL     1       4.184   4.204  17.395  1.00  0.00     0.111 A 
ENDROOT
BRANCH   1   7
ATOM      7  C   UNL     1       5.653   0.204  17.227  1.00  0.00     0.073 C 
ATOM      8  O   UNL     1       6.832  -0.029  16.848  1.00  0.00    -0.545 OA
ATOM      9  O   UNL     1       4.837  -0.863  17.584  1.00  0.00    -0.545 OA
ENDBRANCH   1   7
TORSDOF 1
ENDMDL
MODEL 3
REMARK VINA RESULT:    -3.795      6.548      7.411
REMARK INTER + INTRA:          -4.034
REMARK INTER:                  -4.010
REMARK INTRA:                  -0.024
REMARK UNBOUND:                -0.016
REMARK SMILES O=C([O-])c1cccnc1
REMARK SMILES IDX 4 1 5 2 9 3 6 4 8 5 7 6 2 7 1 8 3 9
REMARK H PARENT
REMARK Flexibility Score: inf
ROOT
ATOM      1  C   UNL     1       8.226   7.749  18.122  1.00  0.00     0.016 A 
ATOM      2  C   UNL     1       8.893   6.850  17.272  1.00  0.00     0.013 A 
ATOM      3  C   UNL     1       7.410   7.225  19.139  1.00  0.00     0.120 A 
ATOM      4  C   UNL     1       8.737   5.474  17.447  1.00  0.00     0.021 A 
ATOM      5  N   UNL     1       7.276   5.880  19.287  1.00  0.00    -0.264 NA
ATOM      6  C   UNL     1       7.916   5.002  18.471  1.00  0.00     0.111 A 
ENDROOT
BRANCH   1   7
ATOM      7  C   UNL     1       8.383   9.208  17.947  1.00  0.00     0.073 C 
ATOM      8  O   UNL     1       7.735  10.013  18.667  1.00  0.00    -0.545 OA
ATOM      9  O   UNL     1       9.250   9.713  16.984  1.00  0.00    -0.545 OA
ENDBRANCH   1   7
TORSDOF 1
ENDMDL
MODEL 4
REMARK VINA RESULT:    -3.769      7.447      8.562
REMARK INTER + INTRA:          -4.006
REMARK INTER:                  -3.986
REMARK INTRA:                  -0.020
REMARK UNBOUND:                -0.016
REMARK SMILES O=C([O-])c1cccnc1
REMARK SMILES IDX 4 1 5 2 9 3 6 4 8 5 7 6 2 7 1 8 3 9
REMARK H PARENT
REMARK Flexibility Score: inf
ROOT
ATOM      1  C   UNL     1       6.900   8.767  20.422  1.00  0.00     0.016 A 
ATOM      2  C   UNL     1       6.522   8.189  21.646  1.00  0.00     0.013 A 
ATOM      3  C   UNL     1       7.257   7.913  19.363  1.00  0.00     0.120 A 
ATOM      4  C   UNL     1       6.506   6.801  21.790  1.00  0.00     0.021 A 
ATOM      5  N   UNL     1       7.233   6.565  19.531  1.00  0.00    -0.264 NA
ATOM      6  C   UNL     1       6.868   5.996  20.710  1.00  0.00     0.111 A 
ENDROOT
BRANCH   1   7
ATOM      7  C   UNL     1       6.921  10.236  20.257  1.00  0.00     0.073 C 
ATOM      8  O   UNL     1       6.510  10.766  19.191  1.00  0.00    -0.545 OA
ATOM      9  O   UNL     1       7.395  11.052  21.277  1.00  0.00    -0.545 OA
ENDBRANCH   1   7
TORSDOF 1
ENDMDL
MODEL 5
REMARK VINA RESULT:    -3.748      3.512      4.030
REMARK INTER + INTRA:          -3.984
REMARK INTER:                  -3.960
REMARK INTRA:                  -0.024
REMARK UNBOUND:                -0.016
REMARK SMILES O=C([O-])c1cccnc1
REMARK SMILES IDX 4 1 5 2 9 3 6 4 8 5 7 6 2 7 1 8 3 9
REMARK H PARENT
REMARK Flexibility Score: inf
ROOT
ATOM      1  C   UNL     1       6.215   4.204  17.552  1.00  0.00     0.016 A 
ATOM      2  C   UNL     1       7.399   4.072  18.298  1.00  0.00     0.013 A 
ATOM      3  C   UNL     1       6.175   5.168  16.530  1.00  0.00     0.120 A 
ATOM      4  C   UNL     1       8.496   4.888  18.019  1.00  0.00     0.021 A 
ATOM      5  N   UNL     1       7.259   5.949  16.279  1.00  0.00    -0.264 NA
ATOM      6  C   UNL     1       8.408   5.830  16.995  1.00  0.00     0.111 A 
ENDROOT
BRANCH   1   7
ATOM      7  C   UNL     1       5.046   3.346  17.838  1.00  0.00     0.073 C 
ATOM      8  O   UNL     1       5.025   2.613  18.863  1.00  0.00    -0.545 OA
ATOM      9  O   UNL     1       3.952   3.338  16.981  1.00  0.00    -0.545 OA
ENDBRANCH   1   7
TORSDOF 1
ENDMDL
MODEL 6
REMARK VINA RESULT:    -3.740      3.398      4.266
REMARK INTER + INTRA:          -3.975
REMARK INTER:                  -3.958
REMARK INTRA:                  -0.017
REMARK UNBOUND:                -0.016
REMARK SMILES O=C([O-])c1cccnc1
REMARK SMILES IDX 4 1 5 2 9 3 6 4 8 5 7 6 2 7 1 8 3 9
REMARK H PARENT
REMARK Flexibility Score: inf
ROOT
ATOM      1  C   UNL     1       5.119   4.412  16.539  1.00  0.00     0.016 A 
ATOM      2  C   UNL     1       4.845   3.172  15.938  1.00  0.00     0.013 A 
ATOM      3  C   UNL     1       5.294   4.453  17.933  1.00  0.00     0.120 A 
ATOM      4  C   UNL     1       4.751   2.019  16.721  1.00  0.00     0.021 A 
ATOM      5  N   UNL     1       5.198   3.316  18.672  1.00  0.00    -0.264 NA
ATOM      6  C   UNL     1       4.933   2.111  18.100  1.00  0.00     0.111 A 
ENDROOT
BRANCH   1   7
ATOM      7  C   UNL     1       5.219   5.639  15.721  1.00  0.00     0.073 C 
ATOM      8  O   UNL     1       6.240   5.857  15.017  1.00  0.00    -0.545 OA
ATOM      9  O   UNL     1       4.186   6.569  15.717  1.00  0.00    -0.545 OA
ENDBRANCH   1   7
TORSDOF 1
ENDMDL
MODEL 7
REMARK VINA RESULT:    -3.699      6.341      7.410
REMARK INTER + INTRA:          -3.932
REMARK INTER:                  -3.908
REMARK INTRA:                  -0.024
REMARK UNBOUND:                -0.016
REMARK SMILES O=C([O-])c1cccnc1
REMARK SMILES IDX 4 1 5 2 9 3 6 4 8 5 7 6 2 7 1 8 3 9
REMARK H PARENT
REMARK Flexibility Score: inf
ROOT
ATOM      1  C   UNL     1       7.646   7.953  18.994  1.00  0.00     0.016 A 
ATOM      2  C   UNL     1       7.364   9.070  19.798  1.00  0.00     0.013 A 
ATOM      3  C   UNL     1       7.184   6.694  19.414  1.00  0.00     0.120 A 
ATOM      4  C   UNL     1       6.642   8.916  20.982  1.00  0.00     0.021 A 
ATOM      5  N   UNL     1       6.482   6.572  20.572  1.00  0.00    -0.264 NA
ATOM      6  C   UNL     1       6.203   7.646  21.357  1.00  0.00     0.111 A 
ENDROOT
BRANCH   1   7
ATOM      7  C   UNL     1       8.411   8.104  17.738  1.00  0.00     0.073 C 
ATOM      8  O   UNL     1       8.684   7.099  17.029  1.00  0.00    -0.545 OA
ATOM      9  O   UNL     1       8.840   9.359  17.320  1.00  0.00    -0.545 OA
ENDBRANCH   1   7
TORSDOF 1
ENDMDL
MODEL 8
REMARK VINA RESULT:    -3.698      6.808      7.674
REMARK INTER + INTRA:          -3.931
REMARK INTER:                  -3.907
REMARK INTRA:                  -0.023
REMARK UNBOUND:                -0.016
REMARK SMILES O=C([O-])c1cccnc1
REMARK SMILES IDX 4 1 5 2 9 3 6 4 8 5 7 6 2 7 1 8 3 9
REMARK H PARENT
REMARK Flexibility Score: inf
ROOT
ATOM      1  C   UNL     1       7.366   8.040  19.535  1.00  0.00     0.016 A 
ATOM      2  C   UNL     1       8.122   8.790  18.618  1.00  0.00     0.013 A 
ATOM      3  C   UNL     1       7.251   6.655  19.330  1.00  0.00     0.120 A 
ATOM      4  C   UNL     1       8.737   8.159  17.536  1.00  0.00     0.021 A 
ATOM      5  N   UNL     1       7.861   6.065  18.267  1.00  0.00    -0.264 NA
ATOM      6  C   UNL     1       8.594   6.781  17.375  1.00  0.00     0.111 A 
ENDROOT
BRANCH   1   7
ATOM      7  C   UNL     1       6.709   8.698  20.685  1.00  0.00     0.073 C 
ATOM      8  O   UNL     1       5.879   8.068  21.394  1.00  0.00    -0.545 OA
ATOM      9  O   UNL     1       6.999  10.020  21.000  1.00  0.00    -0.545 OA
ENDBRANCH   1   7
TORSDOF 1
ENDMDL
MODEL 9
REMARK VINA RESULT:    -3.662      2.939      3.274
REMARK INTER + INTRA:          -3.893
REMARK INTER:                  -3.871
REMARK INTRA:                  -0.022
REMARK UNBOUND:                -0.016
REMARK SMILES O=C([O-])c1cccnc1
REMARK SMILES IDX 4 1 5 2 9 3 6 4 8 5 7 6 2 7 1 8 3 9
REMARK H PARENT
REMARK Flexibility Score: inf
ROOT
ATOM      1  C   UNL     1       5.817   4.038  17.192  1.00  0.00     0.016 A 
ATOM      2  C   UNL     1       5.531   4.752  16.016  1.00  0.00     0.013 A 
ATOM      3  C   UNL     1       6.903   4.456  17.979  1.00  0.00     0.120 A 
ATOM      4  C   UNL     1       6.318   5.846  15.652  1.00  0.00     0.021 A 
ATOM      5  N   UNL     1       7.653   5.526  17.602  1.00  0.00    -0.264 NA
ATOM      6  C   UNL     1       7.385   6.223  16.466  1.00  0.00     0.111 A 
ENDROOT
BRANCH   1   7
ATOM      7  C   UNL     1       4.992   2.877  17.587  1.00  0.00     0.073 C 
ATOM      8  O   UNL     1       4.855   2.572  18.802  1.00  0.00    -0.545 OA
ATOM      9  O   UNL     1       4.354   2.105  16.623  1.00  0.00    -0.545 OA
ENDBRANCH   1   7
TORSDOF 1
ENDMDL
