MODEL 1
REMARK VINA RESULT:     4.397      0.000      0.000
REMARK INTER + INTRA:           4.397
REMARK INTER:                   4.397
REMARK INTRA:                   0.000
REMARK UNBOUND:                 0.000
REMARK SMILES CC(C)=C1CC[C@H](C)CC1=O
REMARK SMILES IDX 8 1 7 2 6 3 5 4 4 5 2 6 1 7 3 8 10 9 11 10 9 11
REMARK H PARENT
REMARK Flexibility Score: inf
ROOT
ATOM      1  C   UNL     1      89.731  18.154 120.012  1.00  0.00     0.008 C 
ATOM      2  C   UNL     1      91.215  17.843 119.785  1.00  0.00    -0.006 C 
ATOM      3  C   UNL     1      91.926  17.592 121.124  1.00  0.00     0.008 C 
ATOM      4  C   UNL     1      93.432  17.380 120.924  1.00  0.00     0.039 C 
ATOM      5  C   UNL     1      93.739  16.306 119.889  1.00  0.00    -0.006 C 
ATOM      6  C   UNL     1      94.852  15.521 119.990  1.00  0.00    -0.070 C 
ATOM      7  C   UNL     1      95.136  14.414 119.002  1.00  0.00     0.039 C 
ATOM      8  C   UNL     1      95.837  15.698 121.124  1.00  0.00     0.039 C 
ATOM      9  C   UNL     1      92.820  16.247 118.714  1.00  0.00     0.159 C 
ATOM     10  O   UNL     1      93.233  15.893 117.577  1.00  0.00    -0.295 OA
ATOM     11  C   UNL     1      91.375  16.620 118.870  1.00  0.00     0.084 C 
ENDROOT
TORSDOF 0
ENDMDL
MODEL 2
REMARK VINA RESULT:     5.487      1.636      2.153
REMARK INTER + INTRA:           5.487
REMARK INTER:                   5.487
REMARK INTRA:                   0.000
REMARK UNBOUND:                 0.000
REMARK SMILES CC(C)=C1CC[C@H](C)CC1=O
REMARK SMILES IDX 8 1 7 2 6 3 5 4 4 5 2 6 1 7 3 8 10 9 11 10 9 11
REMARK H PARENT
REMARK Flexibility Score: inf
ROOT
ATOM      1  C   UNL     1      89.948  18.127 120.469  1.00  0.00     0.008 C 
ATOM      2  C   UNL     1      91.206  17.414 119.958  1.00  0.00    -0.006 C 
ATOM      3  C   UNL     1      92.125  18.400 119.221  1.00  0.00     0.008 C 
ATOM      4  C   UNL     1      93.339  17.684 118.615  1.00  0.00     0.039 C 
ATOM      5  C   UNL     1      94.088  16.838 119.636  1.00  0.00    -0.006 C 
ATOM      6  C   UNL     1      95.438  16.654 119.551  1.00  0.00    -0.070 C 
ATOM      7  C   UNL     1      96.200  15.864 120.590  1.00  0.00     0.039 C 
ATOM      8  C   UNL     1      96.244  17.268 118.429  1.00  0.00     0.039 C 
ATOM      9  C   UNL     1      93.246  16.138 120.651  1.00  0.00     0.159 C 
ATOM     10  O   UNL     1      93.585  15.021 121.125  1.00  0.00    -0.295 OA
ATOM     11  C   UNL     1      91.964  16.760 121.123  1.00  0.00     0.084 C 
ENDROOT
TORSDOF 0
ENDMDL
MODEL 3
REMARK VINA RESULT:     6.096      1.347      4.154
REMARK INTER + INTRA:           6.096
REMARK INTER:                   6.096
REMARK INTRA:                   0.000
REMARK UNBOUND:                 0.000
REMARK SMILES CC(C)=C1CC[C@H](C)CC1=O
REMARK SMILES IDX 8 1 7 2 6 3 5 4 4 5 2 6 1 7 3 8 10 9 11 10 9 11
REMARK H PARENT
REMARK Flexibility Score: inf
ROOT
ATOM      1  C   UNL     1      97.725  16.490 119.799  1.00  0.00     0.008 C 
ATOM      2  C   UNL     1      96.213  16.242 119.816  1.00  0.00    -0.006 C 
ATOM      3  C   UNL     1      95.566  16.920 121.034  1.00  0.00     0.008 C 
ATOM      4  C   UNL     1      94.069  16.597 121.124  1.00  0.00     0.039 C 
ATOM      5  C   UNL     1      93.329  16.895 119.827  1.00  0.00    -0.006 C 
ATOM      6  C   UNL     1      92.024  17.299 119.832  1.00  0.00    -0.070 C 
ATOM      7  C   UNL     1      91.297  17.654 118.556  1.00  0.00     0.039 C 
ATOM      8  C   UNL     1      91.255  17.449 121.125  1.00  0.00     0.039 C 
ATOM      9  C   UNL     1      94.075  16.609 118.566  1.00  0.00     0.159 C 
ATOM     10  O   UNL     1      93.476  16.233 117.522  1.00  0.00    -0.295 OA
ATOM     11  C   UNL     1      95.567  16.761 118.523  1.00  0.00     0.084 C 
ENDROOT
TORSDOF 0
ENDMDL
MODEL 4
REMARK VINA RESULT:     6.823      1.326      4.069
REMARK INTER + INTRA:           6.823
REMARK INTER:                   6.823
REMARK INTRA:                   0.000
REMARK UNBOUND:                 0.000
REMARK SMILES CC(C)=C1CC[C@H](C)CC1=O
REMARK SMILES IDX 8 1 7 2 6 3 5 4 4 5 2 6 1 7 3 8 10 9 11 10 9 11
REMARK H PARENT
REMARK Flexibility Score: inf
ROOT
ATOM      1  C   UNL     1      95.524  13.286 120.010  1.00  0.00     0.008 C 
ATOM      2  C   UNL     1      94.293  14.173 119.791  1.00  0.00    -0.006 C 
ATOM      3  C   UNL     1      93.802  14.756 121.125  1.00  0.00     0.008 C 
ATOM      4  C   UNL     1      92.511  15.564 120.939  1.00  0.00     0.039 C 
ATOM      5  C   UNL     1      92.635  16.620 119.849  1.00  0.00    -0.006 C 
ATOM      6  C   UNL     1      91.949  17.799 119.924  1.00  0.00    -0.070 C 
ATOM      7  C   UNL     1      92.108  18.878 118.878  1.00  0.00     0.039 C 
ATOM      8  C   UNL     1      91.025  18.097 121.082  1.00  0.00     0.039 C 
ATOM      9  C   UNL     1      93.448  16.240 118.657  1.00  0.00     0.159 C 
ATOM     10  O   UNL     1      93.173  16.681 117.509  1.00  0.00    -0.295 OA
ATOM     11  C   UNL     1      94.616  15.309 118.809  1.00  0.00     0.084 C 
ENDROOT
TORSDOF 0
ENDMDL
