MODEL 1
REMARK VINA RESULT:    -0.822      0.000      0.000
REMARK INTER + INTRA:          -3.125
REMARK INTER:                  -1.495
REMARK INTRA:                  -1.630
REMARK UNBOUND:                -1.630
REMARK SMILES CCCCCCCCCCCCCC[C@H](C)C(=O)[O-]
REMARK SMILES IDX 9 1 10 2 11 3 12 4 13 5 14 6 15 7 16 8 17 9 18 10 19 11 8 12
REMARK SMILES IDX 7 13 6 14 5 15 4 16 3 17 2 18 1 19
REMARK H PARENT
REMARK Flexibility Score: inf
ROOT
ATOM      1  C   UNL     1       4.307 -33.586  21.984  1.00  0.00     0.000 C 
ENDROOT
BRANCH   1   2
ATOM      2  C   UNL     1       5.723 -33.854  22.519  1.00  0.00     0.000 C 
BRANCH   2   3
ATOM      3  C   UNL     1       5.729 -34.301  23.991  1.00  0.00     0.000 C 
BRANCH   3   4
ATOM      4  C   UNL     1       5.493 -35.815  24.181  1.00  0.00     0.000 C 
BRANCH   4   5
ATOM      5  C   UNL     1       6.069 -36.644  23.020  1.00  0.00     0.001 C 
BRANCH   5   6
ATOM      6  C   UNL     1       4.978 -37.437  22.267  1.00  0.00     0.009 C 
BRANCH   6   7
ATOM      7  C   UNL     1       5.532 -38.342  21.143  1.00  0.00     0.032 C 
ATOM      8  C   UNL     1       4.764 -38.181  19.825  1.00  0.00     0.014 C 
BRANCH   7   9
ATOM      9  C   UNL     1       5.500 -39.780  21.582  1.00  0.00     0.044 C 
ATOM     10  O   UNL     1       4.917 -40.112  22.648  1.00  0.00    -0.550 OA
ATOM     11  O   UNL     1       6.120 -40.755  20.810  1.00  0.00    -0.550 OA
ENDBRANCH   7   9
ENDBRANCH   6   7
ENDBRANCH   5   6
ENDBRANCH   4   5
ENDBRANCH   3   4
ENDBRANCH   2   3
ENDBRANCH   1   2
BRANCH   1  12
ATOM     12  C   UNL     1       4.049 -34.271  20.631  1.00  0.00     0.000 C 
BRANCH  12  13
ATOM     13  C   UNL     1       5.350 -34.719  19.942  1.00  0.00    -0.000 C 
BRANCH  13  14
ATOM     14  C   UNL     1       5.278 -34.605  18.411  1.00  0.00    -0.000 C 
BRANCH  14  15
ATOM     15  C   UNL     1       3.888 -34.951  17.855  1.00  0.00    -0.000 C 
BRANCH  15  16
ATOM     16  C   UNL     1       3.995 -35.949  16.691  1.00  0.00    -0.000 C 
BRANCH  16  17
ATOM     17  C   UNL     1       2.781 -35.902  15.746  1.00  0.00    -0.000 C 
BRANCH  17  18
ATOM     18  C   UNL     1       2.998 -36.575  14.380  1.00  0.00    -0.003 C 
ATOM     19  C   UNL     1       3.858 -37.835  14.463  1.00  0.00     0.004 C 
ENDBRANCH  17  18
ENDBRANCH  16  17
ENDBRANCH  15  16
ENDBRANCH  14  15
ENDBRANCH  13  14
ENDBRANCH  12  13
ENDBRANCH   1  12
TORSDOF 14
ENDMDL
MODEL 2
REMARK VINA RESULT:     0.920      2.882      6.879
REMARK INTER + INTRA:           0.044
REMARK INTER:                   0.175
REMARK INTRA:                  -0.131
REMARK UNBOUND:                -1.630
REMARK SMILES CCCCCCCCCCCCCC[C@H](C)C(=O)[O-]
REMARK SMILES IDX 9 1 10 2 11 3 12 4 13 5 14 6 15 7 16 8 17 9 18 10 19 11 8 12
REMARK SMILES IDX 7 13 6 14 5 15 4 16 3 17 2 18 1 19
REMARK H PARENT
REMARK Flexibility Score: inf
ROOT
ATOM      1  C   UNL     1       4.755 -38.547  19.865  1.00  0.00     0.000 C 
ENDROOT
BRANCH   1   2
ATOM      2  C   UNL     1       5.294 -37.113  19.725  1.00  0.00     0.000 C 
BRANCH   2   3
ATOM      3  C   UNL     1       4.304 -36.172  19.016  1.00  0.00     0.000 C 
BRANCH   3   4
ATOM      4  C   UNL     1       4.917 -34.813  18.615  1.00  0.00     0.000 C 
BRANCH   4   5
ATOM      5  C   UNL     1       6.124 -34.438  19.493  1.00  0.00     0.001 C 
BRANCH   5   6
ATOM      6  C   UNL     1       5.878 -34.739  20.989  1.00  0.00     0.009 C 
BRANCH   6   7
ATOM      7  C   UNL     1       5.203 -33.576  21.752  1.00  0.00     0.032 C 
ATOM      8  C   UNL     1       5.588 -33.545  23.236  1.00  0.00     0.014 C 
BRANCH   7   9
ATOM      9  C   UNL     1       3.708 -33.673  21.613  1.00  0.00     0.044 C 
ATOM     10  O   UNL     1       3.095 -34.707  21.993  1.00  0.00    -0.550 OA
ATOM     11  O   UNL     1       2.993 -32.619  21.060  1.00  0.00    -0.550 OA
ENDBRANCH   7   9
ENDBRANCH   6   7
ENDBRANCH   5   6
ENDBRANCH   4   5
ENDBRANCH   3   4
ENDBRANCH   2   3
ENDBRANCH   1   2
BRANCH   1  12
ATOM     12  C   UNL     1       5.880 -39.585  20.018  1.00  0.00     0.000 C 
BRANCH  12  13
ATOM     13  C   UNL     1       5.915 -40.211  21.424  1.00  0.00    -0.000 C 
BRANCH  13  14
ATOM     14  C   UNL     1       4.947 -39.524  22.400  1.00  0.00    -0.000 C 
BRANCH  14  15
ATOM     15  C   UNL     1       5.656 -38.544  23.348  1.00  0.00    -0.000 C 
BRANCH  15  16
ATOM     16  C   UNL     1       5.041 -37.140  23.247  1.00  0.00    -0.000 C 
BRANCH  16  17
ATOM     17  C   UNL     1       5.287 -36.284  24.502  1.00  0.00    -0.000 C 
BRANCH  17  18
ATOM     18  C   UNL     1       5.340 -37.072  25.822  1.00  0.00    -0.003 C 
ATOM     19  C   UNL     1       3.981 -37.628  26.244  1.00  0.00     0.004 C 
ENDBRANCH  17  18
ENDBRANCH  16  17
ENDBRANCH  15  16
ENDBRANCH  14  15
ENDBRANCH  13  14
ENDBRANCH  12  13
ENDBRANCH   1  12
TORSDOF 14
ENDMDL
MODEL 3
REMARK VINA RESULT:     1.026      2.176      6.087
REMARK INTER + INTRA:           0.235
REMARK INTER:                   1.803
REMARK INTRA:                  -1.567
REMARK UNBOUND:                -1.630
REMARK SMILES CCCCCCCCCCCCCC[C@H](C)C(=O)[O-]
REMARK SMILES IDX 9 1 10 2 11 3 12 4 13 5 14 6 15 7 16 8 17 9 18 10 19 11 8 12
REMARK SMILES IDX 7 13 6 14 5 15 4 16 3 17 2 18 1 19
REMARK H PARENT
REMARK Flexibility Score: inf
ROOT
ATOM      1  C   UNL     1       4.262 -34.228  22.269  1.00  0.00     0.000 C 
ENDROOT
BRANCH   1   2
ATOM      2  C   UNL     1       4.180 -33.764  20.805  1.00  0.00     0.000 C 
BRANCH   2   3
ATOM      3  C   UNL     1       5.058 -34.607  19.863  1.00  0.00     0.000 C 
BRANCH   3   4
ATOM      4  C   UNL     1       4.320 -35.812  19.240  1.00  0.00     0.000 C 
BRANCH   4   5
ATOM      5  C   UNL     1       5.092 -37.129  19.433  1.00  0.00     0.001 C 
BRANCH   5   6
ATOM      6  C   UNL     1       4.877 -37.736  20.837  1.00  0.00     0.009 C 
BRANCH   6   7
ATOM      7  C   UNL     1       5.765 -38.968  21.123  1.00  0.00     0.032 C 
ATOM      8  C   UNL     1       6.125 -39.743  19.850  1.00  0.00     0.014 C 
BRANCH   7   9
ATOM      9  C   UNL     1       5.074 -39.881  22.099  1.00  0.00     0.044 C 
ATOM     10  O   UNL     1       4.139 -39.451  22.826  1.00  0.00    -0.550 OA
ATOM     11  O   UNL     1       5.470 -41.208  22.207  1.00  0.00    -0.550 OA
ENDBRANCH   7   9
ENDBRANCH   6   7
ENDBRANCH   5   6
ENDBRANCH   4   5
ENDBRANCH   3   4
ENDBRANCH   2   3
ENDBRANCH   1   2
BRANCH   1  12
ATOM     12  C   UNL     1       5.393 -33.532  23.045  1.00  0.00     0.000 C 
BRANCH  12  13
ATOM     13  C   UNL     1       6.110 -34.484  24.019  1.00  0.00    -0.000 C 
BRANCH  13  14
ATOM     14  C   UNL     1       6.123 -35.938  23.522  1.00  0.00    -0.000 C 
BRANCH  14  15
ATOM     15  C   UNL     1       5.793 -36.948  24.633  1.00  0.00    -0.000 C 
BRANCH  15  16
ATOM     16  C   UNL     1       4.346 -36.776  25.118  1.00  0.00    -0.000 C 
BRANCH  16  17
ATOM     17  C   UNL     1       3.961 -37.774  26.225  1.00  0.00    -0.000 C 
BRANCH  17  18
ATOM     18  C   UNL     1       2.912 -37.258  27.225  1.00  0.00    -0.003 C 
ATOM     19  C   UNL     1       1.678 -38.155  27.316  1.00  0.00     0.004 C 
ENDBRANCH  17  18
ENDBRANCH  16  17
ENDBRANCH  15  16
ENDBRANCH  14  15
ENDBRANCH  13  14
ENDBRANCH  12  13
ENDBRANCH   1  12
TORSDOF 14
ENDMDL
MODEL 4
REMARK VINA RESULT:     1.154      2.696      7.320
REMARK INTER + INTRA:           0.468
REMARK INTER:                   0.879
REMARK INTRA:                  -0.410
REMARK UNBOUND:                -1.630
REMARK SMILES CCCCCCCCCCCCCC[C@H](C)C(=O)[O-]
REMARK SMILES IDX 9 1 10 2 11 3 12 4 13 5 14 6 15 7 16 8 17 9 18 10 19 11 8 12
REMARK SMILES IDX 7 13 6 14 5 15 4 16 3 17 2 18 1 19
REMARK H PARENT
REMARK Flexibility Score: inf
ROOT
ATOM      1  C   UNL     1       4.348 -36.477  20.852  1.00  0.00     0.000 C 
ENDROOT
BRANCH   1   2
ATOM      2  C   UNL     1       4.986 -36.635  19.462  1.00  0.00     0.000 C 
BRANCH   2   3
ATOM      3  C   UNL     1       5.265 -35.285  18.778  1.00  0.00     0.000 C 
BRANCH   3   4
ATOM      4  C   UNL     1       4.209 -34.894  17.722  1.00  0.00     0.000 C 
BRANCH   4   5
ATOM      5  C   UNL     1       3.986 -36.006  16.682  1.00  0.00     0.001 C 
BRANCH   5   6
ATOM      6  C   UNL     1       2.817 -35.688  15.724  1.00  0.00     0.009 C 
BRANCH   6   7
ATOM      7  C   UNL     1       2.866 -36.484  14.400  1.00  0.00     0.032 C 
ATOM      8  C   UNL     1       1.470 -36.863  13.889  1.00  0.00     0.014 C 
BRANCH   7   9
ATOM      9  C   UNL     1       3.699 -37.723  14.578  1.00  0.00     0.044 C 
ATOM     10  O   UNL     1       3.330 -38.637  15.364  1.00  0.00    -0.550 OA
ATOM     11  O   UNL     1       4.890 -37.866  13.876  1.00  0.00    -0.550 OA
ENDBRANCH   7   9
ENDBRANCH   6   7
ENDBRANCH   5   6
ENDBRANCH   4   5
ENDBRANCH   3   4
ENDBRANCH   2   3
ENDBRANCH   1   2
BRANCH   1  12
ATOM     12  C   UNL     1       4.478 -35.046  21.401  1.00  0.00     0.000 C 
BRANCH  12  13
ATOM     13  C   UNL     1       5.820 -34.810  22.117  1.00  0.00    -0.000 C 
BRANCH  13  14
ATOM     14  C   UNL     1       5.694 -33.840  23.302  1.00  0.00    -0.000 C 
BRANCH  14  15
ATOM     15  C   UNL     1       6.061 -34.493  24.645  1.00  0.00    -0.000 C 
BRANCH  15  16
ATOM     16  C   UNL     1       5.997 -36.024  24.546  1.00  0.00    -0.000 C 
BRANCH  16  17
ATOM     17  C   UNL     1       5.679 -36.700  25.891  1.00  0.00    -0.000 C 
BRANCH  17  18
ATOM     18  C   UNL     1       4.547 -37.741  25.841  1.00  0.00    -0.003 C 
ATOM     19  C   UNL     1       3.381 -37.403  26.769  1.00  0.00     0.004 C 
ENDBRANCH  17  18
ENDBRANCH  16  17
ENDBRANCH  15  16
ENDBRANCH  14  15
ENDBRANCH  13  14
ENDBRANCH  12  13
ENDBRANCH   1  12
TORSDOF 14
ENDMDL
MODEL 5
REMARK VINA RESULT:     1.343      2.306      3.861
REMARK INTER + INTRA:           0.812
REMARK INTER:                   1.564
REMARK INTRA:                  -0.752
REMARK UNBOUND:                -1.630
REMARK SMILES CCCCCCCCCCCCCC[C@H](C)C(=O)[O-]
REMARK SMILES IDX 9 1 10 2 11 3 12 4 13 5 14 6 15 7 16 8 17 9 18 10 19 11 8 12
REMARK SMILES IDX 7 13 6 14 5 15 4 16 3 17 2 18 1 19
REMARK H PARENT
REMARK Flexibility Score: inf
ROOT
ATOM      1  C   UNL     1       4.920 -37.592  19.508  1.00  0.00     0.000 C 
ENDROOT
BRANCH   1   2
ATOM      2  C   UNL     1       4.338 -38.038  20.859  1.00  0.00     0.000 C 
BRANCH   2   3
ATOM      3  C   UNL     1       5.383 -38.714  21.764  1.00  0.00     0.000 C 
BRANCH   3   4
ATOM      4  C   UNL     1       5.336 -38.238  23.231  1.00  0.00     0.000 C 
BRANCH   4   5
ATOM      5  C   UNL     1       6.027 -36.876  23.424  1.00  0.00     0.001 C 
BRANCH   5   6
ATOM      6  C   UNL     1       5.014 -35.731  23.645  1.00  0.00     0.009 C 
BRANCH   6   7
ATOM      7  C   UNL     1       5.243 -34.513  22.721  1.00  0.00     0.032 C 
ATOM      8  C   UNL     1       5.856 -33.318  23.463  1.00  0.00     0.014 C 
BRANCH   7   9
ATOM      9  C   UNL     1       3.945 -34.106  22.081  1.00  0.00     0.044 C 
ATOM     10  O   UNL     1       2.926 -34.842  22.172  1.00  0.00    -0.550 OA
ATOM     11  O   UNL     1       3.863 -32.910  21.377  1.00  0.00    -0.550 OA
ENDBRANCH   7   9
ENDBRANCH   6   7
ENDBRANCH   5   6
ENDBRANCH   4   5
ENDBRANCH   3   4
ENDBRANCH   2   3
ENDBRANCH   1   2
BRANCH   1  12
ATOM     12  C   UNL     1       5.660 -36.246  19.601  1.00  0.00     0.000 C 
BRANCH  12  13
ATOM     13  C   UNL     1       4.742 -35.049  19.297  1.00  0.00    -0.000 C 
BRANCH  13  14
ATOM     14  C   UNL     1       4.762 -34.651  17.812  1.00  0.00    -0.000 C 
BRANCH  14  15
ATOM     15  C   UNL     1       3.516 -35.132  17.052  1.00  0.00    -0.000 C 
BRANCH  15  16
ATOM     16  C   UNL     1       3.847 -36.346  16.171  1.00  0.00    -0.000 C 
BRANCH  16  17
ATOM     17  C   UNL     1       2.797 -36.595  15.072  1.00  0.00    -0.000 C 
BRANCH  17  18
ATOM     18  C   UNL     1       3.297 -37.423  13.875  1.00  0.00    -0.003 C 
ATOM     19  C   UNL     1       4.116 -38.644  14.291  1.00  0.00     0.004 C 
ENDBRANCH  17  18
ENDBRANCH  16  17
ENDBRANCH  15  16
ENDBRANCH  14  15
ENDBRANCH  13  14
ENDBRANCH  12  13
ENDBRANCH   1  12
TORSDOF 14
ENDMDL
MODEL 6
REMARK VINA RESULT:     1.739      2.896      4.802
REMARK INTER + INTRA:           1.532
REMARK INTER:                   2.714
REMARK INTRA:                  -1.182
REMARK UNBOUND:                -1.630
REMARK SMILES CCCCCCCCCCCCCC[C@H](C)C(=O)[O-]
REMARK SMILES IDX 9 1 10 2 11 3 12 4 13 5 14 6 15 7 16 8 17 9 18 10 19 11 8 12
REMARK SMILES IDX 7 13 6 14 5 15 4 16 3 17 2 18 1 19
REMARK H PARENT
REMARK Flexibility Score: inf
ROOT
ATOM      1  C   UNL     1       4.178 -34.029  21.248  1.00  0.00     0.000 C 
ENDROOT
BRANCH   1   2
ATOM      2  C   UNL     1       4.627 -33.762  22.694  1.00  0.00     0.000 C 
BRANCH   2   3
ATOM      3  C   UNL     1       6.055 -34.262  22.976  1.00  0.00     0.000 C 
BRANCH   3   4
ATOM      4  C   UNL     1       6.125 -35.754  23.366  1.00  0.00     0.000 C 
BRANCH   4   5
ATOM      5  C   UNL     1       5.889 -35.974  24.871  1.00  0.00     0.001 C 
BRANCH   5   6
ATOM      6  C   UNL     1       4.436 -36.397  25.181  1.00  0.00     0.009 C 
BRANCH   6   7
ATOM      7  C   UNL     1       4.330 -37.531  26.227  1.00  0.00     0.032 C 
ATOM      8  C   UNL     1       4.589 -38.916  25.621  1.00  0.00     0.014 C 
BRANCH   7   9
ATOM      9  C   UNL     1       2.974 -37.502  26.876  1.00  0.00     0.044 C 
ATOM     10  O   UNL     1       2.278 -38.550  26.952  1.00  0.00    -0.550 OA
ATOM     11  O   UNL     1       2.477 -36.312  27.395  1.00  0.00    -0.550 OA
ENDBRANCH   7   9
ENDBRANCH   6   7
ENDBRANCH   5   6
ENDBRANCH   4   5
ENDBRANCH   3   4
ENDBRANCH   2   3
ENDBRANCH   1   2
BRANCH   1  12
ATOM     12  C   UNL     1       5.363 -34.131  20.273  1.00  0.00     0.000 C 
BRANCH  12  13
ATOM     13  C   UNL     1       4.927 -34.560  18.860  1.00  0.00    -0.000 C 
BRANCH  13  14
ATOM     14  C   UNL     1       4.374 -35.994  18.822  1.00  0.00    -0.000 C 
BRANCH  14  15
ATOM     15  C   UNL     1       5.005 -36.902  19.890  1.00  0.00    -0.000 C 
BRANCH  15  16
ATOM     16  C   UNL     1       4.921 -38.378  19.474  1.00  0.00    -0.000 C 
BRANCH  16  17
ATOM     17  C   UNL     1       5.742 -39.307  20.386  1.00  0.00    -0.000 C 
BRANCH  17  18
ATOM     18  C   UNL     1       5.409 -39.202  21.885  1.00  0.00    -0.003 C 
ATOM     19  C   UNL     1       5.010 -40.540  22.506  1.00  0.00     0.004 C 
ENDBRANCH  17  18
ENDBRANCH  16  17
ENDBRANCH  15  16
ENDBRANCH  14  15
ENDBRANCH  13  14
ENDBRANCH  12  13
ENDBRANCH   1  12
TORSDOF 14
ENDMDL
