MODEL 1
REMARK VINA RESULT:    -3.832      0.000      0.000
REMARK INTER + INTRA:          -5.351
REMARK INTER:                  -5.176
REMARK INTRA:                  -0.175
REMARK UNBOUND:                -0.175
REMARK SMILES [NH3+]CCCC[C@@H]([NH3+])C(=O)[O-]
REMARK SMILES IDX 4 1 3 2 2 3 1 4 5 8 6 9 7 10 8 14 9 15 10 16
REMARK H PARENT 1 5 1 6 1 7 7 11 7 12 7 13
REMARK Flexibility Score: inf
ROOT
ATOM      1  C   UNL     1      27.015  15.833  -2.300  1.00  0.00     0.012 C 
ENDROOT
BRANCH   1   2
ATOM      2  C   UNL     1      28.182  15.261  -3.117  1.00  0.00     0.061 C 
BRANCH   2   3
ATOM      3  C   UNL     1      29.552  15.584  -2.496  1.00  0.00     0.258 C 
BRANCH   3   4
ATOM      4  N   UNL     1      30.411  14.402  -2.405  1.00  0.00    -0.358 N 
ATOM      5  H   UNL     1      31.287  14.544  -2.956  1.00  0.00     0.344 HD
ATOM      6  H   UNL     1      30.645  14.196  -1.407  1.00  0.00     0.344 HD
ATOM      7  H   UNL     1      29.901  13.581  -2.805  1.00  0.00     0.344 HD
ENDBRANCH   3   4
ENDBRANCH   2   3
ENDBRANCH   1   2
BRANCH   1   8
ATOM      8  C   UNL     1      25.894  14.790  -2.143  1.00  0.00     0.072 C 
BRANCH   8   9
ATOM      9  C   UNL     1      25.818  13.760  -3.293  1.00  0.00     0.227 C 
BRANCH   9  10
ATOM     10  N   UNL     1      25.760  12.379  -2.795  1.00  0.00    -0.350 N 
ATOM     11  H   UNL     1      26.408  11.779  -3.355  1.00  0.00     0.345 HD
ATOM     12  H   UNL     1      26.070  12.348  -1.796  1.00  0.00     0.345 HD
ATOM     13  H   UNL     1      24.795  11.986  -2.867  1.00  0.00     0.345 HD
ENDBRANCH   9  10
BRANCH   9  14
ATOM     14  C   UNL     1      24.672  14.054  -4.227  1.00  0.00     0.099 C 
ATOM     15  O   UNL     1      24.437  15.241  -4.577  1.00  0.00    -0.544 OA
ATOM     16  O   UNL     1      23.835  13.036  -4.669  1.00  0.00    -0.544 OA
ENDBRANCH   9  14
ENDBRANCH   8   9
ENDBRANCH   1   8
TORSDOF 7
ENDMDL
MODEL 2
REMARK VINA RESULT:    -3.651      2.831      4.132
REMARK INTER + INTRA:          -5.106
REMARK INTER:                  -4.691
REMARK INTRA:                  -0.415
REMARK UNBOUND:                -0.175
REMARK SMILES [NH3+]CCCC[C@@H]([NH3+])C(=O)[O-]
REMARK SMILES IDX 4 1 3 2 2 3 1 4 5 8 6 9 7 10 8 14 9 15 10 16
REMARK H PARENT 1 5 1 6 1 7 7 11 7 12 7 13
REMARK Flexibility Score: inf
ROOT
ATOM      1  C   UNL     1      24.391  14.653  -4.864  1.00  0.00     0.012 C 
ENDROOT
BRANCH   1   2
ATOM      2  C   UNL     1      25.386  13.490  -4.990  1.00  0.00     0.061 C 
BRANCH   2   3
ATOM      3  C   UNL     1      25.037  12.311  -4.064  1.00  0.00     0.258 C 
BRANCH   3   4
ATOM      4  N   UNL     1      25.754  12.378  -2.790  1.00  0.00    -0.358 N 
ATOM      5  H   UNL     1      26.160  11.446  -2.551  1.00  0.00     0.344 HD
ATOM      6  H   UNL     1      26.511  13.098  -2.833  1.00  0.00     0.344 HD
ATOM      7  H   UNL     1      25.081  12.646  -2.036  1.00  0.00     0.344 HD
ENDBRANCH   3   4
ENDBRANCH   2   3
ENDBRANCH   1   2
BRANCH   1   8
ATOM      8  C   UNL     1      25.133  15.993  -4.721  1.00  0.00     0.072 C 
BRANCH   8   9
ATOM      9  C   UNL     1      24.911  16.703  -3.365  1.00  0.00     0.227 C 
BRANCH   9  10
ATOM     10  N   UNL     1      23.517  16.606  -2.913  1.00  0.00    -0.350 N 
ATOM     11  H   UNL     1      23.035  17.521  -3.072  1.00  0.00     0.345 HD
ATOM     12  H   UNL     1      23.013  15.874  -3.466  1.00  0.00     0.345 HD
ATOM     13  H   UNL     1      23.459  16.370  -1.897  1.00  0.00     0.345 HD
ENDBRANCH   9  10
BRANCH   9  14
ATOM     14  C   UNL     1      25.865  16.197  -2.312  1.00  0.00     0.099 C 
ATOM     15  O   UNL     1      26.896  16.862  -2.030  1.00  0.00    -0.544 OA
ATOM     16  O   UNL     1      25.647  14.977  -1.682  1.00  0.00    -0.544 OA
ENDBRANCH   9  14
ENDBRANCH   8   9
ENDBRANCH   1   8
TORSDOF 7
ENDMDL
MODEL 3
REMARK VINA RESULT:    -3.630      1.501      2.037
REMARK INTER + INTRA:          -5.077
REMARK INTER:                  -4.936
REMARK INTRA:                  -0.141
REMARK UNBOUND:                -0.175
REMARK SMILES [NH3+]CCCC[C@@H]([NH3+])C(=O)[O-]
REMARK SMILES IDX 4 1 3 2 2 3 1 4 5 8 6 9 7 10 8 14 9 15 10 16
REMARK H PARENT 1 5 1 6 1 7 7 11 7 12 7 13
REMARK Flexibility Score: inf
ROOT
ATOM      1  C   UNL     1      27.378  14.991  -4.113  1.00  0.00     0.012 C 
ENDROOT
BRANCH   1   2
ATOM      2  C   UNL     1      28.899  14.890  -3.920  1.00  0.00     0.061 C 
BRANCH   2   3
ATOM      3  C   UNL     1      29.532  13.784  -4.783  1.00  0.00     0.258 C 
BRANCH   3   4
ATOM      4  N   UNL     1      30.516  12.998  -4.038  1.00  0.00    -0.358 N 
ATOM      5  H   UNL     1      31.422  13.516  -3.974  1.00  0.00     0.344 HD
ATOM      6  H   UNL     1      30.161  12.779  -3.080  1.00  0.00     0.344 HD
ATOM      7  H   UNL     1      30.688  12.100  -4.546  1.00  0.00     0.344 HD
ENDBRANCH   3   4
ENDBRANCH   2   3
ENDBRANCH   1   2
BRANCH   1   8
ATOM      8  C   UNL     1      26.839  13.759  -4.861  1.00  0.00     0.072 C 
BRANCH   8   9
ATOM      9  C   UNL     1      25.684  13.031  -4.137  1.00  0.00     0.227 C 
BRANCH   9  10
ATOM     10  N   UNL     1      25.777  13.163  -2.676  1.00  0.00    -0.350 N 
ATOM     11  H   UNL     1      26.178  14.099  -2.436  1.00  0.00     0.345 HD
ATOM     12  H   UNL     1      24.823  13.099  -2.252  1.00  0.00     0.345 HD
ATOM     13  H   UNL     1      26.387  12.422  -2.263  1.00  0.00     0.345 HD
ENDBRANCH   9  10
BRANCH   9  14
ATOM     14  C   UNL     1      24.337  13.484  -4.643  1.00  0.00     0.099 C 
ATOM     15  O   UNL     1      23.381  12.667  -4.698  1.00  0.00    -0.544 OA
ATOM     16  O   UNL     1      24.150  14.784  -5.100  1.00  0.00    -0.544 OA
ENDBRANCH   9  14
ENDBRANCH   8   9
ENDBRANCH   1   8
TORSDOF 7
ENDMDL
MODEL 4
REMARK VINA RESULT:    -3.606      2.626      4.319
REMARK INTER + INTRA:          -5.045
REMARK INTER:                  -4.810
REMARK INTRA:                  -0.235
REMARK UNBOUND:                -0.175
REMARK SMILES [NH3+]CCCC[C@@H]([NH3+])C(=O)[O-]
REMARK SMILES IDX 4 1 3 2 2 3 1 4 5 8 6 9 7 10 8 14 9 15 10 16
REMARK H PARENT 1 5 1 6 1 7 7 11 7 12 7 13
REMARK Flexibility Score: inf
ROOT
ATOM      1  C   UNL     1      26.616  14.087  -3.955  1.00  0.00     0.012 C 
ENDROOT
BRANCH   1   2
ATOM      2  C   UNL     1      25.725  13.118  -4.747  1.00  0.00     0.061 C 
BRANCH   2   3
ATOM      3  C   UNL     1      24.280  13.626  -4.889  1.00  0.00     0.258 C 
BRANCH   3   4
ATOM      4  N   UNL     1      23.299  12.633  -4.448  1.00  0.00    -0.358 N 
ATOM      5  H   UNL     1      23.504  11.703  -4.878  1.00  0.00     0.344 HD
ATOM      6  H   UNL     1      23.302  12.553  -3.406  1.00  0.00     0.344 HD
ATOM      7  H   UNL     1      22.348  12.935  -4.759  1.00  0.00     0.344 HD
ENDBRANCH   3   4
ENDBRANCH   2   3
ENDBRANCH   1   2
BRANCH   1   8
ATOM      8  C   UNL     1      26.019  14.365  -2.565  1.00  0.00     0.072 C 
BRANCH   8   9
ATOM      9  C   UNL     1      26.017  15.858  -2.161  1.00  0.00     0.227 C 
BRANCH   9  10
ATOM     10  N   UNL     1      26.693  16.700  -3.156  1.00  0.00    -0.350 N 
ATOM     11  H   UNL     1      27.243  16.096  -3.809  1.00  0.00     0.345 HD
ATOM     12  H   UNL     1      25.984  17.226  -3.719  1.00  0.00     0.345 HD
ATOM     13  H   UNL     1      27.344  17.381  -2.703  1.00  0.00     0.345 HD
ENDBRANCH   9  10
BRANCH   9  14
ATOM     14  C   UNL     1      24.620  16.354  -1.880  1.00  0.00     0.099 C 
ATOM     15  O   UNL     1      23.792  16.461  -2.822  1.00  0.00    -0.544 OA
ATOM     16  O   UNL     1      24.249  16.745  -0.599  1.00  0.00    -0.544 OA
ENDBRANCH   9  14
ENDBRANCH   8   9
ENDBRANCH   1   8
TORSDOF 7
ENDMDL
MODEL 5
REMARK VINA RESULT:    -3.564      1.666      2.336
REMARK INTER + INTRA:          -4.989
REMARK INTER:                  -4.895
REMARK INTRA:                  -0.094
REMARK UNBOUND:                -0.175
REMARK SMILES [NH3+]CCCC[C@@H]([NH3+])C(=O)[O-]
REMARK SMILES IDX 4 1 3 2 2 3 1 4 5 8 6 9 7 10 8 14 9 15 10 16
REMARK H PARENT 1 5 1 6 1 7 7 11 7 12 7 13
REMARK Flexibility Score: inf
ROOT
ATOM      1  C   UNL     1      28.656  15.364  -3.238  1.00  0.00     0.012 C 
ENDROOT
BRANCH   1   2
ATOM      2  C   UNL     1      29.981  15.288  -2.465  1.00  0.00     0.061 C 
BRANCH   2   3
ATOM      3  C   UNL     1      30.918  14.194  -3.005  1.00  0.00     0.258 C 
BRANCH   3   4
ATOM      4  N   UNL     1      30.209  13.220  -3.836  1.00  0.00    -0.358 N 
ATOM      5  H   UNL     1      29.336  13.641  -4.226  1.00  0.00     0.344 HD
ATOM      6  H   UNL     1      30.823  12.886  -4.614  1.00  0.00     0.344 HD
ATOM      7  H   UNL     1      29.942  12.400  -3.245  1.00  0.00     0.344 HD
ENDBRANCH   3   4
ENDBRANCH   2   3
ENDBRANCH   1   2
BRANCH   1   8
ATOM      8  C   UNL     1      27.479  15.618  -2.280  1.00  0.00     0.072 C 
BRANCH   8   9
ATOM      9  C   UNL     1      26.163  14.916  -2.689  1.00  0.00     0.227 C 
BRANCH   9  10
ATOM     10  N   UNL     1      26.005  13.612  -2.032  1.00  0.00    -0.350 N 
ATOM     11  H   UNL     1      26.931  13.292  -1.665  1.00  0.00     0.345 HD
ATOM     12  H   UNL     1      25.347  13.699  -1.223  1.00  0.00     0.345 HD
ATOM     13  H   UNL     1      25.642  12.890  -2.694  1.00  0.00     0.345 HD
ENDBRANCH   9  10
BRANCH   9  14
ATOM     14  C   UNL     1      24.965  15.800  -2.449  1.00  0.00     0.099 C 
ATOM     15  O   UNL     1      24.182  16.065  -3.399  1.00  0.00    -0.544 OA
ATOM     16  O   UNL     1      24.740  16.369  -1.201  1.00  0.00    -0.544 OA
ENDBRANCH   9  14
ENDBRANCH   8   9
ENDBRANCH   1   8
TORSDOF 7
ENDMDL
MODEL 6
REMARK VINA RESULT:    -3.559      1.673      2.200
REMARK INTER + INTRA:          -4.982
REMARK INTER:                  -4.395
REMARK INTRA:                  -0.587
REMARK UNBOUND:                -0.175
REMARK SMILES [NH3+]CCCC[C@@H]([NH3+])C(=O)[O-]
REMARK SMILES IDX 4 1 3 2 2 3 1 4 5 8 6 9 7 10 8 14 9 15 10 16
REMARK H PARENT 1 5 1 6 1 7 7 11 7 12 7 13
REMARK Flexibility Score: inf
ROOT
ATOM      1  C   UNL     1      27.731  13.825  -4.666  1.00  0.00     0.012 C 
ENDROOT
BRANCH   1   2
ATOM      2  C   UNL     1      28.291  15.235  -4.908  1.00  0.00     0.061 C 
BRANCH   2   3
ATOM      3  C   UNL     1      28.609  15.977  -3.598  1.00  0.00     0.258 C 
BRANCH   3   4
ATOM      4  N   UNL     1      28.571  15.087  -2.436  1.00  0.00    -0.358 N 
ATOM      5  H   UNL     1      28.540  15.644  -1.552  1.00  0.00     0.344 HD
ATOM      6  H   UNL     1      27.742  14.453  -2.488  1.00  0.00     0.344 HD
ATOM      7  H   UNL     1      29.439  14.505  -2.426  1.00  0.00     0.344 HD
ENDBRANCH   3   4
ENDBRANCH   2   3
ENDBRANCH   1   2
BRANCH   1   8
ATOM      8  C   UNL     1      26.230  13.769  -5.003  1.00  0.00     0.072 C 
BRANCH   8   9
ATOM      9  C   UNL     1      25.309  13.593  -3.773  1.00  0.00     0.227 C 
BRANCH   9  10
ATOM     10  N   UNL     1      25.826  12.588  -2.835  1.00  0.00    -0.350 N 
ATOM     11  H   UNL     1      26.198  11.770  -3.370  1.00  0.00     0.345 HD
ATOM     12  H   UNL     1      26.611  12.995  -2.275  1.00  0.00     0.345 HD
ATOM     13  H   UNL     1      25.080  12.251  -2.185  1.00  0.00     0.345 HD
ENDBRANCH   9  10
BRANCH   9  14
ATOM     14  C   UNL     1      25.050  14.908  -3.082  1.00  0.00     0.099 C 
ATOM     15  O   UNL     1      24.390  15.805  -3.668  1.00  0.00    -0.544 OA
ATOM     16  O   UNL     1      25.576  15.163  -1.820  1.00  0.00    -0.544 OA
ENDBRANCH   9  14
ENDBRANCH   8   9
ENDBRANCH   1   8
TORSDOF 7
ENDMDL
MODEL 7
REMARK VINA RESULT:    -3.429      1.844      1.999
REMARK INTER + INTRA:          -4.807
REMARK INTER:                  -4.202
REMARK INTRA:                  -0.605
REMARK UNBOUND:                -0.175
REMARK SMILES [NH3+]CCCC[C@@H]([NH3+])C(=O)[O-]
REMARK SMILES IDX 4 1 3 2 2 3 1 4 5 8 6 9 7 10 8 14 9 15 10 16
REMARK H PARENT 1 5 1 6 1 7 7 11 7 12 7 13
REMARK Flexibility Score: inf
ROOT
ATOM      1  C   UNL     1      26.639  16.449  -2.348  1.00  0.00     0.012 C 
ENDROOT
BRANCH   1   2
ATOM      2  C   UNL     1      27.991  15.721  -2.310  1.00  0.00     0.061 C 
BRANCH   2   3
ATOM      3  C   UNL     1      28.561  15.458  -3.715  1.00  0.00     0.258 C 
BRANCH   3   4
ATOM      4  N   UNL     1      28.578  14.032  -4.046  1.00  0.00    -0.358 N 
ATOM      5  H   UNL     1      27.734  13.557  -3.655  1.00  0.00     0.344 HD
ATOM      6  H   UNL     1      28.617  13.898  -5.082  1.00  0.00     0.344 HD
ATOM      7  H   UNL     1      29.427  13.596  -3.620  1.00  0.00     0.344 HD
ENDBRANCH   3   4
ENDBRANCH   2   3
ENDBRANCH   1   2
BRANCH   1   8
ATOM      8  C   UNL     1      25.477  15.452  -2.197  1.00  0.00     0.072 C 
BRANCH   8   9
ATOM      9  C   UNL     1      24.699  15.178  -3.505  1.00  0.00     0.227 C 
BRANCH   9  10
ATOM     10  N   UNL     1      25.041  16.139  -4.562  1.00  0.00    -0.350 N 
ATOM     11  H   UNL     1      25.685  16.867  -4.176  1.00  0.00     0.345 HD
ATOM     12  H   UNL     1      25.535  15.649  -5.343  1.00  0.00     0.345 HD
ATOM     13  H   UNL     1      24.189  16.613  -4.939  1.00  0.00     0.345 HD
ENDBRANCH   9  10
BRANCH   9  14
ATOM     14  C   UNL     1      24.887  13.757  -3.975  1.00  0.00     0.099 C 
ATOM     15  O   UNL     1      25.829  13.063  -3.511  1.00  0.00    -0.544 OA
ATOM     16  O   UNL     1      24.062  13.217  -4.954  1.00  0.00    -0.544 OA
ENDBRANCH   9  14
ENDBRANCH   8   9
ENDBRANCH   1   8
TORSDOF 7
ENDMDL
MODEL 8
REMARK VINA RESULT:    -3.428     21.062     22.188
REMARK INTER + INTRA:          -4.805
REMARK INTER:                  -4.681
REMARK INTRA:                  -0.124
REMARK UNBOUND:                -0.175
REMARK SMILES [NH3+]CCCC[C@@H]([NH3+])C(=O)[O-]
REMARK SMILES IDX 4 1 3 2 2 3 1 4 5 8 6 9 7 10 8 14 9 15 10 16
REMARK H PARENT 1 5 1 6 1 7 7 11 7 12 7 13
REMARK Flexibility Score: inf
ROOT
ATOM      1  C   UNL     1      14.544   1.033   6.490  1.00  0.00     0.012 C 
ENDROOT
BRANCH   1   2
ATOM      2  C   UNL     1      15.204   2.053   7.430  1.00  0.00     0.061 C 
BRANCH   2   3
ATOM      3  C   UNL     1      14.551   2.082   8.822  1.00  0.00     0.258 C 
BRANCH   3   4
ATOM      4  N   UNL     1      14.160   3.435   9.221  1.00  0.00    -0.358 N 
ATOM      5  H   UNL     1      14.107   3.506  10.263  1.00  0.00     0.344 HD
ATOM      6  H   UNL     1      14.839   4.137   8.849  1.00  0.00     0.344 HD
ATOM      7  H   UNL     1      13.213   3.643   8.830  1.00  0.00     0.344 HD
ENDBRANCH   3   4
ENDBRANCH   2   3
ENDBRANCH   1   2
BRANCH   1   8
ATOM      8  C   UNL     1      13.577   0.121   7.265  1.00  0.00     0.072 C 
BRANCH   8   9
ATOM      9  C   UNL     1      12.469  -0.516   6.396  1.00  0.00     0.227 C 
BRANCH   9  10
ATOM     10  N   UNL     1      12.689  -0.284   4.962  1.00  0.00    -0.350 N 
ATOM     11  H   UNL     1      11.766  -0.188   4.479  1.00  0.00     0.345 HD
ATOM     12  H   UNL     1      13.222   0.606   4.823  1.00  0.00     0.345 HD
ATOM     13  H   UNL     1      13.215  -1.072   4.522  1.00  0.00     0.345 HD
ENDBRANCH   9  10
BRANCH   9  14
ATOM     14  C   UNL     1      12.305  -1.986   6.694  1.00  0.00     0.099 C 
ATOM     15  O   UNL     1      12.491  -2.412   7.864  1.00  0.00    -0.544 OA
ATOM     16  O   UNL     1      11.999  -2.887   5.681  1.00  0.00    -0.544 OA
ENDBRANCH   9  14
ENDBRANCH   8   9
ENDBRANCH   1   8
TORSDOF 7
ENDMDL
MODEL 9
REMARK VINA RESULT:    -3.411      2.662      4.250
REMARK INTER + INTRA:          -4.782
REMARK INTER:                  -4.315
REMARK INTRA:                  -0.467
REMARK UNBOUND:                -0.175
REMARK SMILES [NH3+]CCCC[C@@H]([NH3+])C(=O)[O-]
REMARK SMILES IDX 4 1 3 2 2 3 1 4 5 8 6 9 7 10 8 14 9 15 10 16
REMARK H PARENT 1 5 1 6 1 7 7 11 7 12 7 13
REMARK Flexibility Score: inf
ROOT
ATOM      1  C   UNL     1      24.609  14.807  -4.108  1.00  0.00     0.012 C 
ENDROOT
BRANCH   1   2
ATOM      2  C   UNL     1      24.674  13.521  -4.945  1.00  0.00     0.061 C 
BRANCH   2   3
ATOM      3  C   UNL     1      25.109  12.298  -4.119  1.00  0.00     0.258 C 
BRANCH   3   4
ATOM      4  N   UNL     1      25.789  12.682  -2.881  1.00  0.00    -0.358 N 
ATOM      5  H   UNL     1      25.984  11.838  -2.296  1.00  0.00     0.344 HD
ATOM      6  H   UNL     1      26.682  13.183  -3.094  1.00  0.00     0.344 HD
ATOM      7  H   UNL     1      25.168  13.322  -2.337  1.00  0.00     0.344 HD
ENDBRANCH   3   4
ENDBRANCH   2   3
ENDBRANCH   1   2
BRANCH   1   8
ATOM      8  C   UNL     1      25.726  15.783  -4.518  1.00  0.00     0.072 C 
BRANCH   8   9
ATOM      9  C   UNL     1      26.634  16.236  -3.352  1.00  0.00     0.227 C 
BRANCH   9  10
ATOM     10  N   UNL     1      25.933  16.204  -2.061  1.00  0.00    -0.350 N 
ATOM     11  H   UNL     1      24.979  15.796  -2.193  1.00  0.00     0.345 HD
ATOM     12  H   UNL     1      26.456  15.598  -1.387  1.00  0.00     0.345 HD
ATOM     13  H   UNL     1      25.833  17.162  -1.656  1.00  0.00     0.345 HD
ENDBRANCH   9  10
BRANCH   9  14
ATOM     14  C   UNL     1      27.912  15.437  -3.302  1.00  0.00     0.099 C 
ATOM     15  O   UNL     1      28.081  14.473  -4.094  1.00  0.00    -0.544 OA
ATOM     16  O   UNL     1      28.890  15.718  -2.354  1.00  0.00    -0.544 OA
ENDBRANCH   9  14
ENDBRANCH   8   9
ENDBRANCH   1   8
TORSDOF 7
ENDMDL
