MODEL 1
REMARK VINA RESULT:    -5.917      0.000      0.000
REMARK INTER + INTRA:          -6.090
REMARK INTER:                  -6.090
REMARK INTRA:                   0.000
REMARK UNBOUND:                 0.000
REMARK SMILES Oc1ccc2[nH]ccc2c1
REMARK SMILES IDX 3 1 4 2 5 3 9 4 8 5 7 6 6 7 10 8 2 9 1 11
REMARK H PARENT 6 10 1 12
REMARK Flexibility Score: inf
ROOT
ATOM      1  C   UNL     1      -1.790  32.105  42.195  1.00  0.00     0.048 A 
ATOM      2  C   UNL     1      -0.661  31.281  42.041  1.00  0.00     0.030 A 
ATOM      3  C   UNL     1       0.392  31.758  41.260  1.00  0.00     0.046 A 
ATOM      4  C   UNL     1       0.341  32.986  40.658  1.00  0.00     0.003 A 
ATOM      5  C   UNL     1       1.522  33.156  39.968  1.00  0.00     0.028 A 
ATOM      6  C   UNL     1       2.246  31.990  40.196  1.00  0.00     0.083 A 
ATOM      7  N   UNL     1       1.551  31.139  40.986  1.00  0.00    -0.361 N 
ATOM      8  C   UNL     1      -0.762  33.827  40.789  1.00  0.00     0.056 A 
ATOM      9  C   UNL     1      -1.844  33.377  41.571  1.00  0.00     0.116 A 
ATOM     10  H   UNL     1       1.857  30.195  41.313  1.00  0.00     0.166 HD
ENDROOT
BRANCH   9  11
ATOM     11  O   UNL     1      -2.962  34.192  41.724  1.00  0.00    -0.508 OA
ATOM     12  H   UNL     1      -3.501  34.506  40.925  1.00  0.00     0.293 HD
ENDBRANCH   9  11
TORSDOF 1
ENDMDL
MODEL 2
REMARK VINA RESULT:    -5.651      2.631      4.099
REMARK INTER + INTRA:          -5.816
REMARK INTER:                  -5.816
REMARK INTRA:                   0.000
REMARK UNBOUND:                 0.000
REMARK SMILES Oc1ccc2[nH]ccc2c1
REMARK SMILES IDX 3 1 4 2 5 3 9 4 8 5 7 6 6 7 10 8 2 9 1 11
REMARK H PARENT 6 10 1 12
REMARK Flexibility Score: inf
ROOT
ATOM      1  C   UNL     1       1.909  32.975  39.964  1.00  0.00     0.048 A 
ATOM      2  C   UNL     1       0.831  33.872  40.062  1.00  0.00     0.030 A 
ATOM      3  C   UNL     1      -0.251  33.506  40.862  1.00  0.00     0.046 A 
ATOM      4  C   UNL     1      -0.275  32.314  41.536  1.00  0.00     0.003 A 
ATOM      5  C   UNL     1      -1.467  32.256  42.226  1.00  0.00     0.028 A 
ATOM      6  C   UNL     1      -2.119  33.448  41.926  1.00  0.00     0.083 A 
ATOM      7  N   UNL     1      -1.372  34.208  41.092  1.00  0.00    -0.361 N 
ATOM      8  C   UNL     1       0.775  31.403  41.461  1.00  0.00     0.056 A 
ATOM      9  C   UNL     1       1.884  31.741  40.662  1.00  0.00     0.116 A 
ATOM     10  H   UNL     1      -1.620  35.147  40.708  1.00  0.00     0.166 HD
ENDROOT
BRANCH   9  11
ATOM     11  O   UNL     1       2.953  30.853  40.564  1.00  0.00    -0.508 OA
ATOM     12  H   UNL     1       3.545  30.648  41.361  1.00  0.00     0.293 HD
ENDBRANCH   9  11
TORSDOF 1
ENDMDL
MODEL 3
REMARK VINA RESULT:    -5.534      2.174      2.772
REMARK INTER + INTRA:          -5.696
REMARK INTER:                  -5.696
REMARK INTRA:                   0.000
REMARK UNBOUND:                 0.000
REMARK SMILES Oc1ccc2[nH]ccc2c1
REMARK SMILES IDX 3 1 4 2 5 3 9 4 8 5 7 6 6 7 10 8 2 9 1 11
REMARK H PARENT 6 10 1 12
REMARK Flexibility Score: inf
ROOT
ATOM      1  C   UNL     1      -2.359  32.500  42.242  1.00  0.00     0.048 A 
ATOM      2  C   UNL     1      -2.044  33.829  41.908  1.00  0.00     0.030 A 
ATOM      3  C   UNL     1      -0.750  34.099  41.463  1.00  0.00     0.046 A 
ATOM      4  C   UNL     1       0.192  33.112  41.351  1.00  0.00     0.003 A 
ATOM      5  C   UNL     1       1.351  33.699  40.890  1.00  0.00     0.028 A 
ATOM      6  C   UNL     1       1.041  35.047  40.744  1.00  0.00     0.083 A 
ATOM      7  N   UNL     1      -0.243  35.286  41.095  1.00  0.00    -0.361 N 
ATOM      8  C   UNL     1      -0.087  31.786  41.674  1.00  0.00     0.056 A 
ATOM      9  C   UNL     1      -1.384  31.478  42.127  1.00  0.00     0.116 A 
ATOM     10  H   UNL     1      -0.736  36.207  41.082  1.00  0.00     0.166 HD
ENDROOT
BRANCH   9  11
ATOM     11  O   UNL     1      -1.698  30.162  42.458  1.00  0.00    -0.508 OA
ATOM     12  H   UNL     1      -2.383  29.945  43.173  1.00  0.00     0.293 HD
ENDBRANCH   9  11
TORSDOF 1
ENDMDL
MODEL 4
REMARK VINA RESULT:    -5.280      1.853      3.097
REMARK INTER + INTRA:          -5.434
REMARK INTER:                  -5.434
REMARK INTRA:                   0.000
REMARK UNBOUND:                 0.000
REMARK SMILES Oc1ccc2[nH]ccc2c1
REMARK SMILES IDX 3 1 4 2 5 3 9 4 8 5 7 6 6 7 10 8 2 9 1 11
REMARK H PARENT 6 10 1 12
REMARK Flexibility Score: inf
ROOT
ATOM      1  C   UNL     1       1.552  34.031  41.257  1.00  0.00     0.048 A 
ATOM      2  C   UNL     1       1.377  32.691  41.647  1.00  0.00     0.030 A 
ATOM      3  C   UNL     1       0.076  32.244  41.873  1.00  0.00     0.046 A 
ATOM      4  C   UNL     1      -1.005  33.071  41.724  1.00  0.00     0.003 A 
ATOM      5  C   UNL     1      -2.131  32.334  42.018  1.00  0.00     0.028 A 
ATOM      6  C   UNL     1      -1.661  31.064  42.338  1.00  0.00     0.083 A 
ATOM      7  N   UNL     1      -0.312  31.014  42.248  1.00  0.00    -0.361 N 
ATOM      8  C   UNL     1      -0.867  34.403  41.341  1.00  0.00     0.056 A 
ATOM      9  C   UNL     1       0.434  34.888  41.104  1.00  0.00     0.116 A 
ATOM     10  H   UNL     1       0.299  30.187  42.432  1.00  0.00     0.166 HD
ENDROOT
BRANCH   9  11
ATOM     11  O   UNL     1       0.609  36.215  40.718  1.00  0.00    -0.508 OA
ATOM     12  H   UNL     1      -0.018  36.946  41.036  1.00  0.00     0.293 HD
ENDBRANCH   9  11
TORSDOF 1
ENDMDL
MODEL 5
REMARK VINA RESULT:    -5.210      1.822      2.348
REMARK INTER + INTRA:          -5.363
REMARK INTER:                  -5.363
REMARK INTRA:                   0.000
REMARK UNBOUND:                 0.000
REMARK SMILES Oc1ccc2[nH]ccc2c1
REMARK SMILES IDX 3 1 4 2 5 3 9 4 8 5 7 6 6 7 10 8 2 9 1 11
REMARK H PARENT 6 10 1 12
REMARK Flexibility Score: inf
ROOT
ATOM      1  C   UNL     1      -1.337  32.841  42.457  1.00  0.00     0.048 A 
ATOM      2  C   UNL     1      -0.485  33.892  42.074  1.00  0.00     0.030 A 
ATOM      3  C   UNL     1       0.667  33.568  41.358  1.00  0.00     0.046 A 
ATOM      4  C   UNL     1       0.970  32.274  41.031  1.00  0.00     0.003 A 
ATOM      5  C   UNL     1       2.158  32.293  40.332  1.00  0.00     0.028 A 
ATOM      6  C   UNL     1       2.521  33.634  40.271  1.00  0.00     0.083 A 
ATOM      7  N   UNL     1       1.607  34.409  40.899  1.00  0.00    -0.361 N 
ATOM      8  C   UNL     1       0.149  31.209  41.395  1.00  0.00     0.056 A 
ATOM      9  C   UNL     1      -1.023  31.500  42.120  1.00  0.00     0.116 A 
ATOM     10  H   UNL     1       1.631  35.449  41.002  1.00  0.00     0.166 HD
ENDROOT
BRANCH   9  11
ATOM     11  O   UNL     1      -1.868  30.460  42.500  1.00  0.00    -0.508 OA
ATOM     12  H   UNL     1      -1.512  29.632  42.964  1.00  0.00     0.293 HD
ENDBRANCH   9  11
TORSDOF 1
ENDMDL
MODEL 6
REMARK VINA RESULT:    -5.207      0.932      1.998
REMARK INTER + INTRA:          -5.359
REMARK INTER:                  -5.359
REMARK INTRA:                   0.000
REMARK UNBOUND:                 0.000
REMARK SMILES Oc1ccc2[nH]ccc2c1
REMARK SMILES IDX 3 1 4 2 5 3 9 4 8 5 7 6 6 7 10 8 2 9 1 11
REMARK H PARENT 6 10 1 12
REMARK Flexibility Score: inf
ROOT
ATOM      1  C   UNL     1      -0.963  34.398  41.009  1.00  0.00     0.048 A 
ATOM      2  C   UNL     1       0.267  34.043  40.425  1.00  0.00     0.030 A 
ATOM      3  C   UNL     1       0.835  32.824  40.795  1.00  0.00     0.046 A 
ATOM      4  C   UNL     1       0.227  31.991  41.695  1.00  0.00     0.003 A 
ATOM      5  C   UNL     1       1.035  30.884  41.842  1.00  0.00     0.028 A 
ATOM      6  C   UNL     1       2.119  31.111  41.000  1.00  0.00     0.083 A 
ATOM      7  N   UNL     1       1.992  32.298  40.363  1.00  0.00    -0.361 N 
ATOM      8  C   UNL     1      -0.989  32.312  42.292  1.00  0.00     0.056 A 
ATOM      9  C   UNL     1      -1.592  33.536  41.942  1.00  0.00     0.116 A 
ATOM     10  H   UNL     1       2.659  32.715  39.676  1.00  0.00     0.166 HD
ENDROOT
BRANCH   9  11
ATOM     11  O   UNL     1      -2.810  33.889  42.519  1.00  0.00    -0.508 OA
ATOM     12  H   UNL     1      -3.381  33.208  43.007  1.00  0.00     0.293 HD
ENDBRANCH   9  11
TORSDOF 1
ENDMDL
MODEL 7
REMARK VINA RESULT:    -5.184      1.978      2.682
REMARK INTER + INTRA:          -5.336
REMARK INTER:                  -5.336
REMARK INTRA:                   0.000
REMARK UNBOUND:                 0.000
REMARK SMILES Oc1ccc2[nH]ccc2c1
REMARK SMILES IDX 3 1 4 2 5 3 9 4 8 5 7 6 6 7 10 8 2 9 1 11
REMARK H PARENT 6 10 1 12
REMARK Flexibility Score: inf
ROOT
ATOM      1  C   UNL     1       0.601  31.051  42.092  1.00  0.00     0.048 A 
ATOM      2  C   UNL     1       1.562  31.992  41.682  1.00  0.00     0.030 A 
ATOM      3  C   UNL     1       1.124  33.280  41.377  1.00  0.00     0.046 A 
ATOM      4  C   UNL     1      -0.196  33.631  41.470  1.00  0.00     0.003 A 
ATOM      5  C   UNL     1      -0.297  34.957  41.105  1.00  0.00     0.028 A 
ATOM      6  C   UNL     1       1.003  35.349  40.802  1.00  0.00     0.083 A 
ATOM      7  N   UNL     1       1.867  34.322  40.970  1.00  0.00    -0.361 N 
ATOM      8  C   UNL     1      -1.174  32.724  41.872  1.00  0.00     0.056 A 
ATOM      9  C   UNL     1      -0.766  31.414  42.188  1.00  0.00     0.116 A 
ATOM     10  H   UNL     1       2.900  34.339  40.815  1.00  0.00     0.166 HD
ENDROOT
BRANCH   9  11
ATOM     11  O   UNL     1      -1.717  30.481  42.594  1.00  0.00    -0.508 OA
ATOM     12  H   UNL     1      -1.966  30.370  43.570  1.00  0.00     0.293 HD
ENDBRANCH   9  11
TORSDOF 1
ENDMDL
MODEL 8
REMARK VINA RESULT:    -5.166      2.465      3.590
REMARK INTER + INTRA:          -5.317
REMARK INTER:                  -5.317
REMARK INTRA:                   0.000
REMARK UNBOUND:                 0.000
REMARK SMILES Oc1ccc2[nH]ccc2c1
REMARK SMILES IDX 3 1 4 2 5 3 9 4 8 5 7 6 6 7 10 8 2 9 1 11
REMARK H PARENT 6 10 1 12
REMARK Flexibility Score: inf
ROOT
ATOM      1  C   UNL     1       1.851  31.350  40.944  1.00  0.00     0.048 A 
ATOM      2  C   UNL     1       0.745  31.119  41.783  1.00  0.00     0.030 A 
ATOM      3  C   UNL     1      -0.281  32.063  41.781  1.00  0.00     0.046 A 
ATOM      4  C   UNL     1      -0.228  33.182  40.994  1.00  0.00     0.003 A 
ATOM      5  C   UNL     1      -1.382  33.901  41.222  1.00  0.00     0.028 A 
ATOM      6  C   UNL     1      -2.092  33.159  42.160  1.00  0.00     0.083 A 
ATOM      7  N   UNL     1      -1.416  32.037  42.498  1.00  0.00    -0.361 N 
ATOM      8  C   UNL     1       0.852  33.441  40.153  1.00  0.00     0.056 A 
ATOM      9  C   UNL     1       1.907  32.508  40.130  1.00  0.00     0.116 A 
ATOM     10  H   UNL     1      -1.718  31.304  43.179  1.00  0.00     0.166 HD
ENDROOT
BRANCH   9  11
ATOM     11  O   UNL     1       3.002  32.736  39.300  1.00  0.00    -0.508 OA
ATOM     12  H   UNL     1       3.570  31.972  38.952  1.00  0.00     0.293 HD
ENDBRANCH   9  11
TORSDOF 1
ENDMDL
MODEL 9
REMARK VINA RESULT:    -5.078      2.817      3.561
REMARK INTER + INTRA:          -5.226
REMARK INTER:                  -5.226
REMARK INTRA:                   0.000
REMARK UNBOUND:                 0.000
REMARK SMILES Oc1ccc2[nH]ccc2c1
REMARK SMILES IDX 3 1 4 2 5 3 9 4 8 5 7 6 6 7 10 8 2 9 1 11
REMARK H PARENT 6 10 1 12
REMARK Flexibility Score: inf
ROOT
ATOM      1  C   UNL     1       0.776  31.021  42.099  1.00  0.00     0.048 A 
ATOM      2  C   UNL     1      -0.113  32.086  42.329  1.00  0.00     0.030 A 
ATOM      3  C   UNL     1       0.144  33.298  41.688  1.00  0.00     0.046 A 
ATOM      4  C   UNL     1       1.222  33.459  40.860  1.00  0.00     0.003 A 
ATOM      5  C   UNL     1       1.192  34.755  40.392  1.00  0.00     0.028 A 
ATOM      6  C   UNL     1       0.067  35.326  40.978  1.00  0.00     0.083 A 
ATOM      7  N   UNL     1      -0.570  34.432  41.768  1.00  0.00    -0.361 N 
ATOM      8  C   UNL     1       2.122  32.425  40.612  1.00  0.00     0.056 A 
ATOM      9  C   UNL     1       1.893  31.187  41.242  1.00  0.00     0.116 A 
ATOM     10  H   UNL     1      -1.439  34.594  42.325  1.00  0.00     0.166 HD
ENDROOT
BRANCH   9  11
ATOM     11  O   UNL     1       2.772  30.131  41.015  1.00  0.00    -0.508 OA
ATOM     12  H   UNL     1       2.740  29.591  40.158  1.00  0.00     0.293 HD
ENDBRANCH   9  11
TORSDOF 1
ENDMDL
