MODEL 1
REMARK VINA RESULT:    -4.819      0.000      0.000
REMARK INTER + INTRA:          -8.897
REMARK INTER:                  -7.637
REMARK INTRA:                  -1.261
REMARK UNBOUND:                -1.261
REMARK SMILES CCCCCCCCCCCC(=O)[O-]
REMARK SMILES IDX 7 1 8 2 9 3 10 4 11 5 12 6 13 7 14 8 6 9 5 10 4 11 3 12 2 13
REMARK SMILES IDX 1 14
REMARK H PARENT
REMARK Flexibility Score: inf
ROOT
ATOM      1  C   UNL     1     -10.853  -6.609  15.645  1.00  0.00     0.000 C 
ENDROOT
BRANCH   1   2
ATOM      2  C   UNL     1     -11.373  -6.870  14.219  1.00  0.00     0.000 C 
BRANCH   2   3
ATOM      3  C   UNL     1     -10.320  -6.583  13.135  1.00  0.00     0.000 C 
BRANCH   3   4
ATOM      4  C   UNL     1     -10.732  -5.434  12.195  1.00  0.00     0.006 C 
BRANCH   4   5
ATOM      5  C   UNL     1     -12.150  -5.564  11.618  1.00  0.00     0.053 C 
BRANCH   5   6
ATOM      6  C   UNL     1     -12.158  -5.471  10.123  1.00  0.00     0.041 C 
ATOM      7  O   UNL     1     -13.237  -5.591   9.486  1.00  0.00    -0.550 OA
ATOM      8  O   UNL     1     -10.976  -5.221   9.436  1.00  0.00    -0.550 OA
ENDBRANCH   5   6
ENDBRANCH   4   5
ENDBRANCH   3   4
ENDBRANCH   2   3
ENDBRANCH   1   2
BRANCH   1   9
ATOM      9  C   UNL     1      -9.445  -5.993  15.730  1.00  0.00     0.000 C 
BRANCH   9  10
ATOM     10  C   UNL     1      -9.430  -4.628  16.440  1.00  0.00    -0.000 C 
BRANCH  10  11
ATOM     11  C   UNL     1     -10.447  -3.640  15.843  1.00  0.00    -0.000 C 
BRANCH  11  12
ATOM     12  C   UNL     1     -11.564  -3.273  16.836  1.00  0.00    -0.000 C 
BRANCH  12  13
ATOM     13  C   UNL     1     -12.963  -3.617  16.299  1.00  0.00    -0.003 C 
ATOM     14  C   UNL     1     -13.088  -3.404  14.791  1.00  0.00     0.004 C 
ENDBRANCH  12  13
ENDBRANCH  11  12
ENDBRANCH  10  11
ENDBRANCH   9  10
ENDBRANCH   1   9
TORSDOF 10
ENDMDL
MODEL 2
REMARK VINA RESULT:    -4.786      2.681      4.496
REMARK INTER + INTRA:          -8.845
REMARK INTER:                  -7.406
REMARK INTRA:                  -1.439
REMARK UNBOUND:                -1.261
REMARK SMILES CCCCCCCCCCCC(=O)[O-]
REMARK SMILES IDX 7 1 8 2 9 3 10 4 11 5 12 6 13 7 14 8 6 9 5 10 4 11 3 12 2 13
REMARK SMILES IDX 1 14
REMARK H PARENT
REMARK Flexibility Score: inf
ROOT
ATOM      1  C   UNL     1      -9.140  -4.095  16.449  1.00  0.00     0.000 C 
ENDROOT
BRANCH   1   2
ATOM      2  C   UNL     1     -10.172  -2.979  16.206  1.00  0.00     0.000 C 
BRANCH   2   3
ATOM      3  C   UNL     1     -11.445  -3.143  17.054  1.00  0.00     0.000 C 
BRANCH   3   4
ATOM      4  C   UNL     1     -12.597  -3.806  16.276  1.00  0.00     0.006 C 
BRANCH   4   5
ATOM      5  C   UNL     1     -12.660  -3.423  14.788  1.00  0.00     0.053 C 
BRANCH   5   6
ATOM      6  C   UNL     1     -13.930  -2.708  14.446  1.00  0.00     0.041 C 
ATOM      7  O   UNL     1     -15.037  -3.159  14.841  1.00  0.00    -0.550 OA
ATOM      8  O   UNL     1     -13.887  -1.526  13.717  1.00  0.00    -0.550 OA
ENDBRANCH   5   6
ENDBRANCH   4   5
ENDBRANCH   3   4
ENDBRANCH   2   3
ENDBRANCH   1   2
BRANCH   1   9
ATOM      9  C   UNL     1      -8.782  -4.942  15.214  1.00  0.00     0.000 C 
BRANCH   9  10
ATOM     10  C   UNL     1      -9.175  -4.265  13.889  1.00  0.00    -0.000 C 
BRANCH  10  11
ATOM     11  C   UNL     1      -9.966  -5.202  12.961  1.00  0.00    -0.000 C 
BRANCH  11  12
ATOM     12  C   UNL     1     -10.145  -6.609  13.558  1.00  0.00    -0.000 C 
BRANCH  12  13
ATOM     13  C   UNL     1     -11.552  -6.827  14.137  1.00  0.00    -0.003 C 
ATOM     14  C   UNL     1     -11.529  -7.305  15.589  1.00  0.00     0.004 C 
ENDBRANCH  12  13
ENDBRANCH  11  12
ENDBRANCH  10  11
ENDBRANCH   9  10
ENDBRANCH   1   9
TORSDOF 10
ENDMDL
MODEL 3
REMARK VINA RESULT:    -4.743      3.264      5.246
REMARK INTER + INTRA:          -8.777
REMARK INTER:                  -7.233
REMARK INTRA:                  -1.544
REMARK UNBOUND:                -1.261
REMARK SMILES CCCCCCCCCCCC(=O)[O-]
REMARK SMILES IDX 7 1 8 2 9 3 10 4 11 5 12 6 13 7 14 8 6 9 5 10 4 11 3 12 2 13
REMARK SMILES IDX 1 14
REMARK H PARENT
REMARK Flexibility Score: inf
ROOT
ATOM      1  C   UNL     1      -8.307  -5.351  12.246  1.00  0.00     0.000 C 
ENDROOT
BRANCH   1   2
ATOM      2  C   UNL     1      -8.643  -4.332  13.350  1.00  0.00     0.000 C 
BRANCH   2   3
ATOM      3  C   UNL     1      -8.550  -4.929  14.765  1.00  0.00     0.000 C 
BRANCH   3   4
ATOM      4  C   UNL     1      -9.160  -4.009  15.840  1.00  0.00     0.006 C 
BRANCH   4   5
ATOM      5  C   UNL     1     -10.497  -3.366  15.440  1.00  0.00     0.053 C 
BRANCH   5   6
ATOM      6  C   UNL     1     -11.442  -3.271  16.598  1.00  0.00     0.041 C 
ATOM      7  O   UNL     1     -11.086  -2.702  17.662  1.00  0.00    -0.550 OA
ATOM      8  O   UNL     1     -12.728  -3.787  16.489  1.00  0.00    -0.550 OA
ENDBRANCH   5   6
ENDBRANCH   4   5
ENDBRANCH   3   4
ENDBRANCH   2   3
ENDBRANCH   1   2
BRANCH   1   9
ATOM      9  C   UNL     1      -9.495  -5.785  11.368  1.00  0.00     0.000 C 
BRANCH   9  10
ATOM     10  C   UNL     1     -10.778  -4.986  11.656  1.00  0.00    -0.000 C 
BRANCH  10  11
ATOM     11  C   UNL     1     -11.969  -5.891  12.014  1.00  0.00    -0.000 C 
BRANCH  11  12
ATOM     12  C   UNL     1     -12.207  -5.978  13.531  1.00  0.00    -0.000 C 
BRANCH  12  13
ATOM     13  C   UNL     1     -11.395  -7.104  14.190  1.00  0.00    -0.003 C 
ATOM     14  C   UNL     1     -11.470  -7.075  15.717  1.00  0.00     0.004 C 
ENDBRANCH  12  13
ENDBRANCH  11  12
ENDBRANCH  10  11
ENDBRANCH   9  10
ENDBRANCH   1   9
TORSDOF 10
ENDMDL
MODEL 4
REMARK VINA RESULT:    -4.741      3.813      6.060
REMARK INTER + INTRA:          -8.774
REMARK INTER:                  -7.889
REMARK INTRA:                  -0.885
REMARK UNBOUND:                -1.261
REMARK SMILES CCCCCCCCCCCC(=O)[O-]
REMARK SMILES IDX 7 1 8 2 9 3 10 4 11 5 12 6 13 7 14 8 6 9 5 10 4 11 3 12 2 13
REMARK SMILES IDX 1 14
REMARK H PARENT
REMARK Flexibility Score: inf
ROOT
ATOM      1  C   UNL     1     -10.914  -7.325  14.223  1.00  0.00     0.000 C 
ENDROOT
BRANCH   1   2
ATOM      2  C   UNL     1     -10.876  -6.662  15.612  1.00  0.00     0.000 C 
BRANCH   2   3
ATOM      3  C   UNL     1      -9.531  -5.981  15.916  1.00  0.00     0.000 C 
BRANCH   3   4
ATOM      4  C   UNL     1      -9.616  -4.444  15.860  1.00  0.00     0.006 C 
BRANCH   4   5
ATOM      5  C   UNL     1      -8.439  -3.718  16.531  1.00  0.00     0.053 C 
BRANCH   5   6
ATOM      6  C   UNL     1      -8.862  -2.987  17.768  1.00  0.00     0.041 C 
ATOM      7  O   UNL     1      -9.959  -2.370  17.795  1.00  0.00    -0.550 OA
ATOM      8  O   UNL     1      -8.056  -3.014  18.900  1.00  0.00    -0.550 OA
ENDBRANCH   5   6
ENDBRANCH   4   5
ENDBRANCH   3   4
ENDBRANCH   2   3
ENDBRANCH   1   2
BRANCH   1   9
ATOM      9  C   UNL     1     -11.998  -6.794  13.269  1.00  0.00     0.000 C 
BRANCH   9  10
ATOM     10  C   UNL     1     -11.848  -5.292  12.967  1.00  0.00    -0.000 C 
BRANCH  10  11
ATOM     11  C   UNL     1     -10.522  -4.962  12.262  1.00  0.00    -0.000 C 
BRANCH  11  12
ATOM     12  C   UNL     1     -10.383  -5.674  10.905  1.00  0.00    -0.000 C 
BRANCH  12  13
ATOM     13  C   UNL     1     -11.239  -5.021   9.808  1.00  0.00    -0.003 C 
ATOM     14  C   UNL     1     -12.194  -6.006   9.134  1.00  0.00     0.004 C 
ENDBRANCH  12  13
ENDBRANCH  11  12
ENDBRANCH  10  11
ENDBRANCH   9  10
ENDBRANCH   1   9
TORSDOF 10
ENDMDL
MODEL 5
REMARK VINA RESULT:    -4.714      1.738      2.728
REMARK INTER + INTRA:          -8.731
REMARK INTER:                  -7.389
REMARK INTRA:                  -1.342
REMARK UNBOUND:                -1.261
REMARK SMILES CCCCCCCCCCCC(=O)[O-]
REMARK SMILES IDX 7 1 8 2 9 3 10 4 11 5 12 6 13 7 14 8 6 9 5 10 4 11 3 12 2 13
REMARK SMILES IDX 1 14
REMARK H PARENT
REMARK Flexibility Score: inf
ROOT
ATOM      1  C   UNL     1      -7.840  -4.449  12.564  1.00  0.00     0.000 C 
ENDROOT
BRANCH   1   2
ATOM      2  C   UNL     1      -8.253  -5.851  12.080  1.00  0.00     0.000 C 
BRANCH   2   3
ATOM      3  C   UNL     1      -9.454  -5.825  11.118  1.00  0.00     0.000 C 
BRANCH   3   4
ATOM      4  C   UNL     1     -10.626  -4.981  11.654  1.00  0.00     0.006 C 
BRANCH   4   5
ATOM      5  C   UNL     1     -11.999  -5.665  11.551  1.00  0.00     0.053 C 
BRANCH   5   6
ATOM      6  C   UNL     1     -12.732  -5.265  10.308  1.00  0.00     0.041 C 
ATOM      7  O   UNL     1     -13.692  -4.453  10.372  1.00  0.00    -0.550 OA
ATOM      8  O   UNL     1     -12.336  -5.768   9.075  1.00  0.00    -0.550 OA
ENDBRANCH   5   6
ENDBRANCH   4   5
ENDBRANCH   3   4
ENDBRANCH   2   3
ENDBRANCH   1   2
BRANCH   1   9
ATOM      9  C   UNL     1      -7.110  -4.409  13.919  1.00  0.00     0.000 C 
BRANCH   9  10
ATOM     10  C   UNL     1      -8.033  -4.730  15.107  1.00  0.00    -0.000 C 
BRANCH  10  11
ATOM     11  C   UNL     1      -9.337  -3.915  15.078  1.00  0.00    -0.000 C 
BRANCH  11  12
ATOM     12  C   UNL     1     -10.578  -4.780  15.362  1.00  0.00    -0.000 C 
BRANCH  12  13
ATOM     13  C   UNL     1     -10.254  -6.282  15.386  1.00  0.00    -0.003 C 
ATOM     14  C   UNL     1     -11.501  -7.157  15.513  1.00  0.00     0.004 C 
ENDBRANCH  12  13
ENDBRANCH  11  12
ENDBRANCH  10  11
ENDBRANCH   9  10
ENDBRANCH   1   9
TORSDOF 10
ENDMDL
MODEL 6
REMARK VINA RESULT:    -4.713      3.126      4.161
REMARK INTER + INTRA:          -8.729
REMARK INTER:                  -7.221
REMARK INTRA:                  -1.508
REMARK UNBOUND:                -1.261
REMARK SMILES CCCCCCCCCCCC(=O)[O-]
REMARK SMILES IDX 7 1 8 2 9 3 10 4 11 5 12 6 13 7 14 8 6 9 5 10 4 11 3 12 2 13
REMARK SMILES IDX 1 14
REMARK H PARENT
REMARK Flexibility Score: inf
ROOT
ATOM      1  C   UNL     1     -11.420  -6.368  12.897  1.00  0.00     0.000 C 
ENDROOT
BRANCH   1   2
ATOM      2  C   UNL     1     -10.507  -5.349  12.190  1.00  0.00     0.000 C 
BRANCH   2   3
ATOM      3  C   UNL     1      -9.145  -5.941  11.788  1.00  0.00     0.000 C 
BRANCH   3   4
ATOM      4  C   UNL     1      -7.960  -5.189  12.421  1.00  0.00     0.006 C 
BRANCH   4   5
ATOM      5  C   UNL     1      -8.315  -3.803  12.982  1.00  0.00     0.053 C 
BRANCH   5   6
ATOM      6  C   UNL     1      -7.325  -3.342  14.007  1.00  0.00     0.041 C 
ATOM      7  O   UNL     1      -7.123  -2.112  14.186  1.00  0.00    -0.550 OA
ATOM      8  O   UNL     1      -6.646  -4.272  14.785  1.00  0.00    -0.550 OA
ENDBRANCH   5   6
ENDBRANCH   4   5
ENDBRANCH   3   4
ENDBRANCH   2   3
ENDBRANCH   1   2
BRANCH   1   9
ATOM      9  C   UNL     1     -10.728  -7.254  13.948  1.00  0.00     0.000 C 
BRANCH   9  10
ATOM     10  C   UNL     1     -10.842  -6.692  15.376  1.00  0.00    -0.000 C 
BRANCH  10  11
ATOM     11  C   UNL     1      -9.560  -5.976  15.832  1.00  0.00    -0.000 C 
BRANCH  11  12
ATOM     12  C   UNL     1      -9.830  -4.545  16.329  1.00  0.00    -0.000 C 
BRANCH  12  13
ATOM     13  C   UNL     1     -11.051  -3.907  15.648  1.00  0.00    -0.003 C 
ATOM     14  C   UNL     1     -12.118  -3.455  16.645  1.00  0.00     0.004 C 
ENDBRANCH  12  13
ENDBRANCH  11  12
ENDBRANCH  10  11
ENDBRANCH   9  10
ENDBRANCH   1   9
TORSDOF 10
ENDMDL
MODEL 7
REMARK VINA RESULT:    -4.699      3.690      6.015
REMARK INTER + INTRA:          -8.706
REMARK INTER:                  -7.426
REMARK INTRA:                  -1.280
REMARK UNBOUND:                -1.261
REMARK SMILES CCCCCCCCCCCC(=O)[O-]
REMARK SMILES IDX 7 1 8 2 9 3 10 4 11 5 12 6 13 7 14 8 6 9 5 10 4 11 3 12 2 13
REMARK SMILES IDX 1 14
REMARK H PARENT
REMARK Flexibility Score: inf
ROOT
ATOM      1  C   UNL     1     -11.733  -6.629  13.858  1.00  0.00     0.000 C 
ENDROOT
BRANCH   1   2
ATOM      2  C   UNL     1     -11.392  -6.095  15.261  1.00  0.00     0.000 C 
BRANCH   2   3
ATOM      3  C   UNL     1     -11.694  -4.595  15.422  1.00  0.00     0.000 C 
BRANCH   3   4
ATOM      4  C   UNL     1     -10.428  -3.722  15.343  1.00  0.00     0.006 C 
BRANCH   4   5
ATOM      5  C   UNL     1      -9.299  -4.153  16.294  1.00  0.00     0.053 C 
BRANCH   5   6
ATOM      6  C   UNL     1      -9.099  -3.172  17.408  1.00  0.00     0.041 C 
ATOM      7  O   UNL     1      -7.964  -3.034  17.935  1.00  0.00    -0.550 OA
ATOM      8  O   UNL     1     -10.161  -2.389  17.843  1.00  0.00    -0.550 OA
ENDBRANCH   5   6
ENDBRANCH   4   5
ENDBRANCH   3   4
ENDBRANCH   2   3
ENDBRANCH   1   2
BRANCH   1   9
ATOM      9  C   UNL     1     -12.738  -5.782  13.057  1.00  0.00     0.000 C 
BRANCH   9  10
ATOM     10  C   UNL     1     -12.296  -5.540  11.603  1.00  0.00    -0.000 C 
BRANCH  10  11
ATOM     11  C   UNL     1     -10.925  -4.850  11.511  1.00  0.00    -0.000 C 
BRANCH  11  12
ATOM     12  C   UNL     1      -9.885  -5.703  10.763  1.00  0.00    -0.000 C 
BRANCH  12  13
ATOM     13  C   UNL     1      -8.680  -6.068  11.645  1.00  0.00    -0.003 C 
ATOM     14  C   UNL     1      -8.349  -4.987  12.673  1.00  0.00     0.004 C 
ENDBRANCH  12  13
ENDBRANCH  11  12
ENDBRANCH  10  11
ENDBRANCH   9  10
ENDBRANCH   1   9
TORSDOF 10
ENDMDL
MODEL 8
REMARK VINA RESULT:    -4.684      1.285      2.178
REMARK INTER + INTRA:          -8.683
REMARK INTER:                  -7.848
REMARK INTRA:                  -0.835
REMARK UNBOUND:                -1.261
REMARK SMILES CCCCCCCCCCCC(=O)[O-]
REMARK SMILES IDX 7 1 8 2 9 3 10 4 11 5 12 6 13 7 14 8 6 9 5 10 4 11 3 12 2 13
REMARK SMILES IDX 1 14
REMARK H PARENT
REMARK Flexibility Score: inf
ROOT
ATOM      1  C   UNL     1     -11.018  -7.526  15.008  1.00  0.00     0.000 C 
ENDROOT
BRANCH   1   2
ATOM      2  C   UNL     1     -10.779  -7.326  13.500  1.00  0.00     0.000 C 
BRANCH   2   3
ATOM      3  C   UNL     1     -11.810  -6.388  12.848  1.00  0.00     0.000 C 
BRANCH   3   4
ATOM      4  C   UNL     1     -11.188  -5.067  12.359  1.00  0.00     0.006 C 
BRANCH   4   5
ATOM      5  C   UNL     1     -11.831  -4.497  11.085  1.00  0.00     0.053 C 
BRANCH   5   6
ATOM      6  C   UNL     1     -11.556  -5.352   9.886  1.00  0.00     0.041 C 
ATOM      7  O   UNL     1     -10.371  -5.570   9.522  1.00  0.00    -0.550 OA
ATOM      8  O   UNL     1     -12.610  -5.932   9.191  1.00  0.00    -0.550 OA
ENDBRANCH   5   6
ENDBRANCH   4   5
ENDBRANCH   3   4
ENDBRANCH   2   3
ENDBRANCH   1   2
BRANCH   1   9
ATOM      9  C   UNL     1     -10.917  -6.252  15.866  1.00  0.00     0.000 C 
BRANCH   9  10
ATOM     10  C   UNL     1      -9.466  -5.791  16.086  1.00  0.00    -0.000 C 
BRANCH  10  11
ATOM     11  C   UNL     1      -9.309  -4.265  15.975  1.00  0.00    -0.000 C 
BRANCH  11  12
ATOM     12  C   UNL     1     -10.541  -3.507  16.502  1.00  0.00    -0.000 C 
BRANCH  12  13
ATOM     13  C   UNL     1     -10.201  -2.582  17.682  1.00  0.00    -0.003 C 
ATOM     14  C   UNL     1      -8.862  -2.922  18.336  1.00  0.00     0.004 C 
ENDBRANCH  12  13
ENDBRANCH  11  12
ENDBRANCH  10  11
ENDBRANCH   9  10
ENDBRANCH   1   9
TORSDOF 10
ENDMDL
MODEL 9
REMARK VINA RESULT:    -4.643      2.657      3.630
REMARK INTER + INTRA:          -8.617
REMARK INTER:                  -7.071
REMARK INTRA:                  -1.546
REMARK UNBOUND:                -1.261
REMARK SMILES CCCCCCCCCCCC(=O)[O-]
REMARK SMILES IDX 7 1 8 2 9 3 10 4 11 5 12 6 13 7 14 8 6 9 5 10 4 11 3 12 2 13
REMARK SMILES IDX 1 14
REMARK H PARENT
REMARK Flexibility Score: inf
ROOT
ATOM      1  C   UNL     1     -12.486  -6.701  12.951  1.00  0.00     0.000 C 
ENDROOT
BRANCH   1   2
ATOM      2  C   UNL     1     -12.521  -5.376  12.167  1.00  0.00     0.000 C 
BRANCH   2   3
ATOM      3  C   UNL     1     -13.509  -4.356  12.758  1.00  0.00     0.000 C 
BRANCH   3   4
ATOM      4  C   UNL     1     -12.945  -2.923  12.777  1.00  0.00     0.006 C 
BRANCH   4   5
ATOM      5  C   UNL     1     -11.546  -2.784  12.154  1.00  0.00     0.053 C 
BRANCH   5   6
ATOM      6  C   UNL     1     -11.074  -1.363  12.148  1.00  0.00     0.041 C 
ATOM      7  O   UNL     1      -9.924  -1.076  12.573  1.00  0.00    -0.550 OA
ATOM      8  O   UNL     1     -11.894  -0.360  11.646  1.00  0.00    -0.550 OA
ENDBRANCH   5   6
ENDBRANCH   4   5
ENDBRANCH   3   4
ENDBRANCH   2   3
ENDBRANCH   1   2
BRANCH   1   9
ATOM      9  C   UNL     1     -11.184  -6.974  13.726  1.00  0.00     0.000 C 
BRANCH   9  10
ATOM     10  C   UNL     1     -10.014  -6.087  13.264  1.00  0.00    -0.000 C 
BRANCH  10  11
ATOM     11  C   UNL     1      -9.567  -5.090  14.346  1.00  0.00    -0.000 C 
BRANCH  11  12
ATOM     12  C   UNL     1     -10.549  -5.025  15.529  1.00  0.00    -0.000 C 
BRANCH  12  13
ATOM     13  C   UNL     1     -10.990  -3.588  15.848  1.00  0.00    -0.003 C 
ATOM     14  C   UNL     1     -12.355  -3.524  16.532  1.00  0.00     0.004 C 
ENDBRANCH  12  13
ENDBRANCH  11  12
ENDBRANCH  10  11
ENDBRANCH   9  10
ENDBRANCH   1   9
TORSDOF 10
ENDMDL
