MODEL 1
REMARK VINA RESULT:    -3.960      0.000      0.000
REMARK INTER + INTRA:          -9.324
REMARK INTER:                  -7.201
REMARK INTRA:                  -2.122
REMARK UNBOUND:                -2.122
REMARK SMILES CCCCCCCCCCCCCC[C@H](C)C(=O)[O-]
REMARK SMILES IDX 9 1 10 2 11 3 12 4 13 5 14 6 15 7 16 8 17 9 18 10 19 11 8 12
REMARK SMILES IDX 7 13 6 14 5 15 4 16 3 17 2 18 1 19
REMARK H PARENT
REMARK Flexibility Score: inf
ROOT
ATOM      1  C   UNL     1     -23.778   5.303  23.304  1.00  0.00     0.000 C 
ENDROOT
BRANCH   1   2
ATOM      2  C   UNL     1     -22.344   5.099  23.819  1.00  0.00     0.000 C 
BRANCH   2   3
ATOM      3  C   UNL     1     -21.949   3.613  23.895  1.00  0.00     0.000 C 
BRANCH   3   4
ATOM      4  C   UNL     1     -23.090   2.679  23.455  1.00  0.00     0.000 C 
BRANCH   4   5
ATOM      5  C   UNL     1     -22.795   1.981  22.115  1.00  0.00     0.001 C 
BRANCH   5   6
ATOM      6  C   UNL     1     -22.589   0.461  22.267  1.00  0.00     0.009 C 
BRANCH   6   7
ATOM      7  C   UNL     1     -21.626  -0.158  21.229  1.00  0.00     0.032 C 
ATOM      8  C   UNL     1     -22.220  -1.446  20.651  1.00  0.00     0.014 C 
BRANCH   7   9
ATOM      9  C   UNL     1     -20.279  -0.449  21.832  1.00  0.00     0.044 C 
ATOM     10  O   UNL     1     -20.000  -0.033  22.988  1.00  0.00    -0.550 OA
ATOM     11  O   UNL     1     -19.333  -1.180  21.121  1.00  0.00    -0.550 OA
ENDBRANCH   7   9
ENDBRANCH   6   7
ENDBRANCH   5   6
ENDBRANCH   4   5
ENDBRANCH   3   4
ENDBRANCH   2   3
ENDBRANCH   1   2
BRANCH   1  12
ATOM     12  C   UNL     1     -23.950   6.616  22.524  1.00  0.00     0.000 C 
BRANCH  12  13
ATOM     13  C   UNL     1     -22.614   7.366  22.415  1.00  0.00    -0.000 C 
BRANCH  13  14
ATOM     14  C   UNL     1     -22.293   7.804  20.977  1.00  0.00    -0.000 C 
BRANCH  14  15
ATOM     15  C   UNL     1     -21.032   7.120  20.420  1.00  0.00    -0.000 C 
BRANCH  15  16
ATOM     16  C   UNL     1     -21.347   5.845  19.615  1.00  0.00    -0.000 C 
BRANCH  16  17
ATOM     17  C   UNL     1     -21.139   4.524  20.377  1.00  0.00    -0.000 C 
BRANCH  17  18
ATOM     18  C   UNL     1     -19.728   4.386  20.964  1.00  0.00    -0.003 C 
ATOM     19  C   UNL     1     -19.310   2.921  21.057  1.00  0.00     0.004 C 
ENDBRANCH  17  18
ENDBRANCH  16  17
ENDBRANCH  15  16
ENDBRANCH  14  15
ENDBRANCH  13  14
ENDBRANCH  12  13
ENDBRANCH   1  12
TORSDOF 14
ENDMDL
MODEL 2
REMARK VINA RESULT:    -3.920      2.919      5.592
REMARK INTER + INTRA:          -9.251
REMARK INTER:                  -6.838
REMARK INTRA:                  -2.413
REMARK UNBOUND:                -2.122
REMARK SMILES CCCCCCCCCCCCCC[C@H](C)C(=O)[O-]
REMARK SMILES IDX 9 1 10 2 11 3 12 4 13 5 14 6 15 7 16 8 17 9 18 10 19 11 8 12
REMARK SMILES IDX 7 13 6 14 5 15 4 16 3 17 2 18 1 19
REMARK H PARENT
REMARK Flexibility Score: inf
ROOT
ATOM      1  C   UNL     1     -23.883   4.655  26.404  1.00  0.00     0.000 C 
ENDROOT
BRANCH   1   2
ATOM      2  C   UNL     1     -25.061   5.112  25.528  1.00  0.00     0.000 C 
BRANCH   2   3
ATOM      3  C   UNL     1     -24.768   4.971  24.023  1.00  0.00     0.000 C 
BRANCH   3   4
ATOM      4  C   UNL     1     -25.057   6.265  23.243  1.00  0.00     0.000 C 
BRANCH   4   5
ATOM      5  C   UNL     1     -23.792   6.861  22.602  1.00  0.00     0.001 C 
BRANCH   5   6
ATOM      6  C   UNL     1     -22.918   5.797  21.908  1.00  0.00     0.009 C 
BRANCH   6   7
ATOM      7  C   UNL     1     -21.397   6.013  22.079  1.00  0.00     0.032 C 
ATOM      8  C   UNL     1     -21.124   7.322  22.826  1.00  0.00     0.014 C 
BRANCH   7   9
ATOM      9  C   UNL     1     -20.691   6.031  20.751  1.00  0.00     0.044 C 
ATOM     10  O   UNL     1     -19.477   6.360  20.684  1.00  0.00    -0.550 OA
ATOM     11  O   UNL     1     -21.371   5.684  19.588  1.00  0.00    -0.550 OA
ENDBRANCH   7   9
ENDBRANCH   6   7
ENDBRANCH   5   6
ENDBRANCH   4   5
ENDBRANCH   3   4
ENDBRANCH   2   3
ENDBRANCH   1   2
BRANCH   1  12
ATOM     12  C   UNL     1     -22.532   4.739  25.676  1.00  0.00     0.000 C 
BRANCH  12  13
ATOM     13  C   UNL     1     -21.960   3.337  25.422  1.00  0.00    -0.000 C 
BRANCH  13  14
ATOM     14  C   UNL     1     -20.906   3.317  24.303  1.00  0.00    -0.000 C 
BRANCH  14  15
ATOM     15  C   UNL     1     -21.116   2.157  23.314  1.00  0.00    -0.000 C 
BRANCH  15  16
ATOM     16  C   UNL     1     -22.290   2.398  22.346  1.00  0.00    -0.000 C 
BRANCH  16  17
ATOM     17  C   UNL     1     -23.321   1.258  22.274  1.00  0.00    -0.000 C 
BRANCH  17  18
ATOM     18  C   UNL     1     -23.725   0.726  23.656  1.00  0.00    -0.003 C 
ATOM     19  C   UNL     1     -25.079   1.283  24.087  1.00  0.00     0.004 C 
ENDBRANCH  17  18
ENDBRANCH  16  17
ENDBRANCH  15  16
ENDBRANCH  14  15
ENDBRANCH  13  14
ENDBRANCH  12  13
ENDBRANCH   1  12
TORSDOF 14
ENDMDL
MODEL 3
REMARK VINA RESULT:    -3.824      1.720      2.655
REMARK INTER + INTRA:          -9.076
REMARK INTER:                  -6.967
REMARK INTRA:                  -2.109
REMARK UNBOUND:                -2.122
REMARK SMILES CCCCCCCCCCCCCC[C@H](C)C(=O)[O-]
REMARK SMILES IDX 9 1 10 2 11 3 12 4 13 5 14 6 15 7 16 8 17 9 18 10 19 11 8 12
REMARK SMILES IDX 7 13 6 14 5 15 4 16 3 17 2 18 1 19
REMARK H PARENT
REMARK Flexibility Score: inf
ROOT
ATOM      1  C   UNL     1     -25.112   5.435  23.990  1.00  0.00     0.000 C 
ENDROOT
BRANCH   1   2
ATOM      2  C   UNL     1     -24.893   4.904  25.416  1.00  0.00     0.000 C 
BRANCH   2   3
ATOM      3  C   UNL     1     -23.434   4.489  25.674  1.00  0.00     0.000 C 
BRANCH   3   4
ATOM      4  C   UNL     1     -23.327   3.214  26.530  1.00  0.00     0.000 C 
BRANCH   4   5
ATOM      5  C   UNL     1     -22.931   1.980  25.701  1.00  0.00     0.001 C 
BRANCH   5   6
ATOM      6  C   UNL     1     -22.530   2.337  24.255  1.00  0.00     0.009 C 
BRANCH   6   7
ATOM      7  C   UNL     1     -23.471   1.761  23.173  1.00  0.00     0.032 C 
ATOM      8  C   UNL     1     -24.837   1.423  23.778  1.00  0.00     0.014 C 
BRANCH   7   9
ATOM      9  C   UNL     1     -22.886   0.534  22.529  1.00  0.00     0.044 C 
ATOM     10  O   UNL     1     -22.223   0.634  21.463  1.00  0.00    -0.550 OA
ATOM     11  O   UNL     1     -23.069  -0.718  23.106  1.00  0.00    -0.550 OA
ENDBRANCH   7   9
ENDBRANCH   6   7
ENDBRANCH   5   6
ENDBRANCH   4   5
ENDBRANCH   3   4
ENDBRANCH   2   3
ENDBRANCH   1   2
BRANCH   1  12
ATOM     12  C   UNL     1     -23.801   5.584  23.202  1.00  0.00     0.000 C 
BRANCH  12  13
ATOM     13  C   UNL     1     -23.781   6.904  22.417  1.00  0.00    -0.000 C 
BRANCH  13  14
ATOM     14  C   UNL     1     -22.358   7.434  22.180  1.00  0.00    -0.000 C 
BRANCH  14  15
ATOM     15  C   UNL     1     -22.073   7.716  20.694  1.00  0.00    -0.000 C 
BRANCH  15  16
ATOM     16  C   UNL     1     -21.308   6.571  20.003  1.00  0.00    -0.000 C 
BRANCH  16  17
ATOM     17  C   UNL     1     -19.951   6.217  20.635  1.00  0.00    -0.000 C 
BRANCH  17  18
ATOM     18  C   UNL     1     -19.910   4.795  21.212  1.00  0.00    -0.003 C 
ATOM     19  C   UNL     1     -21.229   4.065  20.971  1.00  0.00     0.004 C 
ENDBRANCH  17  18
ENDBRANCH  16  17
ENDBRANCH  15  16
ENDBRANCH  14  15
ENDBRANCH  13  14
ENDBRANCH  12  13
ENDBRANCH   1  12
TORSDOF 14
ENDMDL
MODEL 4
REMARK VINA RESULT:    -3.802      1.532      2.888
REMARK INTER + INTRA:          -9.036
REMARK INTER:                  -6.407
REMARK INTRA:                  -2.629
REMARK UNBOUND:                -2.122
REMARK SMILES CCCCCCCCCCCCCC[C@H](C)C(=O)[O-]
REMARK SMILES IDX 9 1 10 2 11 3 12 4 13 5 14 6 15 7 16 8 17 9 18 10 19 11 8 12
REMARK SMILES IDX 7 13 6 14 5 15 4 16 3 17 2 18 1 19
REMARK H PARENT
REMARK Flexibility Score: inf
ROOT
ATOM      1  C   UNL     1     -22.566   7.064  22.369  1.00  0.00     0.000 C 
ENDROOT
BRANCH   1   2
ATOM      2  C   UNL     1     -23.995   6.546  22.596  1.00  0.00     0.000 C 
BRANCH   2   3
ATOM      3  C   UNL     1     -24.033   5.296  23.495  1.00  0.00     0.000 C 
BRANCH   3   4
ATOM      4  C   UNL     1     -22.648   4.934  24.059  1.00  0.00     0.000 C 
BRANCH   4   5
ATOM      5  C   UNL     1     -22.206   3.514  23.666  1.00  0.00     0.001 C 
BRANCH   5   6
ATOM      6  C   UNL     1     -22.847   3.033  22.349  1.00  0.00     0.009 C 
BRANCH   6   7
ATOM      7  C   UNL     1     -23.215   1.532  22.331  1.00  0.00     0.032 C 
ATOM      8  C   UNL     1     -24.094   1.183  23.536  1.00  0.00     0.014 C 
BRANCH   7   9
ATOM      9  C   UNL     1     -21.987   0.664  22.333  1.00  0.00     0.044 C 
ATOM     10  O   UNL     1     -21.876  -0.274  23.165  1.00  0.00    -0.550 OA
ATOM     11  O   UNL     1     -20.966   0.889  21.415  1.00  0.00    -0.550 OA
ENDBRANCH   7   9
ENDBRANCH   6   7
ENDBRANCH   5   6
ENDBRANCH   4   5
ENDBRANCH   3   4
ENDBRANCH   2   3
ENDBRANCH   1   2
BRANCH   1  12
ATOM     12  C   UNL     1     -22.371   7.679  20.973  1.00  0.00     0.000 C 
BRANCH  12  13
ATOM     13  C   UNL     1     -21.160   7.055  20.265  1.00  0.00    -0.000 C 
BRANCH  13  14
ATOM     14  C   UNL     1     -21.357   5.563  19.951  1.00  0.00    -0.000 C 
BRANCH  14  15
ATOM     15  C   UNL     1     -20.239   4.683  20.537  1.00  0.00    -0.000 C 
BRANCH  15  16
ATOM     16  C   UNL     1     -19.236   5.479  21.393  1.00  0.00    -0.000 C 
BRANCH  16  17
ATOM     17  C   UNL     1     -18.932   4.873  22.775  1.00  0.00    -0.000 C 
BRANCH  17  18
ATOM     18  C   UNL     1     -18.652   5.935  23.847  1.00  0.00    -0.003 C 
ATOM     19  C   UNL     1     -19.113   7.316  23.389  1.00  0.00     0.004 C 
ENDBRANCH  17  18
ENDBRANCH  16  17
ENDBRANCH  15  16
ENDBRANCH  14  15
ENDBRANCH  13  14
ENDBRANCH  12  13
ENDBRANCH   1  12
TORSDOF 14
ENDMDL
MODEL 5
REMARK VINA RESULT:    -3.774     19.748     22.368
REMARK INTER + INTRA:          -8.985
REMARK INTER:                  -6.942
REMARK INTRA:                  -2.043
REMARK UNBOUND:                -2.122
REMARK SMILES CCCCCCCCCCCCCC[C@H](C)C(=O)[O-]
REMARK SMILES IDX 9 1 10 2 11 3 12 4 13 5 14 6 15 7 16 8 17 9 18 10 19 11 8 12
REMARK SMILES IDX 7 13 6 14 5 15 4 16 3 17 2 18 1 19
REMARK H PARENT
REMARK Flexibility Score: inf
ROOT
ATOM      1  C   UNL     1      -6.843  -8.991  33.272  1.00  0.00     0.000 C 
ENDROOT
BRANCH   1   2
ATOM      2  C   UNL     1      -5.550  -8.601  32.537  1.00  0.00     0.000 C 
BRANCH   2   3
ATOM      3  C   UNL     1      -5.195  -9.582  31.406  1.00  0.00     0.000 C 
BRANCH   3   4
ATOM      4  C   UNL     1      -5.199 -11.047  31.875  1.00  0.00     0.000 C 
BRANCH   4   5
ATOM      5  C   UNL     1      -6.059 -11.951  30.975  1.00  0.00     0.001 C 
BRANCH   5   6
ATOM      6  C   UNL     1      -7.040 -11.153  30.093  1.00  0.00     0.009 C 
BRANCH   6   7
ATOM      7  C   UNL     1      -8.320 -11.927  29.704  1.00  0.00     0.032 C 
ATOM      8  C   UNL     1      -8.493 -11.941  28.182  1.00  0.00     0.014 C 
BRANCH   7   9
ATOM      9  C   UNL     1      -9.542 -11.329  30.346  1.00  0.00     0.044 C 
ATOM     10  O   UNL     1     -10.646 -11.932  30.287  1.00  0.00    -0.550 OA
ATOM     11  O   UNL     1      -9.461 -10.110  31.011  1.00  0.00    -0.550 OA
ENDBRANCH   7   9
ENDBRANCH   6   7
ENDBRANCH   5   6
ENDBRANCH   4   5
ENDBRANCH   3   4
ENDBRANCH   2   3
ENDBRANCH   1   2
BRANCH   1  12
ATOM     12  C   UNL     1      -6.660  -9.071  34.796  1.00  0.00     0.000 C 
BRANCH  12  13
ATOM     13  C   UNL     1      -5.234  -8.670  35.198  1.00  0.00    -0.000 C 
BRANCH  13  14
ATOM     14  C   UNL     1      -5.204  -7.615  36.315  1.00  0.00    -0.000 C 
BRANCH  14  15
ATOM     15  C   UNL     1      -5.898  -6.303  35.907  1.00  0.00    -0.000 C 
BRANCH  15  16
ATOM     16  C   UNL     1      -5.246  -5.636  34.681  1.00  0.00    -0.000 C 
BRANCH  16  17
ATOM     17  C   UNL     1      -6.231  -5.120  33.617  1.00  0.00    -0.000 C 
BRANCH  17  18
ATOM     18  C   UNL     1      -7.695  -5.180  34.076  1.00  0.00    -0.003 C 
ATOM     19  C   UNL     1      -8.587  -5.784  32.995  1.00  0.00     0.004 C 
ENDBRANCH  17  18
ENDBRANCH  16  17
ENDBRANCH  15  16
ENDBRANCH  14  15
ENDBRANCH  13  14
ENDBRANCH  12  13
ENDBRANCH   1  12
TORSDOF 14
ENDMDL
MODEL 6
REMARK VINA RESULT:    -3.766      1.765      2.920
REMARK INTER + INTRA:          -8.970
REMARK INTER:                  -7.077
REMARK INTRA:                  -1.893
REMARK UNBOUND:                -2.122
REMARK SMILES CCCCCCCCCCCCCC[C@H](C)C(=O)[O-]
REMARK SMILES IDX 9 1 10 2 11 3 12 4 13 5 14 6 15 7 16 8 17 9 18 10 19 11 8 12
REMARK SMILES IDX 7 13 6 14 5 15 4 16 3 17 2 18 1 19
REMARK H PARENT
REMARK Flexibility Score: inf
ROOT
ATOM      1  C   UNL     1     -24.500   4.403  25.755  1.00  0.00     0.000 C 
ENDROOT
BRANCH   1   2
ATOM      2  C   UNL     1     -24.979   2.977  25.437  1.00  0.00     0.000 C 
BRANCH   2   3
ATOM      3  C   UNL     1     -23.982   1.901  25.905  1.00  0.00     0.000 C 
BRANCH   3   4
ATOM      4  C   UNL     1     -23.448   1.049  24.741  1.00  0.00     0.000 C 
BRANCH   4   5
ATOM      5  C   UNL     1     -24.219   1.290  23.432  1.00  0.00     0.001 C 
BRANCH   5   6
ATOM      6  C   UNL     1     -23.289   1.485  22.219  1.00  0.00     0.009 C 
BRANCH   6   7
ATOM      7  C   UNL     1     -22.014   0.611  22.247  1.00  0.00     0.032 C 
ATOM      8  C   UNL     1     -20.876   1.303  21.490  1.00  0.00     0.014 C 
BRANCH   7   9
ATOM      9  C   UNL     1     -22.265  -0.747  21.651  1.00  0.00     0.044 C 
ATOM     10  O   UNL     1     -21.891  -1.002  20.476  1.00  0.00    -0.550 OA
ATOM     11  O   UNL     1     -22.908  -1.732  22.394  1.00  0.00    -0.550 OA
ENDBRANCH   7   9
ENDBRANCH   6   7
ENDBRANCH   5   6
ENDBRANCH   4   5
ENDBRANCH   3   4
ENDBRANCH   2   3
ENDBRANCH   1   2
BRANCH   1  12
ATOM     12  C   UNL     1     -23.119   4.715  25.157  1.00  0.00     0.000 C 
BRANCH  12  13
ATOM     13  C   UNL     1     -23.209   4.887  23.634  1.00  0.00    -0.000 C 
BRANCH  13  14
ATOM     14  C   UNL     1     -24.305   5.877  23.210  1.00  0.00    -0.000 C 
BRANCH  14  15
ATOM     15  C   UNL     1     -23.754   7.048  22.378  1.00  0.00    -0.000 C 
BRANCH  15  16
ATOM     16  C   UNL     1     -22.216   7.126  22.397  1.00  0.00    -0.000 C 
BRANCH  16  17
ATOM     17  C   UNL     1     -21.564   7.506  21.056  1.00  0.00    -0.000 C 
BRANCH  17  18
ATOM     18  C   UNL     1     -20.605   6.429  20.529  1.00  0.00    -0.003 C 
ATOM     19  C   UNL     1     -21.351   5.136  20.209  1.00  0.00     0.004 C 
ENDBRANCH  17  18
ENDBRANCH  16  17
ENDBRANCH  15  16
ENDBRANCH  14  15
ENDBRANCH  13  14
ENDBRANCH  12  13
ENDBRANCH   1  12
TORSDOF 14
ENDMDL
MODEL 7
REMARK VINA RESULT:    -3.761      2.748      5.619
REMARK INTER + INTRA:          -8.961
REMARK INTER:                  -6.597
REMARK INTRA:                  -2.364
REMARK UNBOUND:                -2.122
REMARK SMILES CCCCCCCCCCCCCC[C@H](C)C(=O)[O-]
REMARK SMILES IDX 9 1 10 2 11 3 12 4 13 5 14 6 15 7 16 8 17 9 18 10 19 11 8 12
REMARK SMILES IDX 7 13 6 14 5 15 4 16 3 17 2 18 1 19
REMARK H PARENT
REMARK Flexibility Score: inf
ROOT
ATOM      1  C   UNL     1     -23.216   3.136  25.151  1.00  0.00     0.000 C 
ENDROOT
BRANCH   1   2
ATOM      2  C   UNL     1     -23.599   4.619  25.282  1.00  0.00     0.000 C 
BRANCH   2   3
ATOM      3  C   UNL     1     -24.447   5.117  24.097  1.00  0.00     0.000 C 
BRANCH   3   4
ATOM      4  C   UNL     1     -23.590   5.478  22.871  1.00  0.00     0.000 C 
BRANCH   4   5
ATOM      5  C   UNL     1     -23.837   6.916  22.384  1.00  0.00     0.001 C 
BRANCH   5   6
ATOM      6  C   UNL     1     -22.584   7.556  21.754  1.00  0.00     0.009 C 
BRANCH   6   7
ATOM      7  C   UNL     1     -21.274   6.778  22.012  1.00  0.00     0.032 C 
ATOM      8  C   UNL     1     -20.331   7.599  22.897  1.00  0.00     0.014 C 
BRANCH   7   9
ATOM      9  C   UNL     1     -20.580   6.424  20.725  1.00  0.00     0.044 C 
ATOM     10  O   UNL     1     -19.324   6.340  20.686  1.00  0.00    -0.550 OA
ATOM     11  O   UNL     1     -21.319   6.186  19.571  1.00  0.00    -0.550 OA
ENDBRANCH   7   9
ENDBRANCH   6   7
ENDBRANCH   5   6
ENDBRANCH   4   5
ENDBRANCH   3   4
ENDBRANCH   2   3
ENDBRANCH   1   2
BRANCH   1  12
ATOM     12  C   UNL     1     -24.430   2.227  24.906  1.00  0.00     0.000 C 
BRANCH  12  13
ATOM     13  C   UNL     1     -24.075   1.088  23.938  1.00  0.00    -0.000 C 
BRANCH  13  14
ATOM     14  C   UNL     1     -23.572   1.597  22.578  1.00  0.00    -0.000 C 
BRANCH  14  15
ATOM     15  C   UNL     1     -22.459   0.712  21.991  1.00  0.00    -0.000 C 
BRANCH  15  16
ATOM     16  C   UNL     1     -21.191   1.506  21.625  1.00  0.00    -0.000 C 
BRANCH  16  17
ATOM     17  C   UNL     1     -21.218   2.994  22.014  1.00  0.00    -0.000 C 
BRANCH  17  18
ATOM     18  C   UNL     1     -20.065   3.391  22.947  1.00  0.00    -0.003 C 
ATOM     19  C   UNL     1     -19.815   2.317  24.003  1.00  0.00     0.004 C 
ENDBRANCH  17  18
ENDBRANCH  16  17
ENDBRANCH  15  16
ENDBRANCH  14  15
ENDBRANCH  13  14
ENDBRANCH  12  13
ENDBRANCH   1  12
TORSDOF 14
ENDMDL
MODEL 8
REMARK VINA RESULT:    -3.757      1.398      2.088
REMARK INTER + INTRA:          -8.955
REMARK INTER:                  -6.277
REMARK INTRA:                  -2.678
REMARK UNBOUND:                -2.122
REMARK SMILES CCCCCCCCCCCCCC[C@H](C)C(=O)[O-]
REMARK SMILES IDX 9 1 10 2 11 3 12 4 13 5 14 6 15 7 16 8 17 9 18 10 19 11 8 12
REMARK SMILES IDX 7 13 6 14 5 15 4 16 3 17 2 18 1 19
REMARK H PARENT
REMARK Flexibility Score: inf
ROOT
ATOM      1  C   UNL     1     -23.891   6.772  22.486  1.00  0.00     0.000 C 
ENDROOT
BRANCH   1   2
ATOM      2  C   UNL     1     -23.931   5.451  23.272  1.00  0.00     0.000 C 
BRANCH   2   3
ATOM      3  C   UNL     1     -22.566   5.085  23.881  1.00  0.00     0.000 C 
BRANCH   3   4
ATOM      4  C   UNL     1     -22.387   3.567  24.054  1.00  0.00     0.000 C 
BRANCH   4   5
ATOM      5  C   UNL     1     -23.439   2.758  23.276  1.00  0.00     0.001 C 
BRANCH   5   6
ATOM      6  C   UNL     1     -22.819   1.884  22.167  1.00  0.00     0.009 C 
BRANCH   6   7
ATOM      7  C   UNL     1     -21.586   1.067  22.616  1.00  0.00     0.032 C 
ATOM      8  C   UNL     1     -20.695   0.742  21.413  1.00  0.00     0.014 C 
BRANCH   7   9
ATOM      9  C   UNL     1     -21.992  -0.208  23.304  1.00  0.00     0.044 C 
ATOM     10  O   UNL     1     -21.483  -0.517  24.414  1.00  0.00    -0.550 OA
ATOM     11  O   UNL     1     -22.931  -1.053  22.722  1.00  0.00    -0.550 OA
ENDBRANCH   7   9
ENDBRANCH   6   7
ENDBRANCH   5   6
ENDBRANCH   4   5
ENDBRANCH   3   4
ENDBRANCH   2   3
ENDBRANCH   1   2
BRANCH   1  12
ATOM     12  C   UNL     1     -22.464   7.313  22.303  1.00  0.00     0.000 C 
BRANCH  12  13
ATOM     13  C   UNL     1     -22.220   7.732  20.846  1.00  0.00    -0.000 C 
BRANCH  13  14
ATOM     14  C   UNL     1     -21.085   6.938  20.180  1.00  0.00    -0.000 C 
BRANCH  14  15
ATOM     15  C   UNL     1     -21.517   5.518  19.774  1.00  0.00    -0.000 C 
BRANCH  15  16
ATOM     16  C   UNL     1     -20.827   4.420  20.605  1.00  0.00    -0.000 C 
BRANCH  16  17
ATOM     17  C   UNL     1     -19.469   4.816  21.211  1.00  0.00    -0.000 C 
BRANCH  17  18
ATOM     18  C   UNL     1     -19.110   4.003  22.463  1.00  0.00    -0.003 C 
ATOM     19  C   UNL     1     -18.849   4.918  23.657  1.00  0.00     0.004 C 
ENDBRANCH  17  18
ENDBRANCH  16  17
ENDBRANCH  15  16
ENDBRANCH  14  15
ENDBRANCH  13  14
ENDBRANCH  12  13
ENDBRANCH   1  12
TORSDOF 14
ENDMDL
MODEL 9
REMARK VINA RESULT:    -3.716      2.676      5.416
REMARK INTER + INTRA:          -8.879
REMARK INTER:                  -6.840
REMARK INTRA:                  -2.040
REMARK UNBOUND:                -2.122
REMARK SMILES CCCCCCCCCCCCCC[C@H](C)C(=O)[O-]
REMARK SMILES IDX 9 1 10 2 11 3 12 4 13 5 14 6 15 7 16 8 17 9 18 10 19 11 8 12
REMARK SMILES IDX 7 13 6 14 5 15 4 16 3 17 2 18 1 19
REMARK H PARENT
REMARK Flexibility Score: inf
ROOT
ATOM      1  C   UNL     1     -23.812   4.699  26.373  1.00  0.00     0.000 C 
ENDROOT
BRANCH   1   2
ATOM      2  C   UNL     1     -25.030   5.132  25.542  1.00  0.00     0.000 C 
BRANCH   2   3
ATOM      3  C   UNL     1     -24.797   4.979  24.028  1.00  0.00     0.000 C 
BRANCH   3   4
ATOM      4  C   UNL     1     -25.063   6.284  23.257  1.00  0.00     0.000 C 
BRANCH   4   5
ATOM      5  C   UNL     1     -23.808   6.809  22.538  1.00  0.00     0.001 C 
BRANCH   5   6
ATOM      6  C   UNL     1     -22.881   5.677  22.053  1.00  0.00     0.009 C 
BRANCH   6   7
ATOM      7  C   UNL     1     -21.373   5.987  22.191  1.00  0.00     0.032 C 
ATOM      8  C   UNL     1     -21.165   7.320  22.916  1.00  0.00     0.014 C 
BRANCH   7   9
ATOM      9  C   UNL     1     -20.695   6.030  20.849  1.00  0.00     0.044 C 
ATOM     10  O   UNL     1     -21.376   5.951  19.793  1.00  0.00    -0.550 OA
ATOM     11  O   UNL     1     -19.313   6.158  20.764  1.00  0.00    -0.550 OA
ENDBRANCH   7   9
ENDBRANCH   6   7
ENDBRANCH   5   6
ENDBRANCH   4   5
ENDBRANCH   3   4
ENDBRANCH   2   3
ENDBRANCH   1   2
BRANCH   1  12
ATOM     12  C   UNL     1     -22.516   4.650  25.549  1.00  0.00     0.000 C 
BRANCH  12  13
ATOM     13  C   UNL     1     -21.947   3.225  25.507  1.00  0.00    -0.000 C 
BRANCH  13  14
ATOM     14  C   UNL     1     -21.711   2.720  24.075  1.00  0.00    -0.000 C 
BRANCH  14  15
ATOM     15  C   UNL     1     -22.968   2.079  23.460  1.00  0.00    -0.000 C 
BRANCH  15  16
ATOM     16  C   UNL     1     -22.720   1.503  22.053  1.00  0.00    -0.000 C 
BRANCH  16  17
ATOM     17  C   UNL     1     -21.244   1.244  21.704  1.00  0.00    -0.000 C 
BRANCH  17  18
ATOM     18  C   UNL     1     -20.805  -0.199  21.989  1.00  0.00    -0.003 C 
ATOM     19  C   UNL     1     -19.733  -0.654  21.001  1.00  0.00     0.004 C 
ENDBRANCH  17  18
ENDBRANCH  16  17
ENDBRANCH  15  16
ENDBRANCH  14  15
ENDBRANCH  13  14
ENDBRANCH  12  13
ENDBRANCH   1  12
TORSDOF 14
ENDMDL
