MODEL 1
REMARK VINA RESULT:    -3.573      0.000      0.000
REMARK INTER + INTRA:          -7.995
REMARK INTER:                  -6.288
REMARK INTRA:                  -1.707
REMARK UNBOUND:                -1.707
REMARK SMILES CCCCCCCCCCCCCCC(=O)[O-]
REMARK SMILES IDX 9 1 10 2 11 3 12 4 13 5 14 6 15 7 16 8 17 9 8 10 7 11 6 12
REMARK SMILES IDX 5 13 4 14 3 15 2 16 1 17
REMARK H PARENT
REMARK Flexibility Score: inf
ROOT
ATOM      1  C   UNL     1      56.897  26.380  50.226  1.00  0.00     0.000 C 
ENDROOT
BRANCH   1   2
ATOM      2  C   UNL     1      57.354  27.673  50.931  1.00  0.00     0.000 C 
BRANCH   2   3
ATOM      3  C   UNL     1      57.390  28.926  50.036  1.00  0.00     0.000 C 
BRANCH   3   4
ATOM      4  C   UNL     1      58.734  29.180  49.330  1.00  0.00     0.000 C 
BRANCH   4   5
ATOM      5  C   UNL     1      59.927  28.561  50.074  1.00  0.00     0.006 C 
BRANCH   5   6
ATOM      6  C   UNL     1      60.670  27.562  49.183  1.00  0.00     0.053 C 
BRANCH   6   7
ATOM      7  C   UNL     1      61.215  26.433  50.000  1.00  0.00     0.041 C 
ATOM      8  O   UNL     1      62.367  25.983  49.770  1.00  0.00    -0.550 OA
ATOM      9  O   UNL     1      60.467  25.912  51.049  1.00  0.00    -0.550 OA
ENDBRANCH   6   7
ENDBRANCH   5   6
ENDBRANCH   4   5
ENDBRANCH   3   4
ENDBRANCH   2   3
ENDBRANCH   1   2
BRANCH   1  10
ATOM     10  C   UNL     1      55.422  26.013  50.496  1.00  0.00     0.000 C 
BRANCH  10  11
ATOM     11  C   UNL     1      54.625  25.799  49.197  1.00  0.00    -0.000 C 
BRANCH  11  12
ATOM     12  C   UNL     1      53.196  26.360  49.281  1.00  0.00    -0.000 C 
BRANCH  12  13
ATOM     13  C   UNL     1      53.022  27.362  50.432  1.00  0.00    -0.000 C 
BRANCH  13  14
ATOM     14  C   UNL     1      52.968  28.803  49.903  1.00  0.00    -0.000 C 
BRANCH  14  15
ATOM     15  C   UNL     1      53.896  29.760  50.672  1.00  0.00    -0.000 C 
BRANCH  15  16
ATOM     16  C   UNL     1      54.041  29.452  52.173  1.00  0.00    -0.003 C 
ATOM     17  C   UNL     1      55.241  30.150  52.814  1.00  0.00     0.004 C 
ENDBRANCH  15  16
ENDBRANCH  14  15
ENDBRANCH  13  14
ENDBRANCH  12  13
ENDBRANCH  11  12
ENDBRANCH  10  11
ENDBRANCH   1  10
TORSDOF 13
ENDMDL
MODEL 2
REMARK VINA RESULT:    -3.396      1.547      3.153
REMARK INTER + INTRA:          -7.683
REMARK INTER:                  -5.583
REMARK INTRA:                  -2.101
REMARK UNBOUND:                -1.707
REMARK SMILES CCCCCCCCCCCCCCC(=O)[O-]
REMARK SMILES IDX 9 1 10 2 11 3 12 4 13 5 14 6 15 7 16 8 17 9 8 10 7 11 6 12
REMARK SMILES IDX 5 13 4 14 3 15 2 16 1 17
REMARK H PARENT
REMARK Flexibility Score: inf
ROOT
ATOM      1  C   UNL     1      56.272  28.853  52.726  1.00  0.00     0.000 C 
ENDROOT
BRANCH   1   2
ATOM      2  C   UNL     1      57.363  29.753  52.116  1.00  0.00     0.000 C 
BRANCH   2   3
ATOM      3  C   UNL     1      58.472  29.007  51.350  1.00  0.00     0.000 C 
BRANCH   3   4
ATOM      4  C   UNL     1      58.426  29.169  49.820  1.00  0.00     0.000 C 
BRANCH   4   5
ATOM      5  C   UNL     1      59.329  28.167  49.086  1.00  0.00     0.006 C 
BRANCH   5   6
ATOM      6  C   UNL     1      60.362  27.559  50.040  1.00  0.00     0.053 C 
BRANCH   6   7
ATOM      7  C   UNL     1      61.737  28.042  49.701  1.00  0.00     0.041 C 
ATOM      8  O   UNL     1      62.543  27.287  49.098  1.00  0.00    -0.550 OA
ATOM      9  O   UNL     1      62.110  29.345  50.008  1.00  0.00    -0.550 OA
ENDBRANCH   6   7
ENDBRANCH   5   6
ENDBRANCH   4   5
ENDBRANCH   3   4
ENDBRANCH   2   3
ENDBRANCH   1   2
BRANCH   1  10
ATOM     10  C   UNL     1      54.855  29.138  52.183  1.00  0.00     0.000 C 
BRANCH  10  11
ATOM     11  C   UNL     1      54.822  29.224  50.647  1.00  0.00    -0.000 C 
BRANCH  11  12
ATOM     12  C   UNL     1      53.848  28.215  50.019  1.00  0.00    -0.000 C 
BRANCH  12  13
ATOM     13  C   UNL     1      54.073  26.782  50.527  1.00  0.00    -0.000 C 
BRANCH  13  14
ATOM     14  C   UNL     1      54.957  25.988  49.554  1.00  0.00    -0.000 C 
BRANCH  14  15
ATOM     15  C   UNL     1      56.450  26.034  49.926  1.00  0.00    -0.000 C 
BRANCH  15  16
ATOM     16  C   UNL     1      56.765  25.657  51.384  1.00  0.00    -0.003 C 
ATOM     17  C   UNL     1      58.155  25.045  51.557  1.00  0.00     0.004 C 
ENDBRANCH  15  16
ENDBRANCH  14  15
ENDBRANCH  13  14
ENDBRANCH  12  13
ENDBRANCH  11  12
ENDBRANCH  10  11
ENDBRANCH   1  10
TORSDOF 13
ENDMDL
MODEL 3
REMARK VINA RESULT:    -3.371      2.895      5.794
REMARK INTER + INTRA:          -7.640
REMARK INTER:                  -5.421
REMARK INTRA:                  -2.219
REMARK UNBOUND:                -1.707
REMARK SMILES CCCCCCCCCCCCCCC(=O)[O-]
REMARK SMILES IDX 9 1 10 2 11 3 12 4 13 5 14 6 15 7 16 8 17 9 8 10 7 11 6 12
REMARK SMILES IDX 5 13 4 14 3 15 2 16 1 17
REMARK H PARENT
REMARK Flexibility Score: inf
ROOT
ATOM      1  C   UNL     1      59.682  25.623  51.927  1.00  0.00     0.000 C 
ENDROOT
BRANCH   1   2
ATOM      2  C   UNL     1      58.598  25.148  50.940  1.00  0.00     0.000 C 
BRANCH   2   3
ATOM      3  C   UNL     1      57.177  25.663  51.234  1.00  0.00     0.000 C 
BRANCH   3   4
ATOM      4  C   UNL     1      56.348  26.027  49.989  1.00  0.00     0.000 C 
BRANCH   4   5
ATOM      5  C   UNL     1      54.843  26.128  50.281  1.00  0.00     0.006 C 
BRANCH   5   6
ATOM      6  C   UNL     1      54.266  27.437  49.737  1.00  0.00     0.053 C 
BRANCH   6   7
ATOM      7  C   UNL     1      54.206  28.472  50.816  1.00  0.00     0.041 C 
ATOM      8  O   UNL     1      53.940  29.669  50.531  1.00  0.00    -0.550 OA
ATOM      9  O   UNL     1      54.395  28.105  52.142  1.00  0.00    -0.550 OA
ENDBRANCH   6   7
ENDBRANCH   5   6
ENDBRANCH   4   5
ENDBRANCH   3   4
ENDBRANCH   2   3
ENDBRANCH   1   2
BRANCH   1  10
ATOM     10  C   UNL     1      60.964  26.142  51.240  1.00  0.00     0.000 C 
BRANCH  10  11
ATOM     11  C   UNL     1      60.781  26.335  49.725  1.00  0.00    -0.000 C 
BRANCH  11  12
ATOM     12  C   UNL     1      61.144  27.754  49.261  1.00  0.00    -0.000 C 
BRANCH  12  13
ATOM     13  C   UNL     1      60.287  28.834  49.939  1.00  0.00    -0.000 C 
BRANCH  13  14
ATOM     14  C   UNL     1      58.861  28.842  49.368  1.00  0.00    -0.000 C 
BRANCH  14  15
ATOM     15  C   UNL     1      57.801  29.245  50.408  1.00  0.00    -0.000 C 
BRANCH  15  16
ATOM     16  C   UNL     1      58.364  29.663  51.778  1.00  0.00    -0.003 C 
ATOM     17  C   UNL     1      57.859  28.789  52.925  1.00  0.00     0.004 C 
ENDBRANCH  15  16
ENDBRANCH  14  15
ENDBRANCH  13  14
ENDBRANCH  12  13
ENDBRANCH  11  12
ENDBRANCH  10  11
ENDBRANCH   1  10
TORSDOF 13
ENDMDL
MODEL 4
REMARK VINA RESULT:    -3.339     11.804     14.238
REMARK INTER + INTRA:          -7.584
REMARK INTER:                  -5.743
REMARK INTRA:                  -1.841
REMARK UNBOUND:                -1.707
REMARK SMILES CCCCCCCCCCCCCCC(=O)[O-]
REMARK SMILES IDX 9 1 10 2 11 3 12 4 13 5 14 6 15 7 16 8 17 9 8 10 7 11 6 12
REMARK SMILES IDX 5 13 4 14 3 15 2 16 1 17
REMARK H PARENT
REMARK Flexibility Score: inf
ROOT
ATOM      1  C   UNL     1      62.372  34.130  60.524  1.00  0.00     0.000 C 
ENDROOT
BRANCH   1   2
ATOM      2  C   UNL     1      61.550  33.481  59.394  1.00  0.00     0.000 C 
BRANCH   2   3
ATOM      3  C   UNL     1      60.809  32.189  59.786  1.00  0.00     0.000 C 
BRANCH   3   4
ATOM      4  C   UNL     1      61.051  31.714  61.230  1.00  0.00     0.000 C 
BRANCH   4   5
ATOM      5  C   UNL     1      61.259  30.195  61.333  1.00  0.00     0.006 C 
BRANCH   5   6
ATOM      6  C   UNL     1      62.615  29.870  61.965  1.00  0.00     0.053 C 
BRANCH   6   7
ATOM      7  C   UNL     1      63.729  30.267  61.049  1.00  0.00     0.041 C 
ATOM      8  O   UNL     1      63.966  29.594  60.012  1.00  0.00    -0.550 OA
ATOM      9  O   UNL     1      64.474  31.408  61.316  1.00  0.00    -0.550 OA
ENDBRANCH   6   7
ENDBRANCH   5   6
ENDBRANCH   4   5
ENDBRANCH   3   4
ENDBRANCH   2   3
ENDBRANCH   1   2
BRANCH   1  10
ATOM     10  C   UNL     1      61.935  35.572  60.861  1.00  0.00     0.000 C 
BRANCH  10  11
ATOM     11  C   UNL     1      63.059  36.386  61.525  1.00  0.00    -0.000 C 
BRANCH  11  12
ATOM     12  C   UNL     1      64.316  35.546  61.797  1.00  0.00    -0.000 C 
BRANCH  12  13
ATOM     13  C   UNL     1      65.586  36.173  61.200  1.00  0.00    -0.000 C 
BRANCH  13  14
ATOM     14  C   UNL     1      65.376  36.538  59.724  1.00  0.00    -0.000 C 
BRANCH  14  15
ATOM     15  C   UNL     1      65.406  35.312  58.793  1.00  0.00    -0.000 C 
BRANCH  15  16
ATOM     16  C   UNL     1      64.444  35.387  57.594  1.00  0.00    -0.003 C 
ATOM     17  C   UNL     1      63.480  36.570  57.674  1.00  0.00     0.004 C 
ENDBRANCH  15  16
ENDBRANCH  14  15
ENDBRANCH  13  14
ENDBRANCH  12  13
ENDBRANCH  11  12
ENDBRANCH  10  11
ENDBRANCH   1  10
TORSDOF 13
ENDMDL
MODEL 5
REMARK VINA RESULT:    -3.266     12.471     14.217
REMARK INTER + INTRA:          -7.455
REMARK INTER:                  -5.687
REMARK INTRA:                  -1.768
REMARK UNBOUND:                -1.707
REMARK SMILES CCCCCCCCCCCCCCC(=O)[O-]
REMARK SMILES IDX 9 1 10 2 11 3 12 4 13 5 14 6 15 7 16 8 17 9 8 10 7 11 6 12
REMARK SMILES IDX 5 13 4 14 3 15 2 16 1 17
REMARK H PARENT
REMARK Flexibility Score: inf
ROOT
ATOM      1  C   UNL     1      64.148  33.236  59.977  1.00  0.00     0.000 C 
ENDROOT
BRANCH   1   2
ATOM      2  C   UNL     1      64.179  34.051  61.285  1.00  0.00     0.000 C 
BRANCH   2   3
ATOM      3  C   UNL     1      64.712  35.489  61.146  1.00  0.00     0.000 C 
BRANCH   3   4
ATOM      4  C   UNL     1      63.886  36.561  61.880  1.00  0.00     0.000 C 
BRANCH   4   5
ATOM      5  C   UNL     1      62.469  36.718  61.309  1.00  0.00     0.006 C 
BRANCH   5   6
ATOM      6  C   UNL     1      62.506  36.895  59.789  1.00  0.00     0.053 C 
BRANCH   6   7
ATOM      7  C   UNL     1      61.212  36.459  59.178  1.00  0.00     0.041 C 
ATOM      8  O   UNL     1      61.170  36.098  57.973  1.00  0.00    -0.550 OA
ATOM      9  O   UNL     1      60.061  36.405  59.954  1.00  0.00    -0.550 OA
ENDBRANCH   6   7
ENDBRANCH   5   6
ENDBRANCH   4   5
ENDBRANCH   3   4
ENDBRANCH   2   3
ENDBRANCH   1   2
BRANCH   1  10
ATOM     10  C   UNL     1      62.728  32.816  59.541  1.00  0.00     0.000 C 
BRANCH  10  11
ATOM     11  C   UNL     1      61.665  33.149  60.602  1.00  0.00    -0.000 C 
BRANCH  11  12
ATOM     12  C   UNL     1      61.103  31.895  61.290  1.00  0.00    -0.000 C 
BRANCH  12  13
ATOM     13  C   UNL     1      61.750  30.599  60.776  1.00  0.00    -0.000 C 
BRANCH  13  14
ATOM     14  C   UNL     1      62.422  29.829  61.921  1.00  0.00    -0.000 C 
BRANCH  14  15
ATOM     15  C   UNL     1      63.588  28.944  61.446  1.00  0.00    -0.000 C 
BRANCH  15  16
ATOM     16  C   UNL     1      64.424  29.537  60.298  1.00  0.00    -0.003 C 
ATOM     17  C   UNL     1      65.899  29.707  60.658  1.00  0.00     0.004 C 
ENDBRANCH  15  16
ENDBRANCH  14  15
ENDBRANCH  13  14
ENDBRANCH  12  13
ENDBRANCH  11  12
ENDBRANCH  10  11
ENDBRANCH   1  10
TORSDOF 13
ENDMDL
MODEL 6
REMARK VINA RESULT:    -3.208     11.080     13.254
REMARK INTER + INTRA:          -7.353
REMARK INTER:                  -5.357
REMARK INTRA:                  -1.996
REMARK UNBOUND:                -1.707
REMARK SMILES CCCCCCCCCCCCCCC(=O)[O-]
REMARK SMILES IDX 9 1 10 2 11 3 12 4 13 5 14 6 15 7 16 8 17 9 8 10 7 11 6 12
REMARK SMILES IDX 5 13 4 14 3 15 2 16 1 17
REMARK H PARENT
REMARK Flexibility Score: inf
ROOT
ATOM      1  C   UNL     1      64.011  32.147  60.851  1.00  0.00     0.000 C 
ENDROOT
BRANCH   1   2
ATOM      2  C   UNL     1      64.498  30.698  61.042  1.00  0.00     0.000 C 
BRANCH   2   3
ATOM      3  C   UNL     1      63.390  29.671  61.342  1.00  0.00     0.000 C 
BRANCH   3   4
ATOM      4  C   UNL     1      62.124  30.255  61.994  1.00  0.00     0.000 C 
BRANCH   4   5
ATOM      5  C   UNL     1      60.848  29.960  61.190  1.00  0.00     0.006 C 
BRANCH   5   6
ATOM      6  C   UNL     1      61.158  29.840  59.695  1.00  0.00     0.053 C 
BRANCH   6   7
ATOM      7  C   UNL     1      59.930  30.106  58.882  1.00  0.00     0.041 C 
ATOM      8  O   UNL     1      59.538  31.287  58.696  1.00  0.00    -0.550 OA
ATOM      9  O   UNL     1      59.246  29.051  58.291  1.00  0.00    -0.550 OA
ENDBRANCH   6   7
ENDBRANCH   5   6
ENDBRANCH   4   5
ENDBRANCH   3   4
ENDBRANCH   2   3
ENDBRANCH   1   2
BRANCH   1  10
ATOM     10  C   UNL     1      63.780  32.536  59.375  1.00  0.00     0.000 C 
BRANCH  10  11
ATOM     11  C   UNL     1      62.437  33.255  59.161  1.00  0.00    -0.000 C 
BRANCH  11  12
ATOM     12  C   UNL     1      61.743  33.618  60.483  1.00  0.00    -0.000 C 
BRANCH  12  13
ATOM     13  C   UNL     1      61.329  35.097  60.546  1.00  0.00    -0.000 C 
BRANCH  13  14
ATOM     14  C   UNL     1      62.094  35.926  59.504  1.00  0.00    -0.000 C 
BRANCH  14  15
ATOM     15  C   UNL     1      63.398  36.528  60.055  1.00  0.00    -0.000 C 
BRANCH  15  16
ATOM     16  C   UNL     1      63.556  36.439  61.584  1.00  0.00    -0.003 C 
ATOM     17  C   UNL     1      64.787  35.642  62.013  1.00  0.00     0.004 C 
ENDBRANCH  15  16
ENDBRANCH  14  15
ENDBRANCH  13  14
ENDBRANCH  12  13
ENDBRANCH  11  12
ENDBRANCH  10  11
ENDBRANCH   1  10
TORSDOF 13
ENDMDL
MODEL 7
REMARK VINA RESULT:    -3.202     11.788     13.508
REMARK INTER + INTRA:          -7.342
REMARK INTER:                  -5.160
REMARK INTRA:                  -2.183
REMARK UNBOUND:                -1.707
REMARK SMILES CCCCCCCCCCCCCCC(=O)[O-]
REMARK SMILES IDX 9 1 10 2 11 3 12 4 13 5 14 6 15 7 16 8 17 9 8 10 7 11 6 12
REMARK SMILES IDX 5 13 4 14 3 15 2 16 1 17
REMARK H PARENT
REMARK Flexibility Score: inf
ROOT
ATOM      1  C   UNL     1      63.471  34.465  61.375  1.00  0.00     0.000 C 
ENDROOT
BRANCH   1   2
ATOM      2  C   UNL     1      63.776  33.522  60.195  1.00  0.00     0.000 C 
BRANCH   2   3
ATOM      3  C   UNL     1      62.969  32.210  60.182  1.00  0.00     0.000 C 
BRANCH   3   4
ATOM      4  C   UNL     1      61.594  32.287  60.869  1.00  0.00     0.000 C 
BRANCH   4   5
ATOM      5  C   UNL     1      61.310  31.080  61.775  1.00  0.00     0.006 C 
BRANCH   5   6
ATOM      6  C   UNL     1      62.541  30.176  61.886  1.00  0.00     0.053 C 
BRANCH   6   7
ATOM      7  C   UNL     1      62.192  28.768  61.521  1.00  0.00     0.041 C 
ATOM      8  O   UNL     1      63.001  27.833  61.759  1.00  0.00    -0.550 OA
ATOM      9  O   UNL     1      60.953  28.482  60.962  1.00  0.00    -0.550 OA
ENDBRANCH   6   7
ENDBRANCH   5   6
ENDBRANCH   4   5
ENDBRANCH   3   4
ENDBRANCH   2   3
ENDBRANCH   1   2
BRANCH   1  10
ATOM     10  C   UNL     1      63.657  35.960  61.039  1.00  0.00     0.000 C 
BRANCH  10  11
ATOM     11  C   UNL     1      62.365  36.772  61.237  1.00  0.00    -0.000 C 
BRANCH  11  12
ATOM     12  C   UNL     1      61.109  35.999  60.803  1.00  0.00    -0.000 C 
BRANCH  12  13
ATOM     13  C   UNL     1      60.719  36.279  59.343  1.00  0.00    -0.000 C 
BRANCH  13  14
ATOM     14  C   UNL     1      60.780  34.996  58.502  1.00  0.00    -0.000 C 
BRANCH  14  15
ATOM     15  C   UNL     1      61.807  35.077  57.359  1.00  0.00    -0.000 C 
BRANCH  15  16
ATOM     16  C   UNL     1      62.760  36.283  57.430  1.00  0.00    -0.003 C 
ATOM     17  C   UNL     1      64.235  35.885  57.373  1.00  0.00     0.004 C 
ENDBRANCH  15  16
ENDBRANCH  14  15
ENDBRANCH  13  14
ENDBRANCH  12  13
ENDBRANCH  11  12
ENDBRANCH  10  11
ENDBRANCH   1  10
TORSDOF 13
ENDMDL
MODEL 8
REMARK VINA RESULT:    -3.161      2.723      4.606
REMARK INTER + INTRA:          -7.269
REMARK INTER:                  -5.799
REMARK INTRA:                  -1.470
REMARK UNBOUND:                -1.707
REMARK SMILES CCCCCCCCCCCCCCC(=O)[O-]
REMARK SMILES IDX 9 1 10 2 11 3 12 4 13 5 14 6 15 7 16 8 17 9 8 10 7 11 6 12
REMARK SMILES IDX 5 13 4 14 3 15 2 16 1 17
REMARK H PARENT
REMARK Flexibility Score: inf
ROOT
ATOM      1  C   UNL     1      59.606  27.117  49.322  1.00  0.00     0.000 C 
ENDROOT
BRANCH   1   2
ATOM      2  C   UNL     1      60.936  26.950  50.081  1.00  0.00     0.000 C 
BRANCH   2   3
ATOM      3  C   UNL     1      62.200  27.275  49.263  1.00  0.00     0.000 C 
BRANCH   3   4
ATOM      4  C   UNL     1      62.880  28.608  49.621  1.00  0.00     0.000 C 
BRANCH   4   5
ATOM      5  C   UNL     1      62.407  29.178  50.967  1.00  0.00     0.006 C 
BRANCH   5   6
ATOM      6  C   UNL     1      61.812  30.578  50.791  1.00  0.00     0.053 C 
BRANCH   6   7
ATOM      7  C   UNL     1      62.815  31.499  50.170  1.00  0.00     0.041 C 
ATOM      8  O   UNL     1      62.544  32.098  49.097  1.00  0.00    -0.550 OA
ATOM      9  O   UNL     1      64.029  31.733  50.803  1.00  0.00    -0.550 OA
ENDBRANCH   6   7
ENDBRANCH   5   6
ENDBRANCH   4   5
ENDBRANCH   3   4
ENDBRANCH   2   3
ENDBRANCH   1   2
BRANCH   1  10
ATOM     10  C   UNL     1      59.157  28.587  49.171  1.00  0.00     0.000 C 
BRANCH  10  11
ATOM     11  C   UNL     1      58.298  29.063  50.356  1.00  0.00    -0.000 C 
BRANCH  11  12
ATOM     12  C   UNL     1      56.874  28.486  50.323  1.00  0.00    -0.000 C 
BRANCH  12  13
ATOM     13  C   UNL     1      56.612  27.496  51.469  1.00  0.00    -0.000 C 
BRANCH  13  14
ATOM     14  C   UNL     1      56.378  26.079  50.926  1.00  0.00    -0.000 C 
BRANCH  14  15
ATOM     15  C   UNL     1      55.516  26.059  49.652  1.00  0.00    -0.000 C 
BRANCH  15  16
ATOM     16  C   UNL     1      54.002  25.919  49.897  1.00  0.00    -0.003 C 
ATOM     17  C   UNL     1      53.206  27.136  49.428  1.00  0.00     0.004 C 
ENDBRANCH  15  16
ENDBRANCH  14  15
ENDBRANCH  13  14
ENDBRANCH  12  13
ENDBRANCH  11  12
ENDBRANCH  10  11
ENDBRANCH   1  10
TORSDOF 13
ENDMDL
MODEL 9
REMARK VINA RESULT:    -3.158      1.431      2.790
REMARK INTER + INTRA:          -7.264
REMARK INTER:                  -5.259
REMARK INTRA:                  -2.005
REMARK UNBOUND:                -1.707
REMARK SMILES CCCCCCCCCCCCCCC(=O)[O-]
REMARK SMILES IDX 9 1 10 2 11 3 12 4 13 5 14 6 15 7 16 8 17 9 8 10 7 11 6 12
REMARK SMILES IDX 5 13 4 14 3 15 2 16 1 17
REMARK H PARENT
REMARK Flexibility Score: inf
ROOT
ATOM      1  C   UNL     1      54.160  26.765  50.558  1.00  0.00     0.000 C 
ENDROOT
BRANCH   1   2
ATOM      2  C   UNL     1      55.494  26.315  49.933  1.00  0.00     0.000 C 
BRANCH   2   3
ATOM      3  C   UNL     1      56.747  27.013  50.495  1.00  0.00     0.000 C 
BRANCH   3   4
ATOM      4  C   UNL     1      56.806  28.533  50.256  1.00  0.00     0.000 C 
BRANCH   4   5
ATOM      5  C   UNL     1      58.223  29.107  50.406  1.00  0.00     0.006 C 
BRANCH   5   6
ATOM      6  C   UNL     1      59.126  28.641  49.261  1.00  0.00     0.053 C 
BRANCH   6   7
ATOM      7  C   UNL     1      60.250  27.805  49.786  1.00  0.00     0.041 C 
ATOM      8  O   UNL     1      61.024  28.264  50.665  1.00  0.00    -0.550 OA
ATOM      9  O   UNL     1      60.411  26.499  49.339  1.00  0.00    -0.550 OA
ENDBRANCH   6   7
ENDBRANCH   5   6
ENDBRANCH   4   5
ENDBRANCH   3   4
ENDBRANCH   2   3
ENDBRANCH   1   2
BRANCH   1  10
ATOM     10  C   UNL     1      53.238  27.523  49.578  1.00  0.00     0.000 C 
BRANCH  10  11
ATOM     11  C   UNL     1      53.057  29.001  49.965  1.00  0.00    -0.000 C 
BRANCH  11  12
ATOM     12  C   UNL     1      53.037  29.215  51.487  1.00  0.00    -0.000 C 
BRANCH  12  13
ATOM     13  C   UNL     1      53.769  30.497  51.912  1.00  0.00    -0.000 C 
BRANCH  13  14
ATOM     14  C   UNL     1      54.997  30.168  52.773  1.00  0.00    -0.000 C 
BRANCH  14  15
ATOM     15  C   UNL     1      54.733  29.043  53.790  1.00  0.00    -0.000 C 
BRANCH  15  16
ATOM     16  C   UNL     1      55.796  27.930  53.814  1.00  0.00    -0.003 C 
ATOM     17  C   UNL     1      57.217  28.463  53.994  1.00  0.00     0.004 C 
ENDBRANCH  15  16
ENDBRANCH  14  15
ENDBRANCH  13  14
ENDBRANCH  12  13
ENDBRANCH  11  12
ENDBRANCH  10  11
ENDBRANCH   1  10
TORSDOF 13
ENDMDL
