MODEL 1
REMARK VINA RESULT:    -5.334      0.000      0.000
REMARK INTER + INTRA:          -6.167
REMARK INTER:                  -5.957
REMARK INTRA:                  -0.210
REMARK UNBOUND:                -0.210
REMARK SMILES CC(C)c1ccc(C(=O)[O-])cc1
REMARK SMILES IDX 7 1 6 2 11 3 5 4 12 5 4 6 8 7 9 8 10 9 2 10 1 11 3 12
REMARK H PARENT
REMARK Flexibility Score: inf
ROOT
ATOM      1  C   UNL     1      -4.508  37.059  20.139  1.00  0.00    -0.003 A 
ATOM      2  C   UNL     1      -3.773  38.158  19.659  1.00  0.00     0.010 A 
ATOM      3  C   UNL     1      -4.641  35.922  19.325  1.00  0.00     0.010 A 
ATOM      4  C   UNL     1      -3.184  38.118  18.392  1.00  0.00     0.004 A 
ATOM      5  C   UNL     1      -4.052  35.883  18.059  1.00  0.00     0.004 A 
ATOM      6  C   UNL     1      -3.317  36.981  17.578  1.00  0.00    -0.045 A 
ENDROOT
BRANCH   1   7
ATOM      7  C   UNL     1      -5.133  37.097  21.479  1.00  0.00     0.071 C 
ATOM      8  O   UNL     1      -6.056  36.292  21.778  1.00  0.00    -0.545 OA
ATOM      9  O   UNL     1      -4.711  38.020  22.429  1.00  0.00    -0.545 OA
ENDBRANCH   1   7
BRANCH   6  10
ATOM     10  C   UNL     1      -2.672  36.952  16.204  1.00  0.00     0.013 C 
ATOM     11  C   UNL     1      -3.071  38.184  15.381  1.00  0.00     0.012 C 
ATOM     12  C   UNL     1      -1.148  36.829  16.310  1.00  0.00     0.012 C 
ENDBRANCH   6  10
TORSDOF 2
ENDMDL
MODEL 2
REMARK VINA RESULT:    -5.326      0.035      1.398
REMARK INTER + INTRA:          -6.158
REMARK INTER:                  -5.950
REMARK INTRA:                  -0.208
REMARK UNBOUND:                -0.210
REMARK SMILES CC(C)c1ccc(C(=O)[O-])cc1
REMARK SMILES IDX 7 1 6 2 11 3 5 4 12 5 4 6 8 7 9 8 10 9 2 10 1 11 3 12
REMARK H PARENT
REMARK Flexibility Score: inf
ROOT
ATOM      1  C   UNL     1      -4.506  37.056  20.135  1.00  0.00    -0.003 A 
ATOM      2  C   UNL     1      -4.651  35.927  19.308  1.00  0.00     0.010 A 
ATOM      3  C   UNL     1      -3.753  38.146  19.669  1.00  0.00     0.010 A 
ATOM      4  C   UNL     1      -4.056  35.891  18.045  1.00  0.00     0.004 A 
ATOM      5  C   UNL     1      -3.158  38.111  18.406  1.00  0.00     0.004 A 
ATOM      6  C   UNL     1      -3.302  36.982  17.579  1.00  0.00    -0.045 A 
ENDROOT
BRANCH   1   7
ATOM      7  C   UNL     1      -5.135  37.098  21.473  1.00  0.00     0.071 C 
ATOM      8  O   UNL     1      -6.044  36.280  21.780  1.00  0.00    -0.545 OA
ATOM      9  O   UNL     1      -4.733  38.041  22.411  1.00  0.00    -0.545 OA
ENDBRANCH   1   7
BRANCH   6  10
ATOM     10  C   UNL     1      -2.660  36.929  16.204  1.00  0.00     0.013 C 
ATOM     11  C   UNL     1      -3.013  38.176  15.383  1.00  0.00     0.012 C 
ATOM     12  C   UNL     1      -1.141  36.750  16.310  1.00  0.00     0.012 C 
ENDBRANCH   6  10
TORSDOF 2
ENDMDL
MODEL 3
REMARK VINA RESULT:    -5.291      3.064      5.261
REMARK INTER + INTRA:          -6.119
REMARK INTER:                  -5.911
REMARK INTRA:                  -0.208
REMARK UNBOUND:                -0.210
REMARK SMILES CC(C)c1ccc(C(=O)[O-])cc1
REMARK SMILES IDX 7 1 6 2 11 3 5 4 12 5 4 6 8 7 9 8 10 9 2 10 1 11 3 12
REMARK H PARENT
REMARK Flexibility Score: inf
ROOT
ATOM      1  C   UNL     1      -3.173  36.973  17.534  1.00  0.00    -0.003 A 
ATOM      2  C   UNL     1      -3.962  35.922  18.037  1.00  0.00     0.010 A 
ATOM      3  C   UNL     1      -3.022  38.138  18.303  1.00  0.00     0.010 A 
ATOM      4  C   UNL     1      -4.584  36.037  19.283  1.00  0.00     0.004 A 
ATOM      5  C   UNL     1      -3.644  38.252  19.549  1.00  0.00     0.004 A 
ATOM      6  C   UNL     1      -4.433  37.202  20.053  1.00  0.00    -0.045 A 
ENDROOT
BRANCH   1   7
ATOM      7  C   UNL     1      -2.512  36.856  16.216  1.00  0.00     0.071 C 
ATOM      8  O   UNL     1      -1.312  36.482  16.132  1.00  0.00    -0.545 OA
ATOM      9  O   UNL     1      -3.206  37.158  15.050  1.00  0.00    -0.545 OA
ENDBRANCH   1   7
BRANCH   6  10
ATOM     10  C   UNL     1      -5.116  37.313  21.404  1.00  0.00     0.013 C 
ATOM     11  C   UNL     1      -4.655  36.195  22.349  1.00  0.00     0.012 C 
ATOM     12  C   UNL     1      -4.884  38.693  22.030  1.00  0.00     0.012 C 
ENDBRANCH   6  10
TORSDOF 2
ENDMDL
MODEL 4
REMARK VINA RESULT:    -5.270      3.073      5.076
REMARK INTER + INTRA:          -6.096
REMARK INTER:                  -5.887
REMARK INTRA:                  -0.209
REMARK UNBOUND:                -0.210
REMARK SMILES CC(C)c1ccc(C(=O)[O-])cc1
REMARK SMILES IDX 7 1 6 2 11 3 5 4 12 5 4 6 8 7 9 8 10 9 2 10 1 11 3 12
REMARK H PARENT
REMARK Flexibility Score: inf
ROOT
ATOM      1  C   UNL     1      -3.117  37.017  17.539  1.00  0.00    -0.003 A 
ATOM      2  C   UNL     1      -2.985  38.160  18.348  1.00  0.00     0.010 A 
ATOM      3  C   UNL     1      -3.889  35.940  18.004  1.00  0.00     0.010 A 
ATOM      4  C   UNL     1      -3.613  38.223  19.594  1.00  0.00     0.004 A 
ATOM      5  C   UNL     1      -4.516  36.003  19.251  1.00  0.00     0.004 A 
ATOM      6  C   UNL     1      -4.385  37.146  20.061  1.00  0.00    -0.045 A 
ENDROOT
BRANCH   1   7
ATOM      7  C   UNL     1      -2.454  36.947  16.218  1.00  0.00     0.071 C 
ATOM      8  O   UNL     1      -1.250  36.588  16.124  1.00  0.00    -0.545 OA
ATOM      9  O   UNL     1      -3.152  37.274  15.061  1.00  0.00    -0.545 OA
ENDBRANCH   1   7
BRANCH   6  10
ATOM     10  C   UNL     1      -5.061  37.227  21.417  1.00  0.00     0.013 C 
ATOM     11  C   UNL     1      -4.594  36.090  22.335  1.00  0.00     0.012 C 
ATOM     12  C   UNL     1      -4.828  38.594  22.071  1.00  0.00     0.012 C 
ENDBRANCH   6  10
TORSDOF 2
ENDMDL
MODEL 5
REMARK VINA RESULT:    -5.251      2.498      4.069
REMARK INTER + INTRA:          -6.075
REMARK INTER:                  -5.862
REMARK INTRA:                  -0.213
REMARK UNBOUND:                -0.210
REMARK SMILES CC(C)c1ccc(C(=O)[O-])cc1
REMARK SMILES IDX 7 1 6 2 11 3 5 4 12 5 4 6 8 7 9 8 10 9 2 10 1 11 3 12
REMARK H PARENT
REMARK Flexibility Score: inf
ROOT
ATOM      1  C   UNL     1      -4.885  37.851  23.776  1.00  0.00    -0.003 A 
ATOM      2  C   UNL     1      -5.036  36.592  23.167  1.00  0.00     0.010 A 
ATOM      3  C   UNL     1      -4.619  38.969  22.969  1.00  0.00     0.010 A 
ATOM      4  C   UNL     1      -4.924  36.457  21.781  1.00  0.00     0.004 A 
ATOM      5  C   UNL     1      -4.507  38.833  21.582  1.00  0.00     0.004 A 
ATOM      6  C   UNL     1      -4.658  37.575  20.973  1.00  0.00    -0.045 A 
ENDROOT
BRANCH   1   7
ATOM      7  C   UNL     1      -5.003  38.000  25.243  1.00  0.00     0.071 C 
ATOM      8  O   UNL     1      -6.125  37.898  25.809  1.00  0.00    -0.545 OA
ATOM      9  O   UNL     1      -3.879  38.254  26.019  1.00  0.00    -0.545 OA
ENDBRANCH   1   7
BRANCH   6  10
ATOM     10  C   UNL     1      -4.538  37.413  19.468  1.00  0.00     0.013 C 
ATOM     11  C   UNL     1      -3.368  38.237  18.916  1.00  0.00     0.012 C 
ATOM     12  C   UNL     1      -4.404  35.935  19.080  1.00  0.00     0.012 C 
ENDBRANCH   6  10
TORSDOF 2
ENDMDL
MODEL 6
REMARK VINA RESULT:    -5.146      2.728      5.407
REMARK INTER + INTRA:          -5.957
REMARK INTER:                  -5.743
REMARK INTRA:                  -0.215
REMARK UNBOUND:                -0.210
REMARK SMILES CC(C)c1ccc(C(=O)[O-])cc1
REMARK SMILES IDX 7 1 6 2 11 3 5 4 12 5 4 6 8 7 9 8 10 9 2 10 1 11 3 12
REMARK H PARENT
REMARK Flexibility Score: inf
ROOT
ATOM      1  C   UNL     1      -4.354  36.775  19.787  1.00  0.00    -0.003 A 
ATOM      2  C   UNL     1      -4.727  38.126  19.902  1.00  0.00     0.010 A 
ATOM      3  C   UNL     1      -4.311  35.981  20.945  1.00  0.00     0.010 A 
ATOM      4  C   UNL     1      -5.049  38.670  21.148  1.00  0.00     0.004 A 
ATOM      5  C   UNL     1      -4.633  36.525  22.191  1.00  0.00     0.004 A 
ATOM      6  C   UNL     1      -5.006  37.876  22.307  1.00  0.00    -0.045 A 
ENDROOT
BRANCH   1   7
ATOM      7  C   UNL     1      -4.013  36.196  18.470  1.00  0.00     0.071 C 
ATOM      8  O   UNL     1      -4.537  35.114  18.091  1.00  0.00    -0.545 OA
ATOM      9  O   UNL     1      -3.108  36.836  17.630  1.00  0.00    -0.545 OA
ENDBRANCH   1   7
BRANCH   6  10
ATOM     10  C   UNL     1      -5.358  38.479  23.654  1.00  0.00     0.013 C 
ATOM     11  C   UNL     1      -5.025  37.511  24.797  1.00  0.00     0.012 C 
ATOM     12  C   UNL     1      -4.660  39.830  23.855  1.00  0.00     0.012 C 
ENDBRANCH   6  10
TORSDOF 2
ENDMDL
MODEL 7
REMARK VINA RESULT:    -5.126      2.679      5.532
REMARK INTER + INTRA:          -5.936
REMARK INTER:                  -5.720
REMARK INTRA:                  -0.216
REMARK UNBOUND:                -0.210
REMARK SMILES CC(C)c1ccc(C(=O)[O-])cc1
REMARK SMILES IDX 7 1 6 2 11 3 5 4 12 5 4 6 8 7 9 8 10 9 2 10 1 11 3 12
REMARK H PARENT
REMARK Flexibility Score: inf
ROOT
ATOM      1  C   UNL     1      -4.231  36.864  19.739  1.00  0.00    -0.003 A 
ATOM      2  C   UNL     1      -4.287  36.028  20.869  1.00  0.00     0.010 A 
ATOM      3  C   UNL     1      -4.551  38.224  19.883  1.00  0.00     0.010 A 
ATOM      4  C   UNL     1      -4.657  36.543  22.114  1.00  0.00     0.004 A 
ATOM      5  C   UNL     1      -4.920  38.739  21.128  1.00  0.00     0.004 A 
ATOM      6  C   UNL     1      -4.978  37.903  22.259  1.00  0.00    -0.045 A 
ENDROOT
BRANCH   1   7
ATOM      7  C   UNL     1      -3.840  36.324  18.419  1.00  0.00     0.071 C 
ATOM      8  O   UNL     1      -4.309  35.227  18.011  1.00  0.00    -0.545 OA
ATOM      9  O   UNL     1      -2.949  37.018  17.608  1.00  0.00    -0.545 OA
ENDBRANCH   1   7
BRANCH   6  10
ATOM     10  C   UNL     1      -5.378  38.449  23.617  1.00  0.00     0.013 C 
ATOM     11  C   UNL     1      -5.082  37.434  24.729  1.00  0.00     0.012 C 
ATOM     12  C   UNL     1      -4.692  39.791  23.898  1.00  0.00     0.012 C 
ENDBRANCH   6  10
TORSDOF 2
ENDMDL
MODEL 8
REMARK VINA RESULT:    -5.032      2.237      3.345
REMARK INTER + INTRA:          -5.830
REMARK INTER:                  -5.613
REMARK INTRA:                  -0.218
REMARK UNBOUND:                -0.210
REMARK SMILES CC(C)c1ccc(C(=O)[O-])cc1
REMARK SMILES IDX 7 1 6 2 11 3 5 4 12 5 4 6 8 7 9 8 10 9 2 10 1 11 3 12
REMARK H PARENT
REMARK Flexibility Score: inf
ROOT
ATOM      1  C   UNL     1      -5.078  37.572  23.322  1.00  0.00    -0.003 A 
ATOM      2  C   UNL     1      -4.691  38.770  22.695  1.00  0.00     0.010 A 
ATOM      3  C   UNL     1      -5.090  36.385  22.572  1.00  0.00     0.010 A 
ATOM      4  C   UNL     1      -4.324  38.778  21.347  1.00  0.00     0.004 A 
ATOM      5  C   UNL     1      -4.722  36.393  21.224  1.00  0.00     0.004 A 
ATOM      6  C   UNL     1      -4.335  37.591  20.596  1.00  0.00    -0.045 A 
ENDROOT
BRANCH   1   7
ATOM      7  C   UNL     1      -5.468  37.558  24.749  1.00  0.00     0.071 C 
ATOM      8  O   UNL     1      -6.108  36.584  25.229  1.00  0.00    -0.545 OA
ATOM      9  O   UNL     1      -5.133  38.619  25.582  1.00  0.00    -0.545 OA
ENDBRANCH   1   7
BRANCH   6  10
ATOM     10  C   UNL     1      -3.934  37.615  19.132  1.00  0.00     0.013 C 
ATOM     11  C   UNL     1      -2.547  38.243  18.950  1.00  0.00     0.012 C 
ATOM     12  C   UNL     1      -3.988  36.210  18.521  1.00  0.00     0.012 C 
ENDBRANCH   6  10
TORSDOF 2
ENDMDL
MODEL 9
REMARK VINA RESULT:    -4.809      1.468      2.566
REMARK INTER + INTRA:          -5.581
REMARK INTER:                  -5.369
REMARK INTRA:                  -0.212
REMARK UNBOUND:                -0.210
REMARK SMILES CC(C)c1ccc(C(=O)[O-])cc1
REMARK SMILES IDX 7 1 6 2 11 3 5 4 12 5 4 6 8 7 9 8 10 9 2 10 1 11 3 12
REMARK H PARENT
REMARK Flexibility Score: inf
ROOT
ATOM      1  C   UNL     1      -5.041  37.002  21.954  1.00  0.00    -0.003 A 
ATOM      2  C   UNL     1      -4.420  35.984  21.207  1.00  0.00     0.010 A 
ATOM      3  C   UNL     1      -4.985  38.323  21.481  1.00  0.00     0.010 A 
ATOM      4  C   UNL     1      -3.757  36.284  20.014  1.00  0.00     0.004 A 
ATOM      5  C   UNL     1      -4.322  38.622  20.287  1.00  0.00     0.004 A 
ATOM      6  C   UNL     1      -3.700  37.605  19.540  1.00  0.00    -0.045 A 
ENDROOT
BRANCH   1   7
ATOM      7  C   UNL     1      -5.744  36.690  23.217  1.00  0.00     0.071 C 
ATOM      8  O   UNL     1      -6.007  35.496  23.526  1.00  0.00    -0.545 OA
ATOM      9  O   UNL     1      -6.125  37.709  24.083  1.00  0.00    -0.545 OA
ENDBRANCH   1   7
BRANCH   6  10
ATOM     10  C   UNL     1      -2.976  37.916  18.243  1.00  0.00     0.013 C 
ATOM     11  C   UNL     1      -1.509  38.279  18.503  1.00  0.00     0.012 C 
ATOM     12  C   UNL     1      -3.088  36.750  17.254  1.00  0.00     0.012 C 
ENDBRANCH   6  10
TORSDOF 2
ENDMDL
