MODEL 1
REMARK VINA RESULT:    -4.020      0.000      0.000
REMARK INTER + INTRA:          -4.322
REMARK INTER:                  -4.960
REMARK INTRA:                   0.638
REMARK UNBOUND:                 0.638
REMARK SMILES C=C1[C@@H]2CC[C@H]3[C@@H]2C(C)(C)CCC[C@@]13C
REMARK SMILES IDX 14 1 6 2 7 3 3 4 2 5 1 6 4 7 5 8 15 9 8 10 9 11 10 12 11 13
REMARK SMILES IDX 13 15 12 16
REMARK H PARENT
REMARK Flexibility Score: 80.00
ROOT
ATOM      1  C   UNL     1     144.276 146.025 132.188  1.00  0.00    -0.008 C 
ATOM      2  C   UNL     1     145.243 145.400 131.107  1.00  0.00     0.003 C 
ATOM      3  C   UNL     1     146.616 145.325 131.808  1.00  0.00     0.006 C 
ATOM      4  C   UNL     1     146.593 146.796 132.226  1.00  0.00     0.019 C 
ATOM      5  C   UNL     1     145.261 146.907 132.913  1.00  0.00    -0.068 C 
ATOM      6  C   UNL     1     144.989 147.727 133.936  1.00  0.00     0.009 C 
ATOM      7  C   UNL     1     146.439 147.489 130.850  1.00  0.00     0.008 C 
ATOM      8  C   UNL     1     145.592 146.475 130.041  1.00  0.00     0.005 C 
ATOM      9  C   UNL     1     143.127 146.872 131.576  1.00  0.00     0.016 C 
ENDROOT
BRANCH   3  10
ATOM     10  C   UNL     1     146.890 144.198 132.894  1.00  0.00    -0.032 C 
ATOM     11  C   UNL     1     147.818 143.131 132.250  1.00  0.00     0.011 C 
ATOM     12  C   UNL     1     147.663 144.761 134.114  1.00  0.00     0.011 C 
BRANCH  10  13
ATOM     13  C   UNL     1     145.629 143.416 133.361  1.00  0.00     0.007 CG0
ATOM     14  G   UNL     1     144.562 144.240 134.077  1.00  0.00     0.000 G0
ENDBRANCH  10  13
ENDBRANCH   3  10
BRANCH   1  15
ATOM     15  C   UNL     1     143.625 144.953 133.102  1.00  0.00     0.011 C 
BRANCH  15  16
ATOM     16  C   UNL     1     144.562 144.246 134.075  1.00  0.00     0.001 CG0
ATOM     17  G   UNL     1     145.630 143.420 133.362  1.00  0.00     0.000 G0
ENDBRANCH  15  16
ENDBRANCH   1  15
TORSDOF 0
ENDMDL
MODEL 2
REMARK VINA RESULT:    -3.998      1.547      3.888
REMARK INTER + INTRA:          -4.295
REMARK INTER:                  -4.936
REMARK INTRA:                   0.641
REMARK UNBOUND:                 0.638
REMARK SMILES C=C1[C@@H]2CC[C@H]3[C@@H]2C(C)(C)CCC[C@@]13C
REMARK SMILES IDX 14 1 6 2 7 3 3 4 2 5 1 6 4 7 5 8 15 9 8 10 9 11 10 12 11 13
REMARK SMILES IDX 13 15 12 16
REMARK H PARENT
REMARK Flexibility Score: 80.00
ROOT
ATOM      1  C   UNL     1     146.453 144.731 132.159  1.00  0.00    -0.008 C 
ATOM      2  C   UNL     1     145.472 145.349 131.087  1.00  0.00     0.003 C 
ATOM      3  C   UNL     1     144.110 145.431 131.807  1.00  0.00     0.006 C 
ATOM      4  C   UNL     1     144.137 143.963 132.234  1.00  0.00     0.019 C 
ATOM      5  C   UNL     1     145.477 143.854 132.903  1.00  0.00    -0.068 C 
ATOM      6  C   UNL     1     145.763 143.041 133.928  1.00  0.00     0.009 C 
ATOM      7  C   UNL     1     144.271 143.260 130.861  1.00  0.00     0.008 C 
ATOM      8  C   UNL     1     145.107 144.268 130.033  1.00  0.00     0.005 C 
ATOM      9  C   UNL     1     147.593 143.878 131.537  1.00  0.00     0.016 C 
ENDROOT
BRANCH   3  10
ATOM     10  C   UNL     1     143.852 146.565 132.889  1.00  0.00    -0.032 C 
ATOM     11  C   UNL     1     142.919 147.631 132.250  1.00  0.00     0.011 C 
ATOM     12  C   UNL     1     143.092 146.012 134.122  1.00  0.00     0.011 C 
BRANCH  10  13
ATOM     13  C   UNL     1     145.121 147.347 133.336  1.00  0.00     0.007 CG0
ATOM     14  G   UNL     1     146.197 146.523 134.037  1.00  0.00     0.000 G0
ENDBRANCH  10  13
ENDBRANCH   3  10
BRANCH   1  15
ATOM     15  C   UNL     1     147.119 145.808 133.056  1.00  0.00     0.011 C 
BRANCH  15  16
ATOM     16  C   UNL     1     146.196 146.521 134.039  1.00  0.00     0.001 CG0
ATOM     17  G   UNL     1     145.125 147.351 133.336  1.00  0.00     0.000 G0
ENDBRANCH  15  16
ENDBRANCH   1  15
TORSDOF 0
ENDMDL
MODEL 3
REMARK VINA RESULT:    -3.629      1.434      2.848
REMARK INTER + INTRA:          -3.840
REMARK INTER:                  -4.473
REMARK INTRA:                   0.633
REMARK UNBOUND:                 0.638
REMARK SMILES C=C1[C@@H]2CC[C@H]3[C@@H]2C(C)(C)CCC[C@@]13C
REMARK SMILES IDX 14 1 6 2 7 3 3 4 2 5 1 6 4 7 5 8 15 9 8 10 9 11 10 12 11 13
REMARK SMILES IDX 13 15 12 16
REMARK H PARENT
REMARK Flexibility Score: 80.00
ROOT
ATOM      1  C   UNL     1     144.945 144.259 132.091  1.00  0.00    -0.008 C 
ATOM      2  C   UNL     1     145.621 145.156 130.980  1.00  0.00     0.003 C 
ATOM      3  C   UNL     1     145.526 146.595 131.531  1.00  0.00     0.006 C 
ATOM      4  C   UNL     1     144.023 146.500 131.794  1.00  0.00     0.019 C 
ATOM      5  C   UNL     1     143.924 145.242 132.608  1.00  0.00    -0.068 C 
ATOM      6  C   UNL     1     143.015 145.013 133.564  1.00  0.00     0.009 C 
ATOM      7  C   UNL     1     143.499 146.153 130.379  1.00  0.00     0.008 C 
ATOM      8  C   UNL     1     144.650 145.310 129.777  1.00  0.00     0.005 C 
ATOM      9  C   UNL     1     144.249 142.991 131.524  1.00  0.00     0.016 C 
ENDROOT
BRANCH   3  10
ATOM     10  C   UNL     1     146.504 147.065 132.691  1.00  0.00    -0.032 C 
ATOM     11  C   UNL     1     147.577 147.997 132.062  1.00  0.00     0.011 C 
ATOM     12  C   UNL     1     145.761 147.918 133.750  1.00  0.00     0.011 C 
BRANCH  10  13
ATOM     13  C   UNL     1     147.307 145.922 133.377  1.00  0.00     0.007 CG0
ATOM     14  G   UNL     1     146.476 144.876 134.116  1.00  0.00     0.000 G0
ENDBRANCH  10  13
ENDBRANCH   3  10
BRANCH   1  15
ATOM     15  C   UNL     1     145.949 143.789 133.177  1.00  0.00     0.011 C 
BRANCH  15  16
ATOM     16  C   UNL     1     146.476 144.872 134.112  1.00  0.00     0.001 CG0
ATOM     17  G   UNL     1     147.305 145.924 133.379  1.00  0.00     0.000 G0
ENDBRANCH  15  16
ENDBRANCH   1  15
TORSDOF 0
ENDMDL
MODEL 4
REMARK VINA RESULT:    -3.594      1.332      2.638
REMARK INTER + INTRA:          -3.797
REMARK INTER:                  -4.443
REMARK INTRA:                   0.647
REMARK UNBOUND:                 0.638
REMARK SMILES C=C1[C@@H]2CC[C@H]3[C@@H]2C(C)(C)CCC[C@@]13C
REMARK SMILES IDX 14 1 6 2 7 3 3 4 2 5 1 6 4 7 5 8 15 9 8 10 9 11 10 12 11 13
REMARK SMILES IDX 13 15 12 16
REMARK H PARENT
REMARK Flexibility Score: 80.00
ROOT
ATOM      1  C   UNL     1     145.779 146.515 132.034  1.00  0.00    -0.008 C 
ATOM      2  C   UNL     1     145.123 145.606 130.921  1.00  0.00     0.003 C 
ATOM      3  C   UNL     1     145.193 144.176 131.495  1.00  0.00     0.006 C 
ATOM      4  C   UNL     1     146.690 144.263 131.793  1.00  0.00     0.019 C 
ATOM      5  C   UNL     1     146.779 145.534 132.590  1.00  0.00    -0.068 C 
ATOM      6  C   UNL     1     147.666 145.771 133.564  1.00  0.00     0.009 C 
ATOM      7  C   UNL     1     147.250 144.584 130.386  1.00  0.00     0.008 C 
ATOM      8  C   UNL     1     146.120 145.427 129.744  1.00  0.00     0.005 C 
ATOM      9  C   UNL     1     146.498 147.769 131.465  1.00  0.00     0.016 C 
ENDROOT
BRANCH   3  10
ATOM     10  C   UNL     1     144.183 143.731 132.639  1.00  0.00    -0.032 C 
ATOM     11  C   UNL     1     143.124 142.790 132.000  1.00  0.00     0.011 C 
ATOM     12  C   UNL     1     144.896 142.896 133.733  1.00  0.00     0.011 C 
BRANCH  10  13
ATOM     13  C   UNL     1     143.367 144.889 133.281  1.00  0.00     0.007 CG0
ATOM     14  G   UNL     1     144.182 145.943 134.027  1.00  0.00     0.000 G0
ENDBRANCH  10  13
ENDBRANCH   3  10
BRANCH   1  15
ATOM     15  C   UNL     1     144.752 147.010 133.087  1.00  0.00     0.011 C 
BRANCH  15  16
ATOM     16  C   UNL     1     144.192 145.945 134.025  1.00  0.00     0.001 CG0
ATOM     17  G   UNL     1     143.372 144.890 133.286  1.00  0.00     0.000 G0
ENDBRANCH  15  16
ENDBRANCH   1  15
TORSDOF 0
ENDMDL
MODEL 5
REMARK VINA RESULT:    -3.593      1.551      3.722
REMARK INTER + INTRA:          -3.796
REMARK INTER:                  -4.432
REMARK INTRA:                   0.636
REMARK UNBOUND:                 0.638
REMARK SMILES C=C1[C@@H]2CC[C@H]3[C@@H]2C(C)(C)CCC[C@@]13C
REMARK SMILES IDX 14 1 6 2 7 3 3 4 2 5 1 6 4 7 5 8 15 9 8 10 9 11 10 12 11 13
REMARK SMILES IDX 13 15 12 16
REMARK H PARENT
REMARK Flexibility Score: 80.00
ROOT
ATOM      1  C   UNL     1     145.036 144.543 133.261  1.00  0.00    -0.008 C 
ATOM      2  C   UNL     1     146.415 145.243 133.583  1.00  0.00     0.003 C 
ATOM      3  C   UNL     1     146.854 145.872 132.244  1.00  0.00     0.006 C 
ATOM      4  C   UNL     1     146.689 144.567 131.464  1.00  0.00     0.019 C 
ATOM      5  C   UNL     1     145.288 144.160 131.824  1.00  0.00    -0.068 C 
ATOM      6  C   UNL     1     144.451 143.490 131.022  1.00  0.00     0.009 C 
ATOM      7  C   UNL     1     147.636 143.631 132.253  1.00  0.00     0.008 C 
ATOM      8  C   UNL     1     147.527 144.165 133.703  1.00  0.00     0.005 C 
ATOM      9  C   UNL     1     144.765 143.280 134.125  1.00  0.00     0.016 C 
ENDROOT
BRANCH   3  10
ATOM     10  C   UNL     1     146.153 147.199 131.724  1.00  0.00    -0.032 C 
ATOM     11  C   UNL     1     147.145 148.377 131.936  1.00  0.00     0.011 C 
ATOM     12  C   UNL     1     145.878 147.137 130.200  1.00  0.00     0.011 C 
BRANCH  10  13
ATOM     13  C   UNL     1     144.864 147.606 132.495  1.00  0.00     0.007 CG0
ATOM     14  G   UNL     1     143.702 146.619 132.415  1.00  0.00     0.000 G0
ENDBRANCH  10  13
ENDBRANCH   3  10
BRANCH   1  15
ATOM     15  C   UNL     1     143.823 145.494 133.439  1.00  0.00     0.011 C 
BRANCH  15  16
ATOM     16  C   UNL     1     143.699 146.617 132.415  1.00  0.00     0.001 CG0
ATOM     17  G   UNL     1     144.857 147.610 132.494  1.00  0.00     0.000 G0
ENDBRANCH  15  16
ENDBRANCH   1  15
TORSDOF 0
ENDMDL
MODEL 6
REMARK VINA RESULT:    -3.430      1.380      3.153
REMARK INTER + INTRA:          -3.594
REMARK INTER:                  -4.227
REMARK INTRA:                   0.633
REMARK UNBOUND:                 0.638
REMARK SMILES C=C1[C@@H]2CC[C@H]3[C@@H]2C(C)(C)CCC[C@@]13C
REMARK SMILES IDX 14 1 6 2 7 3 3 4 2 5 1 6 4 7 5 8 15 9 8 10 9 11 10 12 11 13
REMARK SMILES IDX 13 15 12 16
REMARK H PARENT
REMARK Flexibility Score: 80.00
ROOT
ATOM      1  C   UNL     1     145.752 146.285 133.104  1.00  0.00    -0.008 C 
ATOM      2  C   UNL     1     144.399 145.632 133.593  1.00  0.00     0.003 C 
ATOM      3  C   UNL     1     143.840 144.915 132.346  1.00  0.00     0.006 C 
ATOM      4  C   UNL     1     143.951 146.156 131.460  1.00  0.00     0.019 C 
ATOM      5  C   UNL     1     145.381 146.566 131.669  1.00  0.00    -0.068 C 
ATOM      6  C   UNL     1     146.153 147.163 130.753  1.00  0.00     0.009 C 
ATOM      7  C   UNL     1     143.083 147.162 132.256  1.00  0.00     0.008 C 
ATOM      8  C   UNL     1     143.311 146.733 133.727  1.00  0.00     0.005 C 
ATOM      9  C   UNL     1     146.108 147.603 133.847  1.00  0.00     0.016 C 
ENDROOT
BRANCH   3  10
ATOM     10  C   UNL     1     144.482 143.542 131.868  1.00  0.00    -0.032 C 
ATOM     11  C   UNL     1     143.501 142.399 132.250  1.00  0.00     0.011 C 
ATOM     12  C   UNL     1     144.626 143.489 130.325  1.00  0.00     0.011 C 
BRANCH  10  13
ATOM     13  C   UNL     1     145.828 143.173 132.554  1.00  0.00     0.007 CG0
ATOM     14  G   UNL     1     146.990 144.130 132.298  1.00  0.00     0.000 G0
ENDBRANCH  10  13
ENDBRANCH   3  10
BRANCH   1  15
ATOM     15  C   UNL     1     146.966 145.330 133.249  1.00  0.00     0.011 C 
BRANCH  15  16
ATOM     16  C   UNL     1     146.991 144.134 132.303  1.00  0.00     0.001 CG0
ATOM     17  G   UNL     1     145.832 143.171 132.549  1.00  0.00     0.000 G0
ENDBRANCH  15  16
ENDBRANCH   1  15
TORSDOF 0
ENDMDL
MODEL 7
REMARK VINA RESULT:    -2.960      1.232      3.226
REMARK INTER + INTRA:          -3.015
REMARK INTER:                  -3.646
REMARK INTRA:                   0.631
REMARK UNBOUND:                 0.638
REMARK SMILES C=C1[C@@H]2CC[C@H]3[C@@H]2C(C)(C)CCC[C@@]13C
REMARK SMILES IDX 14 1 6 2 7 3 3 4 2 5 1 6 4 7 5 8 15 9 8 10 9 11 10 12 11 13
REMARK SMILES IDX 13 15 12 16
REMARK H PARENT
REMARK Flexibility Score: 80.00
ROOT
ATOM      1  C   UNL     1     146.311 146.375 131.729  1.00  0.00    -0.008 C 
ATOM      2  C   UNL     1     145.638 146.190 133.146  1.00  0.00     0.003 C 
ATOM      3  C   UNL     1     144.566 145.102 132.930  1.00  0.00     0.006 C 
ATOM      4  C   UNL     1     143.932 145.824 131.741  1.00  0.00     0.019 C 
ATOM      5  C   UNL     1     145.119 146.074 130.855  1.00  0.00    -0.068 C 
ATOM      6  C   UNL     1     145.087 146.111 129.517  1.00  0.00     0.009 C 
ATOM      7  C   UNL     1     143.567 147.184 132.384  1.00  0.00     0.008 C 
ATOM      8  C   UNL     1     144.691 147.388 133.430  1.00  0.00     0.005 C 
ATOM      9  C   UNL     1     146.829 147.816 131.472  1.00  0.00     0.016 C 
ENDROOT
BRANCH   3  10
ATOM     10  C   UNL     1     144.999 143.579 132.792  1.00  0.00    -0.032 C 
ATOM     11  C   UNL     1     144.641 142.860 134.122  1.00  0.00     0.011 C 
ATOM     12  C   UNL     1     144.194 142.858 131.682  1.00  0.00     0.011 C 
BRANCH  10  13
ATOM     13  C   UNL     1     146.525 143.346 132.599  1.00  0.00     0.007 CG0
ATOM     14  G   UNL     1     147.136 143.951 131.338  1.00  0.00     0.000 G0
ENDBRANCH  10  13
ENDBRANCH   3  10
BRANCH   1  15
ATOM     15  C   UNL     1     147.502 145.407 131.499  1.00  0.00     0.011 C 
BRANCH  15  16
ATOM     16  C   UNL     1     147.143 143.932 131.348  1.00  0.00     0.001 CG0
ATOM     17  G   UNL     1     146.516 143.351 132.613  1.00  0.00     0.000 G0
ENDBRANCH  15  16
ENDBRANCH   1  15
TORSDOF 0
ENDMDL
MODEL 8
REMARK VINA RESULT:    -2.914      1.206      3.631
REMARK INTER + INTRA:          -2.957
REMARK INTER:                  -3.587
REMARK INTRA:                   0.630
REMARK UNBOUND:                 0.638
REMARK SMILES C=C1[C@@H]2CC[C@H]3[C@@H]2C(C)(C)CCC[C@@]13C
REMARK SMILES IDX 14 1 6 2 7 3 3 4 2 5 1 6 4 7 5 8 15 9 8 10 9 11 10 12 11 13
REMARK SMILES IDX 13 15 12 16
REMARK H PARENT
REMARK Flexibility Score: 80.00
ROOT
ATOM      1  C   UNL     1     146.229 145.003 133.175  1.00  0.00    -0.008 C 
ATOM      2  C   UNL     1     145.603 146.383 133.620  1.00  0.00     0.003 C 
ATOM      3  C   UNL     1     144.897 146.916 132.355  1.00  0.00     0.006 C 
ATOM      4  C   UNL     1     146.135 146.752 131.474  1.00  0.00     0.019 C 
ATOM      5  C   UNL     1     146.517 145.322 131.729  1.00  0.00    -0.068 C 
ATOM      6  C   UNL     1     147.099 144.509 130.838  1.00  0.00     0.009 C 
ATOM      7  C   UNL     1     147.158 147.625 132.242  1.00  0.00     0.008 C 
ATOM      8  C   UNL     1     146.725 147.453 133.719  1.00  0.00     0.005 C 
ATOM      9  C   UNL     1     147.539 144.645 133.929  1.00  0.00     0.016 C 
ENDROOT
BRANCH   3  10
ATOM     10  C   UNL     1     143.511 146.286 131.897  1.00  0.00    -0.032 C 
ATOM     11  C   UNL     1     142.387 147.299 132.252  1.00  0.00     0.011 C 
ATOM     12  C   UNL     1     143.453 146.099 130.360  1.00  0.00     0.011 C 
BRANCH  10  13
ATOM     13  C   UNL     1     143.118 144.967 132.623  1.00  0.00     0.007 CG0
ATOM     14  G   UNL     1     144.053 143.782 132.402  1.00  0.00     0.000 G0
ENDBRANCH  10  13
ENDBRANCH   3  10
BRANCH   1  15
ATOM     15  C   UNL     1     145.250 143.813 133.359  1.00  0.00     0.011 C 
BRANCH  15  16
ATOM     16  C   UNL     1     144.052 143.783 132.415  1.00  0.00     0.001 CG0
ATOM     17  G   UNL     1     143.119 144.975 132.619  1.00  0.00     0.000 G0
ENDBRANCH  15  16
ENDBRANCH   1  15
TORSDOF 0
ENDMDL
MODEL 9
REMARK VINA RESULT:    -2.859      1.650      3.226
REMARK INTER + INTRA:          -2.890
REMARK INTER:                  -3.520
REMARK INTRA:                   0.630
REMARK UNBOUND:                 0.638
REMARK SMILES C=C1[C@@H]2CC[C@H]3[C@@H]2C(C)(C)CCC[C@@]13C
REMARK SMILES IDX 14 1 6 2 7 3 3 4 2 5 1 6 4 7 5 8 15 9 8 10 9 11 10 12 11 13
REMARK SMILES IDX 13 15 12 16
REMARK H PARENT
REMARK Flexibility Score: 80.00
ROOT
ATOM      1  C   UNL     1     144.483 145.771 133.155  1.00  0.00    -0.008 C 
ATOM      2  C   UNL     1     145.120 144.401 133.617  1.00  0.00     0.003 C 
ATOM      3  C   UNL     1     145.836 143.861 132.361  1.00  0.00     0.006 C 
ATOM      4  C   UNL     1     144.598 144.003 131.474  1.00  0.00     0.019 C 
ATOM      5  C   UNL     1     144.203 145.433 131.712  1.00  0.00    -0.068 C 
ATOM      6  C   UNL     1     143.616 146.230 130.810  1.00  0.00     0.009 C 
ATOM      7  C   UNL     1     143.582 143.130 132.248  1.00  0.00     0.008 C 
ATOM      8  C   UNL     1     144.008 143.322 133.725  1.00  0.00     0.005 C 
ATOM      9  C   UNL     1     143.167 146.125 133.901  1.00  0.00     0.016 C 
ENDROOT
BRANCH   3  10
ATOM     10  C   UNL     1     147.217 144.499 131.901  1.00  0.00    -0.032 C 
ATOM     11  C   UNL     1     148.349 143.500 132.268  1.00  0.00     0.011 C 
ATOM     12  C   UNL     1     147.277 144.671 130.361  1.00  0.00     0.011 C 
BRANCH  10  13
ATOM     13  C   UNL     1     147.597 145.828 132.614  1.00  0.00     0.007 CG0
ATOM     14  G   UNL     1     146.647 147.001 132.384  1.00  0.00     0.000 G0
ENDBRANCH  10  13
ENDBRANCH   3  10
BRANCH   1  15
ATOM     15  C   UNL     1     145.450 146.972 133.328  1.00  0.00     0.011 C 
BRANCH  15  16
ATOM     16  C   UNL     1     146.649 147.004 132.386  1.00  0.00     0.001 CG0
ATOM     17  G   UNL     1     147.591 145.822 132.599  1.00  0.00     0.000 G0
ENDBRANCH  15  16
ENDBRANCH   1  15
TORSDOF 0
ENDMDL
