MODEL 1
REMARK VINA RESULT:    -4.330      0.000      0.000
REMARK INTER + INTRA:          -9.736
REMARK INTER:                  -8.127
REMARK INTRA:                  -1.609
REMARK UNBOUND:                -1.609
REMARK SMILES O=C([O-])CCCCCCCCCCCCCCC(=O)[O-]
REMARK SMILES IDX 10 1 9 2 8 3 7 4 6 5 5 6 4 7 2 8 1 9 3 10 11 11 12 12 13 13
REMARK SMILES IDX 14 14 15 15 16 16 17 17 18 18 19 19 20 20
REMARK H PARENT
REMARK Flexibility Score: inf
ROOT
ATOM      1  C   UNL     1      22.340 -13.267   0.938  1.00  0.00     0.000 C 
ENDROOT
BRANCH   1   2
ATOM      2  C   UNL     1      21.855 -13.929   2.232  1.00  0.00     0.000 C 
BRANCH   2   3
ATOM      3  C   UNL     1      21.701 -15.444   2.053  1.00  0.00     0.000 C 
BRANCH   3   4
ATOM      4  C   UNL     1      22.441 -16.209   3.157  1.00  0.00     0.000 C 
BRANCH   4   5
ATOM      5  C   UNL     1      21.672 -16.146   4.481  1.00  0.00     0.000 C 
BRANCH   5   6
ATOM      6  C   UNL     1      22.474 -15.392   5.549  1.00  0.00     0.006 C 
BRANCH   6   7
ATOM      7  C   UNL     1      21.613 -14.327   6.233  1.00  0.00     0.053 C 
BRANCH   7   8
ATOM      8  C   UNL     1      21.763 -14.406   7.719  1.00  0.00     0.041 C 
ATOM      9  O   UNL     1      21.879 -13.353   8.400  1.00  0.00    -0.550 OA
ATOM     10  O   UNL     1      21.723 -15.638   8.359  1.00  0.00    -0.550 OA
ENDBRANCH   7   8
ENDBRANCH   6   7
ENDBRANCH   5   6
ENDBRANCH   4   5
ENDBRANCH   3   4
ENDBRANCH   2   3
ENDBRANCH   1   2
BRANCH   1  11
ATOM     11  C   UNL     1      23.623 -12.457   1.182  1.00  0.00     0.000 C 
BRANCH  11  12
ATOM     12  C   UNL     1      24.140 -12.603   2.625  1.00  0.00     0.000 C 
BRANCH  12  13
ATOM     13  C   UNL     1      24.892 -11.358   3.140  1.00  0.00     0.000 C 
BRANCH  13  14
ATOM     14  C   UNL     1      25.628 -11.574   4.478  1.00  0.00     0.000 C 
BRANCH  14  15
ATOM     15  C   UNL     1      24.990 -12.651   5.378  1.00  0.00     0.000 C 
BRANCH  15  16
ATOM     16  C   UNL     1      24.922 -12.219   6.853  1.00  0.00     0.006 C 
BRANCH  16  17
ATOM     17  C   UNL     1      25.346 -10.756   7.050  1.00  0.00     0.053 C 
BRANCH  17  18
ATOM     18  C   UNL     1      24.424 -10.028   7.979  1.00  0.00     0.041 C 
ATOM     19  O   UNL     1      23.801 -10.657   8.875  1.00  0.00    -0.550 OA
ATOM     20  O   UNL     1      24.225  -8.661   7.832  1.00  0.00    -0.550 OA
ENDBRANCH  17  18
ENDBRANCH  16  17
ENDBRANCH  15  16
ENDBRANCH  14  15
ENDBRANCH  13  14
ENDBRANCH  12  13
ENDBRANCH  11  12
ENDBRANCH   1  11
TORSDOF 15
ENDMDL
MODEL 2
REMARK VINA RESULT:    -4.297      1.458      4.567
REMARK INTER + INTRA:          -9.675
REMARK INTER:                  -7.307
REMARK INTRA:                  -2.367
REMARK UNBOUND:                -1.609
REMARK SMILES O=C([O-])CCCCCCCCCCCCCCC(=O)[O-]
REMARK SMILES IDX 10 1 9 2 8 3 7 4 6 5 5 6 4 7 2 8 1 9 3 10 11 11 12 12 13 13
REMARK SMILES IDX 14 14 15 15 16 16 17 17 18 18 19 19 20 20
REMARK H PARENT
REMARK Flexibility Score: inf
ROOT
ATOM      1  C   UNL     1      21.880 -14.488   2.672  1.00  0.00     0.000 C 
ENDROOT
BRANCH   1   2
ATOM      2  C   UNL     1      22.220 -13.619   1.456  1.00  0.00     0.000 C 
BRANCH   2   3
ATOM      3  C   UNL     1      23.582 -12.937   1.627  1.00  0.00     0.000 C 
BRANCH   3   4
ATOM      4  C   UNL     1      24.049 -12.998   3.087  1.00  0.00     0.000 C 
BRANCH   4   5
ATOM      5  C   UNL     1      25.485 -13.524   3.183  1.00  0.00     0.000 C 
BRANCH   5   6
ATOM      6  C   UNL     1      25.968 -13.544   4.639  1.00  0.00     0.006 C 
BRANCH   6   7
ATOM      7  C   UNL     1      24.827 -13.207   5.602  1.00  0.00     0.053 C 
BRANCH   7   8
ATOM      8  C   UNL     1      25.227 -12.099   6.523  1.00  0.00     0.041 C 
ATOM      9  O   UNL     1      24.804 -12.078   7.709  1.00  0.00    -0.550 OA
ATOM     10  O   UNL     1      26.109 -11.118   6.090  1.00  0.00    -0.550 OA
ENDBRANCH   7   8
ENDBRANCH   6   7
ENDBRANCH   5   6
ENDBRANCH   4   5
ENDBRANCH   3   4
ENDBRANCH   2   3
ENDBRANCH   1   2
BRANCH   1  11
ATOM     11  C   UNL     1      21.439 -15.894   2.236  1.00  0.00     0.000 C 
BRANCH  11  12
ATOM     12  C   UNL     1      22.597 -16.909   2.279  1.00  0.00     0.000 C 
BRANCH  12  13
ATOM     13  C   UNL     1      23.564 -16.691   3.462  1.00  0.00     0.000 C 
BRANCH  13  14
ATOM     14  C   UNL     1      23.111 -17.356   4.777  1.00  0.00     0.000 C 
BRANCH  14  15
ATOM     15  C   UNL     1      23.025 -16.387   5.973  1.00  0.00     0.000 C 
BRANCH  15  16
ATOM     16  C   UNL     1      21.596 -15.867   6.208  1.00  0.00     0.006 C 
BRANCH  16  17
ATOM     17  C   UNL     1      21.566 -14.359   6.492  1.00  0.00     0.053 C 
BRANCH  17  18
ATOM     18  C   UNL     1      21.601 -14.068   7.961  1.00  0.00     0.041 C 
ATOM     19  O   UNL     1      21.561 -12.878   8.372  1.00  0.00    -0.550 OA
ATOM     20  O   UNL     1      21.713 -15.109   8.874  1.00  0.00    -0.550 OA
ENDBRANCH  17  18
ENDBRANCH  16  17
ENDBRANCH  15  16
ENDBRANCH  14  15
ENDBRANCH  13  14
ENDBRANCH  12  13
ENDBRANCH  11  12
ENDBRANCH   1  11
TORSDOF 15
ENDMDL
MODEL 3
REMARK VINA RESULT:    -4.234      0.962      4.617
REMARK INTER + INTRA:          -9.556
REMARK INTER:                  -7.425
REMARK INTRA:                  -2.131
REMARK UNBOUND:                -1.609
REMARK SMILES O=C([O-])CCCCCCCCCCCCCCC(=O)[O-]
REMARK SMILES IDX 10 1 9 2 8 3 7 4 6 5 5 6 4 7 2 8 1 9 3 10 11 11 12 12 13 13
REMARK SMILES IDX 14 14 15 15 16 16 17 17 18 18 19 19 20 20
REMARK H PARENT
REMARK Flexibility Score: inf
ROOT
ATOM      1  C   UNL     1      23.747 -11.971   1.648  1.00  0.00     0.000 C 
ENDROOT
BRANCH   1   2
ATOM      2  C   UNL     1      24.669 -11.548   2.797  1.00  0.00     0.000 C 
BRANCH   2   3
ATOM      3  C   UNL     1      25.602 -12.694   3.206  1.00  0.00     0.000 C 
BRANCH   3   4
ATOM      4  C   UNL     1      26.042 -12.551   4.668  1.00  0.00     0.000 C 
BRANCH   4   5
ATOM      5  C   UNL     1      25.202 -11.497   5.397  1.00  0.00     0.000 C 
BRANCH   5   6
ATOM      6  C   UNL     1      25.640 -11.357   6.859  1.00  0.00     0.006 C 
BRANCH   6   7
ATOM      7  C   UNL     1      25.530  -9.905   7.330  1.00  0.00     0.053 C 
BRANCH   7   8
ATOM      8  C   UNL     1      24.242  -9.685   8.058  1.00  0.00     0.041 C 
ATOM      9  O   UNL     1      23.691  -8.553   8.044  1.00  0.00    -0.550 OA
ATOM     10  O   UNL     1      23.623 -10.744   8.711  1.00  0.00    -0.550 OA
ENDBRANCH   7   8
ENDBRANCH   6   7
ENDBRANCH   5   6
ENDBRANCH   4   5
ENDBRANCH   3   4
ENDBRANCH   2   3
ENDBRANCH   1   2
BRANCH   1  11
ATOM     11  C   UNL     1      23.507 -13.490   1.667  1.00  0.00     0.000 C 
BRANCH  11  12
ATOM     12  C   UNL     1      22.040 -13.846   1.966  1.00  0.00     0.000 C 
BRANCH  12  13
ATOM     13  C   UNL     1      21.874 -14.858   3.119  1.00  0.00     0.000 C 
BRANCH  13  14
ATOM     14  C   UNL     1      23.203 -15.421   3.661  1.00  0.00     0.000 C 
BRANCH  14  15
ATOM     15  C   UNL     1      23.435 -15.150   5.162  1.00  0.00     0.000 C 
BRANCH  15  16
ATOM     16  C   UNL     1      22.255 -14.408   5.814  1.00  0.00     0.006 C 
BRANCH  16  17
ATOM     17  C   UNL     1      22.668 -13.680   7.100  1.00  0.00     0.053 C 
BRANCH  17  18
ATOM     18  C   UNL     1      21.683 -13.901   8.207  1.00  0.00     0.041 C 
ATOM     19  O   UNL     1      21.021 -12.935   8.669  1.00  0.00    -0.550 OA
ATOM     20  O   UNL     1      21.522 -15.169   8.751  1.00  0.00    -0.550 OA
ENDBRANCH  17  18
ENDBRANCH  16  17
ENDBRANCH  15  16
ENDBRANCH  14  15
ENDBRANCH  13  14
ENDBRANCH  12  13
ENDBRANCH  11  12
ENDBRANCH   1  11
TORSDOF 15
ENDMDL
MODEL 4
REMARK VINA RESULT:    -4.181      1.030      4.933
REMARK INTER + INTRA:          -9.456
REMARK INTER:                  -7.786
REMARK INTRA:                  -1.671
REMARK UNBOUND:                -1.609
REMARK SMILES O=C([O-])CCCCCCCCCCCCCCC(=O)[O-]
REMARK SMILES IDX 10 1 9 2 8 3 7 4 6 5 5 6 4 7 2 8 1 9 3 10 11 11 12 12 13 13
REMARK SMILES IDX 14 14 15 15 16 16 17 17 18 18 19 19 20 20
REMARK H PARENT
REMARK Flexibility Score: inf
ROOT
ATOM      1  C   UNL     1      22.711 -12.905   0.876  1.00  0.00     0.000 C 
ENDROOT
BRANCH   1   2
ATOM      2  C   UNL     1      24.147 -12.745   1.385  1.00  0.00     0.000 C 
BRANCH   2   3
ATOM      3  C   UNL     1      24.426 -11.297   1.805  1.00  0.00     0.000 C 
BRANCH   3   4
ATOM      4  C   UNL     1      24.954 -11.230   3.243  1.00  0.00     0.000 C 
BRANCH   4   5
ATOM      5  C   UNL     1      24.844 -12.593   3.934  1.00  0.00     0.000 C 
BRANCH   5   6
ATOM      6  C   UNL     1      25.451 -12.548   5.341  1.00  0.00     0.006 C 
BRANCH   6   7
ATOM      7  C   UNL     1      25.747 -11.108   5.767  1.00  0.00     0.053 C 
BRANCH   7   8
ATOM      8  C   UNL     1      25.218 -10.847   7.141  1.00  0.00     0.041 C 
ATOM      9  O   UNL     1      24.441 -11.673   7.688  1.00  0.00    -0.550 OA
ATOM     10  O   UNL     1      25.624  -9.717   7.840  1.00  0.00    -0.550 OA
ENDBRANCH   7   8
ENDBRANCH   6   7
ENDBRANCH   5   6
ENDBRANCH   4   5
ENDBRANCH   3   4
ENDBRANCH   2   3
ENDBRANCH   1   2
BRANCH   1  11
ATOM     11  C   UNL     1      21.873 -13.746   1.852  1.00  0.00     0.000 C 
BRANCH  11  12
ATOM     12  C   UNL     1      21.497 -15.119   1.267  1.00  0.00     0.000 C 
BRANCH  12  13
ATOM     13  C   UNL     1      21.474 -16.251   2.316  1.00  0.00     0.000 C 
BRANCH  13  14
ATOM     14  C   UNL     1      22.382 -15.999   3.536  1.00  0.00     0.000 C 
BRANCH  14  15
ATOM     15  C   UNL     1      21.615 -15.794   4.858  1.00  0.00     0.000 C 
BRANCH  15  16
ATOM     16  C   UNL     1      22.002 -14.483   5.565  1.00  0.00     0.006 C 
BRANCH  16  17
ATOM     17  C   UNL     1      22.719 -14.733   6.899  1.00  0.00     0.053 C 
BRANCH  17  18
ATOM     18  C   UNL     1      21.771 -15.191   7.964  1.00  0.00     0.041 C 
ATOM     19  O   UNL     1      20.773 -14.487   8.270  1.00  0.00    -0.550 OA
ATOM     20  O   UNL     1      22.010 -16.379   8.644  1.00  0.00    -0.550 OA
ENDBRANCH  17  18
ENDBRANCH  16  17
ENDBRANCH  15  16
ENDBRANCH  14  15
ENDBRANCH  13  14
ENDBRANCH  12  13
ENDBRANCH  11  12
ENDBRANCH   1  11
TORSDOF 15
ENDMDL
MODEL 5
REMARK VINA RESULT:    -4.172      1.502      1.963
REMARK INTER + INTRA:          -9.440
REMARK INTER:                  -7.123
REMARK INTRA:                  -2.317
REMARK UNBOUND:                -1.609
REMARK SMILES O=C([O-])CCCCCCCCCCCCCCC(=O)[O-]
REMARK SMILES IDX 10 1 9 2 8 3 7 4 6 5 5 6 4 7 2 8 1 9 3 10 11 11 12 12 13 13
REMARK SMILES IDX 14 14 15 15 16 16 17 17 18 18 19 19 20 20
REMARK H PARENT
REMARK Flexibility Score: inf
ROOT
ATOM      1  C   UNL     1      21.802 -13.858   1.970  1.00  0.00     0.000 C 
ENDROOT
BRANCH   1   2
ATOM      2  C   UNL     1      21.464 -15.305   1.596  1.00  0.00     0.000 C 
BRANCH   2   3
ATOM      3  C   UNL     1      21.526 -16.222   2.823  1.00  0.00     0.000 C 
BRANCH   3   4
ATOM      4  C   UNL     1      22.004 -15.454   4.061  1.00  0.00     0.000 C 
BRANCH   4   5
ATOM      5  C   UNL     1      22.737 -16.381   5.036  1.00  0.00     0.000 C 
BRANCH   5   6
ATOM      6  C   UNL     1      22.585 -15.892   6.482  1.00  0.00     0.006 C 
BRANCH   6   7
ATOM      7  C   UNL     1      21.789 -14.586   6.540  1.00  0.00     0.053 C 
BRANCH   7   8
ATOM      8  C   UNL     1      21.705 -14.085   7.947  1.00  0.00     0.041 C 
ATOM      9  O   UNL     1      21.548 -12.856   8.173  1.00  0.00    -0.550 OA
ATOM     10  O   UNL     1      21.748 -14.980   9.008  1.00  0.00    -0.550 OA
ENDBRANCH   7   8
ENDBRANCH   6   7
ENDBRANCH   5   6
ENDBRANCH   4   5
ENDBRANCH   3   4
ENDBRANCH   2   3
ENDBRANCH   1   2
BRANCH   1  11
ATOM     11  C   UNL     1      22.886 -13.289   1.040  1.00  0.00     0.000 C 
BRANCH  11  12
ATOM     12  C   UNL     1      24.203 -14.080   1.125  1.00  0.00     0.000 C 
BRANCH  12  13
ATOM     13  C   UNL     1      25.180 -13.540   2.192  1.00  0.00     0.000 C 
BRANCH  13  14
ATOM     14  C   UNL     1      25.803 -14.630   3.086  1.00  0.00     0.000 C 
BRANCH  14  15
ATOM     15  C   UNL     1      25.694 -14.340   4.597  1.00  0.00     0.000 C 
BRANCH  15  16
ATOM     16  C   UNL     1      24.776 -13.143   4.902  1.00  0.00     0.006 C 
BRANCH  16  17
ATOM     17  C   UNL     1      25.027 -12.561   6.299  1.00  0.00     0.053 C 
BRANCH  17  18
ATOM     18  C   UNL     1      25.630 -11.191   6.232  1.00  0.00     0.041 C 
ATOM     19  O   UNL     1      26.046 -10.734   5.135  1.00  0.00    -0.550 OA
ATOM     20  O   UNL     1      25.765 -10.433   7.389  1.00  0.00    -0.550 OA
ENDBRANCH  17  18
ENDBRANCH  16  17
ENDBRANCH  15  16
ENDBRANCH  14  15
ENDBRANCH  13  14
ENDBRANCH  12  13
ENDBRANCH  11  12
ENDBRANCH   1  11
TORSDOF 15
ENDMDL
MODEL 6
REMARK VINA RESULT:    -4.130      8.103     12.791
REMARK INTER + INTRA:          -9.360
REMARK INTER:                  -7.721
REMARK INTRA:                  -1.639
REMARK UNBOUND:                -1.609
REMARK SMILES O=C([O-])CCCCCCCCCCCCCCC(=O)[O-]
REMARK SMILES IDX 10 1 9 2 8 3 7 4 6 5 5 6 4 7 2 8 1 9 3 10 11 11 12 12 13 13
REMARK SMILES IDX 14 14 15 15 16 16 17 17 18 18 19 19 20 20
REMARK H PARENT
REMARK Flexibility Score: inf
ROOT
ATOM      1  C   UNL     1      28.861  -2.777  11.762  1.00  0.00     0.000 C 
ENDROOT
BRANCH   1   2
ATOM      2  C   UNL     1      29.369  -1.495  12.431  1.00  0.00     0.000 C 
BRANCH   2   3
ATOM      3  C   UNL     1      28.524  -0.284  12.019  1.00  0.00     0.000 C 
BRANCH   3   4
ATOM      4  C   UNL     1      27.601  -0.630  10.844  1.00  0.00     0.000 C 
BRANCH   4   5
ATOM      5  C   UNL     1      26.127  -0.488  11.239  1.00  0.00     0.000 C 
BRANCH   5   6
ATOM      6  C   UNL     1      25.206  -1.012  10.131  1.00  0.00     0.006 C 
BRANCH   6   7
ATOM      7  C   UNL     1      24.499  -2.299  10.567  1.00  0.00     0.053 C 
BRANCH   7   8
ATOM      8  C   UNL     1      23.145  -2.391   9.940  1.00  0.00     0.041 C 
ATOM      9  O   UNL     1      22.530  -3.491   9.918  1.00  0.00    -0.550 OA
ATOM     10  O   UNL     1      22.537  -1.253   9.425  1.00  0.00    -0.550 OA
ENDBRANCH   7   8
ENDBRANCH   6   7
ENDBRANCH   5   6
ENDBRANCH   4   5
ENDBRANCH   3   4
ENDBRANCH   2   3
ENDBRANCH   1   2
BRANCH   1  11
ATOM     11  C   UNL     1      30.018  -3.552  11.112  1.00  0.00     0.000 C 
BRANCH  11  12
ATOM     12  C   UNL     1      29.983  -3.474   9.575  1.00  0.00     0.000 C 
BRANCH  12  13
ATOM     13  C   UNL     1      28.718  -4.103   8.954  1.00  0.00     0.000 C 
BRANCH  13  14
ATOM     14  C   UNL     1      28.079  -3.259   7.832  1.00  0.00     0.000 C 
BRANCH  14  15
ATOM     15  C   UNL     1      26.541  -3.356   7.770  1.00  0.00     0.000 C 
BRANCH  15  16
ATOM     16  C   UNL     1      26.062  -4.588   6.982  1.00  0.00     0.006 C 
BRANCH  16  17
ATOM     17  C   UNL     1      24.530  -4.679   6.924  1.00  0.00     0.053 C 
BRANCH  17  18
ATOM     18  C   UNL     1      24.035  -6.022   7.367  1.00  0.00     0.041 C 
ATOM     19  O   UNL     1      22.919  -6.127   7.942  1.00  0.00    -0.550 OA
ATOM     20  O   UNL     1      24.822  -7.151   7.177  1.00  0.00    -0.550 OA
ENDBRANCH  17  18
ENDBRANCH  16  17
ENDBRANCH  15  16
ENDBRANCH  14  15
ENDBRANCH  13  14
ENDBRANCH  12  13
ENDBRANCH  11  12
ENDBRANCH   1  11
TORSDOF 15
ENDMDL
MODEL 7
REMARK VINA RESULT:    -4.088      7.228     11.224
REMARK INTER + INTRA:          -9.282
REMARK INTER:                  -7.341
REMARK INTRA:                  -1.940
REMARK UNBOUND:                -1.609
REMARK SMILES O=C([O-])CCCCCCCCCCCCCCC(=O)[O-]
REMARK SMILES IDX 10 1 9 2 8 3 7 4 6 5 5 6 4 7 2 8 1 9 3 10 11 11 12 12 13 13
REMARK SMILES IDX 14 14 15 15 16 16 17 17 18 18 19 19 20 20
REMARK H PARENT
REMARK Flexibility Score: inf
ROOT
ATOM      1  C   UNL     1      28.459  -3.861   9.122  1.00  0.00     0.000 C 
ENDROOT
BRANCH   1   2
ATOM      2  C   UNL     1      28.740  -3.153   7.792  1.00  0.00     0.000 C 
BRANCH   2   3
ATOM      3  C   UNL     1      27.485  -3.110   6.914  1.00  0.00     0.000 C 
BRANCH   3   4
ATOM      4  C   UNL     1      26.437  -4.119   7.399  1.00  0.00     0.000 C 
BRANCH   4   5
ATOM      5  C   UNL     1      25.856  -4.917   6.227  1.00  0.00     0.000 C 
BRANCH   5   6
ATOM      6  C   UNL     1      25.870  -6.421   6.523  1.00  0.00     0.006 C 
BRANCH   6   7
ATOM      7  C   UNL     1      24.503  -7.050   6.240  1.00  0.00     0.053 C 
BRANCH   7   8
ATOM      8  C   UNL     1      23.692  -7.130   7.494  1.00  0.00     0.041 C 
ATOM      9  O   UNL     1      22.997  -6.146   7.863  1.00  0.00    -0.550 OA
ATOM     10  O   UNL     1      23.662  -8.308   8.230  1.00  0.00    -0.550 OA
ENDBRANCH   7   8
ENDBRANCH   6   7
ENDBRANCH   5   6
ENDBRANCH   4   5
ENDBRANCH   3   4
ENDBRANCH   2   3
ENDBRANCH   1   2
BRANCH   1  11
ATOM     11  C   UNL     1      29.360  -3.310  10.239  1.00  0.00     0.000 C 
BRANCH  11  12
ATOM     12  C   UNL     1      28.548  -2.766  11.429  1.00  0.00     0.000 C 
BRANCH  12  13
ATOM     13  C   UNL     1      28.254  -1.254  11.336  1.00  0.00     0.000 C 
BRANCH  13  14
ATOM     14  C   UNL     1      26.767  -0.914  11.107  1.00  0.00     0.000 C 
BRANCH  14  15
ATOM     15  C   UNL     1      26.417  -0.583   9.642  1.00  0.00     0.000 C 
BRANCH  15  16
ATOM     16  C   UNL     1      25.138  -1.294   9.168  1.00  0.00     0.006 C 
BRANCH  16  17
ATOM     17  C   UNL     1      24.596  -2.273  10.218  1.00  0.00     0.053 C 
BRANCH  17  18
ATOM     18  C   UNL     1      23.142  -2.570  10.006  1.00  0.00     0.041 C 
ATOM     19  O   UNL     1      22.701  -3.736  10.186  1.00  0.00    -0.550 OA
ATOM     20  O   UNL     1      22.284  -1.567   9.575  1.00  0.00    -0.550 OA
ENDBRANCH  17  18
ENDBRANCH  16  17
ENDBRANCH  15  16
ENDBRANCH  14  15
ENDBRANCH  13  14
ENDBRANCH  12  13
ENDBRANCH  11  12
ENDBRANCH   1  11
TORSDOF 15
ENDMDL
MODEL 8
REMARK VINA RESULT:    -3.894      1.238      5.311
REMARK INTER + INTRA:          -8.918
REMARK INTER:                  -7.317
REMARK INTRA:                  -1.601
REMARK UNBOUND:                -1.609
REMARK SMILES O=C([O-])CCCCCCCCCCCCCCC(=O)[O-]
REMARK SMILES IDX 10 1 9 2 8 3 7 4 6 5 5 6 4 7 2 8 1 9 3 10 11 11 12 12 13 13
REMARK SMILES IDX 14 14 15 15 16 16 17 17 18 18 19 19 20 20
REMARK H PARENT
REMARK Flexibility Score: inf
ROOT
ATOM      1  C   UNL     1      24.521 -12.780   3.196  1.00  0.00     0.000 C 
ENDROOT
BRANCH   1   2
ATOM      2  C   UNL     1      25.204 -13.836   4.073  1.00  0.00     0.000 C 
BRANCH   2   3
ATOM      3  C   UNL     1      26.729 -13.692   4.024  1.00  0.00     0.000 C 
BRANCH   3   4
ATOM      4  C   UNL     1      27.154 -12.239   4.271  1.00  0.00     0.000 C 
BRANCH   4   5
ATOM      5  C   UNL     1      27.159 -11.913   5.768  1.00  0.00     0.000 C 
BRANCH   5   6
ATOM      6  C   UNL     1      26.075 -10.885   6.113  1.00  0.00     0.006 C 
BRANCH   6   7
ATOM      7  C   UNL     1      25.190 -11.383   7.259  1.00  0.00     0.053 C 
BRANCH   7   8
ATOM      8  C   UNL     1      24.550 -10.231   7.966  1.00  0.00     0.041 C 
ATOM      9  O   UNL     1      23.906 -10.420   9.031  1.00  0.00    -0.550 OA
ATOM     10  O   UNL     1      24.707  -8.940   7.477  1.00  0.00    -0.550 OA
ENDBRANCH   7   8
ENDBRANCH   6   7
ENDBRANCH   5   6
ENDBRANCH   4   5
ENDBRANCH   3   4
ENDBRANCH   2   3
ENDBRANCH   1   2
BRANCH   1  11
ATOM     11  C   UNL     1      24.275 -13.319   1.778  1.00  0.00     0.000 C 
BRANCH  11  12
ATOM     12  C   UNL     1      22.951 -12.809   1.181  1.00  0.00     0.000 C 
BRANCH  12  13
ATOM     13  C   UNL     1      21.791 -13.820   1.299  1.00  0.00     0.000 C 
BRANCH  13  14
ATOM     14  C   UNL     1      22.242 -15.267   1.583  1.00  0.00     0.000 C 
BRANCH  14  15
ATOM     15  C   UNL     1      21.567 -15.904   2.815  1.00  0.00     0.000 C 
BRANCH  15  16
ATOM     16  C   UNL     1      21.844 -15.118   4.109  1.00  0.00     0.006 C 
BRANCH  16  17
ATOM     17  C   UNL     1      21.371 -15.874   5.359  1.00  0.00     0.053 C 
BRANCH  17  18
ATOM     18  C   UNL     1      21.836 -15.213   6.620  1.00  0.00     0.041 C 
ATOM     19  O   UNL     1      22.477 -14.130   6.568  1.00  0.00    -0.550 OA
ATOM     20  O   UNL     1      21.592 -15.811   7.849  1.00  0.00    -0.550 OA
ENDBRANCH  17  18
ENDBRANCH  16  17
ENDBRANCH  15  16
ENDBRANCH  14  15
ENDBRANCH  13  14
ENDBRANCH  12  13
ENDBRANCH  11  12
ENDBRANCH   1  11
TORSDOF 15
ENDMDL
MODEL 9
REMARK VINA RESULT:    -3.882      6.992     11.497
REMARK INTER + INTRA:          -8.895
REMARK INTER:                  -6.952
REMARK INTRA:                  -1.943
REMARK UNBOUND:                -1.609
REMARK SMILES O=C([O-])CCCCCCCCCCCCCCC(=O)[O-]
REMARK SMILES IDX 10 1 9 2 8 3 7 4 6 5 5 6 4 7 2 8 1 9 3 10 11 11 12 12 13 13
REMARK SMILES IDX 14 14 15 15 16 16 17 17 18 18 19 19 20 20
REMARK H PARENT
REMARK Flexibility Score: inf
ROOT
ATOM      1  C   UNL     1      28.623  -3.893   9.194  1.00  0.00     0.000 C 
ENDROOT
BRANCH   1   2
ATOM      2  C   UNL     1      29.307  -3.072  10.293  1.00  0.00     0.000 C 
BRANCH   2   3
ATOM      3  C   UNL     1      28.277  -2.478  11.260  1.00  0.00     0.000 C 
BRANCH   3   4
ATOM      4  C   UNL     1      27.481  -1.349  10.593  1.00  0.00     0.000 C 
BRANCH   4   5
ATOM      5  C   UNL     1      25.982  -1.666  10.579  1.00  0.00     0.000 C 
BRANCH   5   6
ATOM      6  C   UNL     1      25.472  -1.855   9.145  1.00  0.00     0.006 C 
BRANCH   6   7
ATOM      7  C   UNL     1      24.550  -3.073   9.045  1.00  0.00     0.053 C 
BRANCH   7   8
ATOM      8  C   UNL     1      23.172  -2.727   9.511  1.00  0.00     0.041 C 
ATOM      9  O   UNL     1      22.462  -3.593  10.088  1.00  0.00    -0.550 OA
ATOM     10  O   UNL     1      22.688  -1.434   9.356  1.00  0.00    -0.550 OA
ENDBRANCH   7   8
ENDBRANCH   6   7
ENDBRANCH   5   6
ENDBRANCH   4   5
ENDBRANCH   3   4
ENDBRANCH   2   3
ENDBRANCH   1   2
BRANCH   1  11
ATOM     11  C   UNL     1      29.214  -3.563   7.814  1.00  0.00     0.000 C 
BRANCH  11  12
ATOM     12  C   UNL     1      28.210  -2.827   6.909  1.00  0.00     0.000 C 
BRANCH  12  13
ATOM     13  C   UNL     1      28.137  -3.397   5.477  1.00  0.00     0.000 C 
BRANCH  13  14
ATOM     14  C   UNL     1      27.456  -4.778   5.382  1.00  0.00     0.000 C 
BRANCH  14  15
ATOM     15  C   UNL     1      26.098  -4.859   6.107  1.00  0.00     0.000 C 
BRANCH  15  16
ATOM     16  C   UNL     1      25.915  -6.186   6.865  1.00  0.00     0.006 C 
BRANCH  16  17
ATOM     17  C   UNL     1      24.660  -6.945   6.412  1.00  0.00     0.053 C 
BRANCH  17  18
ATOM     18  C   UNL     1      23.674  -7.107   7.528  1.00  0.00     0.041 C 
ATOM     19  O   UNL     1      23.524  -8.228   8.083  1.00  0.00    -0.550 OA
ATOM     20  O   UNL     1      22.895  -6.029   7.931  1.00  0.00    -0.550 OA
ENDBRANCH  17  18
ENDBRANCH  16  17
ENDBRANCH  15  16
ENDBRANCH  14  15
ENDBRANCH  13  14
ENDBRANCH  12  13
ENDBRANCH  11  12
ENDBRANCH   1  11
TORSDOF 15
ENDMDL
