MODEL 1
REMARK VINA RESULT:    -5.936      0.000      0.000
REMARK INTER + INTRA:          -9.976
REMARK INTER:                  -8.365
REMARK INTRA:                  -1.611
REMARK UNBOUND:                -1.611
REMARK SMILES OCC1=C[C@@H](O)[C@@H]2C=CO[C@H](O[C@H]3O[C@H](CO)[C@H](O)[C@@H](O)[C@H]3O)[C@@H]12
REMARK SMILES IDX 12 1 11 2 8 3 9 4 7 5 10 6 24 7 5 8 3 9 4 10 6 11 2 13 1 14
REMARK SMILES IDX 13 16 22 17 14 18 20 19 15 20 18 21 23 22 21 24 16 26 17 27
REMARK SMILES IDX 19 29
REMARK H PARENT 6 12 1 15 23 23 21 25 17 28 19 30
REMARK Flexibility Score: inf
ROOT
ATOM      1  O   UNL     1      21.860 -19.664 -11.395  1.00  0.00    -0.310 OA
ENDROOT
BRANCH   1   2
ATOM      2  C   UNL     1      21.741 -18.613 -10.453  1.00  0.00     0.316 C 
ATOM      3  C   UNL     1      23.159 -16.512  -9.012  1.00  0.00     0.018 C 
ATOM      4  C   UNL     1      23.352 -17.799  -8.678  1.00  0.00     0.186 C 
ATOM      5  C   UNL     1      22.073 -16.226  -9.998  1.00  0.00     0.061 C 
ATOM      6  O   UNL     1      22.658 -18.835  -9.354  1.00  0.00    -0.472 OA
ATOM      7  C   UNL     1      22.120 -17.273 -11.104  1.00  0.00     0.096 C 
ATOM      8  C   UNL     1      22.058 -14.905 -10.763  1.00  0.00     0.145 C 
ATOM      9  C   UNL     1      21.275 -16.630 -12.160  1.00  0.00    -0.036 C 
ATOM     10  C   UNL     1      21.296 -15.302 -12.003  1.00  0.00     0.007 C 
BRANCH   8  11
ATOM     11  O   UNL     1      21.418 -13.875 -10.049  1.00  0.00    -0.388 OA
ATOM     12  H   UNL     1      22.056 -13.522  -9.375  1.00  0.00     0.211 HD
ENDBRANCH   8  11
BRANCH   9  13
ATOM     13  C   UNL     1      20.808 -17.296 -13.425  1.00  0.00     0.187 C 
BRANCH  13  14
ATOM     14  O   UNL     1      21.837 -18.070 -13.974  1.00  0.00    -0.392 OA
ATOM     15  H   UNL     1      22.232 -18.594 -13.227  1.00  0.00     0.211 HD
ENDBRANCH  13  14
ENDBRANCH   9  13
ENDBRANCH   1   2
BRANCH   1  16
ATOM     16  C   UNL     1      22.899 -20.561 -11.015  1.00  0.00     0.286 C 
ATOM     17  C   UNL     1      23.920 -20.720 -12.163  1.00  0.00     0.202 C 
ATOM     18  O   UNL     1      22.374 -21.818 -10.607  1.00  0.00    -0.341 OA
ATOM     19  C   UNL     1      23.319 -21.512 -13.340  1.00  0.00     0.179 C 
ATOM     20  C   UNL     1      21.703 -22.482 -11.668  1.00  0.00     0.178 C 
ATOM     21  C   UNL     1      22.681 -22.812 -12.819  1.00  0.00     0.177 C 
BRANCH  17  22
ATOM     22  O   UNL     1      24.364 -19.463 -12.607  1.00  0.00    -0.385 OA
ATOM     23  H   UNL     1      25.265 -19.322 -12.214  1.00  0.00     0.211 HD
ENDBRANCH  17  22
BRANCH  19  24
ATOM     24  O   UNL     1      22.341 -20.748 -14.004  1.00  0.00    -0.387 OA
ATOM     25  H   UNL     1      22.813 -20.006 -14.465  1.00  0.00     0.211 HD
ENDBRANCH  19  24
BRANCH  20  26
ATOM     26  C   UNL     1      21.035 -23.746 -11.104  1.00  0.00     0.191 C 
BRANCH  26  27
ATOM     27  O   UNL     1      21.823 -24.320 -10.096  1.00  0.00    -0.394 OA
ATOM     28  H   UNL     1      21.596 -23.853  -9.249  1.00  0.00     0.210 HD
ENDBRANCH  26  27
ENDBRANCH  20  26
BRANCH  21  29
ATOM     29  O   UNL     1      23.679 -23.689 -12.360  1.00  0.00    -0.387 OA
ATOM     30  H   UNL     1      23.769 -24.406 -13.043  1.00  0.00     0.211 HD
ENDBRANCH  21  29
ENDBRANCH   1  16
TORSDOF 10
ENDMDL
MODEL 2
REMARK VINA RESULT:    -5.756      1.569      2.578
REMARK INTER + INTRA:          -9.722
REMARK INTER:                  -8.182
REMARK INTRA:                  -1.540
REMARK UNBOUND:                -1.611
REMARK SMILES OCC1=C[C@@H](O)[C@@H]2C=CO[C@H](O[C@H]3O[C@H](CO)[C@H](O)[C@@H](O)[C@H]3O)[C@@H]12
REMARK SMILES IDX 12 1 11 2 8 3 9 4 7 5 10 6 24 7 5 8 3 9 4 10 6 11 2 13 1 14
REMARK SMILES IDX 13 16 22 17 14 18 20 19 15 20 18 21 23 22 21 24 16 26 17 27
REMARK SMILES IDX 19 29
REMARK H PARENT 6 12 1 15 23 23 21 25 17 28 19 30
REMARK Flexibility Score: inf
ROOT
ATOM      1  O   UNL     1      22.236 -19.653 -11.815  1.00  0.00    -0.310 OA
ENDROOT
BRANCH   1   2
ATOM      2  C   UNL     1      22.026 -18.836 -10.678  1.00  0.00     0.316 C 
ATOM      3  C   UNL     1      23.285 -17.066  -8.732  1.00  0.00     0.018 C 
ATOM      4  C   UNL     1      23.506 -18.390  -8.672  1.00  0.00     0.186 C 
ATOM      5  C   UNL     1      22.245 -16.597  -9.698  1.00  0.00     0.061 C 
ATOM      6  O   UNL     1      22.888 -19.270  -9.597  1.00  0.00    -0.472 OA
ATOM      7  C   UNL     1      22.392 -17.377 -10.999  1.00  0.00     0.096 C 
ATOM      8  C   UNL     1      22.225 -15.143 -10.160  1.00  0.00     0.145 C 
ATOM      9  C   UNL     1      21.585 -16.541 -11.942  1.00  0.00    -0.036 C 
ATOM     10  C   UNL     1      21.548 -15.278 -11.501  1.00  0.00     0.007 C 
BRANCH   8  11
ATOM     11  O   UNL     1      21.509 -14.308  -9.282  1.00  0.00    -0.388 OA
ATOM     12  H   UNL     1      22.161 -13.841  -8.696  1.00  0.00     0.211 HD
ENDBRANCH   8  11
BRANCH   9  13
ATOM     13  C   UNL     1      21.213 -16.926 -13.348  1.00  0.00     0.187 C 
BRANCH  13  14
ATOM     14  O   UNL     1      20.031 -17.676 -13.348  1.00  0.00    -0.392 OA
ATOM     15  H   UNL     1      19.406 -17.228 -12.717  1.00  0.00     0.211 HD
ENDBRANCH  13  14
ENDBRANCH   9  13
ENDBRANCH   1   2
BRANCH   1  16
ATOM     16  C   UNL     1      21.193 -20.614 -11.940  1.00  0.00     0.286 C 
ATOM     17  C   UNL     1      21.737 -22.038 -11.688  1.00  0.00     0.202 C 
ATOM     18  O   UNL     1      20.550 -20.518 -13.206  1.00  0.00    -0.341 OA
ATOM     19  C   UNL     1      22.647 -22.499 -12.842  1.00  0.00     0.179 C 
ATOM     20  C   UNL     1      21.437 -20.817 -14.274  1.00  0.00     0.178 C 
ATOM     21  C   UNL     1      21.934 -22.278 -14.187  1.00  0.00     0.177 C 
BRANCH  17  22
ATOM     22  O   UNL     1      22.439 -22.090 -10.472  1.00  0.00    -0.385 OA
ATOM     23  H   UNL     1      21.772 -22.291  -9.764  1.00  0.00     0.211 HD
ENDBRANCH  17  22
BRANCH  19  24
ATOM     24  O   UNL     1      23.859 -21.783 -12.836  1.00  0.00    -0.387 OA
ATOM     25  H   UNL     1      24.052 -21.528 -13.776  1.00  0.00     0.211 HD
ENDBRANCH  19  24
BRANCH  20  26
ATOM     26  C   UNL     1      20.711 -20.536 -15.599  1.00  0.00     0.191 C 
BRANCH  26  27
ATOM     27  O   UNL     1      19.479 -19.906 -15.371  1.00  0.00    -0.394 OA
ATOM     28  H   UNL     1      19.220 -19.459 -16.219  1.00  0.00     0.210 HD
ENDBRANCH  26  27
ENDBRANCH  20  26
BRANCH  21  29
ATOM     29  O   UNL     1      20.845 -23.160 -14.307  1.00  0.00    -0.387 OA
ATOM     30  H   UNL     1      20.101 -22.645 -14.720  1.00  0.00     0.211 HD
ENDBRANCH  21  29
ENDBRANCH   1  16
TORSDOF 10
ENDMDL
MODEL 3
REMARK VINA RESULT:    -5.695      1.894      6.419
REMARK INTER + INTRA:          -9.636
REMARK INTER:                  -8.181
REMARK INTRA:                  -1.456
REMARK UNBOUND:                -1.611
REMARK SMILES OCC1=C[C@@H](O)[C@@H]2C=CO[C@H](O[C@H]3O[C@H](CO)[C@H](O)[C@@H](O)[C@H]3O)[C@@H]12
REMARK SMILES IDX 12 1 11 2 8 3 9 4 7 5 10 6 24 7 5 8 3 9 4 10 6 11 2 13 1 14
REMARK SMILES IDX 13 16 22 17 14 18 20 19 15 20 18 21 23 22 21 24 16 26 17 27
REMARK SMILES IDX 19 29
REMARK H PARENT 6 12 1 15 23 23 21 25 17 28 19 30
REMARK Flexibility Score: inf
ROOT
ATOM      1  O   UNL     1      22.373 -18.739 -12.616  1.00  0.00    -0.310 OA
ENDROOT
BRANCH   1   2
ATOM      2  C   UNL     1      21.835 -19.752 -13.447  1.00  0.00     0.316 C 
ATOM      3  C   UNL     1      21.990 -21.047 -16.055  1.00  0.00     0.018 C 
ATOM      4  C   UNL     1      21.476 -19.811 -15.953  1.00  0.00     0.186 C 
ATOM      5  C   UNL     1      22.288 -21.763 -14.777  1.00  0.00     0.061 C 
ATOM      6  O   UNL     1      21.373 -19.170 -14.691  1.00  0.00    -0.472 OA
ATOM      7  C   UNL     1      22.922 -20.782 -13.797  1.00  0.00     0.096 C 
ATOM      8  C   UNL     1      23.254 -22.945 -14.765  1.00  0.00     0.145 C 
ATOM      9  C   UNL     1      23.500 -21.711 -12.776  1.00  0.00    -0.036 C 
ATOM     10  C   UNL     1      23.742 -22.900 -13.339  1.00  0.00     0.007 C 
BRANCH   8  11
ATOM     11  O   UNL     1      22.619 -24.163 -15.074  1.00  0.00    -0.388 OA
ATOM     12  H   UNL     1      22.289 -24.111 -16.010  1.00  0.00     0.211 HD
ENDBRANCH   8  11
BRANCH   9  13
ATOM     13  C   UNL     1      24.092 -21.296 -11.457  1.00  0.00     0.187 C 
BRANCH  13  14
ATOM     14  O   UNL     1      23.154 -21.462 -10.431  1.00  0.00    -0.392 OA
ATOM     15  H   UNL     1      22.458 -20.764 -10.562  1.00  0.00     0.211 HD
ENDBRANCH  13  14
ENDBRANCH   9  13
ENDBRANCH   1   2
BRANCH   1  16
ATOM     16  C   UNL     1      21.414 -18.324 -11.649  1.00  0.00     0.286 C 
ATOM     17  C   UNL     1      21.095 -16.822 -11.814  1.00  0.00     0.202 C 
ATOM     18  O   UNL     1      21.850 -18.622 -10.328  1.00  0.00    -0.341 OA
ATOM     19  C   UNL     1      22.287 -15.948 -11.382  1.00  0.00     0.179 C 
ATOM     20  C   UNL     1      23.029 -17.909  -9.986  1.00  0.00     0.178 C 
ATOM     21  C   UNL     1      22.773 -16.384  -9.989  1.00  0.00     0.177 C 
BRANCH  17  22
ATOM     22  O   UNL     1      20.747 -16.536 -13.145  1.00  0.00    -0.385 OA
ATOM     23  H   UNL     1      21.231 -15.706 -13.396  1.00  0.00     0.211 HD
ENDBRANCH  17  22
BRANCH  19  24
ATOM     24  O   UNL     1      23.347 -16.063 -12.301  1.00  0.00    -0.387 OA
ATOM     25  H   UNL     1      23.011 -15.735 -13.176  1.00  0.00     0.211 HD
ENDBRANCH  19  24
BRANCH  20  26
ATOM     26  C   UNL     1      23.516 -18.405  -8.615  1.00  0.00     0.191 C 
BRANCH  26  27
ATOM     27  O   UNL     1      24.169 -17.380  -7.915  1.00  0.00    -0.394 OA
ATOM     28  H   UNL     1      24.698 -17.813  -7.194  1.00  0.00     0.210 HD
ENDBRANCH  26  27
ENDBRANCH  20  26
BRANCH  21  29
ATOM     29  O   UNL     1      21.809 -16.061  -9.018  1.00  0.00    -0.387 OA
ATOM     30  H   UNL     1      22.280 -15.559  -8.300  1.00  0.00     0.211 HD
ENDBRANCH  21  29
ENDBRANCH   1  16
TORSDOF 10
ENDMDL
MODEL 4
REMARK VINA RESULT:    -5.681      1.760      3.637
REMARK INTER + INTRA:          -9.617
REMARK INTER:                  -8.249
REMARK INTRA:                  -1.368
REMARK UNBOUND:                -1.611
REMARK SMILES OCC1=C[C@@H](O)[C@@H]2C=CO[C@H](O[C@H]3O[C@H](CO)[C@H](O)[C@@H](O)[C@H]3O)[C@@H]12
REMARK SMILES IDX 12 1 11 2 8 3 9 4 7 5 10 6 24 7 5 8 3 9 4 10 6 11 2 13 1 14
REMARK SMILES IDX 13 16 22 17 14 18 20 19 15 20 18 21 23 22 21 24 16 26 17 27
REMARK SMILES IDX 19 29
REMARK H PARENT 6 12 1 15 23 23 21 25 17 28 19 30
REMARK Flexibility Score: inf
ROOT
ATOM      1  O   UNL     1      22.967 -20.859 -11.933  1.00  0.00    -0.310 OA
ENDROOT
BRANCH   1   2
ATOM      2  C   UNL     1      22.875 -19.456 -12.102  1.00  0.00     0.316 C 
ATOM      3  C   UNL     1      21.382 -17.050 -11.407  1.00  0.00     0.018 C 
ATOM      4  C   UNL     1      20.851 -17.943 -12.258  1.00  0.00     0.186 C 
ATOM      5  C   UNL     1      22.806 -17.262 -11.006  1.00  0.00     0.061 C 
ATOM      6  O   UNL     1      21.568 -19.111 -12.624  1.00  0.00    -0.472 OA
ATOM      7  C   UNL     1      23.030 -18.748 -10.747  1.00  0.00     0.096 C 
ATOM      8  C   UNL     1      23.358 -16.598  -9.747  1.00  0.00     0.145 C 
ATOM      9  C   UNL     1      24.327 -18.728  -9.999  1.00  0.00    -0.036 C 
ATOM     10  C   UNL     1      24.475 -17.546  -9.391  1.00  0.00     0.007 C 
BRANCH   8  11
ATOM     11  O   UNL     1      23.822 -15.292  -9.987  1.00  0.00    -0.388 OA
ATOM     12  H   UNL     1      23.567 -15.037 -10.913  1.00  0.00     0.211 HD
ENDBRANCH   8  11
BRANCH   9  13
ATOM     13  C   UNL     1      25.144 -19.940  -9.641  1.00  0.00     0.187 C 
BRANCH  13  14
ATOM     14  O   UNL     1      24.308 -21.044  -9.437  1.00  0.00    -0.392 OA
ATOM     15  H   UNL     1      24.433 -21.648 -10.217  1.00  0.00     0.211 HD
ENDBRANCH  13  14
ENDBRANCH   9  13
ENDBRANCH   1   2
BRANCH   1  16
ATOM     16  C   UNL     1      22.265 -21.535 -12.972  1.00  0.00     0.286 C 
ATOM     17  C   UNL     1      21.073 -22.327 -12.390  1.00  0.00     0.202 C 
ATOM     18  O   UNL     1      23.134 -22.376 -13.720  1.00  0.00    -0.341 OA
ATOM     19  C   UNL     1      21.555 -23.543 -11.575  1.00  0.00     0.179 C 
ATOM     20  C   UNL     1      23.679 -23.418 -12.924  1.00  0.00     0.178 C 
ATOM     21  C   UNL     1      22.565 -24.356 -12.404  1.00  0.00     0.177 C 
BRANCH  17  22
ATOM     22  O   UNL     1      20.274 -21.497 -11.587  1.00  0.00    -0.385 OA
ATOM     23  H   UNL     1      19.441 -21.318 -12.098  1.00  0.00     0.211 HD
ENDBRANCH  17  22
BRANCH  19  24
ATOM     24  O   UNL     1      22.164 -23.127 -10.377  1.00  0.00    -0.387 OA
ATOM     25  H   UNL     1      21.486 -23.219  -9.658  1.00  0.00     0.211 HD
ENDBRANCH  19  24
BRANCH  20  26
ATOM     26  C   UNL     1      24.720 -24.176 -13.764  1.00  0.00     0.191 C 
BRANCH  26  27
ATOM     27  O   UNL     1      24.919 -25.471 -13.264  1.00  0.00    -0.394 OA
ATOM     28  H   UNL     1      24.109 -25.708 -12.740  1.00  0.00     0.210 HD
ENDBRANCH  26  27
ENDBRANCH  20  26
BRANCH  21  29
ATOM     29  O   UNL     1      21.916 -24.972 -13.487  1.00  0.00    -0.387 OA
ATOM     30  H   UNL     1      21.380 -24.268 -13.941  1.00  0.00     0.211 HD
ENDBRANCH  21  29
ENDBRANCH   1  16
TORSDOF 10
ENDMDL
MODEL 5
REMARK VINA RESULT:    -5.630      1.841      6.010
REMARK INTER + INTRA:          -9.546
REMARK INTER:                  -8.153
REMARK INTRA:                  -1.392
REMARK UNBOUND:                -1.611
REMARK SMILES OCC1=C[C@@H](O)[C@@H]2C=CO[C@H](O[C@H]3O[C@H](CO)[C@H](O)[C@@H](O)[C@H]3O)[C@@H]12
REMARK SMILES IDX 12 1 11 2 8 3 9 4 7 5 10 6 24 7 5 8 3 9 4 10 6 11 2 13 1 14
REMARK SMILES IDX 13 16 22 17 14 18 20 19 15 20 18 21 23 22 21 24 16 26 17 27
REMARK SMILES IDX 19 29
REMARK H PARENT 6 12 1 15 23 23 21 25 17 28 19 30
REMARK Flexibility Score: inf
ROOT
ATOM      1  O   UNL     1      22.246 -19.044 -10.848  1.00  0.00    -0.310 OA
ENDROOT
BRANCH   1   2
ATOM      2  C   UNL     1      22.343 -20.269 -11.551  1.00  0.00     0.316 C 
ATOM      3  C   UNL     1      21.088 -22.854 -12.051  1.00  0.00     0.018 C 
ATOM      4  C   UNL     1      21.685 -22.618 -10.871  1.00  0.00     0.186 C 
ATOM      5  C   UNL     1      21.267 -21.822 -13.117  1.00  0.00     0.061 C 
ATOM      6  O   UNL     1      22.318 -21.375 -10.614  1.00  0.00    -0.472 OA
ATOM      7  C   UNL     1      21.138 -20.438 -12.492  1.00  0.00     0.096 C 
ATOM      8  C   UNL     1      20.305 -21.764 -14.301  1.00  0.00     0.145 C 
ATOM      9  C   UNL     1      20.945 -19.580 -13.703  1.00  0.00    -0.036 C 
ATOM     10  C   UNL     1      20.420 -20.312 -14.691  1.00  0.00     0.007 C 
BRANCH   8  11
ATOM     11  O   UNL     1      20.683 -22.630 -15.344  1.00  0.00    -0.388 OA
ATOM     12  H   UNL     1      20.486 -23.562 -15.061  1.00  0.00     0.211 HD
ENDBRANCH   8  11
BRANCH   9  13
ATOM     13  C   UNL     1      20.948 -18.075 -13.714  1.00  0.00     0.187 C 
BRANCH  13  14
ATOM     14  O   UNL     1      20.304 -17.582 -12.573  1.00  0.00    -0.392 OA
ATOM     15  H   UNL     1      19.759 -18.328 -12.205  1.00  0.00     0.211 HD
ENDBRANCH  13  14
ENDBRANCH   9  13
ENDBRANCH   1   2
BRANCH   1  16
ATOM     16  C   UNL     1      23.432 -18.275 -11.016  1.00  0.00     0.286 C 
ATOM     17  C   UNL     1      24.311 -18.354  -9.748  1.00  0.00     0.202 C 
ATOM     18  O   UNL     1      23.131 -16.927 -11.358  1.00  0.00    -0.341 OA
ATOM     19  C   UNL     1      23.671 -17.583  -8.577  1.00  0.00     0.179 C 
ATOM     20  C   UNL     1      22.422 -16.264 -10.322  1.00  0.00     0.178 C 
ATOM     21  C   UNL     1      23.280 -16.169  -9.039  1.00  0.00     0.177 C 
BRANCH  17  22
ATOM     22  O   UNL     1      24.527 -19.693  -9.381  1.00  0.00    -0.385 OA
ATOM     23  H   UNL     1      24.566 -20.219 -10.222  1.00  0.00     0.211 HD
ENDBRANCH  17  22
BRANCH  19  24
ATOM     24  O   UNL     1      22.526 -18.253  -8.108  1.00  0.00    -0.387 OA
ATOM     25  H   UNL     1      22.075 -17.644  -7.466  1.00  0.00     0.211 HD
ENDBRANCH  19  24
BRANCH  20  26
ATOM     26  C   UNL     1      22.001 -14.877 -10.834  1.00  0.00     0.191 C 
BRANCH  26  27
ATOM     27  O   UNL     1      21.839 -13.979  -9.769  1.00  0.00    -0.394 OA
ATOM     28  H   UNL     1      22.624 -13.371  -9.780  1.00  0.00     0.210 HD
ENDBRANCH  26  27
ENDBRANCH  20  26
BRANCH  21  29
ATOM     29  O   UNL     1      24.433 -15.406  -9.292  1.00  0.00    -0.387 OA
ATOM     30  H   UNL     1      24.575 -14.825  -8.498  1.00  0.00     0.211 HD
ENDBRANCH  21  29
ENDBRANCH   1  16
TORSDOF 10
ENDMDL
MODEL 6
REMARK VINA RESULT:    -5.548      1.965      3.779
REMARK INTER + INTRA:          -9.430
REMARK INTER:                  -8.689
REMARK INTRA:                  -0.741
REMARK UNBOUND:                -1.611
REMARK SMILES OCC1=C[C@@H](O)[C@@H]2C=CO[C@H](O[C@H]3O[C@H](CO)[C@H](O)[C@@H](O)[C@H]3O)[C@@H]12
REMARK SMILES IDX 12 1 11 2 8 3 9 4 7 5 10 6 24 7 5 8 3 9 4 10 6 11 2 13 1 14
REMARK SMILES IDX 13 16 22 17 14 18 20 19 15 20 18 21 23 22 21 24 16 26 17 27
REMARK SMILES IDX 19 29
REMARK H PARENT 6 12 1 15 23 23 21 25 17 28 19 30
REMARK Flexibility Score: inf
ROOT
ATOM      1  O   UNL     1      23.089 -19.717 -12.523  1.00  0.00    -0.310 OA
ENDROOT
BRANCH   1   2
ATOM      2  C   UNL     1      23.129 -18.336 -12.214  1.00  0.00     0.316 C 
ATOM      3  C   UNL     1      21.785 -16.150 -10.828  1.00  0.00     0.018 C 
ATOM      4  C   UNL     1      21.257 -16.650 -11.958  1.00  0.00     0.186 C 
ATOM      5  C   UNL     1      23.146 -16.635 -10.446  1.00  0.00     0.061 C 
ATOM      6  O   UNL     1      21.905 -17.700 -12.658  1.00  0.00    -0.472 OA
ATOM      7  C   UNL     1      23.223 -18.137 -10.692  1.00  0.00     0.096 C 
ATOM      8  C   UNL     1      23.640 -16.487  -9.010  1.00  0.00     0.145 C 
ATOM      9  C   UNL     1      24.448 -18.505  -9.913  1.00  0.00    -0.036 C 
ATOM     10  C   UNL     1      24.639 -17.614  -8.934  1.00  0.00     0.007 C 
BRANCH   8  11
ATOM     11  O   UNL     1      24.230 -15.232  -8.769  1.00  0.00    -0.388 OA
ATOM     12  H   UNL     1      23.590 -14.685  -8.241  1.00  0.00     0.211 HD
ENDBRANCH   8  11
BRANCH   9  13
ATOM     13  C   UNL     1      25.127 -19.847  -9.941  1.00  0.00     0.187 C 
BRANCH  13  14
ATOM     14  O   UNL     1      24.853 -20.553  -8.764  1.00  0.00    -0.392 OA
ATOM     15  H   UNL     1      25.713 -20.637  -8.272  1.00  0.00     0.211 HD
ENDBRANCH  13  14
ENDBRANCH   9  13
ENDBRANCH   1   2
BRANCH   1  16
ATOM     16  C   UNL     1      21.781 -20.240 -12.315  1.00  0.00     0.286 C 
ATOM     17  C   UNL     1      21.857 -21.681 -11.765  1.00  0.00     0.202 C 
ATOM     18  O   UNL     1      21.003 -20.176 -13.504  1.00  0.00    -0.341 OA
ATOM     19  C   UNL     1      22.355 -22.664 -12.842  1.00  0.00     0.179 C 
ATOM     20  C   UNL     1      21.547 -20.985 -14.537  1.00  0.00     0.178 C 
ATOM     21  C   UNL     1      21.538 -22.477 -14.133  1.00  0.00     0.177 C 
BRANCH  17  22
ATOM     22  O   UNL     1      22.696 -21.736 -10.639  1.00  0.00    -0.385 OA
ATOM     23  H   UNL     1      23.387 -22.424 -10.830  1.00  0.00     0.211 HD
ENDBRANCH  17  22
BRANCH  19  24
ATOM     24  O   UNL     1      23.718 -22.450 -13.119  1.00  0.00    -0.387 OA
ATOM     25  H   UNL     1      24.235 -23.028 -12.500  1.00  0.00     0.211 HD
ENDBRANCH  19  24
BRANCH  20  26
ATOM     26  C   UNL     1      20.743 -20.735 -15.822  1.00  0.00     0.191 C 
BRANCH  26  27
ATOM     27  O   UNL     1      19.451 -20.276 -15.523  1.00  0.00    -0.394 OA
ATOM     28  H   UNL     1      18.843 -20.653 -16.212  1.00  0.00     0.210 HD
ENDBRANCH  26  27
ENDBRANCH  20  26
BRANCH  21  29
ATOM     29  O   UNL     1      20.216 -22.910 -13.935  1.00  0.00    -0.387 OA
ATOM     30  H   UNL     1      19.639 -22.100 -13.967  1.00  0.00     0.211 HD
ENDBRANCH  21  29
ENDBRANCH   1  16
TORSDOF 10
ENDMDL
MODEL 7
REMARK VINA RESULT:    -5.437      1.925      5.962
REMARK INTER + INTRA:          -9.273
REMARK INTER:                  -7.795
REMARK INTRA:                  -1.478
REMARK UNBOUND:                -1.611
REMARK SMILES OCC1=C[C@@H](O)[C@@H]2C=CO[C@H](O[C@H]3O[C@H](CO)[C@H](O)[C@@H](O)[C@H]3O)[C@@H]12
REMARK SMILES IDX 12 1 11 2 8 3 9 4 7 5 10 6 24 7 5 8 3 9 4 10 6 11 2 13 1 14
REMARK SMILES IDX 13 16 22 17 14 18 20 19 15 20 18 21 23 22 21 24 16 26 17 27
REMARK SMILES IDX 19 29
REMARK H PARENT 6 12 1 15 23 23 21 25 17 28 19 30
REMARK Flexibility Score: inf
ROOT
ATOM      1  O   UNL     1      22.846 -18.701 -12.146  1.00  0.00    -0.310 OA
ENDROOT
BRANCH   1   2
ATOM      2  C   UNL     1      22.642 -20.069 -12.449  1.00  0.00     0.316 C 
ATOM      3  C   UNL     1      20.675 -22.100 -13.163  1.00  0.00     0.018 C 
ATOM      4  C   UNL     1      20.702 -21.606 -11.915  1.00  0.00     0.186 C 
ATOM      5  C   UNL     1      21.793 -21.702 -14.072  1.00  0.00     0.061 C 
ATOM      6  O   UNL     1      21.662 -20.631 -11.541  1.00  0.00    -0.472 OA
ATOM      7  C   UNL     1      22.086 -20.219 -13.875  1.00  0.00     0.096 C 
ATOM      8  C   UNL     1      21.638 -21.832 -15.585  1.00  0.00     0.145 C 
ATOM      9  C   UNL     1      22.907 -19.913 -15.089  1.00  0.00    -0.036 C 
ATOM     10  C   UNL     1      22.606 -20.779 -16.063  1.00  0.00     0.007 C 
BRANCH   8  11
ATOM     11  O   UNL     1      21.973 -23.117 -16.052  1.00  0.00    -0.388 OA
ATOM     12  H   UNL     1      21.280 -23.754 -15.733  1.00  0.00     0.211 HD
ENDBRANCH   8  11
BRANCH   9  13
ATOM     13  C   UNL     1      23.644 -18.626 -15.339  1.00  0.00     0.187 C 
BRANCH  13  14
ATOM     14  O   UNL     1      22.885 -17.538 -14.891  1.00  0.00    -0.392 OA
ATOM     15  H   UNL     1      23.369 -17.151 -14.112  1.00  0.00     0.211 HD
ENDBRANCH  13  14
ENDBRANCH   9  13
ENDBRANCH   1   2
BRANCH   1  16
ATOM     16  C   UNL     1      21.875 -18.246 -11.209  1.00  0.00     0.286 C 
ATOM     17  C   UNL     1      21.216 -16.941 -11.705  1.00  0.00     0.202 C 
ATOM     18  O   UNL     1      22.442 -18.084  -9.914  1.00  0.00    -0.341 OA
ATOM     19  C   UNL     1      22.202 -15.759 -11.643  1.00  0.00     0.179 C 
ATOM     20  C   UNL     1      23.447 -17.082  -9.898  1.00  0.00     0.178 C 
ATOM     21  C   UNL     1      22.853 -15.699 -10.250  1.00  0.00     0.177 C 
BRANCH  17  22
ATOM     22  O   UNL     1      20.736 -17.098 -13.016  1.00  0.00    -0.385 OA
ATOM     23  H   UNL     1      20.933 -16.251 -13.497  1.00  0.00     0.211 HD
ENDBRANCH  17  22
BRANCH  19  24
ATOM     24  O   UNL     1      23.206 -15.898 -12.620  1.00  0.00    -0.387 OA
ATOM     25  H   UNL     1      23.121 -16.812 -12.997  1.00  0.00     0.211 HD
ENDBRANCH  19  24
BRANCH  20  26
ATOM     26  C   UNL     1      24.111 -17.084  -8.512  1.00  0.00     0.191 C 
BRANCH  26  27
ATOM     27  O   UNL     1      23.902 -18.307  -7.859  1.00  0.00    -0.394 OA
ATOM     28  H   UNL     1      24.166 -18.179  -6.910  1.00  0.00     0.210 HD
ENDBRANCH  26  27
ENDBRANCH  20  26
BRANCH  21  29
ATOM     29  O   UNL     1      21.899 -15.330  -9.286  1.00  0.00    -0.387 OA
ATOM     30  H   UNL     1      22.375 -15.277  -8.415  1.00  0.00     0.211 HD
ENDBRANCH  21  29
ENDBRANCH   1  16
TORSDOF 10
ENDMDL
MODEL 8
REMARK VINA RESULT:    -5.429      1.775      3.267
REMARK INTER + INTRA:          -9.262
REMARK INTER:                  -7.930
REMARK INTRA:                  -1.333
REMARK UNBOUND:                -1.611
REMARK SMILES OCC1=C[C@@H](O)[C@@H]2C=CO[C@H](O[C@H]3O[C@H](CO)[C@H](O)[C@@H](O)[C@H]3O)[C@@H]12
REMARK SMILES IDX 12 1 11 2 8 3 9 4 7 5 10 6 24 7 5 8 3 9 4 10 6 11 2 13 1 14
REMARK SMILES IDX 13 16 22 17 14 18 20 19 15 20 18 21 23 22 21 24 16 26 17 27
REMARK SMILES IDX 19 29
REMARK H PARENT 6 12 1 15 23 23 21 25 17 28 19 30
REMARK Flexibility Score: inf
ROOT
ATOM      1  O   UNL     1      22.404 -18.675 -12.772  1.00  0.00    -0.310 OA
ENDROOT
BRANCH   1   2
ATOM      2  C   UNL     1      22.801 -17.377 -12.369  1.00  0.00     0.316 C 
ATOM      3  C   UNL     1      22.004 -14.957 -10.951  1.00  0.00     0.018 C 
ATOM      4  C   UNL     1      21.465 -15.237 -12.149  1.00  0.00     0.186 C 
ATOM      5  C   UNL     1      23.132 -15.826 -10.497  1.00  0.00     0.061 C 
ATOM      6  O   UNL     1      21.853 -16.399 -12.864  1.00  0.00    -0.472 OA
ATOM      7  C   UNL     1      22.806 -17.276 -10.835  1.00  0.00     0.096 C 
ATOM      8  C   UNL     1      23.511 -15.885  -9.020  1.00  0.00     0.145 C 
ATOM      9  C   UNL     1      23.799 -18.011  -9.989  1.00  0.00    -0.036 C 
ATOM     10  C   UNL     1      24.141 -17.253  -8.942  1.00  0.00     0.007 C 
BRANCH   8  11
ATOM     11  O   UNL     1      24.405 -14.863  -8.651  1.00  0.00    -0.388 OA
ATOM     12  H   UNL     1      25.221 -15.286  -8.272  1.00  0.00     0.211 HD
ENDBRANCH   8  11
BRANCH   9  13
ATOM     13  C   UNL     1      24.073 -19.489 -10.054  1.00  0.00     0.187 C 
BRANCH  13  14
ATOM     14  O   UNL     1      22.878 -20.195 -10.236  1.00  0.00    -0.392 OA
ATOM     15  H   UNL     1      23.069 -20.918 -10.892  1.00  0.00     0.211 HD
ENDBRANCH  13  14
ENDBRANCH   9  13
ENDBRANCH   1   2
BRANCH   1  16
ATOM     16  C   UNL     1      23.420 -19.289 -13.558  1.00  0.00     0.286 C 
ATOM     17  C   UNL     1      23.136 -19.086 -15.062  1.00  0.00     0.202 C 
ATOM     18  O   UNL     1      23.562 -20.667 -13.236  1.00  0.00    -0.341 OA
ATOM     19  C   UNL     1      21.923 -19.920 -15.518  1.00  0.00     0.179 C 
ATOM     20  C   UNL     1      22.387 -21.405 -13.537  1.00  0.00     0.178 C 
ATOM     21  C   UNL     1      22.091 -21.377 -15.055  1.00  0.00     0.177 C 
BRANCH  17  22
ATOM     22  O   UNL     1      22.917 -17.727 -15.344  1.00  0.00    -0.385 OA
ATOM     23  H   UNL     1      23.209 -17.578 -16.282  1.00  0.00     0.211 HD
ENDBRANCH  17  22
BRANCH  19  24
ATOM     24  O   UNL     1      20.731 -19.396 -14.984  1.00  0.00    -0.387 OA
ATOM     25  H   UNL     1      19.987 -19.956 -15.328  1.00  0.00     0.211 HD
ENDBRANCH  19  24
BRANCH  20  26
ATOM     26  C   UNL     1      22.567 -22.839 -13.015  1.00  0.00     0.191 C 
BRANCH  26  27
ATOM     27  O   UNL     1      23.100 -22.835 -11.717  1.00  0.00    -0.394 OA
ATOM     28  H   UNL     1      23.371 -21.901 -11.518  1.00  0.00     0.210 HD
ENDBRANCH  26  27
ENDBRANCH  20  26
BRANCH  21  29
ATOM     29  O   UNL     1      23.144 -21.989 -15.757  1.00  0.00    -0.387 OA
ATOM     30  H   UNL     1      23.990 -21.629 -15.379  1.00  0.00     0.211 HD
ENDBRANCH  21  29
ENDBRANCH   1  16
TORSDOF 10
ENDMDL
MODEL 9
REMARK VINA RESULT:    -5.251      1.701      2.224
REMARK INTER + INTRA:          -9.011
REMARK INTER:                  -7.351
REMARK INTRA:                  -1.660
REMARK UNBOUND:                -1.611
REMARK SMILES OCC1=C[C@@H](O)[C@@H]2C=CO[C@H](O[C@H]3O[C@H](CO)[C@H](O)[C@@H](O)[C@H]3O)[C@@H]12
REMARK SMILES IDX 12 1 11 2 8 3 9 4 7 5 10 6 24 7 5 8 3 9 4 10 6 11 2 13 1 14
REMARK SMILES IDX 13 16 22 17 14 18 20 19 15 20 18 21 23 22 21 24 16 26 17 27
REMARK SMILES IDX 19 29
REMARK H PARENT 6 12 1 15 23 23 21 25 17 28 19 30
REMARK Flexibility Score: inf
ROOT
ATOM      1  O   UNL     1      21.708 -21.224 -12.050  1.00  0.00    -0.310 OA
ENDROOT
BRANCH   1   2
ATOM      2  C   UNL     1      22.100 -20.519 -10.886  1.00  0.00     0.316 C 
ATOM      3  C   UNL     1      24.198 -18.919  -9.645  1.00  0.00     0.018 C 
ATOM      4  C   UNL     1      24.378 -20.239  -9.818  1.00  0.00     0.186 C 
ATOM      5  C   UNL     1      22.837 -18.378  -9.941  1.00  0.00     0.061 C 
ATOM      6  O   UNL     1      23.363 -21.039 -10.402  1.00  0.00    -0.472 OA
ATOM      7  C   UNL     1      22.311 -19.031 -11.214  1.00  0.00     0.096 C 
ATOM      8  C   UNL     1      22.642 -16.887 -10.205  1.00  0.00     0.145 C 
ATOM      9  C   UNL     1      21.176 -18.123 -11.569  1.00  0.00    -0.036 C 
ATOM     10  C   UNL     1      21.397 -16.908 -11.056  1.00  0.00     0.007 C 
BRANCH   8  11
ATOM     11  O   UNL     1      22.467 -16.149  -9.020  1.00  0.00    -0.388 OA
ATOM     12  H   UNL     1      21.746 -16.581  -8.489  1.00  0.00     0.211 HD
ENDBRANCH   8  11
BRANCH   9  13
ATOM     13  C   UNL     1      20.158 -18.381 -12.647  1.00  0.00     0.187 C 
BRANCH  13  14
ATOM     14  O   UNL     1      20.786 -18.874 -13.797  1.00  0.00    -0.392 OA
ATOM     15  H   UNL     1      21.680 -18.441 -13.845  1.00  0.00     0.211 HD
ENDBRANCH  13  14
ENDBRANCH   9  13
ENDBRANCH   1   2
BRANCH   1  16
ATOM     16  C   UNL     1      22.779 -22.027 -12.534  1.00  0.00     0.286 C 
ATOM     17  C   UNL     1      23.008 -21.773 -14.040  1.00  0.00     0.202 C 
ATOM     18  O   UNL     1      22.552 -23.406 -12.267  1.00  0.00    -0.341 OA
ATOM     19  C   UNL     1      21.856 -22.349 -14.885  1.00  0.00     0.179 C 
ATOM     20  C   UNL     1      21.407 -23.896 -12.948  1.00  0.00     0.178 C 
ATOM     21  C   UNL     1      21.597 -23.811 -14.480  1.00  0.00     0.177 C 
BRANCH  17  22
ATOM     22  O   UNL     1      23.147 -20.397 -14.292  1.00  0.00    -0.385 OA
ATOM     23  H   UNL     1      22.542 -19.927 -13.659  1.00  0.00     0.211 HD
ENDBRANCH  17  22
BRANCH  19  24
ATOM     24  O   UNL     1      20.680 -21.599 -14.699  1.00  0.00    -0.387 OA
ATOM     25  H   UNL     1      20.890 -20.885 -14.043  1.00  0.00     0.211 HD
ENDBRANCH  19  24
BRANCH  20  26
ATOM     26  C   UNL     1      21.146 -25.337 -12.483  1.00  0.00     0.191 C 
BRANCH  26  27
ATOM     27  O   UNL     1      22.345 -26.059 -12.391  1.00  0.00    -0.394 OA
ATOM     28  H   UNL     1      22.849 -25.891 -13.230  1.00  0.00     0.210 HD
ENDBRANCH  26  27
ENDBRANCH  20  26
BRANCH  21  29
ATOM     29  O   UNL     1      22.677 -24.620 -14.873  1.00  0.00    -0.387 OA
ATOM     30  H   UNL     1      22.380 -25.129 -15.673  1.00  0.00     0.211 HD
ENDBRANCH  21  29
ENDBRANCH   1  16
TORSDOF 10
ENDMDL
