MODEL 1
REMARK VINA RESULT:    -4.912      0.000      0.000
REMARK INTER + INTRA:          -6.918
REMARK INTER:                  -6.204
REMARK INTRA:                  -0.714
REMARK UNBOUND:                -0.714
REMARK SMILES CC(C)=CCCC(C)=CCO
REMARK SMILES IDX 7 1 9 2 8 3 6 4 5 5 4 6 1 7 2 8 3 9 10 10 11 11
REMARK H PARENT 11 12
REMARK Flexibility Score: inf
ROOT
ATOM      1  C   UNL     1      41.869  10.942  17.275  1.00  0.00    -0.075 C 
ATOM      2  C   UNL     1      41.555  12.255  17.357  1.00  0.00    -0.000 C 
ATOM      3  C   UNL     1      43.319  10.546  17.389  1.00  0.00     0.039 C 
ENDROOT
BRANCH   1   4
ATOM      4  C   UNL     1      40.832   9.847  17.094  1.00  0.00     0.034 C 
BRANCH   4   5
ATOM      5  C   UNL     1      40.864   9.252  15.679  1.00  0.00     0.032 C 
BRANCH   5   6
ATOM      6  C   UNL     1      39.740   9.792  14.827  1.00  0.00    -0.028 C 
ATOM      7  C   UNL     1      41.186  11.450  13.630  1.00  0.00     0.039 C 
ATOM      8  C   UNL     1      39.871  10.757  13.891  1.00  0.00    -0.080 C 
ATOM      9  C   UNL     1      38.657  11.146  13.089  1.00  0.00     0.039 C 
ENDBRANCH   5   6
ENDBRANCH   4   5
ENDBRANCH   1   4
BRANCH   2  10
ATOM     10  C   UNL     1      40.163  12.816  17.219  1.00  0.00     0.183 C 
BRANCH  10  11
ATOM     11  O   UNL     1      39.740  13.386  18.428  1.00  0.00    -0.392 OA
ATOM     12  H   UNL     1      38.769  13.195  18.508  1.00  0.00     0.210 HD
ENDBRANCH  10  11
ENDBRANCH   2  10
TORSDOF 5
ENDMDL
MODEL 2
REMARK VINA RESULT:    -4.770      1.634      2.412
REMARK INTER + INTRA:          -6.738
REMARK INTER:                  -6.128
REMARK INTRA:                  -0.610
REMARK UNBOUND:                -0.714
REMARK SMILES CC(C)=CCCC(C)=CCO
REMARK SMILES IDX 7 1 9 2 8 3 6 4 5 5 4 6 1 7 2 8 3 9 10 10 11 11
REMARK H PARENT 11 12
REMARK Flexibility Score: inf
ROOT
ATOM      1  C   UNL     1      41.233  11.739  17.445  1.00  0.00    -0.075 C 
ATOM      2  C   UNL     1      41.010  10.482  17.890  1.00  0.00    -0.000 C 
ATOM      3  C   UNL     1      42.656  12.235  17.388  1.00  0.00     0.039 C 
ENDROOT
BRANCH   1   4
ATOM      4  C   UNL     1      40.124  12.667  16.980  1.00  0.00     0.034 C 
BRANCH   4   5
ATOM      5  C   UNL     1      40.386  13.215  15.570  1.00  0.00     0.032 C 
BRANCH   5   6
ATOM      6  C   UNL     1      39.414  12.643  14.566  1.00  0.00    -0.028 C 
ATOM      7  C   UNL     1      40.983  10.858  13.776  1.00  0.00     0.039 C 
ATOM      8  C   UNL     1      39.655  11.576  13.773  1.00  0.00    -0.080 C 
ATOM      9  C   UNL     1      38.556  11.099  12.861  1.00  0.00     0.039 C 
ENDBRANCH   5   6
ENDBRANCH   4   5
ENDBRANCH   1   4
BRANCH   2  10
ATOM     10  C   UNL     1      39.649   9.854  18.047  1.00  0.00     0.183 C 
BRANCH  10  11
ATOM     11  O   UNL     1      39.161  10.054  19.345  1.00  0.00    -0.392 OA
ATOM     12  H   UNL     1      39.125  11.036  19.488  1.00  0.00     0.210 HD
ENDBRANCH  10  11
ENDBRANCH   2  10
TORSDOF 5
ENDMDL
MODEL 3
REMARK VINA RESULT:    -4.762      2.475      4.518
REMARK INTER + INTRA:          -6.728
REMARK INTER:                  -6.086
REMARK INTRA:                  -0.642
REMARK UNBOUND:                -0.714
REMARK SMILES CC(C)=CCCC(C)=CCO
REMARK SMILES IDX 7 1 9 2 8 3 6 4 5 5 4 6 1 7 2 8 3 9 10 10 11 11
REMARK H PARENT 11 12
REMARK Flexibility Score: inf
ROOT
ATOM      1  C   UNL     1      40.215  12.114  14.554  1.00  0.00    -0.075 C 
ATOM      2  C   UNL     1      41.199  12.188  13.630  1.00  0.00    -0.000 C 
ATOM      3  C   UNL     1      39.645  13.401  15.095  1.00  0.00     0.039 C 
ENDROOT
BRANCH   1   4
ATOM      4  C   UNL     1      39.641  10.801  15.058  1.00  0.00     0.034 C 
BRANCH   4   5
ATOM      5  C   UNL     1      39.791  10.653  16.579  1.00  0.00     0.032 C 
BRANCH   5   6
ATOM      6  C   UNL     1      41.116  10.027  16.944  1.00  0.00    -0.028 C 
ATOM      7  C   UNL     1      42.214  12.210  17.493  1.00  0.00     0.039 C 
ATOM      8  C   UNL     1      42.201  10.706  17.378  1.00  0.00    -0.080 C 
ATOM      9  C   UNL     1      43.432   9.923  17.752  1.00  0.00     0.039 C 
ENDBRANCH   5   6
ENDBRANCH   4   5
ENDBRANCH   1   4
BRANCH   2  10
ATOM     10  C   UNL     1      41.900  10.999  13.025  1.00  0.00     0.183 C 
BRANCH  10  11
ATOM     11  O   UNL     1      43.117  11.387  12.447  1.00  0.00    -0.392 OA
ATOM     12  H   UNL     1      43.834  11.071  13.056  1.00  0.00     0.210 HD
ENDBRANCH  10  11
ENDBRANCH   2  10
TORSDOF 5
ENDMDL
MODEL 4
REMARK VINA RESULT:    -4.713      8.760      9.717
REMARK INTER + INTRA:          -6.666
REMARK INTER:                  -6.416
REMARK INTRA:                  -0.250
REMARK UNBOUND:                -0.714
REMARK SMILES CC(C)=CCCC(C)=CCO
REMARK SMILES IDX 7 1 9 2 8 3 6 4 5 5 4 6 1 7 2 8 3 9 10 10 11 11
REMARK H PARENT 11 12
REMARK Flexibility Score: inf
ROOT
ATOM      1  C   UNL     1      37.845   2.330  16.605  1.00  0.00    -0.075 C 
ATOM      2  C   UNL     1      38.143   1.099  17.078  1.00  0.00    -0.000 C 
ATOM      3  C   UNL     1      36.402   2.769  16.616  1.00  0.00     0.039 C 
ENDROOT
BRANCH   1   4
ATOM      4  C   UNL     1      38.892   3.299  16.083  1.00  0.00     0.034 C 
BRANCH   4   5
ATOM      5  C   UNL     1      39.205   3.062  14.599  1.00  0.00     0.032 C 
BRANCH   5   6
ATOM      6  C   UNL     1      40.684   2.858  14.373  1.00  0.00    -0.028 C 
ATOM      7  C   UNL     1      40.537   3.132  11.888  1.00  0.00     0.039 C 
ATOM      8  C   UNL     1      41.300   2.910  13.171  1.00  0.00    -0.080 C 
ATOM      9  C   UNL     1      42.795   2.736  13.125  1.00  0.00     0.039 C 
ENDBRANCH   5   6
ENDBRANCH   4   5
ENDBRANCH   1   4
BRANCH   2  10
ATOM     10  C   UNL     1      39.524   0.497  17.096  1.00  0.00     0.183 C 
BRANCH  10  11
ATOM     11  O   UNL     1      39.707  -0.282  18.247  1.00  0.00    -0.392 OA
ATOM     12  H   UNL     1      40.267   0.254  18.867  1.00  0.00     0.210 HD
ENDBRANCH  10  11
ENDBRANCH   2  10
TORSDOF 5
ENDMDL
MODEL 5
REMARK VINA RESULT:    -4.695      2.169      3.097
REMARK INTER + INTRA:          -6.643
REMARK INTER:                  -6.281
REMARK INTRA:                  -0.362
REMARK UNBOUND:                -0.714
REMARK SMILES CC(C)=CCCC(C)=CCO
REMARK SMILES IDX 7 1 9 2 8 3 6 4 5 5 4 6 1 7 2 8 3 9 10 10 11 11
REMARK H PARENT 11 12
REMARK Flexibility Score: inf
ROOT
ATOM      1  C   UNL     1      41.132  12.045  15.676  1.00  0.00    -0.075 C 
ATOM      2  C   UNL     1      41.838  12.074  16.829  1.00  0.00    -0.000 C 
ATOM      3  C   UNL     1      40.431  13.305  15.236  1.00  0.00     0.039 C 
ENDROOT
BRANCH   1   4
ATOM      4  C   UNL     1      41.026  10.813  14.794  1.00  0.00     0.034 C 
BRANCH   4   5
ATOM      5  C   UNL     1      41.318  11.133  13.321  1.00  0.00     0.032 C 
BRANCH   5   6
ATOM      6  C   UNL     1      40.705  10.105  12.401  1.00  0.00    -0.028 C 
ATOM      7  C   UNL     1      38.424  11.138  12.453  1.00  0.00     0.039 C 
ATOM      8  C   UNL     1      39.420  10.106  11.983  1.00  0.00    -0.080 C 
ATOM      9  C   UNL     1      38.979   9.034  11.021  1.00  0.00     0.039 C 
ENDBRANCH   5   6
ENDBRANCH   4   5
ENDBRANCH   1   4
BRANCH   2  10
ATOM     10  C   UNL     1      42.557  10.893  17.426  1.00  0.00     0.183 C 
BRANCH  10  11
ATOM     11  O   UNL     1      43.847  10.778  16.889  1.00  0.00    -0.392 OA
ATOM     12  H   UNL     1      44.267   9.990  17.323  1.00  0.00     0.210 HD
ENDBRANCH  10  11
ENDBRANCH   2  10
TORSDOF 5
ENDMDL
MODEL 6
REMARK VINA RESULT:    -4.669      8.558      9.646
REMARK INTER + INTRA:          -6.610
REMARK INTER:                  -6.122
REMARK INTRA:                  -0.489
REMARK UNBOUND:                -0.714
REMARK SMILES CC(C)=CCCC(C)=CCO
REMARK SMILES IDX 7 1 9 2 8 3 6 4 5 5 4 6 1 7 2 8 3 9 10 10 11 11
REMARK H PARENT 11 12
REMARK Flexibility Score: inf
ROOT
ATOM      1  C   UNL     1      39.427   1.008  15.055  1.00  0.00    -0.075 C 
ATOM      2  C   UNL     1      38.769   0.752  16.209  1.00  0.00    -0.000 C 
ATOM      3  C   UNL     1      40.703   0.253  14.779  1.00  0.00     0.039 C 
ENDROOT
BRANCH   1   4
ATOM      4  C   UNL     1      38.934   2.001  14.017  1.00  0.00     0.034 C 
BRANCH   4   5
ATOM      5  C   UNL     1      39.626   3.365  14.151  1.00  0.00     0.032 C 
BRANCH   5   6
ATOM      6  C   UNL     1      39.993   3.933  12.801  1.00  0.00    -0.028 C 
ATOM      7  C   UNL     1      42.314   2.992  12.823  1.00  0.00     0.039 C 
ATOM      8  C   UNL     1      41.182   3.756  12.182  1.00  0.00    -0.080 C 
ATOM      9  C   UNL     1      41.369   4.348  10.810  1.00  0.00     0.039 C 
ENDBRANCH   5   6
ENDBRANCH   4   5
ENDBRANCH   1   4
BRANCH   2  10
ATOM     10  C   UNL     1      37.508   1.449  16.651  1.00  0.00     0.183 C 
BRANCH  10  11
ATOM     11  O   UNL     1      36.436   0.548  16.693  1.00  0.00    -0.392 OA
ATOM     12  H   UNL     1      36.648  -0.177  16.048  1.00  0.00     0.210 HD
ENDBRANCH  10  11
ENDBRANCH   2  10
TORSDOF 5
ENDMDL
MODEL 7
REMARK VINA RESULT:    -4.636      8.327      9.479
REMARK INTER + INTRA:          -6.569
REMARK INTER:                  -6.099
REMARK INTRA:                  -0.470
REMARK UNBOUND:                -0.714
REMARK SMILES CC(C)=CCCC(C)=CCO
REMARK SMILES IDX 7 1 9 2 8 3 6 4 5 5 4 6 1 7 2 8 3 9 10 10 11 11
REMARK H PARENT 11 12
REMARK Flexibility Score: inf
ROOT
ATOM      1  C   UNL     1      41.058   2.004  14.317  1.00  0.00    -0.075 C 
ATOM      2  C   UNL     1      41.987   2.060  13.336  1.00  0.00    -0.000 C 
ATOM      3  C   UNL     1      40.837   0.687  15.018  1.00  0.00     0.039 C 
ENDROOT
BRANCH   1   4
ATOM      4  C   UNL     1      40.240   3.205  14.761  1.00  0.00     0.034 C 
BRANCH   4   5
ATOM      5  C   UNL     1      39.848   3.118  16.243  1.00  0.00     0.032 C 
BRANCH   5   6
ATOM      6  C   UNL     1      38.410   3.524  16.458  1.00  0.00    -0.028 C 
ATOM      7  C   UNL     1      37.589   1.174  16.739  1.00  0.00     0.039 C 
ATOM      8  C   UNL     1      37.392   2.670  16.705  1.00  0.00    -0.080 C 
ATOM      9  C   UNL     1      36.020   3.243  16.949  1.00  0.00     0.039 C 
ENDBRANCH   5   6
ENDBRANCH   4   5
ENDBRANCH   1   4
BRANCH   2  10
ATOM     10  C   UNL     1      42.295   3.285  12.514  1.00  0.00     0.183 C 
BRANCH  10  11
ATOM     11  O   UNL     1      43.291   4.055  13.132  1.00  0.00    -0.392 OA
ATOM     12  H   UNL     1      44.161   3.645  12.885  1.00  0.00     0.210 HD
ENDBRANCH  10  11
ENDBRANCH   2  10
TORSDOF 5
ENDMDL
MODEL 8
REMARK VINA RESULT:    -4.635      2.504      4.818
REMARK INTER + INTRA:          -6.568
REMARK INTER:                  -6.097
REMARK INTRA:                  -0.471
REMARK UNBOUND:                -0.714
REMARK SMILES CC(C)=CCCC(C)=CCO
REMARK SMILES IDX 7 1 9 2 8 3 6 4 5 5 4 6 1 7 2 8 3 9 10 10 11 11
REMARK H PARENT 11 12
REMARK Flexibility Score: inf
ROOT
ATOM      1  C   UNL     1      39.328  11.555  14.247  1.00  0.00    -0.075 C 
ATOM      2  C   UNL     1      38.788  11.495  13.009  1.00  0.00    -0.000 C 
ATOM      3  C   UNL     1      39.666  12.910  14.814  1.00  0.00     0.039 C 
ENDROOT
BRANCH   1   4
ATOM      4  C   UNL     1      39.593  10.327  15.101  1.00  0.00     0.034 C 
BRANCH   4   5
ATOM      5  C   UNL     1      39.905  10.696  16.558  1.00  0.00     0.032 C 
BRANCH   5   6
ATOM      6  C   UNL     1      41.218  10.102  17.009  1.00  0.00    -0.028 C 
ATOM      7  C   UNL     1      42.327  12.323  17.343  1.00  0.00     0.039 C 
ATOM      8  C   UNL     1      42.303  10.815  17.386  1.00  0.00    -0.080 C 
ATOM      9  C   UNL     1      43.521  10.066  17.860  1.00  0.00     0.039 C 
ENDBRANCH   5   6
ENDBRANCH   4   5
ENDBRANCH   1   4
BRANCH   2  10
ATOM     10  C   UNL     1      38.435  10.221  12.285  1.00  0.00     0.183 C 
BRANCH  10  11
ATOM     11  O   UNL     1      37.089   9.893  12.495  1.00  0.00    -0.392 OA
ATOM     12  H   UNL     1      36.646   9.928  11.607  1.00  0.00     0.210 HD
ENDBRANCH  10  11
ENDBRANCH   2  10
TORSDOF 5
ENDMDL
MODEL 9
REMARK VINA RESULT:    -4.632      3.343      4.825
REMARK INTER + INTRA:          -6.564
REMARK INTER:                  -5.875
REMARK INTRA:                  -0.689
REMARK UNBOUND:                -0.714
REMARK SMILES CC(C)=CCCC(C)=CCO
REMARK SMILES IDX 7 1 9 2 8 3 6 4 5 5 4 6 1 7 2 8 3 9 10 10 11 11
REMARK H PARENT 11 12
REMARK Flexibility Score: inf
ROOT
ATOM      1  C   UNL     1      39.720  11.159  13.709  1.00  0.00    -0.075 C 
ATOM      2  C   UNL     1      41.065  11.041  13.630  1.00  0.00    -0.000 C 
ATOM      3  C   UNL     1      39.089  11.237  15.076  1.00  0.00     0.039 C 
ENDROOT
BRANCH   1   4
ATOM      4  C   UNL     1      38.818  11.237  12.490  1.00  0.00     0.034 C 
BRANCH   4   5
ATOM      5  C   UNL     1      38.140   9.892  12.189  1.00  0.00     0.032 C 
BRANCH   5   6
ATOM      6  C   UNL     1      38.874   9.135  11.107  1.00  0.00    -0.028 C 
ATOM      7  C   UNL     1      40.016   7.580  12.705  1.00  0.00     0.039 C 
ATOM      8  C   UNL     1      39.697   8.084  11.319  1.00  0.00    -0.080 C 
ATOM      9  C   UNL     1      40.311   7.404  10.123  1.00  0.00     0.039 C 
ENDBRANCH   5   6
ENDBRANCH   4   5
ENDBRANCH   1   4
BRANCH   2  10
ATOM     10  C   UNL     1      41.843  10.908  12.347  1.00  0.00     0.183 C 
BRANCH  10  11
ATOM     11  O   UNL     1      43.123  11.461  12.487  1.00  0.00    -0.392 OA
ATOM     12  H   UNL     1      43.737  10.897  11.948  1.00  0.00     0.210 HD
ENDBRANCH  10  11
ENDBRANCH   2  10
TORSDOF 5
ENDMDL
