MODEL 1
REMARK VINA RESULT:    -4.720      0.000      0.000
REMARK INTER + INTRA:          -6.443
REMARK INTER:                  -6.376
REMARK INTRA:                  -0.067
REMARK UNBOUND:                -0.067
REMARK SMILES [NH3+]CCCC[C@H]([NH3+])C(=O)[O-]
REMARK SMILES IDX 4 1 3 2 2 3 1 4 5 8 6 9 7 10 8 14 9 15 10 16
REMARK H PARENT 1 5 1 6 1 7 7 11 7 12 7 13
REMARK Flexibility Score: inf
ROOT
ATOM      1  C   UNL     1     101.043  68.196  71.720  1.00  0.00     0.012 C 
ENDROOT
BRANCH   1   2
ATOM      2  C   UNL     1     100.004  68.242  70.590  1.00  0.00     0.061 C 
BRANCH   2   3
ATOM      3  C   UNL     1     100.650  68.255  69.194  1.00  0.00     0.258 C 
BRANCH   3   4
ATOM      4  N   UNL     1     100.117  69.326  68.349  1.00  0.00    -0.358 N 
ATOM      5  H   UNL     1      99.764  68.909  67.456  1.00  0.00     0.344 HD
ATOM      6  H   UNL     1      99.324  69.810  68.828  1.00  0.00     0.344 HD
ATOM      7  H   UNL     1     100.868  70.013  68.115  1.00  0.00     0.344 HD
ENDBRANCH   3   4
ENDBRANCH   2   3
ENDBRANCH   1   2
BRANCH   1   8
ATOM      8  C   UNL     1     100.628  69.116  72.882  1.00  0.00     0.072 C 
BRANCH   8   9
ATOM      9  C   UNL     1     101.725  69.325  73.952  1.00  0.00     0.227 C 
BRANCH   9  10
ATOM     10  N   UNL     1     102.011  68.093  74.701  1.00  0.00    -0.350 N 
ATOM     11  H   UNL     1     103.008  68.100  75.017  1.00  0.00     0.345 HD
ATOM     12  H   UNL     1     101.870  67.260  74.084  1.00  0.00     0.345 HD
ATOM     13  H   UNL     1     101.395  68.004  75.542  1.00  0.00     0.345 HD
ENDBRANCH   9  10
BRANCH   9  14
ATOM     14  C   UNL     1     101.390  70.470  74.874  1.00  0.00     0.099 C 
ATOM     15  O   UNL     1     100.516  70.343  75.772  1.00  0.00    -0.544 OA
ATOM     16  O   UNL     1     102.017  71.698  74.702  1.00  0.00    -0.544 OA
ENDBRANCH   9  14
ENDBRANCH   8   9
ENDBRANCH   1   8
TORSDOF 7
ENDMDL
MODEL 2
REMARK VINA RESULT:    -4.210      3.408      5.333
REMARK INTER + INTRA:          -5.754
REMARK INTER:                  -5.662
REMARK INTRA:                  -0.092
REMARK UNBOUND:                -0.067
REMARK SMILES [NH3+]CCCC[C@H]([NH3+])C(=O)[O-]
REMARK SMILES IDX 4 1 3 2 2 3 1 4 5 8 6 9 7 10 8 14 9 15 10 16
REMARK H PARENT 1 5 1 6 1 7 7 11 7 12 7 13
REMARK Flexibility Score: inf
ROOT
ATOM      1  C   UNL     1     100.622  67.953  70.745  1.00  0.00     0.012 C 
ENDROOT
BRANCH   1   2
ATOM      2  C   UNL     1     101.358  67.930  72.093  1.00  0.00     0.061 C 
BRANCH   2   3
ATOM      3  C   UNL     1     100.889  69.048  73.040  1.00  0.00     0.258 C 
BRANCH   3   4
ATOM      4  N   UNL     1     101.758  69.180  74.212  1.00  0.00    -0.358 N 
ATOM      5  H   UNL     1     102.731  68.903  73.944  1.00  0.00     0.344 HD
ATOM      6  H   UNL     1     101.772  70.170  74.547  1.00  0.00     0.344 HD
ATOM      7  H   UNL     1     101.436  68.547  74.977  1.00  0.00     0.344 HD
ENDBRANCH   3   4
ENDBRANCH   2   3
ENDBRANCH   1   2
BRANCH   1   8
ATOM      8  C   UNL     1      99.953  69.319  70.510  1.00  0.00     0.072 C 
BRANCH   8   9
ATOM      9  C   UNL     1      99.214  69.441  69.156  1.00  0.00     0.227 C 
BRANCH   9  10
ATOM     10  N   UNL     1     100.145  69.496  68.020  1.00  0.00    -0.350 N 
ATOM     11  H   UNL     1     101.061  69.888  68.338  1.00  0.00     0.345 HD
ATOM     12  H   UNL     1      99.762  70.123  67.275  1.00  0.00     0.345 HD
ATOM     13  H   UNL     1     100.313  68.546  67.615  1.00  0.00     0.345 HD
ENDBRANCH   9  10
BRANCH   9  14
ATOM     14  C   UNL     1      98.261  70.609  69.148  1.00  0.00     0.099 C 
ATOM     15  O   UNL     1      97.014  70.427  69.138  1.00  0.00    -0.544 OA
ATOM     16  O   UNL     1      98.760  71.905  69.102  1.00  0.00    -0.544 OA
ENDBRANCH   9  14
ENDBRANCH   8   9
ENDBRANCH   1   8
TORSDOF 7
ENDMDL
MODEL 3
REMARK VINA RESULT:    -4.195     14.545     14.953
REMARK INTER + INTRA:          -5.733
REMARK INTER:                  -5.611
REMARK INTRA:                  -0.122
REMARK UNBOUND:                -0.067
REMARK SMILES [NH3+]CCCC[C@H]([NH3+])C(=O)[O-]
REMARK SMILES IDX 4 1 3 2 2 3 1 4 5 8 6 9 7 10 8 14 9 15 10 16
REMARK H PARENT 1 5 1 6 1 7 7 11 7 12 7 13
REMARK Flexibility Score: inf
ROOT
ATOM      1  C   UNL     1      92.058  81.102  67.642  1.00  0.00     0.012 C 
ENDROOT
BRANCH   1   2
ATOM      2  C   UNL     1      91.875  82.546  67.150  1.00  0.00     0.061 C 
BRANCH   2   3
ATOM      3  C   UNL     1      91.894  82.654  65.616  1.00  0.00     0.258 C 
BRANCH   3   4
ATOM      4  N   UNL     1      92.662  81.571  64.995  1.00  0.00    -0.358 N 
ATOM      5  H   UNL     1      93.637  81.588  65.375  1.00  0.00     0.344 HD
ATOM      6  H   UNL     1      92.232  80.645  65.217  1.00  0.00     0.344 HD
ATOM      7  H   UNL     1      92.710  81.706  63.961  1.00  0.00     0.344 HD
ENDBRANCH   3   4
ENDBRANCH   2   3
ENDBRANCH   1   2
BRANCH   1   8
ATOM      8  C   UNL     1      92.908  81.066  68.924  1.00  0.00     0.072 C 
BRANCH   8   9
ATOM      9  C   UNL     1      92.250  80.310  70.102  1.00  0.00     0.227 C 
BRANCH   9  10
ATOM     10  N   UNL     1      92.435  81.009  71.382  1.00  0.00    -0.350 N 
ATOM     11  H   UNL     1      93.314  80.673  71.839  1.00  0.00     0.345 HD
ATOM     12  H   UNL     1      91.635  80.798  72.023  1.00  0.00     0.345 HD
ATOM     13  H   UNL     1      92.504  82.043  71.248  1.00  0.00     0.345 HD
ENDBRANCH   9  10
BRANCH   9  14
ATOM     14  C   UNL     1      92.724  78.880  70.178  1.00  0.00     0.099 C 
ATOM     15  O   UNL     1      92.075  77.953  69.624  1.00  0.00    -0.544 OA
ATOM     16  O   UNL     1      93.864  78.571  70.909  1.00  0.00    -0.544 OA
ENDBRANCH   9  14
ENDBRANCH   8   9
ENDBRANCH   1   8
TORSDOF 7
ENDMDL
MODEL 4
REMARK VINA RESULT:    -4.174      1.639      2.059
REMARK INTER + INTRA:          -5.705
REMARK INTER:                  -5.580
REMARK INTRA:                  -0.124
REMARK UNBOUND:                -0.067
REMARK SMILES [NH3+]CCCC[C@H]([NH3+])C(=O)[O-]
REMARK SMILES IDX 4 1 3 2 2 3 1 4 5 8 6 9 7 10 8 14 9 15 10 16
REMARK H PARENT 1 5 1 6 1 7 7 11 7 12 7 13
REMARK Flexibility Score: inf
ROOT
ATOM      1  C   UNL     1     100.885  68.976  72.992  1.00  0.00     0.012 C 
ENDROOT
BRANCH   1   2
ATOM      2  C   UNL     1     101.304  67.875  72.005  1.00  0.00     0.061 C 
BRANCH   2   3
ATOM      3  C   UNL     1     100.665  68.052  70.617  1.00  0.00     0.258 C 
BRANCH   3   4
ATOM      4  N   UNL     1      99.746  69.192  70.574  1.00  0.00    -0.358 N 
ATOM      5  H   UNL     1     100.271  70.060  70.830  1.00  0.00     0.344 HD
ATOM      6  H   UNL     1      99.353  69.309  69.612  1.00  0.00     0.344 HD
ATOM      7  H   UNL     1      98.973  69.062  71.264  1.00  0.00     0.344 HD
ENDBRANCH   3   4
ENDBRANCH   2   3
ENDBRANCH   1   2
BRANCH   1   8
ATOM      8  C   UNL     1     101.560  68.769  74.360  1.00  0.00     0.072 C 
BRANCH   8   9
ATOM      9  C   UNL     1     101.535  70.015  75.276  1.00  0.00     0.227 C 
BRANCH   9  10
ATOM     10  N   UNL     1     100.170  70.512  75.499  1.00  0.00    -0.350 N 
ATOM     11  H   UNL     1      99.518  69.702  75.612  1.00  0.00     0.345 HD
ATOM     12  H   UNL     1      99.855  71.072  74.673  1.00  0.00     0.345 HD
ATOM     13  H   UNL     1     100.113  71.107  76.358  1.00  0.00     0.345 HD
ENDBRANCH   9  10
BRANCH   9  14
ATOM     14  C   UNL     1     102.443  71.102  74.760  1.00  0.00     0.099 C 
ATOM     15  O   UNL     1     103.614  70.839  74.377  1.00  0.00    -0.544 OA
ATOM     16  O   UNL     1     102.004  72.420  74.752  1.00  0.00    -0.544 OA
ENDBRANCH   9  14
ENDBRANCH   8   9
ENDBRANCH   1   8
TORSDOF 7
ENDMDL
MODEL 5
REMARK VINA RESULT:    -3.869      3.155      4.711
REMARK INTER + INTRA:          -5.293
REMARK INTER:                  -5.210
REMARK INTRA:                  -0.083
REMARK UNBOUND:                -0.067
REMARK SMILES [NH3+]CCCC[C@H]([NH3+])C(=O)[O-]
REMARK SMILES IDX 4 1 3 2 2 3 1 4 5 8 6 9 7 10 8 14 9 15 10 16
REMARK H PARENT 1 5 1 6 1 7 7 11 7 12 7 13
REMARK Flexibility Score: inf
ROOT
ATOM      1  C   UNL     1     102.171  70.114  74.711  1.00  0.00     0.012 C 
ENDROOT
BRANCH   1   2
ATOM      2  C   UNL     1     102.004  71.634  74.867  1.00  0.00     0.061 C 
BRANCH   2   3
ATOM      3  C   UNL     1     103.122  72.425  74.169  1.00  0.00     0.258 C 
BRANCH   3   4
ATOM      4  N   UNL     1     102.639  73.694  73.618  1.00  0.00    -0.358 N 
ATOM      5  H   UNL     1     103.239  74.471  73.980  1.00  0.00     0.344 HD
ATOM      6  H   UNL     1     102.697  73.685  72.574  1.00  0.00     0.344 HD
ATOM      7  H   UNL     1     101.656  73.871  73.921  1.00  0.00     0.344 HD
ENDBRANCH   3   4
ENDBRANCH   2   3
ENDBRANCH   1   2
BRANCH   1   8
ATOM      8  C   UNL     1     100.957  69.503  73.989  1.00  0.00     0.072 C 
BRANCH   8   9
ATOM      9  C   UNL     1     101.289  68.261  73.128  1.00  0.00     0.227 C 
BRANCH   9  10
ATOM     10  N   UNL     1     102.705  67.880  73.226  1.00  0.00    -0.350 N 
ATOM     11  H   UNL     1     103.279  68.509  72.619  1.00  0.00     0.345 HD
ATOM     12  H   UNL     1     102.834  66.897  72.892  1.00  0.00     0.345 HD
ATOM     13  H   UNL     1     103.055  67.956  74.209  1.00  0.00     0.345 HD
ENDBRANCH   9  10
BRANCH   9  14
ATOM     14  C   UNL     1     100.864  68.451  71.693  1.00  0.00     0.099 C 
ATOM     15  O   UNL     1      99.816  69.088  71.408  1.00  0.00    -0.544 OA
ATOM     16  O   UNL     1     101.611  67.875  70.673  1.00  0.00    -0.544 OA
ENDBRANCH   9  14
ENDBRANCH   8   9
ENDBRANCH   1   8
TORSDOF 7
ENDMDL
MODEL 6
REMARK VINA RESULT:    -3.412      3.155      4.963
REMARK INTER + INTRA:          -4.676
REMARK INTER:                  -4.576
REMARK INTRA:                  -0.100
REMARK UNBOUND:                -0.067
REMARK SMILES [NH3+]CCCC[C@H]([NH3+])C(=O)[O-]
REMARK SMILES IDX 4 1 3 2 2 3 1 4 5 8 6 9 7 10 8 14 9 15 10 16
REMARK H PARENT 1 5 1 6 1 7 7 11 7 12 7 13
REMARK Flexibility Score: inf
ROOT
ATOM      1  C   UNL     1     102.457  70.742  74.631  1.00  0.00     0.012 C 
ENDROOT
BRANCH   1   2
ATOM      2  C   UNL     1     102.435  72.250  74.927  1.00  0.00     0.061 C 
BRANCH   2   3
ATOM      3  C   UNL     1     103.507  73.021  74.139  1.00  0.00     0.258 C 
BRANCH   3   4
ATOM      4  N   UNL     1     104.785  73.075  74.852  1.00  0.00    -0.358 N 
ATOM      5  H   UNL     1     104.612  72.906  75.870  1.00  0.00     0.344 HD
ATOM      6  H   UNL     1     105.435  72.338  74.496  1.00  0.00     0.344 HD
ATOM      7  H   UNL     1     105.221  74.018  74.747  1.00  0.00     0.344 HD
ENDBRANCH   3   4
ENDBRANCH   2   3
ENDBRANCH   1   2
BRANCH   1   8
ATOM      8  C   UNL     1     101.029  70.205  74.432  1.00  0.00     0.072 C 
BRANCH   8   9
ATOM      9  C   UNL     1     100.962  68.725  73.986  1.00  0.00     0.227 C 
BRANCH   9  10
ATOM     10  N   UNL     1     101.998  67.904  74.631  1.00  0.00    -0.350 N 
ATOM     11  H   UNL     1     102.522  68.486  75.324  1.00  0.00     0.345 HD
ATOM     12  H   UNL     1     102.677  67.559  73.914  1.00  0.00     0.345 HD
ATOM     13  H   UNL     1     101.582  67.085  75.131  1.00  0.00     0.345 HD
ENDBRANCH   9  10
BRANCH   9  14
ATOM     14  C   UNL     1     101.008  68.595  72.485  1.00  0.00     0.099 C 
ATOM     15  O   UNL     1     101.875  67.875  71.923  1.00  0.00    -0.544 OA
ATOM     16  O   UNL     1     100.114  69.318  71.705  1.00  0.00    -0.544 OA
ENDBRANCH   9  14
ENDBRANCH   8   9
ENDBRANCH   1   8
TORSDOF 7
ENDMDL
MODEL 7
REMARK VINA RESULT:    -2.931     11.985     12.699
REMARK INTER + INTRA:          -4.026
REMARK INTER:                  -3.879
REMARK INTRA:                  -0.147
REMARK UNBOUND:                -0.067
REMARK SMILES [NH3+]CCCC[C@H]([NH3+])C(=O)[O-]
REMARK SMILES IDX 4 1 3 2 2 3 1 4 5 8 6 9 7 10 8 14 9 15 10 16
REMARK H PARENT 1 5 1 6 1 7 7 11 7 12 7 13
REMARK Flexibility Score: inf
ROOT
ATOM      1  C   UNL     1      96.720  69.739  84.060  1.00  0.00     0.012 C 
ENDROOT
BRANCH   1   2
ATOM      2  C   UNL     1      97.119  71.222  84.125  1.00  0.00     0.061 C 
BRANCH   2   3
ATOM      3  C   UNL     1      98.344  71.542  83.252  1.00  0.00     0.258 C 
BRANCH   3   4
ATOM      4  N   UNL     1      99.591  71.522  84.022  1.00  0.00    -0.358 N 
ATOM      5  H   UNL     1     100.346  71.102  83.432  1.00  0.00     0.344 HD
ATOM      6  H   UNL     1      99.872  72.494  84.285  1.00  0.00     0.344 HD
ATOM      7  H   UNL     1      99.480  70.936  84.878  1.00  0.00     0.344 HD
ENDBRANCH   3   4
ENDBRANCH   2   3
ENDBRANCH   1   2
BRANCH   1   8
ATOM      8  C   UNL     1      95.764  69.482  82.882  1.00  0.00     0.072 C 
BRANCH   8   9
ATOM      9  C   UNL     1      94.285  69.287  83.294  1.00  0.00     0.227 C 
BRANCH   9  10
ATOM     10  N   UNL     1      93.741  68.008  82.816  1.00  0.00    -0.350 N 
ATOM     11  H   UNL     1      93.039  68.187  82.062  1.00  0.00     0.345 HD
ATOM     12  H   UNL     1      93.257  67.511  83.600  1.00  0.00     0.345 HD
ATOM     13  H   UNL     1      94.492  67.391  82.432  1.00  0.00     0.345 HD
ENDBRANCH   9  10
BRANCH   9  14
ATOM     14  C   UNL     1      93.430  70.450  82.859  1.00  0.00     0.099 C 
ATOM     15  O   UNL     1      92.433  70.276  82.109  1.00  0.00    -0.544 OA
ATOM     16  O   UNL     1      93.773  71.739  83.248  1.00  0.00    -0.544 OA
ENDBRANCH   9  14
ENDBRANCH   8   9
ENDBRANCH   1   8
TORSDOF 7
ENDMDL
