MODEL 1
REMARK VINA RESULT:    -5.973      0.000      0.000
REMARK INTER + INTRA:         -13.900
REMARK INTER:                 -11.559
REMARK INTRA:                  -2.341
REMARK UNBOUND:                -2.341
REMARK SMILES CCCCCCCCCCCCCCCCCC(=O)[O-]
REMARK SMILES IDX 10 1 11 2 12 3 13 4 14 5 15 6 16 7 17 8 18 9 19 10 20 11
REMARK SMILES IDX 9 12 8 13 7 14 6 15 5 16 4 17 3 18 2 19 1 20
REMARK H PARENT
REMARK Flexibility Score: inf
ROOT
ATOM      1  C   UNL     1      13.753   0.371  18.748  1.00  0.00     0.000 C 
ENDROOT
BRANCH   1   2
ATOM      2  C   UNL     1      13.350   1.831  18.487  1.00  0.00     0.000 C 
BRANCH   2   3
ATOM      3  C   UNL     1      13.264   2.169  16.991  1.00  0.00     0.000 C 
BRANCH   3   4
ATOM      4  C   UNL     1      13.811   1.014  16.138  1.00  0.00     0.000 C 
BRANCH   4   5
ATOM      5  C   UNL     1      14.827   1.487  15.087  1.00  0.00     0.000 C 
BRANCH   5   6
ATOM      6  C   UNL     1      14.652   0.769  13.736  1.00  0.00     0.000 C 
BRANCH   6   7
ATOM      7  C   UNL     1      15.590   1.315  12.649  1.00  0.00     0.006 C 
BRANCH   7   8
ATOM      8  C   UNL     1      15.588   0.456  11.377  1.00  0.00     0.053 C 
BRANCH   8   9
ATOM      9  C   UNL     1      16.950  -0.111  11.127  1.00  0.00     0.041 C 
ATOM     10  O   UNL     1      17.361  -0.277   9.948  1.00  0.00    -0.550 OA
ATOM     11  O   UNL     1      17.748  -0.501  12.195  1.00  0.00    -0.550 OA
ENDBRANCH   8   9
ENDBRANCH   7   8
ENDBRANCH   6   7
ENDBRANCH   5   6
ENDBRANCH   4   5
ENDBRANCH   3   4
ENDBRANCH   2   3
ENDBRANCH   1   2
BRANCH   1  12
ATOM     12  C   UNL     1      14.639   0.152  19.991  1.00  0.00     0.000 C 
BRANCH  12  13
ATOM     13  C   UNL     1      15.368  -1.210  20.009  1.00  0.00    -0.000 C 
BRANCH  13  14
ATOM     14  C   UNL     1      14.858  -2.162  18.914  1.00  0.00    -0.000 C 
BRANCH  14  15
ATOM     15  C   UNL     1      15.905  -3.226  18.518  1.00  0.00    -0.000 C 
BRANCH  15  16
ATOM     16  C   UNL     1      16.187  -3.291  17.004  1.00  0.00    -0.000 C 
BRANCH  16  17
ATOM     17  C   UNL     1      15.971  -1.971  16.240  1.00  0.00    -0.000 C 
BRANCH  17  18
ATOM     18  C   UNL     1      17.192  -1.465  15.452  1.00  0.00    -0.000 C 
BRANCH  18  19
ATOM     19  C   UNL     1      18.179  -0.674  16.322  1.00  0.00    -0.003 C 
ATOM     20  C   UNL     1      17.445   0.124  17.398  1.00  0.00     0.004 C 
ENDBRANCH  18  19
ENDBRANCH  17  18
ENDBRANCH  16  17
ENDBRANCH  15  16
ENDBRANCH  14  15
ENDBRANCH  13  14
ENDBRANCH  12  13
ENDBRANCH   1  12
TORSDOF 16
ENDMDL
MODEL 2
REMARK VINA RESULT:    -5.966      2.074      4.988
REMARK INTER + INTRA:         -13.888
REMARK INTER:                 -11.723
REMARK INTRA:                  -2.164
REMARK UNBOUND:                -2.341
REMARK SMILES CCCCCCCCCCCCCCCCCC(=O)[O-]
REMARK SMILES IDX 10 1 11 2 12 3 13 4 14 5 15 6 16 7 17 8 18 9 19 10 20 11
REMARK SMILES IDX 9 12 8 13 7 14 6 15 5 16 4 17 3 18 2 19 1 20
REMARK H PARENT
REMARK Flexibility Score: inf
ROOT
ATOM      1  C   UNL     1      13.413  -0.426  17.838  1.00  0.00     0.000 C 
ENDROOT
BRANCH   1   2
ATOM      2  C   UNL     1      13.354  -1.135  19.200  1.00  0.00     0.000 C 
BRANCH   2   3
ATOM      3  C   UNL     1      14.711  -1.709  19.635  1.00  0.00     0.000 C 
BRANCH   3   4
ATOM      4  C   UNL     1      15.752  -0.590  19.790  1.00  0.00     0.000 C 
BRANCH   4   5
ATOM      5  C   UNL     1      16.983  -0.801  18.894  1.00  0.00     0.000 C 
BRANCH   5   6
ATOM      6  C   UNL     1      17.012   0.168  17.698  1.00  0.00     0.000 C 
BRANCH   6   7
ATOM      7  C   UNL     1      17.107  -0.560  16.348  1.00  0.00     0.006 C 
BRANCH   7   8
ATOM      8  C   UNL     1      16.517  -1.976  16.394  1.00  0.00     0.053 C 
BRANCH   8   9
ATOM      9  C   UNL     1      17.610  -2.996  16.446  1.00  0.00     0.041 C 
ATOM     10  O   UNL     1      17.408  -4.117  16.983  1.00  0.00    -0.550 OA
ATOM     11  O   UNL     1      18.869  -2.692  15.942  1.00  0.00    -0.550 OA
ENDBRANCH   8   9
ENDBRANCH   7   8
ENDBRANCH   6   7
ENDBRANCH   5   6
ENDBRANCH   4   5
ENDBRANCH   3   4
ENDBRANCH   2   3
ENDBRANCH   1   2
BRANCH   1  12
ATOM     12  C   UNL     1      13.250   1.106  17.894  1.00  0.00     0.000 C 
BRANCH  12  13
ATOM     13  C   UNL     1      13.942   1.852  16.731  1.00  0.00    -0.000 C 
BRANCH  13  14
ATOM     14  C   UNL     1      13.275   1.569  15.374  1.00  0.00    -0.000 C 
BRANCH  14  15
ATOM     15  C   UNL     1      14.140   0.668  14.464  1.00  0.00    -0.000 C 
BRANCH  15  16
ATOM     16  C   UNL     1      15.139   1.446  13.585  1.00  0.00    -0.000 C 
BRANCH  16  17
ATOM     17  C   UNL     1      15.228   0.974  12.121  1.00  0.00    -0.000 C 
BRANCH  17  18
ATOM     18  C   UNL     1      16.657   0.821  11.571  1.00  0.00    -0.000 C 
BRANCH  18  19
ATOM     19  C   UNL     1      17.089  -0.645  11.428  1.00  0.00    -0.003 C 
ATOM     20  C   UNL     1      17.814  -1.129  12.682  1.00  0.00     0.004 C 
ENDBRANCH  18  19
ENDBRANCH  17  18
ENDBRANCH  16  17
ENDBRANCH  15  16
ENDBRANCH  14  15
ENDBRANCH  13  14
ENDBRANCH  12  13
ENDBRANCH   1  12
TORSDOF 16
ENDMDL
MODEL 3
REMARK VINA RESULT:    -5.961      2.754      5.889
REMARK INTER + INTRA:         -13.878
REMARK INTER:                 -11.863
REMARK INTRA:                  -2.014
REMARK UNBOUND:                -2.341
REMARK SMILES CCCCCCCCCCCCCCCCCC(=O)[O-]
REMARK SMILES IDX 10 1 11 2 12 3 13 4 14 5 15 6 16 7 17 8 18 9 19 10 20 11
REMARK SMILES IDX 9 12 8 13 7 14 6 15 5 16 4 17 3 18 2 19 1 20
REMARK H PARENT
REMARK Flexibility Score: inf
ROOT
ATOM      1  C   UNL     1      13.885   1.184  14.894  1.00  0.00     0.000 C 
ENDROOT
BRANCH   1   2
ATOM      2  C   UNL     1      14.958   1.405  15.972  1.00  0.00     0.000 C 
BRANCH   2   3
ATOM      3  C   UNL     1      14.442   2.216  17.171  1.00  0.00     0.000 C 
BRANCH   3   4
ATOM      4  C   UNL     1      13.100   1.658  17.670  1.00  0.00     0.000 C 
BRANCH   4   5
ATOM      5  C   UNL     1      13.271   0.410  18.550  1.00  0.00     0.000 C 
BRANCH   5   6
ATOM      6  C   UNL     1      14.384   0.579  19.599  1.00  0.00     0.000 C 
BRANCH   6   7
ATOM      7  C   UNL     1      15.007  -0.759  20.024  1.00  0.00     0.006 C 
BRANCH   7   8
ATOM      8  C   UNL     1      16.118  -1.226  19.071  1.00  0.00     0.053 C 
BRANCH   8   9
ATOM      9  C   UNL     1      15.815  -2.595  18.547  1.00  0.00     0.041 C 
ATOM     10  O   UNL     1      14.634  -2.911  18.244  1.00  0.00    -0.550 OA
ATOM     11  O   UNL     1      16.830  -3.538  18.437  1.00  0.00    -0.550 OA
ENDBRANCH   8   9
ENDBRANCH   7   8
ENDBRANCH   6   7
ENDBRANCH   5   6
ENDBRANCH   4   5
ENDBRANCH   3   4
ENDBRANCH   2   3
ENDBRANCH   1   2
BRANCH   1  12
ATOM     12  C   UNL     1      14.380   0.464  13.622  1.00  0.00     0.000 C 
BRANCH  12  13
ATOM     13  C   UNL     1      15.509   1.211  12.878  1.00  0.00    -0.000 C 
BRANCH  13  14
ATOM     14  C   UNL     1      15.529   0.894  11.373  1.00  0.00    -0.000 C 
BRANCH  14  15
ATOM     15  C   UNL     1      16.597  -0.160  11.004  1.00  0.00    -0.000 C 
BRANCH  15  16
ATOM     16  C   UNL     1      17.707  -0.319  12.061  1.00  0.00    -0.000 C 
BRANCH  16  17
ATOM     17  C   UNL     1      17.773  -1.702  12.737  1.00  0.00    -0.000 C 
BRANCH  17  18
ATOM     18  C   UNL     1      18.481  -1.727  14.104  1.00  0.00    -0.000 C 
BRANCH  18  19
ATOM     19  C   UNL     1      17.566  -1.298  15.258  1.00  0.00    -0.003 C 
ATOM     20  C   UNL     1      16.220  -2.019  15.190  1.00  0.00     0.004 C 
ENDBRANCH  18  19
ENDBRANCH  17  18
ENDBRANCH  16  17
ENDBRANCH  15  16
ENDBRANCH  14  15
ENDBRANCH  13  14
ENDBRANCH  12  13
ENDBRANCH   1  12
TORSDOF 16
ENDMDL
MODEL 4
REMARK VINA RESULT:    -5.957      2.420      5.950
REMARK INTER + INTRA:         -13.869
REMARK INTER:                 -11.619
REMARK INTRA:                  -2.249
REMARK UNBOUND:                -2.341
REMARK SMILES CCCCCCCCCCCCCCCCCC(=O)[O-]
REMARK SMILES IDX 10 1 11 2 12 3 13 4 14 5 15 6 16 7 17 8 18 9 19 10 20 11
REMARK SMILES IDX 9 12 8 13 7 14 6 15 5 16 4 17 3 18 2 19 1 20
REMARK H PARENT
REMARK Flexibility Score: inf
ROOT
ATOM      1  C   UNL     1      18.261  -3.046  16.319  1.00  0.00     0.000 C 
ENDROOT
BRANCH   1   2
ATOM      2  C   UNL     1      17.484  -2.901  17.637  1.00  0.00     0.000 C 
BRANCH   2   3
ATOM      3  C   UNL     1      15.987  -3.212  17.485  1.00  0.00     0.000 C 
BRANCH   3   4
ATOM      4  C   UNL     1      15.136  -1.984  17.845  1.00  0.00     0.000 C 
BRANCH   4   5
ATOM      5  C   UNL     1      15.771  -1.131  18.954  1.00  0.00     0.000 C 
BRANCH   5   6
ATOM      6  C   UNL     1      14.792  -0.093  19.530  1.00  0.00     0.000 C 
BRANCH   6   7
ATOM      7  C   UNL     1      13.553   0.109  18.645  1.00  0.00     0.006 C 
BRANCH   7   8
ATOM      8  C   UNL     1      13.244   1.589  18.384  1.00  0.00     0.053 C 
BRANCH   8   9
ATOM      9  C   UNL     1      13.709   1.988  17.019  1.00  0.00     0.041 C 
ATOM     10  O   UNL     1      12.877   2.148  16.087  1.00  0.00    -0.550 OA
ATOM     11  O   UNL     1      15.066   2.137  16.762  1.00  0.00    -0.550 OA
ENDBRANCH   8   9
ENDBRANCH   7   8
ENDBRANCH   6   7
ENDBRANCH   5   6
ENDBRANCH   4   5
ENDBRANCH   3   4
ENDBRANCH   2   3
ENDBRANCH   1   2
BRANCH   1  12
ATOM     12  C   UNL     1      18.551  -1.721  15.585  1.00  0.00     0.000 C 
BRANCH  12  13
ATOM     13  C   UNL     1      18.009  -1.674  14.140  1.00  0.00    -0.000 C 
BRANCH  13  14
ATOM     14  C   UNL     1      16.472  -1.729  14.089  1.00  0.00    -0.000 C 
BRANCH  14  15
ATOM     15  C   UNL     1      15.813  -0.465  14.684  1.00  0.00    -0.000 C 
BRANCH  15  16
ATOM     16  C   UNL     1      14.696   0.129  13.804  1.00  0.00    -0.000 C 
BRANCH  16  17
ATOM     17  C   UNL     1      15.153   1.213  12.809  1.00  0.00    -0.000 C 
BRANCH  17  18
ATOM     18  C   UNL     1      15.501   0.699  11.400  1.00  0.00    -0.000 C 
BRANCH  18  19
ATOM     19  C   UNL     1      17.012   0.548  11.176  1.00  0.00    -0.003 C 
ATOM     20  C   UNL     1      17.334  -0.775  10.482  1.00  0.00     0.004 C 
ENDBRANCH  18  19
ENDBRANCH  17  18
ENDBRANCH  16  17
ENDBRANCH  15  16
ENDBRANCH  14  15
ENDBRANCH  13  14
ENDBRANCH  12  13
ENDBRANCH   1  12
TORSDOF 16
ENDMDL
MODEL 5
REMARK VINA RESULT:    -5.945      1.106      3.494
REMARK INTER + INTRA:         -13.847
REMARK INTER:                 -11.487
REMARK INTRA:                  -2.359
REMARK UNBOUND:                -2.341
REMARK SMILES CCCCCCCCCCCCCCCCCC(=O)[O-]
REMARK SMILES IDX 10 1 11 2 12 3 13 4 14 5 15 6 16 7 17 8 18 9 19 10 20 11
REMARK SMILES IDX 9 12 8 13 7 14 6 15 5 16 4 17 3 18 2 19 1 20
REMARK H PARENT
REMARK Flexibility Score: inf
ROOT
ATOM      1  C   UNL     1      16.193  -2.473  16.058  1.00  0.00     0.000 C 
ENDROOT
BRANCH   1   2
ATOM      2  C   UNL     1      17.134  -1.557  15.259  1.00  0.00     0.000 C 
BRANCH   2   3
ATOM      3  C   UNL     1      16.462  -0.246  14.821  1.00  0.00     0.000 C 
BRANCH   3   4
ATOM      4  C   UNL     1      15.002  -0.492  14.412  1.00  0.00     0.000 C 
BRANCH   4   5
ATOM      5  C   UNL     1      14.323   0.772  13.863  1.00  0.00     0.000 C 
BRANCH   5   6
ATOM      6  C   UNL     1      15.241   1.572  12.921  1.00  0.00     0.000 C 
BRANCH   6   7
ATOM      7  C   UNL     1      15.448   0.878  11.566  1.00  0.00     0.006 C 
BRANCH   7   8
ATOM      8  C   UNL     1      16.921   0.848  11.134  1.00  0.00     0.053 C 
BRANCH   8   9
ATOM      9  C   UNL     1      17.333  -0.546  10.780  1.00  0.00     0.041 C 
ATOM     10  O   UNL     1      17.398  -1.434  11.671  1.00  0.00    -0.550 OA
ATOM     11  O   UNL     1      17.693  -0.856   9.474  1.00  0.00    -0.550 OA
ENDBRANCH   8   9
ENDBRANCH   7   8
ENDBRANCH   6   7
ENDBRANCH   5   6
ENDBRANCH   4   5
ENDBRANCH   3   4
ENDBRANCH   2   3
ENDBRANCH   1   2
BRANCH   1  12
ATOM     12  C   UNL     1      16.784  -3.029  17.369  1.00  0.00     0.000 C 
BRANCH  12  13
ATOM     13  C   UNL     1      17.631  -2.006  18.158  1.00  0.00    -0.000 C 
BRANCH  13  14
ATOM     14  C   UNL     1      16.764  -0.952  18.869  1.00  0.00    -0.000 C 
BRANCH  14  15
ATOM     15  C   UNL     1      15.663  -1.586  19.748  1.00  0.00    -0.000 C 
BRANCH  15  16
ATOM     16  C   UNL     1      14.502  -0.628  20.080  1.00  0.00    -0.000 C 
BRANCH  16  17
ATOM     17  C   UNL     1      13.244  -0.796  19.206  1.00  0.00    -0.000 C 
BRANCH  17  18
ATOM     18  C   UNL     1      13.356  -0.216  17.784  1.00  0.00    -0.000 C 
BRANCH  18  19
ATOM     19  C   UNL     1      13.305   1.318  17.759  1.00  0.00    -0.003 C 
ATOM     20  C   UNL     1      14.650   1.904  17.331  1.00  0.00     0.004 C 
ENDBRANCH  18  19
ENDBRANCH  17  18
ENDBRANCH  16  17
ENDBRANCH  15  16
ENDBRANCH  14  15
ENDBRANCH  13  14
ENDBRANCH  12  13
ENDBRANCH   1  12
TORSDOF 16
ENDMDL
MODEL 6
REMARK VINA RESULT:    -5.924      2.068      4.656
REMARK INTER + INTRA:         -13.806
REMARK INTER:                 -11.671
REMARK INTRA:                  -2.136
REMARK UNBOUND:                -2.341
REMARK SMILES CCCCCCCCCCCCCCCCCC(=O)[O-]
REMARK SMILES IDX 10 1 11 2 12 3 13 4 14 5 15 6 16 7 17 8 18 9 19 10 20 11
REMARK SMILES IDX 9 12 8 13 7 14 6 15 5 16 4 17 3 18 2 19 1 20
REMARK H PARENT
REMARK Flexibility Score: inf
ROOT
ATOM      1  C   UNL     1      14.862  -0.366  19.991  1.00  0.00     0.000 C 
ENDROOT
BRANCH   1   2
ATOM      2  C   UNL     1      15.996  -0.971  19.148  1.00  0.00     0.000 C 
BRANCH   2   3
ATOM      3  C   UNL     1      15.888  -2.497  19.008  1.00  0.00     0.000 C 
BRANCH   3   4
ATOM      4  C   UNL     1      15.643  -2.894  17.544  1.00  0.00     0.000 C 
BRANCH   4   5
ATOM      5  C   UNL     1      15.694  -1.690  16.590  1.00  0.00     0.000 C 
BRANCH   5   6
ATOM      6  C   UNL     1      16.239  -2.065  15.200  1.00  0.00     0.000 C 
BRANCH   6   7
ATOM      7  C   UNL     1      17.299  -1.076  14.693  1.00  0.00     0.006 C 
BRANCH   7   8
ATOM      8  C   UNL     1      18.528  -1.777  14.096  1.00  0.00     0.053 C 
BRANCH   8   9
ATOM      9  C   UNL     1      19.399  -2.320  15.184  1.00  0.00     0.041 C 
ATOM     10  O   UNL     1      20.132  -1.546  15.855  1.00  0.00    -0.550 OA
ATOM     11  O   UNL     1      19.438  -3.687  15.427  1.00  0.00    -0.550 OA
ENDBRANCH   8   9
ENDBRANCH   7   8
ENDBRANCH   6   7
ENDBRANCH   5   6
ENDBRANCH   4   5
ENDBRANCH   3   4
ENDBRANCH   2   3
ENDBRANCH   1   2
BRANCH   1  12
ATOM     12  C   UNL     1      14.222   0.908  19.403  1.00  0.00     0.000 C 
BRANCH  12  13
ATOM     13  C   UNL     1      13.330   0.649  18.169  1.00  0.00    -0.000 C 
BRANCH  13  14
ATOM     14  C   UNL     1      13.353   1.822  17.173  1.00  0.00    -0.000 C 
BRANCH  14  15
ATOM     15  C   UNL     1      14.490   1.695  16.135  1.00  0.00    -0.000 C 
BRANCH  15  16
ATOM     16  C   UNL     1      14.014   1.249  14.739  1.00  0.00    -0.000 C 
BRANCH  16  17
ATOM     17  C   UNL     1      14.965   1.601  13.579  1.00  0.00    -0.000 C 
BRANCH  17  18
ATOM     18  C   UNL     1      15.057   0.542  12.466  1.00  0.00    -0.000 C 
BRANCH  18  19
ATOM     19  C   UNL     1      16.082   0.902  11.382  1.00  0.00    -0.003 C 
ATOM     20  C   UNL     1      16.909  -0.318  10.981  1.00  0.00     0.004 C 
ENDBRANCH  18  19
ENDBRANCH  17  18
ENDBRANCH  16  17
ENDBRANCH  15  16
ENDBRANCH  14  15
ENDBRANCH  13  14
ENDBRANCH  12  13
ENDBRANCH   1  12
TORSDOF 16
ENDMDL
MODEL 7
REMARK VINA RESULT:    -5.842      2.873      6.527
REMARK INTER + INTRA:         -13.647
REMARK INTER:                 -11.624
REMARK INTRA:                  -2.023
REMARK UNBOUND:                -2.341
REMARK SMILES CCCCCCCCCCCCCCCCCC(=O)[O-]
REMARK SMILES IDX 10 1 11 2 12 3 13 4 14 5 15 6 16 7 17 8 18 9 19 10 20 11
REMARK SMILES IDX 9 12 8 13 7 14 6 15 5 16 4 17 3 18 2 19 1 20
REMARK H PARENT
REMARK Flexibility Score: inf
ROOT
ATOM      1  C   UNL     1      17.944  -1.770  15.433  1.00  0.00     0.000 C 
ENDROOT
BRANCH   1   2
ATOM      2  C   UNL     1      18.093  -2.959  16.395  1.00  0.00     0.000 C 
BRANCH   2   3
ATOM      3  C   UNL     1      16.745  -3.476  16.921  1.00  0.00     0.000 C 
BRANCH   3   4
ATOM      4  C   UNL     1      16.509  -3.011  18.366  1.00  0.00     0.000 C 
BRANCH   4   5
ATOM      5  C   UNL     1      17.191  -1.669  18.673  1.00  0.00     0.000 C 
BRANCH   5   6
ATOM      6  C   UNL     1      16.288  -0.723  19.486  1.00  0.00     0.000 C 
BRANCH   6   7
ATOM      7  C   UNL     1      15.156  -1.464  20.214  1.00  0.00     0.006 C 
BRANCH   7   8
ATOM      8  C   UNL     1      13.843  -0.670  20.235  1.00  0.00     0.053 C 
BRANCH   8   9
ATOM      9  C   UNL     1      13.454  -0.267  18.848  1.00  0.00     0.041 C 
ATOM     10  O   UNL     1      13.309   0.950  18.558  1.00  0.00    -0.550 OA
ATOM     11  O   UNL     1      13.204  -1.237  17.885  1.00  0.00    -0.550 OA
ENDBRANCH   8   9
ENDBRANCH   7   8
ENDBRANCH   6   7
ENDBRANCH   5   6
ENDBRANCH   4   5
ENDBRANCH   3   4
ENDBRANCH   2   3
ENDBRANCH   1   2
BRANCH   1  12
ATOM     12  C   UNL     1      16.668  -1.790  14.567  1.00  0.00     0.000 C 
BRANCH  12  13
ATOM     13  C   UNL     1      15.485  -1.004  15.176  1.00  0.00    -0.000 C 
BRANCH  13  14
ATOM     14  C   UNL     1      15.935   0.304  15.850  1.00  0.00    -0.000 C 
BRANCH  14  15
ATOM     15  C   UNL     1      15.144   1.532  15.349  1.00  0.00    -0.000 C 
BRANCH  15  16
ATOM     16  C   UNL     1      14.389   1.290  14.027  1.00  0.00    -0.000 C 
BRANCH  16  17
ATOM     17  C   UNL     1      15.134   1.738  12.755  1.00  0.00    -0.000 C 
BRANCH  17  18
ATOM     18  C   UNL     1      15.486   0.607  11.773  1.00  0.00    -0.000 C 
BRANCH  18  19
ATOM     19  C   UNL     1      16.993   0.497  11.504  1.00  0.00    -0.003 C 
ATOM     20  C   UNL     1      17.296  -0.640  10.529  1.00  0.00     0.004 C 
ENDBRANCH  18  19
ENDBRANCH  17  18
ENDBRANCH  16  17
ENDBRANCH  15  16
ENDBRANCH  14  15
ENDBRANCH  13  14
ENDBRANCH  12  13
ENDBRANCH   1  12
TORSDOF 16
ENDMDL
MODEL 8
REMARK VINA RESULT:    -5.837      1.867      3.645
REMARK INTER + INTRA:         -13.637
REMARK INTER:                 -11.578
REMARK INTRA:                  -2.059
REMARK UNBOUND:                -2.341
REMARK SMILES CCCCCCCCCCCCCCCCCC(=O)[O-]
REMARK SMILES IDX 10 1 11 2 12 3 13 4 14 5 15 6 16 7 17 8 18 9 19 10 20 11
REMARK SMILES IDX 9 12 8 13 7 14 6 15 5 16 4 17 3 18 2 19 1 20
REMARK H PARENT
REMARK Flexibility Score: inf
ROOT
ATOM      1  C   UNL     1      14.956   1.102  16.080  1.00  0.00     0.000 C 
ENDROOT
BRANCH   1   2
ATOM      2  C   UNL     1      14.227   1.044  14.728  1.00  0.00     0.000 C 
BRANCH   2   3
ATOM      3  C   UNL     1      15.046   1.655  13.580  1.00  0.00     0.000 C 
BRANCH   3   4
ATOM      4  C   UNL     1      15.022   0.740  12.346  1.00  0.00     0.000 C 
BRANCH   4   5
ATOM      5  C   UNL     1      16.309   0.840  11.512  1.00  0.00     0.000 C 
BRANCH   5   6
ATOM      6  C   UNL     1      16.974  -0.530  11.292  1.00  0.00     0.000 C 
BRANCH   6   7
ATOM      7  C   UNL     1      18.090  -0.817  12.307  1.00  0.00     0.006 C 
BRANCH   7   8
ATOM      8  C   UNL     1      17.616  -1.683  13.482  1.00  0.00     0.053 C 
BRANCH   8   9
ATOM      9  C   UNL     1      18.767  -2.030  14.373  1.00  0.00     0.041 C 
ATOM     10  O   UNL     1      19.254  -3.191  14.356  1.00  0.00    -0.550 OA
ATOM     11  O   UNL     1      19.272  -1.085  15.258  1.00  0.00    -0.550 OA
ENDBRANCH   8   9
ENDBRANCH   7   8
ENDBRANCH   6   7
ENDBRANCH   5   6
ENDBRANCH   4   5
ENDBRANCH   3   4
ENDBRANCH   2   3
ENDBRANCH   1   2
BRANCH   1  12
ATOM     12  C   UNL     1      14.375   2.113  17.090  1.00  0.00     0.000 C 
BRANCH  12  13
ATOM     13  C   UNL     1      13.413   1.484  18.122  1.00  0.00    -0.000 C 
BRANCH  13  14
ATOM     14  C   UNL     1      13.414  -0.054  18.063  1.00  0.00    -0.000 C 
BRANCH  14  15
ATOM     15  C   UNL     1      13.644  -0.700  19.447  1.00  0.00    -0.000 C 
BRANCH  15  16
ATOM     16  C   UNL     1      14.951  -1.510  19.549  1.00  0.00    -0.000 C 
BRANCH  16  17
ATOM     17  C   UNL     1      16.239  -0.712  19.268  1.00  0.00    -0.000 C 
BRANCH  17  18
ATOM     18  C   UNL     1      17.078  -1.224  18.084  1.00  0.00    -0.000 C 
BRANCH  18  19
ATOM     19  C   UNL     1      16.343  -2.275  17.241  1.00  0.00    -0.003 C 
ATOM     20  C   UNL     1      17.060  -3.623  17.296  1.00  0.00     0.004 C 
ENDBRANCH  18  19
ENDBRANCH  17  18
ENDBRANCH  16  17
ENDBRANCH  15  16
ENDBRANCH  14  15
ENDBRANCH  13  14
ENDBRANCH  12  13
ENDBRANCH   1  12
TORSDOF 16
ENDMDL
MODEL 9
REMARK VINA RESULT:    -5.802      2.056      4.373
REMARK INTER + INTRA:         -13.570
REMARK INTER:                 -11.317
REMARK INTRA:                  -2.253
REMARK UNBOUND:                -2.341
REMARK SMILES CCCCCCCCCCCCCCCCCC(=O)[O-]
REMARK SMILES IDX 10 1 11 2 12 3 13 4 14 5 15 6 16 7 17 8 18 9 19 10 20 11
REMARK SMILES IDX 9 12 8 13 7 14 6 15 5 16 4 17 3 18 2 19 1 20
REMARK H PARENT
REMARK Flexibility Score: inf
ROOT
ATOM      1  C   UNL     1      14.171   0.573  15.025  1.00  0.00     0.000 C 
ENDROOT
BRANCH   1   2
ATOM      2  C   UNL     1      14.446   0.439  13.518  1.00  0.00     0.000 C 
BRANCH   2   3
ATOM      3  C   UNL     1      15.134   1.677  12.923  1.00  0.00     0.000 C 
BRANCH   3   4
ATOM      4  C   UNL     1      15.961   1.299  11.685  1.00  0.00     0.000 C 
BRANCH   4   5
ATOM      5  C   UNL     1      16.215  -0.214  11.585  1.00  0.00     0.000 C 
BRANCH   5   6
ATOM      6  C   UNL     1      17.650  -0.596  11.988  1.00  0.00     0.000 C 
BRANCH   6   7
ATOM      7  C   UNL     1      17.696  -1.785  12.959  1.00  0.00     0.006 C 
BRANCH   7   8
ATOM      8  C   UNL     1      17.676  -1.351  14.432  1.00  0.00     0.053 C 
BRANCH   8   9
ATOM      9  C   UNL     1      18.925  -1.796  15.125  1.00  0.00     0.041 C 
ATOM     10  O   UNL     1      19.552  -1.002  15.875  1.00  0.00    -0.550 OA
ATOM     11  O   UNL     1      19.424  -3.075  14.906  1.00  0.00    -0.550 OA
ENDBRANCH   8   9
ENDBRANCH   7   8
ENDBRANCH   6   7
ENDBRANCH   5   6
ENDBRANCH   4   5
ENDBRANCH   3   4
ENDBRANCH   2   3
ENDBRANCH   1   2
BRANCH   1  12
ATOM     12  C   UNL     1      15.327   1.182  15.845  1.00  0.00     0.000 C 
BRANCH  12  13
ATOM     13  C   UNL     1      14.861   2.107  16.992  1.00  0.00    -0.000 C 
BRANCH  13  14
ATOM     14  C   UNL     1      13.444   1.763  17.483  1.00  0.00    -0.000 C 
BRANCH  14  15
ATOM     15  C   UNL     1      13.454   0.929  18.783  1.00  0.00    -0.000 C 
BRANCH  15  16
ATOM     16  C   UNL     1      13.403  -0.593  18.547  1.00  0.00    -0.000 C 
BRANCH  16  17
ATOM     17  C   UNL     1      13.785  -1.458  19.764  1.00  0.00    -0.000 C 
BRANCH  17  18
ATOM     18  C   UNL     1      15.294  -1.701  19.944  1.00  0.00    -0.000 C 
BRANCH  18  19
ATOM     19  C   UNL     1      16.054  -1.752  18.611  1.00  0.00    -0.003 C 
ATOM     20  C   UNL     1      17.146  -0.684  18.560  1.00  0.00     0.004 C 
ENDBRANCH  18  19
ENDBRANCH  17  18
ENDBRANCH  16  17
ENDBRANCH  15  16
ENDBRANCH  14  15
ENDBRANCH  13  14
ENDBRANCH  12  13
ENDBRANCH   1  12
TORSDOF 16
ENDMDL
