MODEL 1
REMARK VINA RESULT:    -3.458      0.000      0.000
REMARK INTER + INTRA:          -6.523
REMARK INTER:                  -5.479
REMARK INTRA:                  -1.044
REMARK UNBOUND:                -1.044
REMARK SMILES CCCCCCCCCCCC=O
REMARK SMILES IDX 7 1 6 2 5 3 4 4 3 5 2 6 1 7 8 8 9 9 10 10 11 11 12 12 13 13
REMARK H PARENT
REMARK Flexibility Score: inf
ROOT
ATOM      1  C   UNL     1     118.726 115.752 112.900  1.00  0.00     0.000 C 
ENDROOT
BRANCH   1   2
ATOM      2  C   UNL     1     119.241 116.836 111.942  1.00  0.00     0.000 C 
BRANCH   2   3
ATOM      3  C   UNL     1     118.895 118.238 112.459  1.00  0.00    -0.000 C 
BRANCH   3   4
ATOM      4  C   UNL     1     117.390 118.511 112.347  1.00  0.00    -0.000 C 
BRANCH   4   5
ATOM      5  C   UNL     1     116.767 118.734 113.730  1.00  0.00    -0.000 C 
BRANCH   5   6
ATOM      6  C   UNL     1     115.263 118.439 113.708  1.00  0.00    -0.003 C 
ATOM      7  C   UNL     1     114.664 118.725 112.334  1.00  0.00     0.004 C 
ENDBRANCH   5   6
ENDBRANCH   4   5
ENDBRANCH   3   4
ENDBRANCH   2   3
ENDBRANCH   1   2
BRANCH   1   8
ATOM      8  C   UNL     1     118.632 114.369 112.220  1.00  0.00     0.000 C 
BRANCH   8   9
ATOM      9  C   UNL     1     117.233 113.732 112.311  1.00  0.00     0.000 C 
BRANCH   9  10
ATOM     10  C   UNL     1     116.102 114.734 112.047  1.00  0.00     0.008 C 
BRANCH  10  11
ATOM     11  C   UNL     1     115.155 114.823 113.249  1.00  0.00     0.072 C 
BRANCH  11  12
ATOM     12  C   UNL     1     113.723 114.762 112.810  1.00  0.00     0.224 C 
ATOM     13  O   UNL     1     112.851 114.411 113.590  1.00  0.00    -0.303 OA
ENDBRANCH  11  12
ENDBRANCH  10  11
ENDBRANCH   9  10
ENDBRANCH   8   9
ENDBRANCH   1   8
TORSDOF 10
ENDMDL
MODEL 2
REMARK VINA RESULT:    -3.408      2.190      4.197
REMARK INTER + INTRA:          -6.444
REMARK INTER:                  -5.145
REMARK INTRA:                  -1.299
REMARK UNBOUND:                -1.044
REMARK SMILES CCCCCCCCCCCC=O
REMARK SMILES IDX 7 1 6 2 5 3 4 4 3 5 2 6 1 7 8 8 9 9 10 10 11 11 12 12 13 13
REMARK H PARENT
REMARK Flexibility Score: inf
ROOT
ATOM      1  C   UNL     1     115.211 119.862 114.489  1.00  0.00     0.000 C 
ENDROOT
BRANCH   1   2
ATOM      2  C   UNL     1     114.989 118.822 115.597  1.00  0.00     0.000 C 
BRANCH   2   3
ATOM      3  C   UNL     1     116.193 117.880 115.718  1.00  0.00    -0.000 C 
BRANCH   3   4
ATOM      4  C   UNL     1     117.488 118.585 115.298  1.00  0.00    -0.000 C 
BRANCH   4   5
ATOM      5  C   UNL     1     118.412 117.629 114.535  1.00  0.00    -0.000 C 
BRANCH   5   6
ATOM      6  C   UNL     1     119.542 118.396 113.839  1.00  0.00    -0.003 C 
ATOM      7  C   UNL     1     119.483 118.212 112.325  1.00  0.00     0.004 C 
ENDBRANCH   5   6
ENDBRANCH   4   5
ENDBRANCH   3   4
ENDBRANCH   2   3
ENDBRANCH   1   2
BRANCH   1   8
ATOM      8  C   UNL     1     114.628 119.406 113.134  1.00  0.00     0.000 C 
BRANCH   8   9
ATOM      9  C   UNL     1     115.696 118.922 112.137  1.00  0.00     0.000 C 
BRANCH   9  10
ATOM     10  C   UNL     1     115.652 117.406 111.903  1.00  0.00     0.008 C 
BRANCH  10  11
ATOM     11  C   UNL     1     114.467 116.770 112.639  1.00  0.00     0.072 C 
BRANCH  11  12
ATOM     12  C   UNL     1     113.927 115.599 111.875  1.00  0.00     0.224 C 
ATOM     13  O   UNL     1     112.743 115.307 111.947  1.00  0.00    -0.303 OA
ENDBRANCH  11  12
ENDBRANCH  10  11
ENDBRANCH   9  10
ENDBRANCH   8   9
ENDBRANCH   1   8
TORSDOF 10
ENDMDL
MODEL 3
REMARK VINA RESULT:    -3.407      1.192      3.591
REMARK INTER + INTRA:          -6.442
REMARK INTER:                  -5.176
REMARK INTRA:                  -1.265
REMARK UNBOUND:                -1.044
REMARK SMILES CCCCCCCCCCCC=O
REMARK SMILES IDX 7 1 6 2 5 3 4 4 3 5 2 6 1 7 8 8 9 9 10 10 11 11 12 12 13 13
REMARK H PARENT
REMARK Flexibility Score: inf
ROOT
ATOM      1  C   UNL     1     117.364 118.516 111.930  1.00  0.00     0.000 C 
ENDROOT
BRANCH   1   2
ATOM      2  C   UNL     1     118.397 118.527 113.066  1.00  0.00     0.000 C 
BRANCH   2   3
ATOM      3  C   UNL     1     119.121 117.179 113.165  1.00  0.00    -0.000 C 
BRANCH   3   4
ATOM      4  C   UNL     1     118.800 116.291 111.957  1.00  0.00    -0.000 C 
BRANCH   4   5
ATOM      5  C   UNL     1     118.397 114.880 112.403  1.00  0.00    -0.000 C 
BRANCH   5   6
ATOM      6  C   UNL     1     118.368 114.775 113.932  1.00  0.00    -0.003 C 
ATOM      7  C   UNL     1     117.069 114.138 114.417  1.00  0.00     0.004 C 
ENDBRANCH   5   6
ENDBRANCH   4   5
ENDBRANCH   3   4
ENDBRANCH   2   3
ENDBRANCH   1   2
BRANCH   1   8
ATOM      8  C   UNL     1     116.075 119.279 112.305  1.00  0.00     0.000 C 
BRANCH   8   9
ATOM      9  C   UNL     1     114.801 118.421 112.207  1.00  0.00     0.000 C 
BRANCH   9  10
ATOM     10  C   UNL     1     114.899 117.111 112.999  1.00  0.00     0.008 C 
BRANCH  10  11
ATOM     11  C   UNL     1     114.686 115.899 112.086  1.00  0.00     0.072 C 
BRANCH  11  12
ATOM     12  C   UNL     1     113.375 115.232 112.377  1.00  0.00     0.224 C 
ATOM     13  O   UNL     1     113.283 114.418 113.283  1.00  0.00    -0.303 OA
ENDBRANCH  11  12
ENDBRANCH  10  11
ENDBRANCH   9  10
ENDBRANCH   8   9
ENDBRANCH   1   8
TORSDOF 10
ENDMDL
MODEL 4
REMARK VINA RESULT:    -3.393      2.228      4.065
REMARK INTER + INTRA:          -6.421
REMARK INTER:                  -5.055
REMARK INTRA:                  -1.365
REMARK UNBOUND:                -1.044
REMARK SMILES CCCCCCCCCCCC=O
REMARK SMILES IDX 7 1 6 2 5 3 4 4 3 5 2 6 1 7 8 8 9 9 10 10 11 11 12 12 13 13
REMARK H PARENT
REMARK Flexibility Score: inf
ROOT
ATOM      1  C   UNL     1     114.255 114.854 114.421  1.00  0.00     0.000 C 
ENDROOT
BRANCH   1   2
ATOM      2  C   UNL     1     113.623 115.979 115.255  1.00  0.00     0.000 C 
BRANCH   2   3
ATOM      3  C   UNL     1     114.700 116.879 115.872  1.00  0.00    -0.000 C 
BRANCH   3   4
ATOM      4  C   UNL     1     114.856 118.179 115.074  1.00  0.00    -0.000 C 
BRANCH   4   5
ATOM      5  C   UNL     1     116.191 118.206 114.321  1.00  0.00    -0.000 C 
BRANCH   5   6
ATOM      6  C   UNL     1     115.982 118.559 112.844  1.00  0.00    -0.003 C 
ATOM      7  C   UNL     1     114.519 118.882 112.556  1.00  0.00     0.004 C 
ENDBRANCH   5   6
ENDBRANCH   4   5
ENDBRANCH   3   4
ENDBRANCH   2   3
ENDBRANCH   1   2
BRANCH   1   8
ATOM      8  C   UNL     1     113.756 114.860 112.960  1.00  0.00     0.000 C 
BRANCH   8   9
ATOM      9  C   UNL     1     114.878 115.063 111.926  1.00  0.00     0.000 C 
BRANCH   9  10
ATOM     10  C   UNL     1     116.128 114.227 112.229  1.00  0.00     0.008 C 
BRANCH  10  11
ATOM     11  C   UNL     1     117.364 115.122 112.376  1.00  0.00     0.072 C 
BRANCH  11  12
ATOM     12  C   UNL     1     118.625 114.324 112.228  1.00  0.00     0.224 C 
ATOM     13  O   UNL     1     118.968 113.542 113.102  1.00  0.00    -0.303 OA
ENDBRANCH  11  12
ENDBRANCH  10  11
ENDBRANCH   9  10
ENDBRANCH   8   9
ENDBRANCH   1   8
TORSDOF 10
ENDMDL
MODEL 5
REMARK VINA RESULT:    -3.327      2.160      4.585
REMARK INTER + INTRA:          -6.316
REMARK INTER:                  -5.082
REMARK INTRA:                  -1.234
REMARK UNBOUND:                -1.044
REMARK SMILES CCCCCCCCCCCC=O
REMARK SMILES IDX 7 1 6 2 5 3 4 4 3 5 2 6 1 7 8 8 9 9 10 10 11 11 12 12 13 13
REMARK H PARENT
REMARK Flexibility Score: inf
ROOT
ATOM      1  C   UNL     1     114.760 118.993 113.089  1.00  0.00     0.000 C 
ENDROOT
BRANCH   1   2
ATOM      2  C   UNL     1     115.133 119.303 114.546  1.00  0.00     0.000 C 
BRANCH   2   3
ATOM      3  C   UNL     1     114.614 118.214 115.492  1.00  0.00    -0.000 C 
BRANCH   3   4
ATOM      4  C   UNL     1     115.089 116.825 115.047  1.00  0.00    -0.000 C 
BRANCH   4   5
ATOM      5  C   UNL     1     113.900 115.896 114.777  1.00  0.00    -0.000 C 
BRANCH   5   6
ATOM      6  C   UNL     1     114.255 114.843 113.721  1.00  0.00    -0.003 C 
ATOM      7  C   UNL     1     113.518 115.105 112.411  1.00  0.00     0.004 C 
ENDBRANCH   5   6
ENDBRANCH   4   5
ENDBRANCH   3   4
ENDBRANCH   2   3
ENDBRANCH   1   2
BRANCH   1   8
ATOM      8  C   UNL     1     115.902 119.337 112.108  1.00  0.00     0.000 C 
BRANCH   8   9
ATOM      9  C   UNL     1     117.165 118.481 112.309  1.00  0.00     0.000 C 
BRANCH   9  10
ATOM     10  C   UNL     1     116.973 117.021 111.879  1.00  0.00     0.008 C 
BRANCH  10  11
ATOM     11  C   UNL     1     117.944 116.096 112.621  1.00  0.00     0.072 C 
BRANCH  11  12
ATOM     12  C   UNL     1     118.104 114.793 111.897  1.00  0.00     0.224 C 
ATOM     13  O   UNL     1     118.870 113.941 112.318  1.00  0.00    -0.303 OA
ENDBRANCH  11  12
ENDBRANCH  10  11
ENDBRANCH   9  10
ENDBRANCH   8   9
ENDBRANCH   1   8
TORSDOF 10
ENDMDL
MODEL 6
REMARK VINA RESULT:    -3.300      2.648      4.228
REMARK INTER + INTRA:          -6.273
REMARK INTER:                  -4.796
REMARK INTRA:                  -1.478
REMARK UNBOUND:                -1.044
REMARK SMILES CCCCCCCCCCCC=O
REMARK SMILES IDX 7 1 6 2 5 3 4 4 3 5 2 6 1 7 8 8 9 9 10 10 11 11 12 12 13 13
REMARK H PARENT
REMARK Flexibility Score: inf
ROOT
ATOM      1  C   UNL     1     116.986 114.414 113.158  1.00  0.00     0.000 C 
ENDROOT
BRANCH   1   2
ATOM      2  C   UNL     1     115.928 114.980 112.199  1.00  0.00     0.000 C 
BRANCH   2   3
ATOM      3  C   UNL     1     114.655 115.379 112.956  1.00  0.00    -0.000 C 
BRANCH   3   4
ATOM      4  C   UNL     1     114.612 116.891 113.203  1.00  0.00    -0.000 C 
BRANCH   4   5
ATOM      5  C   UNL     1     114.674 117.667 111.882  1.00  0.00    -0.000 C 
BRANCH   5   6
ATOM      6  C   UNL     1     115.052 119.133 112.124  1.00  0.00    -0.003 C 
ATOM      7  C   UNL     1     114.616 119.594 113.512  1.00  0.00     0.004 C 
ENDBRANCH   5   6
ENDBRANCH   4   5
ENDBRANCH   3   4
ENDBRANCH   2   3
ENDBRANCH   1   2
BRANCH   1   8
ATOM      8  C   UNL     1     118.278 115.259 113.167  1.00  0.00     0.000 C 
BRANCH   8   9
ATOM      9  C   UNL     1     118.214 116.493 112.250  1.00  0.00     0.000 C 
BRANCH   9  10
ATOM     10  C   UNL     1     118.582 117.795 112.973  1.00  0.00     0.008 C 
BRANCH  10  11
ATOM     11  C   UNL     1     117.966 117.838 114.376  1.00  0.00     0.072 C 
BRANCH  11  12
ATOM     12  C   UNL     1     118.979 118.269 115.394  1.00  0.00     0.224 C 
ATOM     13  O   UNL     1     120.171 118.099 115.190  1.00  0.00    -0.303 OA
ENDBRANCH  11  12
ENDBRANCH  10  11
ENDBRANCH   9  10
ENDBRANCH   8   9
ENDBRANCH   1   8
TORSDOF 10
ENDMDL
MODEL 7
REMARK VINA RESULT:    -3.298      1.727      2.793
REMARK INTER + INTRA:          -6.270
REMARK INTER:                  -4.637
REMARK INTRA:                  -1.633
REMARK UNBOUND:                -1.044
REMARK SMILES CCCCCCCCCCCC=O
REMARK SMILES IDX 7 1 6 2 5 3 4 4 3 5 2 6 1 7 8 8 9 9 10 10 11 11 12 12 13 13
REMARK H PARENT
REMARK Flexibility Score: inf
ROOT
ATOM      1  C   UNL     1     118.604 117.290 112.804  1.00  0.00     0.000 C 
ENDROOT
BRANCH   1   2
ATOM      2  C   UNL     1     117.909 118.480 112.126  1.00  0.00     0.000 C 
BRANCH   2   3
ATOM      3  C   UNL     1     116.385 118.379 112.260  1.00  0.00    -0.000 C 
BRANCH   3   4
ATOM      4  C   UNL     1     115.990 117.799 113.624  1.00  0.00    -0.000 C 
BRANCH   4   5
ATOM      5  C   UNL     1     114.779 116.867 113.495  1.00  0.00    -0.000 C 
BRANCH   5   6
ATOM      6  C   UNL     1     114.891 115.991 112.242  1.00  0.00    -0.003 C 
ATOM      7  C   UNL     1     114.345 114.589 112.499  1.00  0.00     0.004 C 
ENDBRANCH   5   6
ENDBRANCH   4   5
ENDBRANCH   3   4
ENDBRANCH   2   3
ENDBRANCH   1   2
BRANCH   1   8
ATOM      8  C   UNL     1     118.696 116.061 111.875  1.00  0.00     0.000 C 
BRANCH   8   9
ATOM      9  C   UNL     1     118.368 114.731 112.578  1.00  0.00     0.000 C 
BRANCH   9  10
ATOM     10  C   UNL     1     118.284 114.866 114.104  1.00  0.00     0.008 C 
BRANCH  10  11
ATOM     11  C   UNL     1     117.337 113.818 114.697  1.00  0.00     0.072 C 
BRANCH  11  12
ATOM     12  C   UNL     1     116.567 114.383 115.853  1.00  0.00     0.224 C 
ATOM     13  O   UNL     1     115.346 114.372 115.847  1.00  0.00    -0.303 OA
ENDBRANCH  11  12
ENDBRANCH  10  11
ENDBRANCH   9  10
ENDBRANCH   8   9
ENDBRANCH   1   8
TORSDOF 10
ENDMDL
MODEL 8
REMARK VINA RESULT:    -3.297      1.899      3.911
REMARK INTER + INTRA:          -6.269
REMARK INTER:                  -5.136
REMARK INTRA:                  -1.132
REMARK UNBOUND:                -1.044
REMARK SMILES CCCCCCCCCCCC=O
REMARK SMILES IDX 7 1 6 2 5 3 4 4 3 5 2 6 1 7 8 8 9 9 10 10 11 11 12 12 13 13
REMARK H PARENT
REMARK Flexibility Score: inf
ROOT
ATOM      1  C   UNL     1     116.478 114.831 113.586  1.00  0.00     0.000 C 
ENDROOT
BRANCH   1   2
ATOM      2  C   UNL     1     117.149 114.004 112.479  1.00  0.00     0.000 C 
BRANCH   2   3
ATOM      3  C   UNL     1     118.495 114.617 112.073  1.00  0.00    -0.000 C 
BRANCH   3   4
ATOM      4  C   UNL     1     118.761 115.918 112.839  1.00  0.00    -0.000 C 
BRANCH   4   5
ATOM      5  C   UNL     1     119.026 117.080 111.875  1.00  0.00    -0.000 C 
BRANCH   5   6
ATOM      6  C   UNL     1     119.264 118.386 112.642  1.00  0.00    -0.003 C 
ATOM      7  C   UNL     1     118.589 118.353 114.010  1.00  0.00     0.004 C 
ENDBRANCH   5   6
ENDBRANCH   4   5
ENDBRANCH   3   4
ENDBRANCH   2   3
ENDBRANCH   1   2
BRANCH   1   8
ATOM      8  C   UNL     1     114.945 114.899 113.416  1.00  0.00     0.000 C 
BRANCH   8   9
ATOM      9  C   UNL     1     114.477 116.041 112.497  1.00  0.00     0.000 C 
BRANCH   9  10
ATOM     10  C   UNL     1     115.356 117.294 112.605  1.00  0.00     0.008 C 
BRANCH  10  11
ATOM     11  C   UNL     1     114.524 118.567 112.421  1.00  0.00     0.072 C 
BRANCH  11  12
ATOM     12  C   UNL     1     115.091 119.700 113.222  1.00  0.00     0.224 C 
ATOM     13  O   UNL     1     114.912 119.755 114.429  1.00  0.00    -0.303 OA
ENDBRANCH  11  12
ENDBRANCH  10  11
ENDBRANCH   9  10
ENDBRANCH   8   9
ENDBRANCH   1   8
TORSDOF 10
ENDMDL
MODEL 9
REMARK VINA RESULT:    -3.286      1.709      3.636
REMARK INTER + INTRA:          -6.250
REMARK INTER:                  -5.053
REMARK INTRA:                  -1.197
REMARK UNBOUND:                -1.044
REMARK SMILES CCCCCCCCCCCC=O
REMARK SMILES IDX 7 1 6 2 5 3 4 4 3 5 2 6 1 7 8 8 9 9 10 10 11 11 12 12 13 13
REMARK H PARENT
REMARK Flexibility Score: inf
ROOT
ATOM      1  C   UNL     1     114.188 115.891 112.789  1.00  0.00     0.000 C 
ENDROOT
BRANCH   1   2
ATOM      2  C   UNL     1     115.092 117.025 113.295  1.00  0.00     0.000 C 
BRANCH   2   3
ATOM      3  C   UNL     1     114.764 118.347 112.590  1.00  0.00    -0.000 C 
BRANCH   3   4
ATOM      4  C   UNL     1     116.032 119.177 112.358  1.00  0.00    -0.000 C 
BRANCH   4   5
ATOM      5  C   UNL     1     117.261 118.486 112.960  1.00  0.00    -0.000 C 
BRANCH   5   6
ATOM      6  C   UNL     1     118.298 118.169 111.877  1.00  0.00    -0.003 C 
ATOM      7  C   UNL     1     119.709 118.137 112.457  1.00  0.00     0.004 C 
ENDBRANCH   5   6
ENDBRANCH   4   5
ENDBRANCH   3   4
ENDBRANCH   2   3
ENDBRANCH   1   2
BRANCH   1   8
ATOM      8  C   UNL     1     114.962 114.570 112.594  1.00  0.00     0.000 C 
BRANCH   8   9
ATOM      9  C   UNL     1     116.312 114.747 111.875  1.00  0.00     0.000 C 
BRANCH   9  10
ATOM     10  C   UNL     1     117.432 113.895 112.487  1.00  0.00     0.008 C 
BRANCH  10  11
ATOM     11  C   UNL     1     118.331 114.741 113.395  1.00  0.00     0.072 C 
BRANCH  11  12
ATOM     12  C   UNL     1     118.022 114.489 114.841  1.00  0.00     0.224 C 
ATOM     13  O   UNL     1     117.225 113.621 115.161  1.00  0.00    -0.303 OA
ENDBRANCH  11  12
ENDBRANCH  10  11
ENDBRANCH   9  10
ENDBRANCH   8   9
ENDBRANCH   1   8
TORSDOF 10
ENDMDL
