MODEL 1
REMARK VINA RESULT:    -4.785      0.000      0.000
REMARK INTER + INTRA:          -6.573
REMARK INTER:                  -6.044
REMARK INTRA:                  -0.529
REMARK UNBOUND:                -0.529
REMARK SMILES Oc1ccc(CCc2cc(O)cc(O)c2)cc1
REMARK SMILES IDX 6 1 5 2 4 3 3 4 2 5 16 6 17 7 1 8 7 10 8 11 15 12 9 13 13 14
REMARK SMILES IDX 10 15 12 16 14 17 11 19
REMARK H PARENT 1 9 14 18 11 20
REMARK Flexibility Score: inf
ROOT
ATOM      1  C   UNL     1       4.873  13.572   8.432  1.00  0.00     0.040 C 
ENDROOT
BRANCH   1   2
ATOM      2  C   UNL     1       3.831  14.042   7.448  1.00  0.00    -0.047 A 
ATOM      3  C   UNL     1       4.069  15.170   6.645  1.00  0.00     0.007 A 
ATOM      4  C   UNL     1       3.083  15.632   5.769  1.00  0.00     0.046 A 
ATOM      5  C   UNL     1       1.850  14.978   5.690  1.00  0.00     0.115 A 
ATOM      6  C   UNL     1       2.588  13.393   7.372  1.00  0.00     0.007 A 
ATOM      7  C   UNL     1       1.603  13.857   6.494  1.00  0.00     0.046 A 
BRANCH   5   8
ATOM      8  O   UNL     1       0.875  15.450   4.813  1.00  0.00    -0.508 OA
ATOM      9  H   UNL     1       1.071  16.195   4.156  1.00  0.00     0.293 HD
ENDBRANCH   5   8
ENDBRANCH   1   2
BRANCH   1  10
ATOM     10  C   UNL     1       5.244  12.100   8.209  1.00  0.00     0.040 C 
BRANCH  10  11
ATOM     11  C   UNL     1       6.678  11.945   7.768  1.00  0.00    -0.040 A 
ATOM     12  C   UNL     1       7.447  13.078   7.457  1.00  0.00     0.050 A 
ATOM     13  C   UNL     1       7.274  10.674   7.726  1.00  0.00     0.050 A 
ATOM     14  C   UNL     1       8.794  12.940   7.094  1.00  0.00     0.119 A 
ATOM     15  C   UNL     1       8.617  10.534   7.366  1.00  0.00     0.119 A 
ATOM     16  C   UNL     1       9.375  11.669   7.046  1.00  0.00     0.092 A 
BRANCH  14  17
ATOM     17  O   UNL     1       9.563  14.059   6.780  1.00  0.00    -0.508 OA
ATOM     18  H   UNL     1       9.852  14.253   5.829  1.00  0.00     0.293 HD
ENDBRANCH  14  17
BRANCH  15  19
ATOM     19  O   UNL     1       9.191   9.265   7.331  1.00  0.00    -0.508 OA
ATOM     20  H   UNL     1       8.965   8.601   6.600  1.00  0.00     0.293 HD
ENDBRANCH  15  19
ENDBRANCH  10  11
ENDBRANCH   1  10
TORSDOF 6
ENDMDL
MODEL 2
REMARK VINA RESULT:    -4.778      0.131      2.352
REMARK INTER + INTRA:          -6.563
REMARK INTER:                  -6.029
REMARK INTRA:                  -0.534
REMARK UNBOUND:                -0.529
REMARK SMILES Oc1ccc(CCc2cc(O)cc(O)c2)cc1
REMARK SMILES IDX 6 1 5 2 4 3 3 4 2 5 16 6 17 7 1 8 7 10 8 11 15 12 9 13 13 14
REMARK SMILES IDX 10 15 12 16 14 17 11 19
REMARK H PARENT 1 9 14 18 11 20
REMARK Flexibility Score: inf
ROOT
ATOM      1  C   UNL     1       4.855  13.388   8.490  1.00  0.00     0.040 C 
ENDROOT
BRANCH   1   2
ATOM      2  C   UNL     1       3.818  13.959   7.556  1.00  0.00    -0.047 A 
ATOM      3  C   UNL     1       2.564  13.340   7.422  1.00  0.00     0.007 A 
ATOM      4  C   UNL     1       1.622  13.844   6.519  1.00  0.00     0.046 A 
ATOM      5  C   UNL     1       1.925  14.964   5.740  1.00  0.00     0.115 A 
ATOM      6  C   UNL     1       4.120  15.080   6.764  1.00  0.00     0.007 A 
ATOM      7  C   UNL     1       3.176  15.582   5.863  1.00  0.00     0.046 A 
BRANCH   5   8
ATOM      8  O   UNL     1       0.977  15.455   4.843  1.00  0.00    -0.508 OA
ATOM      9  H   UNL     1       1.073  15.320   3.844  1.00  0.00     0.293 HD
ENDBRANCH   5   8
ENDBRANCH   1   2
BRANCH   1  10
ATOM     10  C   UNL     1       5.234  11.951   8.108  1.00  0.00     0.040 C 
BRANCH  10  11
ATOM     11  C   UNL     1       6.693  11.833   7.746  1.00  0.00    -0.040 A 
ATOM     12  C   UNL     1       7.291  10.569   7.626  1.00  0.00     0.050 A 
ATOM     13  C   UNL     1       7.449  12.983   7.465  1.00  0.00     0.050 A 
ATOM     14  C   UNL     1       8.634  10.455   7.243  1.00  0.00     0.119 A 
ATOM     15  C   UNL     1       8.788  12.872   7.081  1.00  0.00     0.119 A 
ATOM     16  C   UNL     1       9.381  11.607   6.974  1.00  0.00     0.092 A 
BRANCH  14  17
ATOM     17  O   UNL     1       9.235   9.204   7.125  1.00  0.00    -0.508 OA
ATOM     18  H   UNL     1       9.268   8.714   6.239  1.00  0.00     0.293 HD
ENDBRANCH  14  17
BRANCH  15  19
ATOM     19  O   UNL     1       9.521  14.025   6.804  1.00  0.00    -0.508 OA
ATOM     20  H   UNL     1       9.366  14.561   5.958  1.00  0.00     0.293 HD
ENDBRANCH  15  19
ENDBRANCH  10  11
ENDBRANCH   1  10
TORSDOF 6
ENDMDL
MODEL 3
REMARK VINA RESULT:    -4.731     10.428     11.740
REMARK INTER + INTRA:          -6.505
REMARK INTER:                  -5.938
REMARK INTRA:                  -0.566
REMARK UNBOUND:                -0.529
REMARK SMILES Oc1ccc(CCc2cc(O)cc(O)c2)cc1
REMARK SMILES IDX 6 1 5 2 4 3 3 4 2 5 16 6 17 7 1 8 7 10 8 11 15 12 9 13 13 14
REMARK SMILES IDX 10 15 12 16 14 17 11 19
REMARK H PARENT 1 9 14 18 11 20
REMARK Flexibility Score: inf
ROOT
ATOM      1  C   UNL     1      16.049  11.498  -0.640  1.00  0.00     0.040 C 
ENDROOT
BRANCH   1   2
ATOM      2  C   UNL     1      14.842  12.191  -1.219  1.00  0.00    -0.047 A 
ATOM      3  C   UNL     1      14.902  13.551  -1.568  1.00  0.00     0.007 A 
ATOM      4  C   UNL     1      13.768  14.204  -2.059  1.00  0.00     0.046 A 
ATOM      5  C   UNL     1      12.563  13.509  -2.200  1.00  0.00     0.115 A 
ATOM      6  C   UNL     1      13.626  11.500  -1.354  1.00  0.00     0.007 A 
ATOM      7  C   UNL     1      12.494  12.155  -1.847  1.00  0.00     0.046 A 
BRANCH   5   8
ATOM      8  O   UNL     1      11.439  14.173  -2.690  1.00  0.00    -0.508 OA
ATOM      9  H   UNL     1      11.420  15.181  -2.785  1.00  0.00     0.293 HD
ENDBRANCH   5   8
ENDBRANCH   1   2
BRANCH   1  10
ATOM     10  C   UNL     1      15.756  10.029  -0.306  1.00  0.00     0.040 C 
BRANCH  10  11
ATOM     11  C   UNL     1      15.585   9.815   1.176  1.00  0.00    -0.040 A 
ATOM     12  C   UNL     1      16.696   9.885   2.032  1.00  0.00     0.050 A 
ATOM     13  C   UNL     1      14.308   9.607   1.721  1.00  0.00     0.050 A 
ATOM     14  C   UNL     1      16.534   9.735   3.416  1.00  0.00     0.119 A 
ATOM     15  C   UNL     1      14.143   9.458   3.101  1.00  0.00     0.119 A 
ATOM     16  C   UNL     1      15.258   9.519   3.948  1.00  0.00     0.092 A 
BRANCH  14  17
ATOM     17  O   UNL     1      17.632   9.799   4.271  1.00  0.00    -0.508 OA
ATOM     18  H   UNL     1      18.318   9.055   4.309  1.00  0.00     0.293 HD
ENDBRANCH  14  17
BRANCH  15  19
ATOM     19  O   UNL     1      12.867   9.255   3.623  1.00  0.00    -0.508 OA
ATOM     20  H   UNL     1      12.488   9.855   4.346  1.00  0.00     0.293 HD
ENDBRANCH  15  19
ENDBRANCH  10  11
ENDBRANCH   1  10
TORSDOF 6
ENDMDL
MODEL 4
REMARK VINA RESULT:    -4.727      2.300      3.687
REMARK INTER + INTRA:          -6.499
REMARK INTER:                  -6.127
REMARK INTRA:                  -0.372
REMARK UNBOUND:                -0.529
REMARK SMILES Oc1ccc(CCc2cc(O)cc(O)c2)cc1
REMARK SMILES IDX 6 1 5 2 4 3 3 4 2 5 16 6 17 7 1 8 7 10 8 11 15 12 9 13 13 14
REMARK SMILES IDX 10 15 12 16 14 17 11 19
REMARK H PARENT 1 9 14 18 11 20
REMARK Flexibility Score: inf
ROOT
ATOM      1  C   UNL     1       6.818  10.646   7.864  1.00  0.00     0.040 C 
ENDROOT
BRANCH   1   2
ATOM      2  C   UNL     1       5.776  11.733   7.773  1.00  0.00    -0.047 A 
ATOM      3  C   UNL     1       4.410  11.406   7.732  1.00  0.00     0.007 A 
ATOM      4  C   UNL     1       3.449  12.412   7.599  1.00  0.00     0.046 A 
ATOM      5  C   UNL     1       3.840  13.751   7.499  1.00  0.00     0.115 A 
ATOM      6  C   UNL     1       6.165  13.078   7.664  1.00  0.00     0.007 A 
ATOM      7  C   UNL     1       5.201  14.082   7.532  1.00  0.00     0.046 A 
BRANCH   5   8
ATOM      8  O   UNL     1       2.871  14.743   7.366  1.00  0.00    -0.508 OA
ATOM      9  H   UNL     1       3.064  15.708   7.607  1.00  0.00     0.293 HD
ENDBRANCH   5   8
ENDBRANCH   1   2
BRANCH   1  10
ATOM     10  C   UNL     1       8.216  11.167   7.506  1.00  0.00     0.040 C 
BRANCH  10  11
ATOM     11  C   UNL     1       9.152  10.046   7.131  1.00  0.00    -0.040 A 
ATOM     12  C   UNL     1       9.921  10.130   5.959  1.00  0.00     0.050 A 
ATOM     13  C   UNL     1       9.310   8.940   7.982  1.00  0.00     0.050 A 
ATOM     14  C   UNL     1      10.828   9.112   5.633  1.00  0.00     0.119 A 
ATOM     15  C   UNL     1      10.215   7.924   7.660  1.00  0.00     0.119 A 
ATOM     16  C   UNL     1      10.971   8.010   6.483  1.00  0.00     0.092 A 
BRANCH  14  17
ATOM     17  O   UNL     1      11.591   9.187   4.471  1.00  0.00    -0.508 OA
ATOM     18  H   UNL     1      12.561   9.477   4.493  1.00  0.00     0.293 HD
ENDBRANCH  14  17
BRANCH  15  19
ATOM     19  O   UNL     1      10.359   6.835   8.517  1.00  0.00    -0.508 OA
ATOM     20  H   UNL     1      10.138   6.905   9.503  1.00  0.00     0.293 HD
ENDBRANCH  15  19
ENDBRANCH  10  11
ENDBRANCH   1  10
TORSDOF 6
ENDMDL
MODEL 5
REMARK VINA RESULT:    -4.694     10.383     11.744
REMARK INTER + INTRA:          -6.458
REMARK INTER:                  -5.897
REMARK INTRA:                  -0.562
REMARK UNBOUND:                -0.529
REMARK SMILES Oc1ccc(CCc2cc(O)cc(O)c2)cc1
REMARK SMILES IDX 6 1 5 2 4 3 3 4 2 5 16 6 17 7 1 8 7 10 8 11 15 12 9 13 13 14
REMARK SMILES IDX 10 15 12 16 14 17 11 19
REMARK H PARENT 1 9 14 18 11 20
REMARK Flexibility Score: inf
ROOT
ATOM      1  C   UNL     1      16.034  11.435  -0.642  1.00  0.00     0.040 C 
ENDROOT
BRANCH   1   2
ATOM      2  C   UNL     1      14.835  12.139  -1.224  1.00  0.00    -0.047 A 
ATOM      3  C   UNL     1      14.905  13.500  -1.567  1.00  0.00     0.007 A 
ATOM      4  C   UNL     1      13.778  14.162  -2.061  1.00  0.00     0.046 A 
ATOM      5  C   UNL     1      12.569  13.475  -2.212  1.00  0.00     0.115 A 
ATOM      6  C   UNL     1      13.616  11.456  -1.370  1.00  0.00     0.007 A 
ATOM      7  C   UNL     1      12.490  12.120  -1.865  1.00  0.00     0.046 A 
BRANCH   5   8
ATOM      8  O   UNL     1      11.452  14.149  -2.704  1.00  0.00    -0.508 OA
ATOM      9  H   UNL     1      10.989  14.869  -2.165  1.00  0.00     0.293 HD
ENDBRANCH   5   8
ENDBRANCH   1   2
BRANCH   1  10
ATOM     10  C   UNL     1      15.712   9.986  -0.256  1.00  0.00     0.040 C 
BRANCH  10  11
ATOM     11  C   UNL     1      15.513   9.833   1.231  1.00  0.00    -0.040 A 
ATOM     12  C   UNL     1      14.231   9.594   1.751  1.00  0.00     0.050 A 
ATOM     13  C   UNL     1      16.615   9.865   2.101  1.00  0.00     0.050 A 
ATOM     14  C   UNL     1      14.050   9.404   3.127  1.00  0.00     0.119 A 
ATOM     15  C   UNL     1      16.438   9.674   3.474  1.00  0.00     0.119 A 
ATOM     16  C   UNL     1      15.153   9.447   3.987  1.00  0.00     0.092 A 
BRANCH  14  17
ATOM     17  O   UNL     1      12.780   9.170   3.651  1.00  0.00    -0.508 OA
ATOM     18  H   UNL     1      12.645   8.591   4.471  1.00  0.00     0.293 HD
ENDBRANCH  14  17
BRANCH  15  19
ATOM     19  O   UNL     1      17.543   9.708   4.321  1.00  0.00    -0.508 OA
ATOM     20  H   UNL     1      18.483   9.563   3.972  1.00  0.00     0.293 HD
ENDBRANCH  15  19
ENDBRANCH  10  11
ENDBRANCH   1  10
TORSDOF 6
ENDMDL
MODEL 6
REMARK VINA RESULT:    -4.652      2.899      4.858
REMARK INTER + INTRA:          -6.405
REMARK INTER:                  -5.862
REMARK INTRA:                  -0.542
REMARK UNBOUND:                -0.529
REMARK SMILES Oc1ccc(CCc2cc(O)cc(O)c2)cc1
REMARK SMILES IDX 6 1 5 2 4 3 3 4 2 5 16 6 17 7 1 8 7 10 8 11 15 12 9 13 13 14
REMARK SMILES IDX 10 15 12 16 14 17 11 19
REMARK H PARENT 1 9 14 18 11 20
REMARK Flexibility Score: inf
ROOT
ATOM      1  C   UNL     1       8.951  11.435   7.776  1.00  0.00     0.040 C 
ENDROOT
BRANCH   1   2
ATOM      2  C   UNL     1       7.522  11.917   7.785  1.00  0.00    -0.047 A 
ATOM      3  C   UNL     1       6.461  10.995   7.784  1.00  0.00     0.007 A 
ATOM      4  C   UNL     1       5.138  11.444   7.743  1.00  0.00     0.046 A 
ATOM      5  C   UNL     1       4.860  12.814   7.697  1.00  0.00     0.115 A 
ATOM      6  C   UNL     1       7.238  13.292   7.731  1.00  0.00     0.007 A 
ATOM      7  C   UNL     1       5.914  13.737   7.691  1.00  0.00     0.046 A 
BRANCH   5   8
ATOM      8  O   UNL     1       3.536  13.247   7.655  1.00  0.00    -0.508 OA
ATOM      9  H   UNL     1       3.202  13.855   6.918  1.00  0.00     0.293 HD
ENDBRANCH   5   8
ENDBRANCH   1   2
BRANCH   1  10
ATOM     10  C   UNL     1       9.048   9.937   8.093  1.00  0.00     0.040 C 
BRANCH  10  11
ATOM     11  C   UNL     1       9.597   9.153   6.927  1.00  0.00    -0.040 A 
ATOM     12  C   UNL     1      10.620   8.213   7.128  1.00  0.00     0.050 A 
ATOM     13  C   UNL     1       9.047   9.311   5.645  1.00  0.00     0.050 A 
ATOM     14  C   UNL     1      11.098   7.448   6.055  1.00  0.00     0.119 A 
ATOM     15  C   UNL     1       9.521   8.549   4.573  1.00  0.00     0.119 A 
ATOM     16  C   UNL     1      10.550   7.619   4.780  1.00  0.00     0.092 A 
BRANCH  14  17
ATOM     17  O   UNL     1      12.116   6.516   6.246  1.00  0.00    -0.508 OA
ATOM     18  H   UNL     1      12.086   5.603   5.807  1.00  0.00     0.293 HD
ENDBRANCH  14  17
BRANCH  15  19
ATOM     19  O   UNL     1       8.962   8.718   3.308  1.00  0.00    -0.508 OA
ATOM     20  H   UNL     1       9.471   8.473   2.467  1.00  0.00     0.293 HD
ENDBRANCH  15  19
ENDBRANCH  10  11
ENDBRANCH   1  10
TORSDOF 6
ENDMDL
MODEL 7
REMARK VINA RESULT:    -4.648      2.904      4.661
REMARK INTER + INTRA:          -6.399
REMARK INTER:                  -5.867
REMARK INTRA:                  -0.533
REMARK UNBOUND:                -0.529
REMARK SMILES Oc1ccc(CCc2cc(O)cc(O)c2)cc1
REMARK SMILES IDX 6 1 5 2 4 3 3 4 2 5 16 6 17 7 1 8 7 10 8 11 15 12 9 13 13 14
REMARK SMILES IDX 10 15 12 16 14 17 11 19
REMARK H PARENT 1 9 14 18 11 20
REMARK Flexibility Score: inf
ROOT
ATOM      1  C   UNL     1       8.976  11.417   7.773  1.00  0.00     0.040 C 
ENDROOT
BRANCH   1   2
ATOM      2  C   UNL     1       7.553  11.915   7.792  1.00  0.00    -0.047 A 
ATOM      3  C   UNL     1       6.482  11.006   7.782  1.00  0.00     0.007 A 
ATOM      4  C   UNL     1       5.164  11.469   7.750  1.00  0.00     0.046 A 
ATOM      5  C   UNL     1       4.902  12.843   7.723  1.00  0.00     0.115 A 
ATOM      6  C   UNL     1       7.285  13.293   7.757  1.00  0.00     0.007 A 
ATOM      7  C   UNL     1       5.966  13.754   7.727  1.00  0.00     0.046 A 
BRANCH   5   8
ATOM      8  O   UNL     1       3.583  13.291   7.691  1.00  0.00    -0.508 OA
ATOM      9  H   UNL     1       2.815  12.699   7.984  1.00  0.00     0.293 HD
ENDBRANCH   5   8
ENDBRANCH   1   2
BRANCH   1  10
ATOM     10  C   UNL     1       9.063   9.927   8.128  1.00  0.00     0.040 C 
BRANCH  10  11
ATOM     11  C   UNL     1       9.563   9.104   6.968  1.00  0.00    -0.040 A 
ATOM     12  C   UNL     1       9.023   9.291   5.685  1.00  0.00     0.050 A 
ATOM     13  C   UNL     1      10.614   8.189   7.147  1.00  0.00     0.050 A 
ATOM     14  C   UNL     1       9.519   8.562   4.595  1.00  0.00     0.119 A 
ATOM     15  C   UNL     1      11.111   7.462   6.062  1.00  0.00     0.119 A 
ATOM     16  C   UNL     1      10.560   7.647   4.786  1.00  0.00     0.092 A 
BRANCH  14  17
ATOM     17  O   UNL     1       8.987   8.740   3.321  1.00  0.00    -0.508 OA
ATOM     18  H   UNL     1       9.395   9.393   2.664  1.00  0.00     0.293 HD
ENDBRANCH  14  17
BRANCH  15  19
ATOM     19  O   UNL     1      12.155   6.560   6.259  1.00  0.00    -0.508 OA
ATOM     20  H   UNL     1      12.601   6.456   7.163  1.00  0.00     0.293 HD
ENDBRANCH  15  19
ENDBRANCH  10  11
ENDBRANCH   1  10
TORSDOF 6
ENDMDL
MODEL 8
REMARK VINA RESULT:    -4.635      3.221      7.983
REMARK INTER + INTRA:          -6.384
REMARK INTER:                  -5.899
REMARK INTRA:                  -0.485
REMARK UNBOUND:                -0.529
REMARK SMILES Oc1ccc(CCc2cc(O)cc(O)c2)cc1
REMARK SMILES IDX 6 1 5 2 4 3 3 4 2 5 16 6 17 7 1 8 7 10 8 11 15 12 9 13 13 14
REMARK SMILES IDX 10 15 12 16 14 17 11 19
REMARK H PARENT 1 9 14 18 11 20
REMARK Flexibility Score: inf
ROOT
ATOM      1  C   UNL     1       9.493   9.027   8.094  1.00  0.00     0.040 C 
ENDROOT
BRANCH   1   2
ATOM      2  C   UNL     1      10.407   8.356   7.100  1.00  0.00    -0.047 A 
ATOM      3  C   UNL     1      11.045   7.147   7.425  1.00  0.00     0.007 A 
ATOM      4  C   UNL     1      11.929   6.551   6.521  1.00  0.00     0.046 A 
ATOM      5  C   UNL     1      12.190   7.158   5.288  1.00  0.00     0.115 A 
ATOM      6  C   UNL     1      10.679   8.966   5.864  1.00  0.00     0.007 A 
ATOM      7  C   UNL     1      11.563   8.368   4.962  1.00  0.00     0.046 A 
BRANCH   5   8
ATOM      8  O   UNL     1      13.075   6.554   4.397  1.00  0.00    -0.508 OA
ATOM      9  H   UNL     1      13.369   7.018   3.547  1.00  0.00     0.293 HD
ENDBRANCH   5   8
ENDBRANCH   1   2
BRANCH   1  10
ATOM     10  C   UNL     1       8.128   9.360   7.477  1.00  0.00     0.040 C 
BRANCH  10  11
ATOM     11  C   UNL     1       7.845  10.841   7.510  1.00  0.00    -0.040 A 
ATOM     12  C   UNL     1       8.847  11.759   7.154  1.00  0.00     0.050 A 
ATOM     13  C   UNL     1       6.562  11.311   7.834  1.00  0.00     0.050 A 
ATOM     14  C   UNL     1       8.573  13.133   7.137  1.00  0.00     0.119 A 
ATOM     15  C   UNL     1       6.286  12.681   7.816  1.00  0.00     0.119 A 
ATOM     16  C   UNL     1       7.294  13.592   7.470  1.00  0.00     0.092 A 
BRANCH  14  17
ATOM     17  O   UNL     1       9.562  14.050   6.788  1.00  0.00    -0.508 OA
ATOM     18  H   UNL     1       9.901  14.739   7.448  1.00  0.00     0.293 HD
ENDBRANCH  14  17
BRANCH  15  19
ATOM     19  O   UNL     1       5.006  13.129   8.139  1.00  0.00    -0.508 OA
ATOM     20  H   UNL     1       4.188  12.798   7.641  1.00  0.00     0.293 HD
ENDBRANCH  15  19
ENDBRANCH  10  11
ENDBRANCH   1  10
TORSDOF 6
ENDMDL
MODEL 9
REMARK VINA RESULT:    -4.591      3.196      7.995
REMARK INTER + INTRA:          -6.328
REMARK INTER:                  -5.861
REMARK INTRA:                  -0.467
REMARK UNBOUND:                -0.529
REMARK SMILES Oc1ccc(CCc2cc(O)cc(O)c2)cc1
REMARK SMILES IDX 6 1 5 2 4 3 3 4 2 5 16 6 17 7 1 8 7 10 8 11 15 12 9 13 13 14
REMARK SMILES IDX 10 15 12 16 14 17 11 19
REMARK H PARENT 1 9 14 18 11 20
REMARK Flexibility Score: inf
ROOT
ATOM      1  C   UNL     1       9.421   9.094   8.158  1.00  0.00     0.040 C 
ENDROOT
BRANCH   1   2
ATOM      2  C   UNL     1      10.325   8.406   7.167  1.00  0.00    -0.047 A 
ATOM      3  C   UNL     1      10.992   7.220   7.517  1.00  0.00     0.007 A 
ATOM      4  C   UNL     1      11.868   6.610   6.615  1.00  0.00     0.046 A 
ATOM      5  C   UNL     1      12.091   7.180   5.357  1.00  0.00     0.115 A 
ATOM      6  C   UNL     1      10.560   8.980   5.906  1.00  0.00     0.007 A 
ATOM      7  C   UNL     1      11.435   8.367   5.005  1.00  0.00     0.046 A 
BRANCH   5   8
ATOM      8  O   UNL     1      12.968   6.562   4.468  1.00  0.00    -0.508 OA
ATOM      9  H   UNL     1      13.829   6.135   4.785  1.00  0.00     0.293 HD
ENDBRANCH   5   8
ENDBRANCH   1   2
BRANCH   1  10
ATOM     10  C   UNL     1       8.040   9.388   7.559  1.00  0.00     0.040 C 
BRANCH  10  11
ATOM     11  C   UNL     1       7.757  10.868   7.504  1.00  0.00    -0.040 A 
ATOM     12  C   UNL     1       6.492  11.359   7.867  1.00  0.00     0.050 A 
ATOM     13  C   UNL     1       8.772  11.772   7.152  1.00  0.00     0.050 A 
ATOM     14  C   UNL     1       6.240  12.738   7.864  1.00  0.00     0.119 A 
ATOM     15  C   UNL     1       8.524  13.148   7.150  1.00  0.00     0.119 A 
ATOM     16  C   UNL     1       7.256  13.629   7.503  1.00  0.00     0.092 A 
BRANCH  14  17
ATOM     17  O   UNL     1       4.987  13.231   8.220  1.00  0.00    -0.508 OA
ATOM     18  H   UNL     1       4.889  14.033   8.832  1.00  0.00     0.293 HD
ENDBRANCH  14  17
BRANCH  15  19
ATOM     19  O   UNL     1       9.545  14.029   6.799  1.00  0.00    -0.508 OA
ATOM     20  H   UNL     1      10.224  14.350   7.478  1.00  0.00     0.293 HD
ENDBRANCH  15  19
ENDBRANCH  10  11
ENDBRANCH   1  10
TORSDOF 6
ENDMDL
