MODEL 1
REMARK VINA RESULT:    -5.542      0.000      0.000
REMARK INTER + INTRA:         -10.265
REMARK INTER:                  -9.430
REMARK INTRA:                  -0.835
REMARK UNBOUND:                -0.835
REMARK SMILES CCCCCCCCCCCCCC(=O)[O-]
REMARK SMILES IDX 8 1 9 2 10 3 11 4 12 5 13 6 14 7 15 8 16 9 7 10 6 11 5 12
REMARK SMILES IDX 4 13 3 14 2 15 1 16
REMARK H PARENT
REMARK Flexibility Score: inf
ROOT
ATOM      1  C   UNL     1      -6.601  64.515  53.231  1.00  0.00     0.000 C 
ENDROOT
BRANCH   1   2
ATOM      2  C   UNL     1      -6.604  65.996  52.832  1.00  0.00     0.000 C 
BRANCH   2   3
ATOM      3  C   UNL     1      -6.086  66.183  51.401  1.00  0.00     0.000 C 
BRANCH   3   4
ATOM      4  C   UNL     1      -6.184  64.873  50.606  1.00  0.00     0.000 C 
BRANCH   4   5
ATOM      5  C   UNL     1      -7.408  64.832  49.671  1.00  0.00     0.006 C 
BRANCH   5   6
ATOM      6  C   UNL     1      -7.924  63.416  49.368  1.00  0.00     0.053 C 
BRANCH   6   7
ATOM      7  C   UNL     1      -9.038  63.427  48.367  1.00  0.00     0.041 C 
ATOM      8  O   UNL     1      -9.962  64.278  48.456  1.00  0.00    -0.550 OA
ATOM      9  O   UNL     1      -9.075  62.474  47.356  1.00  0.00    -0.550 OA
ENDBRANCH   6   7
ENDBRANCH   5   6
ENDBRANCH   4   5
ENDBRANCH   3   4
ENDBRANCH   2   3
ENDBRANCH   1   2
BRANCH   1  10
ATOM     10  C   UNL     1      -8.009  64.043  53.612  1.00  0.00     0.000 C 
BRANCH  10  11
ATOM     11  C   UNL     1      -7.951  62.732  54.411  1.00  0.00    -0.000 C 
BRANCH  11  12
ATOM     12  C   UNL     1      -7.590  61.520  53.539  1.00  0.00    -0.000 C 
BRANCH  12  13
ATOM     13  C   UNL     1      -6.399  60.723  54.097  1.00  0.00    -0.000 C 
BRANCH  13  14
ATOM     14  C   UNL     1      -6.382  60.684  55.634  1.00  0.00    -0.000 C 
BRANCH  14  15
ATOM     15  C   UNL     1      -6.110  59.279  56.189  1.00  0.00    -0.003 C 
ATOM     16  C   UNL     1      -4.611  59.005  56.280  1.00  0.00     0.004 C 
ENDBRANCH  14  15
ENDBRANCH  13  14
ENDBRANCH  12  13
ENDBRANCH  11  12
ENDBRANCH  10  11
ENDBRANCH   1  10
TORSDOF 12
ENDMDL
MODEL 2
REMARK VINA RESULT:    -5.329      3.703      6.895
REMARK INTER + INTRA:          -9.903
REMARK INTER:                  -8.785
REMARK INTRA:                  -1.118
REMARK UNBOUND:                -0.835
REMARK SMILES CCCCCCCCCCCCCC(=O)[O-]
REMARK SMILES IDX 8 1 9 2 10 3 11 4 12 5 13 6 14 7 15 8 16 9 7 10 6 11 5 12
REMARK SMILES IDX 4 13 3 14 2 15 1 16
REMARK H PARENT
REMARK Flexibility Score: inf
ROOT
ATOM      1  C   UNL     1      -6.549  64.651  53.094  1.00  0.00     0.000 C 
ENDROOT
BRANCH   1   2
ATOM      2  C   UNL     1      -7.921  64.212  53.621  1.00  0.00     0.000 C 
BRANCH   2   3
ATOM      3  C   UNL     1      -7.877  62.769  54.137  1.00  0.00     0.000 C 
BRANCH   3   4
ATOM      4  C   UNL     1      -6.941  61.907  53.277  1.00  0.00     0.000 C 
BRANCH   4   5
ATOM      5  C   UNL     1      -5.909  61.128  54.114  1.00  0.00     0.006 C 
BRANCH   5   6
ATOM      6  C   UNL     1      -6.296  60.952  55.591  1.00  0.00     0.053 C 
BRANCH   6   7
ATOM      7  C   UNL     1      -5.855  59.628  56.133  1.00  0.00     0.041 C 
ATOM      8  O   UNL     1      -6.651  58.652  56.151  1.00  0.00    -0.550 OA
ATOM      9  O   UNL     1      -4.575  59.479  56.652  1.00  0.00    -0.550 OA
ENDBRANCH   6   7
ENDBRANCH   5   6
ENDBRANCH   4   5
ENDBRANCH   3   4
ENDBRANCH   2   3
ENDBRANCH   1   2
BRANCH   1  10
ATOM     10  C   UNL     1      -6.661  65.946  52.279  1.00  0.00     0.000 C 
BRANCH  10  11
ATOM     11  C   UNL     1      -6.270  65.706  50.813  1.00  0.00    -0.000 C 
BRANCH  11  12
ATOM     12  C   UNL     1      -6.062  64.219  50.488  1.00  0.00    -0.000 C 
BRANCH  12  13
ATOM     13  C   UNL     1      -7.131  63.667  49.530  1.00  0.00    -0.000 C 
BRANCH  13  14
ATOM     14  C   UNL     1      -8.395  64.541  49.489  1.00  0.00    -0.000 C 
BRANCH  14  15
ATOM     15  C   UNL     1      -9.451  64.011  48.508  1.00  0.00    -0.003 C 
ATOM     16  C   UNL     1      -9.127  62.586  48.068  1.00  0.00     0.004 C 
ENDBRANCH  14  15
ENDBRANCH  13  14
ENDBRANCH  12  13
ENDBRANCH  11  12
ENDBRANCH  10  11
ENDBRANCH   1  10
TORSDOF 12
ENDMDL
MODEL 3
REMARK VINA RESULT:    -5.310      1.017      1.576
REMARK INTER + INTRA:          -9.871
REMARK INTER:                  -9.017
REMARK INTRA:                  -0.853
REMARK UNBOUND:                -0.835
REMARK SMILES CCCCCCCCCCCCCC(=O)[O-]
REMARK SMILES IDX 8 1 9 2 10 3 11 4 12 5 13 6 14 7 15 8 16 9 7 10 6 11 5 12
REMARK SMILES IDX 4 13 3 14 2 15 1 16
REMARK H PARENT
REMARK Flexibility Score: inf
ROOT
ATOM      1  C   UNL     1      -6.040  64.505  51.979  1.00  0.00     0.000 C 
ENDROOT
BRANCH   1   2
ATOM      2  C   UNL     1      -5.990  65.819  51.190  1.00  0.00     0.000 C 
BRANCH   2   3
ATOM      3  C   UNL     1      -6.198  65.570  49.691  1.00  0.00     0.000 C 
BRANCH   3   4
ATOM      4  C   UNL     1      -6.991  64.277  49.454  1.00  0.00     0.000 C 
BRANCH   4   5
ATOM      5  C   UNL     1      -8.515  64.495  49.489  1.00  0.00     0.006 C 
BRANCH   5   6
ATOM      6  C   UNL     1      -9.237  64.128  48.183  1.00  0.00     0.053 C 
BRANCH   6   7
ATOM      7  C   UNL     1      -9.188  62.657  47.908  1.00  0.00     0.041 C 
ATOM      8  O   UNL     1      -9.335  61.831  48.847  1.00  0.00    -0.550 OA
ATOM      9  O   UNL     1      -8.945  62.197  46.619  1.00  0.00    -0.550 OA
ENDBRANCH   6   7
ENDBRANCH   5   6
ENDBRANCH   4   5
ENDBRANCH   3   4
ENDBRANCH   2   3
ENDBRANCH   1   2
BRANCH   1  10
ATOM     10  C   UNL     1      -6.710  64.707  53.344  1.00  0.00     0.000 C 
BRANCH  10  11
ATOM     11  C   UNL     1      -8.030  63.925  53.428  1.00  0.00    -0.000 C 
BRANCH  11  12
ATOM     12  C   UNL     1      -7.987  62.798  54.472  1.00  0.00    -0.000 C 
BRANCH  12  13
ATOM     13  C   UNL     1      -7.620  61.436  53.858  1.00  0.00    -0.000 C 
BRANCH  13  14
ATOM     14  C   UNL     1      -6.232  60.945  54.297  1.00  0.00    -0.000 C 
BRANCH  14  15
ATOM     15  C   UNL     1      -6.153  60.659  55.804  1.00  0.00    -0.003 C 
ATOM     16  C   UNL     1      -6.289  59.166  56.088  1.00  0.00     0.004 C 
ENDBRANCH  14  15
ENDBRANCH  13  14
ENDBRANCH  12  13
ENDBRANCH  11  12
ENDBRANCH  10  11
ENDBRANCH   1  10
TORSDOF 12
ENDMDL
MODEL 4
REMARK VINA RESULT:    -5.282      8.941     13.673
REMARK INTER + INTRA:          -9.823
REMARK INTER:                  -8.696
REMARK INTRA:                  -1.127
REMARK UNBOUND:                -0.835
REMARK SMILES CCCCCCCCCCCCCC(=O)[O-]
REMARK SMILES IDX 8 1 9 2 10 3 11 4 12 5 13 6 14 7 15 8 16 9 7 10 6 11 5 12
REMARK SMILES IDX 4 13 3 14 2 15 1 16
REMARK H PARENT
REMARK Flexibility Score: inf
ROOT
ATOM      1  C   UNL     1     -11.259  63.325  39.353  1.00  0.00     0.000 C 
ENDROOT
BRANCH   1   2
ATOM      2  C   UNL     1      -9.850  63.840  39.035  1.00  0.00     0.000 C 
BRANCH   2   3
ATOM      3  C   UNL     1      -9.099  64.221  40.316  1.00  0.00     0.000 C 
BRANCH   3   4
ATOM      4  C   UNL     1     -10.078  64.482  41.469  1.00  0.00     0.000 C 
BRANCH   4   5
ATOM      5  C   UNL     1      -9.583  63.917  42.814  1.00  0.00     0.006 C 
BRANCH   5   6
ATOM      6  C   UNL     1     -10.026  62.472  43.094  1.00  0.00     0.053 C 
BRANCH   6   7
ATOM      7  C   UNL     1      -9.622  62.015  44.461  1.00  0.00     0.041 C 
ATOM      8  O   UNL     1      -9.248  62.852  45.325  1.00  0.00    -0.550 OA
ATOM      9  O   UNL     1      -9.624  60.661  44.771  1.00  0.00    -0.550 OA
ENDBRANCH   6   7
ENDBRANCH   5   6
ENDBRANCH   4   5
ENDBRANCH   3   4
ENDBRANCH   2   3
ENDBRANCH   1   2
BRANCH   1  10
ATOM     10  C   UNL     1     -11.395  61.838  39.003  1.00  0.00     0.000 C 
BRANCH  10  11
ATOM     11  C   UNL     1     -11.688  61.002  40.258  1.00  0.00    -0.000 C 
BRANCH  11  12
ATOM     12  C   UNL     1     -12.890  60.063  40.079  1.00  0.00    -0.000 C 
BRANCH  12  13
ATOM     13  C   UNL     1     -13.348  59.961  38.614  1.00  0.00    -0.000 C 
BRANCH  13  14
ATOM     14  C   UNL     1     -14.834  60.310  38.434  1.00  0.00    -0.000 C 
BRANCH  14  15
ATOM     15  C   UNL     1     -15.094  61.824  38.450  1.00  0.00    -0.003 C 
ATOM     16  C   UNL     1     -16.556  62.134  38.145  1.00  0.00     0.004 C 
ENDBRANCH  14  15
ENDBRANCH  13  14
ENDBRANCH  12  13
ENDBRANCH  11  12
ENDBRANCH  10  11
ENDBRANCH   1  10
TORSDOF 12
ENDMDL
MODEL 5
REMARK VINA RESULT:    -5.265      4.165      7.372
REMARK INTER + INTRA:          -9.794
REMARK INTER:                  -8.600
REMARK INTRA:                  -1.194
REMARK UNBOUND:                -0.835
REMARK SMILES CCCCCCCCCCCCCC(=O)[O-]
REMARK SMILES IDX 8 1 9 2 10 3 11 4 12 5 13 6 14 7 15 8 16 9 7 10 6 11 5 12
REMARK SMILES IDX 4 13 3 14 2 15 1 16
REMARK H PARENT
REMARK Flexibility Score: inf
ROOT
ATOM      1  C   UNL     1      -7.988  63.099  54.238  1.00  0.00     0.000 C 
ENDROOT
BRANCH   1   2
ATOM      2  C   UNL     1      -7.422  61.903  53.462  1.00  0.00     0.000 C 
BRANCH   2   3
ATOM      3  C   UNL     1      -5.890  61.887  53.516  1.00  0.00     0.000 C 
BRANCH   3   4
ATOM      4  C   UNL     1      -5.391  61.168  54.778  1.00  0.00     0.000 C 
BRANCH   4   5
ATOM      5  C   UNL     1      -6.039  59.785  54.972  1.00  0.00     0.006 C 
BRANCH   5   6
ATOM      6  C   UNL     1      -5.851  59.191  56.377  1.00  0.00     0.053 C 
BRANCH   6   7
ATOM      7  C   UNL     1      -4.406  59.102  56.761  1.00  0.00     0.041 C 
ATOM      8  O   UNL     1      -3.645  58.285  56.181  1.00  0.00    -0.550 OA
ATOM      9  O   UNL     1      -3.908  59.900  57.785  1.00  0.00    -0.550 OA
ENDBRANCH   6   7
ENDBRANCH   5   6
ENDBRANCH   4   5
ENDBRANCH   3   4
ENDBRANCH   2   3
ENDBRANCH   1   2
BRANCH   1  10
ATOM     10  C   UNL     1      -8.212  64.300  53.312  1.00  0.00     0.000 C 
BRANCH  10  11
ATOM     11  C   UNL     1      -7.075  65.324  53.456  1.00  0.00    -0.000 C 
BRANCH  11  12
ATOM     12  C   UNL     1      -6.635  65.917  52.108  1.00  0.00    -0.000 C 
BRANCH  12  13
ATOM     13  C   UNL     1      -5.986  64.872  51.185  1.00  0.00    -0.000 C 
BRANCH  13  14
ATOM     14  C   UNL     1      -6.535  64.929  49.751  1.00  0.00    -0.000 C 
BRANCH  14  15
ATOM     15  C   UNL     1      -7.598  63.854  49.479  1.00  0.00    -0.003 C 
ATOM     16  C   UNL     1      -8.952  64.486  49.168  1.00  0.00     0.004 C 
ENDBRANCH  14  15
ENDBRANCH  13  14
ENDBRANCH  12  13
ENDBRANCH  11  12
ENDBRANCH  10  11
ENDBRANCH   1  10
TORSDOF 12
ENDMDL
MODEL 6
REMARK VINA RESULT:    -5.187     11.924     14.433
REMARK INTER + INTRA:          -9.660
REMARK INTER:                  -8.659
REMARK INTRA:                  -1.002
REMARK UNBOUND:                -0.835
REMARK SMILES CCCCCCCCCCCCCC(=O)[O-]
REMARK SMILES IDX 8 1 9 2 10 3 11 4 12 5 13 6 14 7 15 8 16 9 7 10 6 11 5 12
REMARK SMILES IDX 4 13 3 14 2 15 1 16
REMARK H PARENT
REMARK Flexibility Score: inf
ROOT
ATOM      1  C   UNL     1     -10.755  61.281  40.918  1.00  0.00     0.000 C 
ENDROOT
BRANCH   1   2
ATOM      2  C   UNL     1      -9.753  62.013  40.017  1.00  0.00     0.000 C 
BRANCH   2   3
ATOM      3  C   UNL     1     -10.430  62.521  38.739  1.00  0.00     0.000 C 
BRANCH   3   4
ATOM      4  C   UNL     1      -9.839  63.869  38.303  1.00  0.00     0.000 C 
BRANCH   4   5
ATOM      5  C   UNL     1      -8.665  64.323  39.192  1.00  0.00     0.006 C 
BRANCH   5   6
ATOM      6  C   UNL     1      -8.828  65.732  39.784  1.00  0.00     0.053 C 
BRANCH   6   7
ATOM      7  C   UNL     1      -9.218  65.692  41.229  1.00  0.00     0.041 C 
ATOM      8  O   UNL     1     -10.250  65.068  41.591  1.00  0.00    -0.550 OA
ATOM      9  O   UNL     1      -8.459  66.374  42.173  1.00  0.00    -0.550 OA
ENDBRANCH   6   7
ENDBRANCH   5   6
ENDBRANCH   4   5
ENDBRANCH   3   4
ENDBRANCH   2   3
ENDBRANCH   1   2
BRANCH   1  10
ATOM     10  C   UNL     1     -11.731  60.439  40.088  1.00  0.00     0.000 C 
BRANCH  10  11
ATOM     11  C   UNL     1     -13.100  60.344  40.780  1.00  0.00    -0.000 C 
BRANCH  11  12
ATOM     12  C   UNL     1     -14.267  60.683  39.840  1.00  0.00    -0.000 C 
BRANCH  12  13
ATOM     13  C   UNL     1     -14.173  62.110  39.272  1.00  0.00    -0.000 C 
BRANCH  13  14
ATOM     14  C   UNL     1     -15.210  62.377  38.170  1.00  0.00    -0.000 C 
BRANCH  14  15
ATOM     15  C   UNL     1     -16.143  61.180  37.932  1.00  0.00    -0.003 C 
ATOM     16  C   UNL     1     -17.487  61.384  38.625  1.00  0.00     0.004 C 
ENDBRANCH  14  15
ENDBRANCH  13  14
ENDBRANCH  12  13
ENDBRANCH  11  12
ENDBRANCH  10  11
ENDBRANCH   1  10
TORSDOF 12
ENDMDL
MODEL 7
REMARK VINA RESULT:    -5.098     11.623     14.385
REMARK INTER + INTRA:          -9.510
REMARK INTER:                  -8.286
REMARK INTRA:                  -1.224
REMARK UNBOUND:                -0.835
REMARK SMILES CCCCCCCCCCCCCC(=O)[O-]
REMARK SMILES IDX 8 1 9 2 10 3 11 4 12 5 13 6 14 7 15 8 16 9 7 10 6 11 5 12
REMARK SMILES IDX 4 13 3 14 2 15 1 16
REMARK H PARENT
REMARK Flexibility Score: inf
ROOT
ATOM      1  C   UNL     1     -10.394  61.826  39.024  1.00  0.00     0.000 C 
ENDROOT
BRANCH   1   2
ATOM      2  C   UNL     1     -10.688  61.206  40.396  1.00  0.00     0.000 C 
BRANCH   2   3
ATOM      3  C   UNL     1     -12.184  60.919  40.562  1.00  0.00     0.000 C 
BRANCH   3   4
ATOM      4  C   UNL     1     -12.592  59.661  39.782  1.00  0.00     0.000 C 
BRANCH   4   5
ATOM      5  C   UNL     1     -13.492  59.974  38.572  1.00  0.00     0.006 C 
BRANCH   5   6
ATOM      6  C   UNL     1     -14.329  61.255  38.721  1.00  0.00     0.053 C 
BRANCH   6   7
ATOM      7  C   UNL     1     -15.780  61.014  38.440  1.00  0.00     0.041 C 
ATOM      8  O   UNL     1     -16.295  59.891  38.683  1.00  0.00    -0.550 OA
ATOM      9  O   UNL     1     -16.556  62.019  37.875  1.00  0.00    -0.550 OA
ENDBRANCH   6   7
ENDBRANCH   5   6
ENDBRANCH   4   5
ENDBRANCH   3   4
ENDBRANCH   2   3
ENDBRANCH   1   2
BRANCH   1  10
ATOM     10  C   UNL     1     -10.826  63.297  38.979  1.00  0.00     0.000 C 
BRANCH  10  11
ATOM     11  C   UNL     1      -9.858  64.127  38.121  1.00  0.00    -0.000 C 
BRANCH  11  12
ATOM     12  C   UNL     1      -8.498  64.345  38.802  1.00  0.00    -0.000 C 
BRANCH  12  13
ATOM     13  C   UNL     1      -8.324  65.780  39.329  1.00  0.00    -0.000 C 
BRANCH  13  14
ATOM     14  C   UNL     1      -8.165  65.833  40.857  1.00  0.00    -0.000 C 
BRANCH  14  15
ATOM     15  C   UNL     1      -9.502  65.686  41.598  1.00  0.00    -0.003 C 
ATOM     16  C   UNL     1      -9.639  64.297  42.215  1.00  0.00     0.004 C 
ENDBRANCH  14  15
ENDBRANCH  13  14
ENDBRANCH  12  13
ENDBRANCH  11  12
ENDBRANCH  10  11
ENDBRANCH   1  10
TORSDOF 12
ENDMDL
MODEL 8
REMARK VINA RESULT:    -5.067      9.332     13.135
REMARK INTER + INTRA:          -9.456
REMARK INTER:                  -8.470
REMARK INTRA:                  -0.986
REMARK UNBOUND:                -0.835
REMARK SMILES CCCCCCCCCCCCCC(=O)[O-]
REMARK SMILES IDX 8 1 9 2 10 3 11 4 12 5 13 6 14 7 15 8 16 9 7 10 6 11 5 12
REMARK SMILES IDX 4 13 3 14 2 15 1 16
REMARK H PARENT
REMARK Flexibility Score: inf
ROOT
ATOM      1  C   UNL     1      -9.871  64.034  38.458  1.00  0.00     0.000 C 
ENDROOT
BRANCH   1   2
ATOM      2  C   UNL     1     -10.461  62.650  38.163  1.00  0.00     0.000 C 
BRANCH   2   3
ATOM      3  C   UNL     1     -11.724  62.400  38.996  1.00  0.00     0.000 C 
BRANCH   3   4
ATOM      4  C   UNL     1     -11.560  61.158  39.884  1.00  0.00     0.000 C 
BRANCH   4   5
ATOM      5  C   UNL     1     -12.816  60.268  39.904  1.00  0.00     0.006 C 
BRANCH   5   6
ATOM      6  C   UNL     1     -13.487  60.091  38.532  1.00  0.00     0.053 C 
BRANCH   6   7
ATOM      7  C   UNL     1     -14.869  60.667  38.504  1.00  0.00     0.041 C 
ATOM      8  O   UNL     1     -15.872  59.918  38.641  1.00  0.00    -0.550 OA
ATOM      9  O   UNL     1     -15.051  62.029  38.291  1.00  0.00    -0.550 OA
ENDBRANCH   6   7
ENDBRANCH   5   6
ENDBRANCH   4   5
ENDBRANCH   3   4
ENDBRANCH   2   3
ENDBRANCH   1   2
BRANCH   1  10
ATOM     10  C   UNL     1      -8.813  63.959  39.565  1.00  0.00     0.000 C 
BRANCH  10  11
ATOM     11  C   UNL     1      -8.817  65.239  40.416  1.00  0.00    -0.000 C 
BRANCH  11  12
ATOM     12  C   UNL     1      -9.605  65.079  41.726  1.00  0.00    -0.000 C 
BRANCH  12  13
ATOM     13  C   UNL     1      -9.980  63.615  42.016  1.00  0.00    -0.000 C 
BRANCH  13  14
ATOM     14  C   UNL     1      -9.702  63.213  43.473  1.00  0.00    -0.000 C 
BRANCH  14  15
ATOM     15  C   UNL     1     -10.127  61.769  43.781  1.00  0.00    -0.003 C 
ATOM     16  C   UNL     1      -9.495  61.275  45.079  1.00  0.00     0.004 C 
ENDBRANCH  14  15
ENDBRANCH  13  14
ENDBRANCH  12  13
ENDBRANCH  11  12
ENDBRANCH  10  11
ENDBRANCH   1  10
TORSDOF 12
ENDMDL
MODEL 9
REMARK VINA RESULT:    -4.948     11.498     13.879
REMARK INTER + INTRA:          -9.254
REMARK INTER:                  -8.046
REMARK INTRA:                  -1.207
REMARK UNBOUND:                -0.835
REMARK SMILES CCCCCCCCCCCCCC(=O)[O-]
REMARK SMILES IDX 8 1 9 2 10 3 11 4 12 5 13 6 14 7 15 8 16 9 7 10 6 11 5 12
REMARK SMILES IDX 4 13 3 14 2 15 1 16
REMARK H PARENT
REMARK Flexibility Score: inf
ROOT
ATOM      1  C   UNL     1      -9.616  62.385  41.218  1.00  0.00     0.000 C 
ENDROOT
BRANCH   1   2
ATOM      2  C   UNL     1      -9.900  62.737  39.752  1.00  0.00     0.000 C 
BRANCH   2   3
ATOM      3  C   UNL     1     -11.117  61.968  39.226  1.00  0.00     0.000 C 
BRANCH   3   4
ATOM      4  C   UNL     1     -11.538  60.866  40.209  1.00  0.00     0.000 C 
BRANCH   4   5
ATOM      5  C   UNL     1     -12.692  59.997  39.674  1.00  0.00     0.006 C 
BRANCH   5   6
ATOM      6  C   UNL     1     -14.092  60.498  40.063  1.00  0.00     0.053 C 
BRANCH   6   7
ATOM      7  C   UNL     1     -14.783  61.176  38.920  1.00  0.00     0.041 C 
ATOM      8  O   UNL     1     -14.526  62.377  38.646  1.00  0.00    -0.550 OA
ATOM      9  O   UNL     1     -15.738  60.490  38.179  1.00  0.00    -0.550 OA
ENDBRANCH   6   7
ENDBRANCH   5   6
ENDBRANCH   4   5
ENDBRANCH   3   4
ENDBRANCH   2   3
ENDBRANCH   1   2
BRANCH   1  10
ATOM     10  C   UNL     1      -9.763  63.617  42.119  1.00  0.00     0.000 C 
BRANCH  10  11
ATOM     11  C   UNL     1     -10.048  64.876  41.285  1.00  0.00    -0.000 C 
BRANCH  11  12
ATOM     12  C   UNL     1      -9.171  66.070  41.695  1.00  0.00    -0.000 C 
BRANCH  12  13
ATOM     13  C   UNL     1      -8.634  66.853  40.483  1.00  0.00    -0.000 C 
BRANCH  13  14
ATOM     14  C   UNL     1      -7.295  66.301  39.970  1.00  0.00    -0.000 C 
BRANCH  14  15
ATOM     15  C   UNL     1      -7.471  65.257  38.858  1.00  0.00    -0.003 C 
ATOM     16  C   UNL     1      -8.560  65.678  37.875  1.00  0.00     0.004 C 
ENDBRANCH  14  15
ENDBRANCH  13  14
ENDBRANCH  12  13
ENDBRANCH  11  12
ENDBRANCH  10  11
ENDBRANCH   1  10
TORSDOF 12
ENDMDL
