MODEL 1
REMARK VINA RESULT:     3.135      0.000      0.000
REMARK INTER + INTRA:           5.087
REMARK INTER:                   5.701
REMARK INTRA:                  -0.614
REMARK UNBOUND:                -0.614
REMARK SMILES CCCCCC=CCC=CCCCCCCCC(=O)[O-]
REMARK SMILES IDX 11 1 12 2 13 3 14 4 15 5 16 6 17 7 18 8 19 9 20 10 10 11
REMARK SMILES IDX 9 12 8 13 7 14 6 15 5 16 4 17 3 18 2 19 1 20
REMARK H PARENT
REMARK Flexibility Score: inf
ROOT
ATOM      1  C   UNL     1      30.876  17.220   6.300  1.00  0.00     0.027 C 
ENDROOT
BRANCH   1   2
ATOM      2  C   UNL     1      29.753  16.186   6.472  1.00  0.00     0.004 C 
BRANCH   2   3
ATOM      3  C   UNL     1      29.937  15.340   7.743  1.00  0.00     0.000 C 
BRANCH   3   4
ATOM      4  C   UNL     1      28.603  14.865   8.340  1.00  0.00     0.000 C 
BRANCH   4   5
ATOM      5  C   UNL     1      28.067  15.819   9.423  1.00  0.00     0.000 C 
BRANCH   5   6
ATOM      6  C   UNL     1      28.889  17.113   9.526  1.00  0.00     0.006 C 
BRANCH   6   7
ATOM      7  C   UNL     1      28.481  17.980  10.726  1.00  0.00     0.053 C 
BRANCH   7   8
ATOM      8  C   UNL     1      27.664  19.148  10.271  1.00  0.00     0.041 C 
ATOM      9  O   UNL     1      27.509  20.144  11.025  1.00  0.00    -0.550 OA
ATOM     10  O   UNL     1      27.032  19.115   9.035  1.00  0.00    -0.550 OA
ENDBRANCH   7   8
ENDBRANCH   6   7
ENDBRANCH   5   6
ENDBRANCH   4   5
ENDBRANCH   3   4
ENDBRANCH   2   3
ENDBRANCH   1   2
BRANCH   1  11
ATOM     11  C   UNL     1      30.802  17.932   4.975  1.00  0.00    -0.031 C 
ATOM     12  C   UNL     1      29.643  18.402   4.490  1.00  0.00    -0.027 C 
BRANCH  12  13
ATOM     13  C   UNL     1      29.572  19.086   3.153  1.00  0.00     0.054 C 
BRANCH  13  14
ATOM     14  C   UNL     1      29.104  18.134   2.088  1.00  0.00    -0.027 C 
ATOM     15  C   UNL     1      28.610  18.579   0.923  1.00  0.00    -0.031 C 
BRANCH  15  16
ATOM     16  C   UNL     1      28.073  17.636  -0.120  1.00  0.00     0.027 C 
BRANCH  16  17
ATOM     17  C   UNL     1      29.141  16.651  -0.631  1.00  0.00     0.004 C 
BRANCH  17  18
ATOM     18  C   UNL     1      28.664  15.722  -1.768  1.00  0.00     0.000 C 
BRANCH  18  19
ATOM     19  C   UNL     1      29.768  15.272  -2.741  1.00  0.00    -0.003 C 
ATOM     20  C   UNL     1      31.166  15.349  -2.129  1.00  0.00     0.004 C 
ENDBRANCH  18  19
ENDBRANCH  17  18
ENDBRANCH  16  17
ENDBRANCH  15  16
ENDBRANCH  13  14
ENDBRANCH  12  13
ENDBRANCH   1  11
TORSDOF 14
ENDMDL
MODEL 2
REMARK VINA RESULT:     4.048      4.097      9.789
REMARK INTER + INTRA:           6.747
REMARK INTER:                   7.514
REMARK INTRA:                  -0.766
REMARK UNBOUND:                -0.614
REMARK SMILES CCCCCC=CCC=CCCCCCCCC(=O)[O-]
REMARK SMILES IDX 11 1 12 2 13 3 14 4 15 5 16 6 17 7 18 8 19 9 20 10 10 11
REMARK SMILES IDX 9 12 8 13 7 14 6 15 5 16 4 17 3 18 2 19 1 20
REMARK H PARENT
REMARK Flexibility Score: inf
ROOT
ATOM      1  C   UNL     1      29.526  19.018   3.536  1.00  0.00     0.027 C 
ENDROOT
BRANCH   1   2
ATOM      2  C   UNL     1      28.796  18.098   2.546  1.00  0.00     0.004 C 
BRANCH   2   3
ATOM      3  C   UNL     1      29.192  18.389   1.088  1.00  0.00     0.000 C 
BRANCH   3   4
ATOM      4  C   UNL     1      27.984  18.723   0.199  1.00  0.00     0.000 C 
BRANCH   4   5
ATOM      5  C   UNL     1      27.790  17.707  -0.941  1.00  0.00     0.000 C 
BRANCH   5   6
ATOM      6  C   UNL     1      28.574  16.406  -0.710  1.00  0.00     0.006 C 
BRANCH   6   7
ATOM      7  C   UNL     1      28.713  15.563  -1.986  1.00  0.00     0.053 C 
BRANCH   7   8
ATOM      8  C   UNL     1      30.144  15.503  -2.417  1.00  0.00     0.041 C 
ATOM      9  O   UNL     1      30.434  15.237  -3.614  1.00  0.00    -0.550 OA
ATOM     10  O   UNL     1      31.159  15.690  -1.488  1.00  0.00    -0.550 OA
ENDBRANCH   7   8
ENDBRANCH   6   7
ENDBRANCH   5   6
ENDBRANCH   4   5
ENDBRANCH   3   4
ENDBRANCH   2   3
ENDBRANCH   1   2
BRANCH   1  11
ATOM     11  C   UNL     1      29.794  18.344   4.856  1.00  0.00    -0.031 C 
ATOM     12  C   UNL     1      30.981  17.786   5.134  1.00  0.00    -0.027 C 
BRANCH  12  13
ATOM     13  C   UNL     1      31.232  17.088   6.443  1.00  0.00     0.054 C 
BRANCH  13  14
ATOM     14  C   UNL     1      29.975  16.441   6.954  1.00  0.00    -0.027 C 
ATOM     15  C   UNL     1      29.962  15.754   8.107  1.00  0.00    -0.031 C 
BRANCH  15  16
ATOM     16  C   UNL     1      28.727  15.044   8.590  1.00  0.00     0.027 C 
BRANCH  16  17
ATOM     17  C   UNL     1      27.904  15.895   9.574  1.00  0.00     0.004 C 
BRANCH  17  18
ATOM     18  C   UNL     1      28.521  17.270   9.904  1.00  0.00     0.000 C 
BRANCH  18  19
ATOM     19  C   UNL     1      27.638  18.478   9.545  1.00  0.00    -0.003 C 
ATOM     20  C   UNL     1      27.589  19.528  10.655  1.00  0.00     0.004 C 
ENDBRANCH  18  19
ENDBRANCH  17  18
ENDBRANCH  16  17
ENDBRANCH  15  16
ENDBRANCH  13  14
ENDBRANCH  12  13
ENDBRANCH   1  11
TORSDOF 14
ENDMDL
MODEL 3
REMARK VINA RESULT:     4.755      2.068      2.872
REMARK INTER + INTRA:           8.033
REMARK INTER:                   8.609
REMARK INTRA:                  -0.575
REMARK UNBOUND:                -0.614
REMARK SMILES CCCCCC=CCC=CCCCCCCCC(=O)[O-]
REMARK SMILES IDX 11 1 12 2 13 3 14 4 15 5 16 6 17 7 18 8 19 9 20 10 10 11
REMARK SMILES IDX 9 12 8 13 7 14 6 15 5 16 4 17 3 18 2 19 1 20
REMARK H PARENT
REMARK Flexibility Score: inf
ROOT
ATOM      1  C   UNL     1      31.043  17.373   5.860  1.00  0.00     0.027 C 
ENDROOT
BRANCH   1   2
ATOM      2  C   UNL     1      29.815  16.882   6.640  1.00  0.00     0.004 C 
BRANCH   2   3
ATOM      3  C   UNL     1      30.208  16.102   7.906  1.00  0.00     0.000 C 
BRANCH   3   4
ATOM      4  C   UNL     1      29.688  16.758   9.194  1.00  0.00     0.000 C 
BRANCH   4   5
ATOM      5  C   UNL     1      28.201  16.455   9.454  1.00  0.00     0.000 C 
BRANCH   5   6
ATOM      6  C   UNL     1      27.937  14.959   9.682  1.00  0.00     0.006 C 
BRANCH   6   7
ATOM      7  C   UNL     1      27.557  14.221   8.390  1.00  0.00     0.053 C 
BRANCH   7   8
ATOM      8  C   UNL     1      26.158  13.697   8.482  1.00  0.00     0.041 C 
ATOM      9  O   UNL     1      25.837  12.639   7.878  1.00  0.00    -0.550 OA
ATOM     10  O   UNL     1      25.196  14.403   9.193  1.00  0.00    -0.550 OA
ENDBRANCH   7   8
ENDBRANCH   6   7
ENDBRANCH   5   6
ENDBRANCH   4   5
ENDBRANCH   3   4
ENDBRANCH   2   3
ENDBRANCH   1   2
BRANCH   1  11
ATOM     11  C   UNL     1      30.675  18.310   4.739  1.00  0.00    -0.031 C 
ATOM     12  C   UNL     1      29.549  18.150   4.028  1.00  0.00    -0.027 C 
BRANCH  12  13
ATOM     13  C   UNL     1      29.203  19.072   2.891  1.00  0.00     0.054 C 
BRANCH  13  14
ATOM     14  C   UNL     1      29.022  18.301   1.613  1.00  0.00    -0.027 C 
ATOM     15  C   UNL     1      28.159  18.708   0.669  1.00  0.00    -0.031 C 
BRANCH  15  16
ATOM     16  C   UNL     1      27.919  17.906  -0.581  1.00  0.00     0.027 C 
BRANCH  16  17
ATOM     17  C   UNL     1      29.013  16.850  -0.824  1.00  0.00     0.004 C 
BRANCH  17  18
ATOM     18  C   UNL     1      28.562  15.646  -1.678  1.00  0.00     0.000 C 
BRANCH  18  19
ATOM     19  C   UNL     1      29.637  15.088  -2.627  1.00  0.00    -0.003 C 
ATOM     20  C   UNL     1      31.056  15.464  -2.204  1.00  0.00     0.004 C 
ENDBRANCH  18  19
ENDBRANCH  17  18
ENDBRANCH  16  17
ENDBRANCH  15  16
ENDBRANCH  13  14
ENDBRANCH  12  13
ENDBRANCH   1  11
TORSDOF 14
ENDMDL
MODEL 4
REMARK VINA RESULT:     5.440      4.487      9.639
REMARK INTER + INTRA:           9.279
REMARK INTER:                  10.008
REMARK INTRA:                  -0.729
REMARK UNBOUND:                -0.614
REMARK SMILES CCCCCC=CCC=CCCCCCCCC(=O)[O-]
REMARK SMILES IDX 11 1 12 2 13 3 14 4 15 5 16 6 17 7 18 8 19 9 20 10 10 11
REMARK SMILES IDX 9 12 8 13 7 14 6 15 5 16 4 17 3 18 2 19 1 20
REMARK H PARENT
REMARK Flexibility Score: inf
ROOT
ATOM      1  C   UNL     1      29.450  18.880   3.264  1.00  0.00     0.027 C 
ENDROOT
BRANCH   1   2
ATOM      2  C   UNL     1      28.694  18.113   2.169  1.00  0.00     0.004 C 
BRANCH   2   3
ATOM      3  C   UNL     1      28.302  19.023   0.992  1.00  0.00     0.000 C 
BRANCH   3   4
ATOM      4  C   UNL     1      27.913  18.232  -0.267  1.00  0.00     0.000 C 
BRANCH   4   5
ATOM      5  C   UNL     1      28.770  16.968  -0.459  1.00  0.00     0.000 C 
BRANCH   5   6
ATOM      6  C   UNL     1      28.254  16.076  -1.598  1.00  0.00     0.006 C 
BRANCH   6   7
ATOM      7  C   UNL     1      29.217  14.927  -1.934  1.00  0.00     0.053 C 
BRANCH   7   8
ATOM      8  C   UNL     1      30.484  15.465  -2.521  1.00  0.00     0.041 C 
ATOM      9  O   UNL     1      30.442  16.292  -3.470  1.00  0.00    -0.550 OA
ATOM     10  O   UNL     1      31.713  15.014  -2.055  1.00  0.00    -0.550 OA
ENDBRANCH   7   8
ENDBRANCH   6   7
ENDBRANCH   5   6
ENDBRANCH   4   5
ENDBRANCH   3   4
ENDBRANCH   2   3
ENDBRANCH   1   2
BRANCH   1  11
ATOM     11  C   UNL     1      29.833  17.997   4.423  1.00  0.00    -0.031 C 
ATOM     12  C   UNL     1      31.018  18.120   5.041  1.00  0.00    -0.027 C 
BRANCH  12  13
ATOM     13  C   UNL     1      31.405  17.215   6.178  1.00  0.00     0.054 C 
BRANCH  13  14
ATOM     14  C   UNL     1      30.187  16.712   6.901  1.00  0.00    -0.027 C 
ATOM     15  C   UNL     1      30.045  16.874   8.226  1.00  0.00    -0.031 C 
BRANCH  15  16
ATOM     16  C   UNL     1      28.864  16.312   8.969  1.00  0.00     0.027 C 
BRANCH  16  17
ATOM     17  C   UNL     1      28.612  14.828   8.642  1.00  0.00     0.004 C 
BRANCH  17  18
ATOM     18  C   UNL     1      27.460  14.182   9.441  1.00  0.00     0.000 C 
BRANCH  18  19
ATOM     19  C   UNL     1      26.075  14.289   8.780  1.00  0.00    -0.003 C 
ATOM     20  C   UNL     1      25.608  12.971   8.164  1.00  0.00     0.004 C 
ENDBRANCH  18  19
ENDBRANCH  17  18
ENDBRANCH  16  17
ENDBRANCH  15  16
ENDBRANCH  13  14
ENDBRANCH  12  13
ENDBRANCH   1  11
TORSDOF 14
ENDMDL
MODEL 5
REMARK VINA RESULT:     5.611     12.096     15.007
REMARK INTER + INTRA:           9.589
REMARK INTER:                   9.271
REMARK INTRA:                   0.318
REMARK UNBOUND:                -0.614
REMARK SMILES CCCCCC=CCC=CCCCCCCCC(=O)[O-]
REMARK SMILES IDX 11 1 12 2 13 3 14 4 15 5 16 6 17 7 18 8 19 9 20 10 10 11
REMARK SMILES IDX 9 12 8 13 7 14 6 15 5 16 4 17 3 18 2 19 1 20
REMARK H PARENT
REMARK Flexibility Score: inf
ROOT
ATOM      1  C   UNL     1      21.447   8.024  -6.681  1.00  0.00     0.027 C 
ENDROOT
BRANCH   1   2
ATOM      2  C   UNL     1      21.074   9.227  -5.802  1.00  0.00     0.004 C 
BRANCH   2   3
ATOM      3  C   UNL     1      22.290  10.120  -5.499  1.00  0.00     0.000 C 
BRANCH   3   4
ATOM      4  C   UNL     1      23.183   9.551  -4.385  1.00  0.00     0.000 C 
BRANCH   4   5
ATOM      5  C   UNL     1      22.370   8.912  -3.244  1.00  0.00     0.000 C 
BRANCH   5   6
ATOM      6  C   UNL     1      21.014   9.602  -3.030  1.00  0.00     0.006 C 
BRANCH   6   7
ATOM      7  C   UNL     1      20.998  10.505  -1.789  1.00  0.00     0.053 C 
BRANCH   7   8
ATOM      8  C   UNL     1      21.707  11.792  -2.072  1.00  0.00     0.041 C 
ATOM      9  O   UNL     1      22.950  11.884  -1.892  1.00  0.00    -0.550 OA
ATOM     10  O   UNL     1      20.987  12.906  -2.486  1.00  0.00    -0.550 OA
ENDBRANCH   7   8
ENDBRANCH   6   7
ENDBRANCH   5   6
ENDBRANCH   4   5
ENDBRANCH   3   4
ENDBRANCH   2   3
ENDBRANCH   1   2
BRANCH   1  11
ATOM     11  C   UNL     1      21.570   6.749  -5.889  1.00  0.00    -0.031 C 
ATOM     12  C   UNL     1      20.881   6.555  -4.754  1.00  0.00    -0.027 C 
BRANCH  12  13
ATOM     13  C   UNL     1      21.032   5.291  -3.953  1.00  0.00     0.054 C 
BRANCH  13  14
ATOM     14  C   UNL     1      22.438   5.145  -3.443  1.00  0.00    -0.027 C 
ATOM     15  C   UNL     1      23.378   6.063  -3.715  1.00  0.00    -0.031 C 
BRANCH  15  16
ATOM     16  C   UNL     1      24.805   5.890  -3.269  1.00  0.00     0.027 C 
BRANCH  16  17
ATOM     17  C   UNL     1      25.529   7.234  -3.072  1.00  0.00     0.004 C 
BRANCH  17  18
ATOM     18  C   UNL     1      25.997   7.504  -1.626  1.00  0.00     0.000 C 
BRANCH  18  19
ATOM     19  C   UNL     1      24.865   7.619  -0.591  1.00  0.00    -0.003 C 
ATOM     20  C   UNL     1      24.045   8.899  -0.749  1.00  0.00     0.004 C 
ENDBRANCH  18  19
ENDBRANCH  17  18
ENDBRANCH  16  17
ENDBRANCH  15  16
ENDBRANCH  13  14
ENDBRANCH  12  13
ENDBRANCH   1  11
TORSDOF 14
ENDMDL
