MODEL 1
REMARK VINA RESULT:    -3.527      0.000      0.000
REMARK INTER + INTRA:          -5.230
REMARK INTER:                  -4.765
REMARK INTRA:                  -0.465
REMARK UNBOUND:                -0.465
REMARK SMILES CCCCCCC=CC(=O)[O-]
REMARK SMILES IDX 5 1 6 2 7 3 8 4 9 5 10 6 11 7 4 8 3 9 2 10 1 11
REMARK H PARENT
REMARK Flexibility Score: inf
ROOT
ATOM      1  C   UNL     1      58.436  29.244  50.213  1.00  0.00     0.004 C 
ENDROOT
BRANCH   1   2
ATOM      2  C   UNL     1      59.542  28.433  49.520  1.00  0.00     0.027 C 
BRANCH   2   3
ATOM      3  C   UNL     1      59.546  27.007  49.996  1.00  0.00    -0.025 C 
ATOM      4  C   UNL     1      60.685  26.329  50.160  1.00  0.00     0.020 C 
BRANCH   4   5
ATOM      5  C   UNL     1      60.712  24.928  50.611  1.00  0.00     0.064 C 
ATOM      6  O   UNL     1      59.650  24.320  50.910  1.00  0.00    -0.545 OA
ATOM      7  O   UNL     1      61.928  24.266  50.711  1.00  0.00    -0.545 OA
ENDBRANCH   4   5
ENDBRANCH   2   3
ENDBRANCH   1   2
BRANCH   1   8
ATOM      8  C   UNL     1      57.474  28.363  51.024  1.00  0.00     0.000 C 
BRANCH   8   9
ATOM      9  C   UNL     1      56.010  28.817  50.897  1.00  0.00    -0.000 C 
BRANCH   9  10
ATOM     10  C   UNL     1      55.064  27.660  50.535  1.00  0.00    -0.003 C 
ATOM     11  C   UNL     1      55.803  26.344  50.296  1.00  0.00     0.004 C 
ENDBRANCH   9  10
ENDBRANCH   8   9
ENDBRANCH   1   8
TORSDOF 6
ENDMDL
MODEL 2
REMARK VINA RESULT:    -3.435     12.533     13.361
REMARK INTER + INTRA:          -5.105
REMARK INTER:                  -4.776
REMARK INTRA:                  -0.329
REMARK UNBOUND:                -0.465
REMARK SMILES CCCCCCC=CC(=O)[O-]
REMARK SMILES IDX 5 1 6 2 7 3 8 4 9 5 10 6 11 7 4 8 3 9 2 10 1 11
REMARK H PARENT
REMARK Flexibility Score: inf
ROOT
ATOM      1  C   UNL     1      62.528  34.081  60.578  1.00  0.00     0.004 C 
ENDROOT
BRANCH   1   2
ATOM      2  C   UNL     1      61.342  33.212  60.131  1.00  0.00     0.027 C 
BRANCH   2   3
ATOM      3  C   UNL     1      61.536  31.779  60.539  1.00  0.00    -0.025 C 
ATOM      4  C   UNL     1      62.750  31.285  60.798  1.00  0.00     0.020 C 
BRANCH   4   5
ATOM      5  C   UNL     1      62.965  29.882  61.186  1.00  0.00     0.064 C 
ATOM      6  O   UNL     1      62.050  29.210  61.731  1.00  0.00    -0.545 OA
ATOM      7  O   UNL     1      64.198  29.289  60.949  1.00  0.00    -0.545 OA
ENDBRANCH   4   5
ENDBRANCH   2   3
ENDBRANCH   1   2
BRANCH   1   8
ATOM      8  C   UNL     1      62.123  35.535  60.865  1.00  0.00     0.000 C 
BRANCH   8   9
ATOM      9  C   UNL     1      63.295  36.381  61.390  1.00  0.00    -0.000 C 
BRANCH   9  10
ATOM     10  C   UNL     1      64.516  35.526  61.766  1.00  0.00    -0.003 C 
ATOM     11  C   UNL     1      65.782  35.939  61.016  1.00  0.00     0.004 C 
ENDBRANCH   9  10
ENDBRANCH   8   9
ENDBRANCH   1   8
TORSDOF 6
ENDMDL
MODEL 3
REMARK VINA RESULT:    -3.413     13.034     13.783
REMARK INTER + INTRA:          -5.075
REMARK INTER:                  -4.641
REMARK INTRA:                  -0.434
REMARK UNBOUND:                -0.465
REMARK SMILES CCCCCCC=CC(=O)[O-]
REMARK SMILES IDX 5 1 6 2 7 3 8 4 9 5 10 6 11 7 4 8 3 9 2 10 1 11
REMARK H PARENT
REMARK Flexibility Score: inf
ROOT
ATOM      1  C   UNL     1      62.188  33.205  59.315  1.00  0.00     0.004 C 
ENDROOT
BRANCH   1   2
ATOM      2  C   UNL     1      61.600  34.126  60.396  1.00  0.00     0.027 C 
BRANCH   2   3
ATOM      3  C   UNL     1      62.580  35.196  60.786  1.00  0.00    -0.025 C 
ATOM      4  C   UNL     1      63.797  34.894  61.246  1.00  0.00     0.020 C 
BRANCH   4   5
ATOM      5  C   UNL     1      64.768  35.925  61.647  1.00  0.00     0.064 C 
ATOM      6  O   UNL     1      64.456  36.830  62.466  1.00  0.00    -0.545 OA
ATOM      7  O   UNL     1      66.049  35.901  61.113  1.00  0.00    -0.545 OA
ENDBRANCH   4   5
ENDBRANCH   2   3
ENDBRANCH   1   2
BRANCH   1   8
ATOM      8  C   UNL     1      61.927  31.717  59.598  1.00  0.00     0.000 C 
BRANCH   8   9
ATOM      9  C   UNL     1      60.988  31.501  60.797  1.00  0.00    -0.000 C 
BRANCH   9  10
ATOM     10  C   UNL     1      61.403  30.299  61.661  1.00  0.00    -0.003 C 
ATOM     11  C   UNL     1      62.841  29.851  61.401  1.00  0.00     0.004 C 
ENDBRANCH   9  10
ENDBRANCH   8   9
ENDBRANCH   1   8
TORSDOF 6
ENDMDL
MODEL 4
REMARK VINA RESULT:    -3.412      1.069      1.650
REMARK INTER + INTRA:          -5.074
REMARK INTER:                  -4.677
REMARK INTRA:                  -0.396
REMARK UNBOUND:                -0.465
REMARK SMILES CCCCCCC=CC(=O)[O-]
REMARK SMILES IDX 5 1 6 2 7 3 8 4 9 5 10 6 11 7 4 8 3 9 2 10 1 11
REMARK H PARENT
REMARK Flexibility Score: inf
ROOT
ATOM      1  C   UNL     1      58.215  29.142  51.007  1.00  0.00     0.004 C 
ENDROOT
BRANCH   1   2
ATOM      2  C   UNL     1      58.914  29.156  49.639  1.00  0.00     0.027 C 
BRANCH   2   3
ATOM      3  C   UNL     1      59.975  28.095  49.561  1.00  0.00    -0.025 C 
ATOM      4  C   UNL     1      60.041  27.107  50.459  1.00  0.00     0.020 C 
BRANCH   4   5
ATOM      5  C   UNL     1      61.079  26.065  50.411  1.00  0.00     0.064 C 
ATOM      6  O   UNL     1      62.302  26.365  50.386  1.00  0.00    -0.545 OA
ATOM      7  O   UNL     1      60.704  24.728  50.391  1.00  0.00    -0.545 OA
ENDBRANCH   4   5
ENDBRANCH   2   3
ENDBRANCH   1   2
BRANCH   1   8
ATOM      8  C   UNL     1      56.703  28.890  50.898  1.00  0.00     0.000 C 
BRANCH   8   9
ATOM      9  C   UNL     1      56.368  27.404  50.686  1.00  0.00    -0.000 C 
BRANCH   9  10
ATOM     10  C   UNL     1      54.896  27.182  50.302  1.00  0.00    -0.003 C 
ATOM     11  C   UNL     1      54.049  28.446  50.445  1.00  0.00     0.004 C 
ENDBRANCH   9  10
ENDBRANCH   8   9
ENDBRANCH   1   8
TORSDOF 6
ENDMDL
MODEL 5
REMARK VINA RESULT:    -3.391      2.261      3.691
REMARK INTER + INTRA:          -5.046
REMARK INTER:                  -4.466
REMARK INTRA:                  -0.580
REMARK UNBOUND:                -0.465
REMARK SMILES CCCCCCC=CC(=O)[O-]
REMARK SMILES IDX 5 1 6 2 7 3 8 4 9 5 10 6 11 7 4 8 3 9 2 10 1 11
REMARK H PARENT
REMARK Flexibility Score: inf
ROOT
ATOM      1  C   UNL     1      54.469  29.673  50.920  1.00  0.00     0.004 C 
ENDROOT
BRANCH   1   2
ATOM      2  C   UNL     1      55.519  28.773  51.589  1.00  0.00     0.027 C 
BRANCH   2   3
ATOM      3  C   UNL     1      56.882  28.999  50.998  1.00  0.00    -0.025 C 
ATOM      4  C   UNL     1      57.654  27.980  50.612  1.00  0.00     0.020 C 
BRANCH   4   5
ATOM      5  C   UNL     1      58.997  28.177  50.043  1.00  0.00     0.064 C 
ATOM      6  O   UNL     1      59.462  29.333  49.858  1.00  0.00    -0.545 OA
ATOM      7  O   UNL     1      59.765  27.071  49.704  1.00  0.00    -0.545 OA
ENDBRANCH   4   5
ENDBRANCH   2   3
ENDBRANCH   1   2
BRANCH   1   8
ATOM      8  C   UNL     1      53.282  28.878  50.353  1.00  0.00     0.000 C 
BRANCH   8   9
ATOM      9  C   UNL     1      53.244  27.429  50.867  1.00  0.00    -0.000 C 
BRANCH   9  10
ATOM     10  C   UNL     1      53.341  26.399  49.730  1.00  0.00    -0.003 C 
ATOM     11  C   UNL     1      54.718  25.742  49.641  1.00  0.00     0.004 C 
ENDBRANCH   9  10
ENDBRANCH   8   9
ENDBRANCH   1   8
TORSDOF 6
ENDMDL
MODEL 6
REMARK VINA RESULT:    -3.363     12.657     13.448
REMARK INTER + INTRA:          -5.008
REMARK INTER:                  -4.595
REMARK INTRA:                  -0.413
REMARK UNBOUND:                -0.465
REMARK SMILES CCCCCCC=CC(=O)[O-]
REMARK SMILES IDX 5 1 6 2 7 3 8 4 9 5 10 6 11 7 4 8 3 9 2 10 1 11
REMARK H PARENT
REMARK Flexibility Score: inf
ROOT
ATOM      1  C   UNL     1      60.998  31.486  60.894  1.00  0.00     0.004 C 
ENDROOT
BRANCH   1   2
ATOM      2  C   UNL     1      62.037  32.193  60.009  1.00  0.00     0.027 C 
BRANCH   2   3
ATOM      3  C   UNL     1      62.360  33.561  60.539  1.00  0.00    -0.025 C 
ATOM      4  C   UNL     1      63.620  33.938  60.777  1.00  0.00     0.020 C 
BRANCH   4   5
ATOM      5  C   UNL     1      63.959  35.268  61.309  1.00  0.00     0.064 C 
ATOM      6  O   UNL     1      65.138  35.551  61.650  1.00  0.00    -0.545 OA
ATOM      7  O   UNL     1      62.962  36.226  61.438  1.00  0.00    -0.545 OA
ENDBRANCH   4   5
ENDBRANCH   2   3
ENDBRANCH   1   2
BRANCH   1   8
ATOM      8  C   UNL     1      61.572  30.256  61.614  1.00  0.00     0.000 C 
BRANCH   8   9
ATOM      9  C   UNL     1      63.063  30.036  61.307  1.00  0.00    -0.000 C 
BRANCH   9  10
ATOM     10  C   UNL     1      63.372  28.587  60.896  1.00  0.00    -0.003 C 
ATOM     11  C   UNL     1      62.196  27.640  61.133  1.00  0.00     0.004 C 
ENDBRANCH   9  10
ENDBRANCH   8   9
ENDBRANCH   1   8
TORSDOF 6
ENDMDL
MODEL 7
REMARK VINA RESULT:    -3.356      3.065      5.208
REMARK INTER + INTRA:          -4.999
REMARK INTER:                  -4.475
REMARK INTRA:                  -0.523
REMARK UNBOUND:                -0.465
REMARK SMILES CCCCCCC=CC(=O)[O-]
REMARK SMILES IDX 5 1 6 2 7 3 8 4 9 5 10 6 11 7 4 8 3 9 2 10 1 11
REMARK H PARENT
REMARK Flexibility Score: inf
ROOT
ATOM      1  C   UNL     1      58.863  29.254  50.108  1.00  0.00     0.004 C 
ENDROOT
BRANCH   1   2
ATOM      2  C   UNL     1      57.929  28.762  51.225  1.00  0.00     0.027 C 
BRANCH   2   3
ATOM      3  C   UNL     1      56.757  28.012  50.660  1.00  0.00    -0.025 C 
ATOM      4  C   UNL     1      55.508  28.468  50.787  1.00  0.00     0.020 C 
BRANCH   4   5
ATOM      5  C   UNL     1      54.343  27.743  50.253  1.00  0.00     0.064 C 
ATOM      6  O   UNL     1      54.423  26.525  49.941  1.00  0.00    -0.545 OA
ATOM      7  O   UNL     1      53.138  28.413  50.090  1.00  0.00    -0.545 OA
ENDBRANCH   4   5
ENDBRANCH   2   3
ENDBRANCH   1   2
BRANCH   1   8
ATOM      8  C   UNL     1      59.684  28.118  49.480  1.00  0.00     0.000 C 
BRANCH   8   9
ATOM      9  C   UNL     1      60.492  27.328  50.523  1.00  0.00    -0.000 C 
BRANCH   9  10
ATOM     10  C   UNL     1      60.395  25.808  50.315  1.00  0.00    -0.003 C 
ATOM     11  C   UNL     1      59.181  25.191  51.008  1.00  0.00     0.004 C 
ENDBRANCH   9  10
ENDBRANCH   8   9
ENDBRANCH   1   8
TORSDOF 6
ENDMDL
MODEL 8
REMARK VINA RESULT:    -3.329      3.072      5.021
REMARK INTER + INTRA:          -4.961
REMARK INTER:                  -4.469
REMARK INTRA:                  -0.493
REMARK UNBOUND:                -0.465
REMARK SMILES CCCCCCC=CC(=O)[O-]
REMARK SMILES IDX 5 1 6 2 7 3 8 4 9 5 10 6 11 7 4 8 3 9 2 10 1 11
REMARK H PARENT
REMARK Flexibility Score: inf
ROOT
ATOM      1  C   UNL     1      57.401  29.006  52.029  1.00  0.00     0.004 C 
ENDROOT
BRANCH   1   2
ATOM      2  C   UNL     1      56.271  28.942  50.990  1.00  0.00     0.027 C 
BRANCH   2   3
ATOM      3  C   UNL     1      55.708  27.553  50.888  1.00  0.00    -0.025 C 
ATOM      4  C   UNL     1      54.596  27.300  50.192  1.00  0.00     0.020 C 
BRANCH   4   5
ATOM      5  C   UNL     1      54.018  25.950  50.089  1.00  0.00     0.064 C 
ATOM      6  O   UNL     1      54.138  25.118  51.027  1.00  0.00    -0.545 OA
ATOM      7  O   UNL     1      53.331  25.587  48.938  1.00  0.00    -0.545 OA
ENDBRANCH   4   5
ENDBRANCH   2   3
ENDBRANCH   1   2
BRANCH   1   8
ATOM      8  C   UNL     1      58.737  29.463  51.424  1.00  0.00     0.000 C 
BRANCH   8   9
ATOM      9  C   UNL     1      58.827  29.183  49.914  1.00  0.00    -0.000 C 
BRANCH   9  10
ATOM     10  C   UNL     1      59.885  28.120  49.575  1.00  0.00    -0.003 C 
ATOM     11  C   UNL     1      59.452  26.708  49.964  1.00  0.00     0.004 C 
ENDBRANCH   9  10
ENDBRANCH   8   9
ENDBRANCH   1   8
TORSDOF 6
ENDMDL
MODEL 9
REMARK VINA RESULT:    -3.296     12.215     12.883
REMARK INTER + INTRA:          -4.918
REMARK INTER:                  -4.245
REMARK INTRA:                  -0.672
REMARK UNBOUND:                -0.465
REMARK SMILES CCCCCCC=CC(=O)[O-]
REMARK SMILES IDX 5 1 6 2 7 3 8 4 9 5 10 6 11 7 4 8 3 9 2 10 1 11
REMARK H PARENT
REMARK Flexibility Score: inf
ROOT
ATOM      1  C   UNL     1      64.264  34.371  60.919  1.00  0.00     0.004 C 
ENDROOT
BRANCH   1   2
ATOM      2  C   UNL     1      64.247  33.164  59.968  1.00  0.00     0.027 C 
BRANCH   2   3
ATOM      3  C   UNL     1      63.617  31.968  60.623  1.00  0.00    -0.025 C 
ATOM      4  C   UNL     1      62.289  31.835  60.704  1.00  0.00     0.020 C 
BRANCH   4   5
ATOM      5  C   UNL     1      61.649  30.679  61.352  1.00  0.00     0.064 C 
ATOM      6  O   UNL     1      60.423  30.691  61.638  1.00  0.00    -0.545 OA
ATOM      7  O   UNL     1      62.411  29.559  61.656  1.00  0.00    -0.545 OA
ENDBRANCH   4   5
ENDBRANCH   2   3
ENDBRANCH   1   2
BRANCH   1   8
ATOM      8  C   UNL     1      63.518  35.587  60.346  1.00  0.00     0.000 C 
BRANCH   8   9
ATOM      9  C   UNL     1      62.256  35.937  61.153  1.00  0.00    -0.000 C 
BRANCH   9  10
ATOM     10  C   UNL     1      60.969  35.434  60.480  1.00  0.00    -0.003 C 
ATOM     11  C   UNL     1      61.177  35.049  59.016  1.00  0.00     0.004 C 
ENDBRANCH   9  10
ENDBRANCH   8   9
ENDBRANCH   1   8
TORSDOF 6
ENDMDL
