MODEL 1
REMARK VINA RESULT:    -3.810      0.000      0.000
REMARK INTER + INTRA:          -4.911
REMARK INTER:                  -5.814
REMARK INTRA:                   0.903
REMARK UNBOUND:                 0.903
REMARK SMILES CC1=CCC[C@@H](C)C(=O)C[C@H](C(C)C)C(=O)C1
REMARK SMILES IDX 8 1 9 2 6 3 7 4 5 5 4 6 3 7 2 8 1 9 10 11 11 12 15 13 16 14
REMARK SMILES IDX 17 15 12 17 13 18 14 19
REMARK H PARENT
REMARK Flexibility Score: 70.00
ROOT
ATOM      1  C   UNL     1      70.514  61.059  24.836  1.00  0.00     0.136 C 
ATOM      2  O   UNL     1      70.843  59.898  24.635  1.00  0.00    -0.299 OA
ENDROOT
BRANCH   1   3
ATOM      3  C   UNL     1      71.073  62.159  23.962  1.00  0.00     0.053 C 
ATOM      4  C   UNL     1      71.758  61.559  22.729  1.00  0.00     0.016 C 
BRANCH   3   5
ATOM      5  C   UNL     1      72.049  63.055  24.748  1.00  0.00     0.015 C 
BRANCH   5   6
ATOM      6  C   UNL     1      71.742  63.093  26.261  1.00  0.00     0.028 C 
BRANCH   6   7
ATOM      7  C   UNL     1      72.719  62.250  27.048  1.00  0.00    -0.028 C 
ATOM      8  C   UNL     1      72.443  61.437  28.096  1.00  0.00    -0.070 CG0
ATOM      9  C   UNL     1      73.606  60.732  28.750  1.00  0.00     0.039 C 
ATOM     10  G   UNL     1      71.051  61.169  28.641  1.00  0.00     0.000 G0
ENDBRANCH   6   7
ENDBRANCH   5   6
ENDBRANCH   3   5
ENDBRANCH   1   3
BRANCH   1  11
ATOM     11  C   UNL     1      69.498  61.390  25.906  1.00  0.00     0.087 C 
BRANCH  11  12
ATOM     12  C   UNL     1      69.244  60.230  26.898  1.00  0.00     0.066 C 
BRANCH  12  13
ATOM     13  C   UNL     1      70.375  60.023  27.897  1.00  0.00     0.140 C 
ATOM     14  O   UNL     1      70.722  58.877  28.146  1.00  0.00    -0.299 OA
BRANCH  13  15
ATOM     15  C   UNL     1      71.039  61.156  28.647  1.00  0.00     0.106 CG0
ATOM     16  G   UNL     1      72.433  61.430  28.106  1.00  0.00     0.000 G0
ENDBRANCH  13  15
ENDBRANCH  12  13
BRANCH  12  17
ATOM     17  C   UNL     1      67.843  60.330  27.576  1.00  0.00    -0.006 C 
ATOM     18  C   UNL     1      66.666  60.008  26.640  1.00  0.00     0.008 C 
ATOM     19  C   UNL     1      67.632  61.708  28.224  1.00  0.00     0.008 C 
ENDBRANCH  12  17
ENDBRANCH  11  12
ENDBRANCH   1  11
TORSDOF 1
ENDMDL
MODEL 2
REMARK VINA RESULT:    -3.454     10.682     12.109
REMARK INTER + INTRA:          -4.368
REMARK INTER:                  -4.149
REMARK INTRA:                  -0.219
REMARK UNBOUND:                 0.903
REMARK SMILES CC1=CCC[C@@H](C)C(=O)C[C@H](C(C)C)C(=O)C1
REMARK SMILES IDX 8 1 9 2 6 3 7 4 5 5 4 6 3 7 2 8 1 9 10 11 11 12 15 13 16 14
REMARK SMILES IDX 17 15 12 17 13 18 14 19
REMARK H PARENT
REMARK Flexibility Score: 70.00
ROOT
ATOM      1  C   UNL     1      73.085  71.723  25.542  1.00  0.00     0.136 C 
ATOM      2  O   UNL     1      72.634  70.694  26.027  1.00  0.00    -0.299 OA
ENDROOT
BRANCH   1   3
ATOM      3  C   UNL     1      72.220  72.564  24.631  1.00  0.00     0.053 C 
ATOM      4  C   UNL     1      70.756  72.496  25.080  1.00  0.00     0.016 C 
BRANCH   3   5
ATOM      5  C   UNL     1      72.363  72.123  23.162  1.00  0.00     0.015 C 
BRANCH   5   6
ATOM      6  C   UNL     1      73.576  72.767  22.457  1.00  0.00     0.028 C 
BRANCH   6   7
ATOM      7  C   UNL     1      74.543  71.724  21.949  1.00  0.00    -0.028 C 
ATOM      8  C   UNL     1      75.781  71.450  22.425  1.00  0.00    -0.070 CG0
ATOM      9  C   UNL     1      76.579  70.386  21.711  1.00  0.00     0.039 C 
ATOM     10  G   UNL     1      76.412  72.120  23.634  1.00  0.00     0.000 G0
ENDBRANCH   6   7
ENDBRANCH   5   6
ENDBRANCH   3   5
ENDBRANCH   1   3
BRANCH   1  11
ATOM     11  C   UNL     1      74.475  72.193  25.907  1.00  0.00     0.087 C 
BRANCH  11  12
ATOM     12  C   UNL     1      75.528  71.060  25.919  1.00  0.00     0.066 C 
BRANCH  12  13
ATOM     13  C   UNL     1      76.552  71.167  24.796  1.00  0.00     0.140 C 
ATOM     14  O   UNL     1      77.567  70.487  24.874  1.00  0.00    -0.299 OA
BRANCH  13  15
ATOM     15  C   UNL     1      76.412  72.121  23.631  1.00  0.00     0.106 CG0
ATOM     16  G   UNL     1      75.790  71.431  22.429  1.00  0.00     0.000 G0
ENDBRANCH  13  15
ENDBRANCH  12  13
BRANCH  12  17
ATOM     17  C   UNL     1      76.182  70.877  27.324  1.00  0.00    -0.006 C 
ATOM     18  C   UNL     1      75.505  69.807  28.197  1.00  0.00     0.008 C 
ATOM     19  C   UNL     1      76.248  72.208  28.088  1.00  0.00     0.008 C 
ENDBRANCH  12  17
ENDBRANCH  11  12
ENDBRANCH   1  11
TORSDOF 1
ENDMDL
MODEL 3
REMARK VINA RESULT:    -3.412     12.149     13.600
REMARK INTER + INTRA:          -4.304
REMARK INTER:                  -4.028
REMARK INTRA:                  -0.276
REMARK UNBOUND:                 0.903
REMARK SMILES CC1=CCC[C@@H](C)C(=O)C[C@H](C(C)C)C(=O)C1
REMARK SMILES IDX 8 1 9 2 6 3 7 4 5 5 4 6 3 7 2 8 1 9 10 11 11 12 15 13 16 14
REMARK SMILES IDX 17 15 12 17 13 18 14 19
REMARK H PARENT
REMARK Flexibility Score: 70.00
ROOT
ATOM      1  C   UNL     1      75.706  72.186  22.990  1.00  0.00     0.136 C 
ATOM      2  O   UNL     1      76.642  72.905  23.313  1.00  0.00    -0.299 OA
ENDROOT
BRANCH   1   3
ATOM      3  C   UNL     1      75.717  71.502  21.642  1.00  0.00     0.053 C 
ATOM      4  C   UNL     1      76.993  70.668  21.481  1.00  0.00     0.016 C 
BRANCH   3   5
ATOM      5  C   UNL     1      75.584  72.524  20.496  1.00  0.00     0.015 C 
BRANCH   5   6
ATOM      6  C   UNL     1      74.115  72.874  20.172  1.00  0.00     0.028 C 
BRANCH   6   7
ATOM      7  C   UNL     1      73.729  74.225  20.729  1.00  0.00    -0.028 C 
ATOM      8  C   UNL     1      72.886  74.478  21.758  1.00  0.00    -0.070 CG0
ATOM      9  C   UNL     1      72.622  75.925  22.098  1.00  0.00     0.039 C 
ATOM     10  G   UNL     1      72.209  73.414  22.605  1.00  0.00     0.000 G0
ENDBRANCH   6   7
ENDBRANCH   5   6
ENDBRANCH   3   5
ENDBRANCH   1   3
BRANCH   1  11
ATOM     11  C   UNL     1      74.576  71.923  23.959  1.00  0.00     0.087 C 
BRANCH  11  12
ATOM     12  C   UNL     1      73.988  73.208  24.588  1.00  0.00     0.066 C 
BRANCH  12  13
ATOM     13  C   UNL     1      72.605  73.569  24.059  1.00  0.00     0.140 C 
ATOM     14  O   UNL     1      71.762  73.949  24.860  1.00  0.00    -0.299 OA
BRANCH  13  15
ATOM     15  C   UNL     1      72.203  73.412  22.610  1.00  0.00     0.106 CG0
ATOM     16  G   UNL     1      72.868  74.465  21.739  1.00  0.00     0.000 G0
ENDBRANCH  13  15
ENDBRANCH  12  13
BRANCH  12  17
ATOM     17  C   UNL     1      74.057  73.188  26.147  1.00  0.00    -0.006 C 
ATOM     18  C   UNL     1      74.797  74.389  26.759  1.00  0.00     0.008 C 
ATOM     19  C   UNL     1      74.673  71.878  26.662  1.00  0.00     0.008 C 
ENDBRANCH  12  17
ENDBRANCH  11  12
ENDBRANCH   1  11
TORSDOF 1
ENDMDL
MODEL 4
REMARK VINA RESULT:    -3.241     11.860     13.541
REMARK INTER + INTRA:          -4.043
REMARK INTER:                  -3.714
REMARK INTRA:                  -0.328
REMARK UNBOUND:                 0.903
REMARK SMILES CC1=CCC[C@@H](C)C(=O)C[C@H](C(C)C)C(=O)C1
REMARK SMILES IDX 8 1 9 2 6 3 7 4 5 5 4 6 3 7 2 8 1 9 10 11 11 12 15 13 16 14
REMARK SMILES IDX 17 15 12 17 13 18 14 19
REMARK H PARENT
REMARK Flexibility Score: 70.00
ROOT
ATOM      1  C   UNL     1      72.326  73.591  23.251  1.00  0.00     0.136 C 
ATOM      2  O   UNL     1      71.452  74.214  22.665  1.00  0.00    -0.299 OA
ENDROOT
BRANCH   1   3
ATOM      3  C   UNL     1      72.404  73.646  24.760  1.00  0.00     0.053 C 
ATOM      4  C   UNL     1      71.026  73.370  25.371  1.00  0.00     0.016 C 
BRANCH   3   5
ATOM      5  C   UNL     1      72.955  75.002  25.242  1.00  0.00     0.015 C 
BRANCH   5   6
ATOM      6  C   UNL     1      74.436  74.928  25.673  1.00  0.00     0.028 C 
BRANCH   6   7
ATOM      7  C   UNL     1      74.783  73.573  26.242  1.00  0.00    -0.028 C 
ATOM      8  C   UNL     1      75.623  72.651  25.713  1.00  0.00    -0.070 CG0
ATOM      9  C   UNL     1      75.769  71.343  26.451  1.00  0.00     0.039 C 
ATOM     10  G   UNL     1      76.441  72.849  24.448  1.00  0.00     0.000 G0
ENDBRANCH   6   7
ENDBRANCH   5   6
ENDBRANCH   3   5
ENDBRANCH   1   3
BRANCH   1  11
ATOM     11  C   UNL     1      73.284  72.711  22.479  1.00  0.00     0.087 C 
BRANCH  11  12
ATOM     12  C   UNL     1      74.735  73.248  22.454  1.00  0.00     0.066 C 
BRANCH  12  13
ATOM     13  C   UNL     1      75.721  72.374  23.219  1.00  0.00     0.140 C 
ATOM     14  O   UNL     1      75.870  71.216  22.853  1.00  0.00    -0.299 OA
BRANCH  13  15
ATOM     15  C   UNL     1      76.468  72.843  24.447  1.00  0.00     0.106 CG0
ATOM     16  G   UNL     1      75.636  72.648  25.704  1.00  0.00     0.000 G0
ENDBRANCH  13  15
ENDBRANCH  12  13
BRANCH  12  17
ATOM     17  C   UNL     1      75.214  73.585  21.009  1.00  0.00    -0.006 C 
ATOM     18  C   UNL     1      75.324  75.092  20.718  1.00  0.00     0.008 C 
ATOM     19  C   UNL     1      74.323  72.914  19.952  1.00  0.00     0.008 C 
ENDBRANCH  12  17
ENDBRANCH  11  12
ENDBRANCH   1  11
TORSDOF 1
ENDMDL
MODEL 5
REMARK VINA RESULT:    -3.219     11.995     13.550
REMARK INTER + INTRA:          -4.009
REMARK INTER:                  -4.086
REMARK INTRA:                   0.077
REMARK UNBOUND:                 0.903
REMARK SMILES CC1=CCC[C@@H](C)C(=O)C[C@H](C(C)C)C(=O)C1
REMARK SMILES IDX 8 1 9 2 6 3 7 4 5 5 4 6 3 7 2 8 1 9 10 11 11 12 15 13 16 14
REMARK SMILES IDX 17 15 12 17 13 18 14 19
REMARK H PARENT
REMARK Flexibility Score: 70.00
ROOT
ATOM      1  C   UNL     1      71.187  72.831  23.399  1.00  0.00     0.136 C 
ATOM      2  O   UNL     1      70.930  71.638  23.313  1.00  0.00    -0.299 OA
ENDROOT
BRANCH   1   3
ATOM      3  C   UNL     1      71.118  73.517  24.744  1.00  0.00     0.053 C 
ATOM      4  C   UNL     1      70.229  74.763  24.658  1.00  0.00     0.016 C 
BRANCH   3   5
ATOM      5  C   UNL     1      72.524  73.883  25.257  1.00  0.00     0.015 C 
BRANCH   5   6
ATOM      6  C   UNL     1      73.446  72.654  25.407  1.00  0.00     0.028 C 
BRANCH   6   7
ATOM      7  C   UNL     1      74.841  72.939  24.900  1.00  0.00    -0.028 C 
ATOM      8  C   UNL     1      75.401  72.499  23.748  1.00  0.00    -0.070 CG0
ATOM      9  C   UNL     1      76.837  72.883  23.484  1.00  0.00     0.039 C 
ATOM     10  G   UNL     1      74.683  71.670  22.697  1.00  0.00     0.000 G0
ENDBRANCH   6   7
ENDBRANCH   5   6
ENDBRANCH   3   5
ENDBRANCH   1   3
BRANCH   1  11
ATOM     11  C   UNL     1      71.641  73.603  22.181  1.00  0.00     0.087 C 
BRANCH  11  12
ATOM     12  C   UNL     1      73.171  73.829  22.127  1.00  0.00     0.066 C 
BRANCH  12  13
ATOM     13  C   UNL     1      73.955  72.595  21.699  1.00  0.00     0.140 C 
ATOM     14  O   UNL     1      73.944  72.287  20.515  1.00  0.00    -0.299 OA
BRANCH  13  15
ATOM     15  C   UNL     1      74.683  71.695  22.671  1.00  0.00     0.106 CG0
ATOM     16  G   UNL     1      75.393  72.505  23.743  1.00  0.00     0.000 G0
ENDBRANCH  13  15
ENDBRANCH  12  13
BRANCH  12  17
ATOM     17  C   UNL     1      73.550  75.104  21.312  1.00  0.00    -0.006 C 
ATOM     18  C   UNL     1      75.048  75.454  21.353  1.00  0.00     0.008 C 
ATOM     19  C   UNL     1      72.719  76.319  21.753  1.00  0.00     0.008 C 
ENDBRANCH  12  17
ENDBRANCH  11  12
ENDBRANCH   1  11
TORSDOF 1
ENDMDL
MODEL 6
REMARK VINA RESULT:    -3.137     12.025     13.979
REMARK INTER + INTRA:          -3.884
REMARK INTER:                  -3.531
REMARK INTRA:                  -0.354
REMARK UNBOUND:                 0.903
REMARK SMILES CC1=CCC[C@@H](C)C(=O)C[C@H](C(C)C)C(=O)C1
REMARK SMILES IDX 8 1 9 2 6 3 7 4 5 5 4 6 3 7 2 8 1 9 10 11 11 12 15 13 16 14
REMARK SMILES IDX 17 15 12 17 13 18 14 19
REMARK H PARENT
REMARK Flexibility Score: 70.00
ROOT
ATOM      1  C   UNL     1      74.600  72.153  24.409  1.00  0.00     0.136 C 
ATOM      2  O   UNL     1      74.574  71.724  25.555  1.00  0.00    -0.299 OA
ENDROOT
BRANCH   1   3
ATOM      3  C   UNL     1      75.890  72.702  23.844  1.00  0.00     0.053 C 
ATOM      4  C   UNL     1      76.969  71.614  23.833  1.00  0.00     0.016 C 
BRANCH   3   5
ATOM      5  C   UNL     1      76.366  73.936  24.634  1.00  0.00     0.015 C 
BRANCH   5   6
ATOM      6  C   UNL     1      75.786  75.259  24.087  1.00  0.00     0.028 C 
BRANCH   6   7
ATOM      7  C   UNL     1      75.830  75.304  22.578  1.00  0.00    -0.028 C 
ATOM      8  C   UNL     1      74.779  75.387  21.728  1.00  0.00    -0.070 CG0
ATOM      9  C   UNL     1      75.080  75.368  20.249  1.00  0.00     0.039 C 
ATOM     10  G   UNL     1      73.327  75.521  22.156  1.00  0.00     0.000 G0
ENDBRANCH   6   7
ENDBRANCH   5   6
ENDBRANCH   3   5
ENDBRANCH   1   3
BRANCH   1  11
ATOM     11  C   UNL     1      73.369  72.071  23.535  1.00  0.00     0.087 C 
BRANCH  11  12
ATOM     12  C   UNL     1      72.526  73.368  23.530  1.00  0.00     0.066 C 
BRANCH  12  13
ATOM     13  C   UNL     1      72.636  74.161  22.234  1.00  0.00     0.140 C 
ATOM     14  O   UNL     1      72.210  73.650  21.207  1.00  0.00    -0.299 OA
BRANCH  13  15
ATOM     15  C   UNL     1      73.308  75.513  22.141  1.00  0.00     0.106 CG0
ATOM     16  G   UNL     1      74.762  75.375  21.721  1.00  0.00     0.000 G0
ENDBRANCH  13  15
ENDBRANCH  12  13
BRANCH  12  17
ATOM     17  C   UNL     1      71.050  73.114  23.965  1.00  0.00    -0.006 C 
ATOM     18  C   UNL     1      70.355  74.342  24.578  1.00  0.00     0.008 C 
ATOM     19  C   UNL     1      70.947  71.922  24.928  1.00  0.00     0.008 C 
ENDBRANCH  12  17
ENDBRANCH  11  12
ENDBRANCH   1  11
TORSDOF 1
ENDMDL
MODEL 7
REMARK VINA RESULT:    -3.092     11.278     13.348
REMARK INTER + INTRA:          -3.816
REMARK INTER:                  -3.752
REMARK INTRA:                  -0.064
REMARK UNBOUND:                 0.903
REMARK SMILES CC1=CCC[C@@H](C)C(=O)C[C@H](C(C)C)C(=O)C1
REMARK SMILES IDX 8 1 9 2 6 3 7 4 5 5 4 6 3 7 2 8 1 9 10 11 11 12 15 13 16 14
REMARK SMILES IDX 17 15 12 17 13 18 14 19
REMARK H PARENT
REMARK Flexibility Score: 70.00
ROOT
ATOM      1  C   UNL     1      72.945  72.114  25.236  1.00  0.00     0.136 C 
ATOM      2  O   UNL     1      72.941  71.167  26.011  1.00  0.00    -0.299 OA
ENDROOT
BRANCH   1   3
ATOM      3  C   UNL     1      71.639  72.635  24.682  1.00  0.00     0.053 C 
ATOM      4  C   UNL     1      71.074  71.655  23.647  1.00  0.00     0.016 C 
BRANCH   3   5
ATOM      5  C   UNL     1      71.812  74.038  24.068  1.00  0.00     0.015 C 
BRANCH   5   6
ATOM      6  C   UNL     1      71.541  74.066  22.548  1.00  0.00     0.028 C 
BRANCH   6   7
ATOM      7  C   UNL     1      72.738  74.575  21.779  1.00  0.00    -0.028 C 
ATOM      8  C   UNL     1      73.862  73.889  21.462  1.00  0.00    -0.070 CG0
ATOM      9  C   UNL     1      74.945  74.637  20.723  1.00  0.00     0.039 C 
ATOM     10  G   UNL     1      74.098  72.421  21.775  1.00  0.00     0.000 G0
ENDBRANCH   6   7
ENDBRANCH   5   6
ENDBRANCH   3   5
ENDBRANCH   1   3
BRANCH   1  11
ATOM     11  C   UNL     1      74.242  72.809  24.886  1.00  0.00     0.087 C 
BRANCH  11  12
ATOM     12  C   UNL     1      75.243  71.905  24.127  1.00  0.00     0.066 C 
BRANCH  12  13
ATOM     13  C   UNL     1      75.323  72.204  22.635  1.00  0.00     0.140 C 
ATOM     14  O   UNL     1      76.430  72.341  22.133  1.00  0.00    -0.299 OA
BRANCH  13  15
ATOM     15  C   UNL     1      74.106  72.411  21.761  1.00  0.00     0.106 CG0
ATOM     16  G   UNL     1      73.877  73.886  21.479  1.00  0.00     0.000 G0
ENDBRANCH  13  15
ENDBRANCH  12  13
BRANCH  12  17
ATOM     17  C   UNL     1      76.641  71.865  24.816  1.00  0.00    -0.006 C 
ATOM     18  C   UNL     1      76.829  70.689  25.790  1.00  0.00     0.008 C 
ATOM     19  C   UNL     1      76.952  73.189  25.531  1.00  0.00     0.008 C 
ENDBRANCH  12  17
ENDBRANCH  11  12
ENDBRANCH   1  11
TORSDOF 1
ENDMDL
MODEL 8
REMARK VINA RESULT:    -3.080     11.976     13.791
REMARK INTER + INTRA:          -3.798
REMARK INTER:                  -3.455
REMARK INTRA:                  -0.343
REMARK UNBOUND:                 0.903
REMARK SMILES CC1=CCC[C@@H](C)C(=O)C[C@H](C(C)C)C(=O)C1
REMARK SMILES IDX 8 1 9 2 6 3 7 4 5 5 4 6 3 7 2 8 1 9 10 11 11 12 15 13 16 14
REMARK SMILES IDX 17 15 12 17 13 18 14 19
REMARK H PARENT
REMARK Flexibility Score: 70.00
ROOT
ATOM      1  C   UNL     1      74.791  72.488  25.251  1.00  0.00     0.136 C 
ATOM      2  O   UNL     1      74.773  71.676  26.167  1.00  0.00    -0.299 OA
ENDROOT
BRANCH   1   3
ATOM      3  C   UNL     1      73.574  73.342  24.981  1.00  0.00     0.053 C 
ATOM      4  C   UNL     1      73.193  74.132  26.238  1.00  0.00     0.016 C 
BRANCH   3   5
ATOM      5  C   UNL     1      72.388  72.487  24.493  1.00  0.00     0.015 C 
BRANCH   5   6
ATOM      6  C   UNL     1      72.277  72.441  22.953  1.00  0.00     0.028 C 
BRANCH   6   7
ATOM      7  C   UNL     1      72.591  73.781  22.332  1.00  0.00    -0.028 C 
ATOM      8  C   UNL     1      73.623  74.083  21.509  1.00  0.00    -0.070 CG0
ATOM      9  C   UNL     1      73.752  75.517  21.054  1.00  0.00     0.039 C 
ATOM     10  G   UNL     1      74.643  73.081  20.996  1.00  0.00     0.000 G0
ENDBRANCH   6   7
ENDBRANCH   5   6
ENDBRANCH   3   5
ENDBRANCH   1   3
BRANCH   1  11
ATOM     11  C   UNL     1      76.048  72.689  24.435  1.00  0.00     0.087 C 
BRANCH  11  12
ATOM     12  C   UNL     1      75.995  72.020  23.041  1.00  0.00     0.066 C 
BRANCH  12  13
ATOM     13  C   UNL     1      75.868  73.013  21.892  1.00  0.00     0.140 C 
ATOM     14  O   UNL     1      76.767  73.827  21.731  1.00  0.00    -0.299 OA
BRANCH  13  15
ATOM     15  C   UNL     1      74.657  73.089  20.990  1.00  0.00     0.106 CG0
ATOM     16  G   UNL     1      73.630  74.069  21.531  1.00  0.00     0.000 G0
ENDBRANCH  13  15
ENDBRANCH  12  13
BRANCH  12  17
ATOM     17  C   UNL     1      77.152  70.994  22.834  1.00  0.00    -0.006 C 
ATOM     18  C   UNL     1      76.855  69.914  21.779  1.00  0.00     0.008 C 
ATOM     19  C   UNL     1      77.556  70.331  24.160  1.00  0.00     0.008 C 
ENDBRANCH  12  17
ENDBRANCH  11  12
ENDBRANCH   1  11
TORSDOF 1
ENDMDL
MODEL 9
REMARK VINA RESULT:    -3.033     11.751     13.215
REMARK INTER + INTRA:          -3.726
REMARK INTER:                  -3.644
REMARK INTRA:                  -0.083
REMARK UNBOUND:                 0.903
REMARK SMILES CC1=CCC[C@@H](C)C(=O)C[C@H](C(C)C)C(=O)C1
REMARK SMILES IDX 8 1 9 2 6 3 7 4 5 5 4 6 3 7 2 8 1 9 10 11 11 12 15 13 16 14
REMARK SMILES IDX 17 15 12 17 13 18 14 19
REMARK H PARENT
REMARK Flexibility Score: 70.00
ROOT
ATOM      1  C   UNL     1      72.349  72.229  23.225  1.00  0.00     0.136 C 
ATOM      2  O   UNL     1      71.964  71.311  23.937  1.00  0.00    -0.299 OA
ENDROOT
BRANCH   1   3
ATOM      3  C   UNL     1      71.589  73.535  23.208  1.00  0.00     0.053 C 
ATOM      4  C   UNL     1      71.595  74.133  21.797  1.00  0.00     0.016 C 
BRANCH   3   5
ATOM      5  C   UNL     1      72.172  74.534  24.227  1.00  0.00     0.015 C 
BRANCH   5   6
ATOM      6  C   UNL     1      72.458  73.890  25.601  1.00  0.00     0.028 C 
BRANCH   6   7
ATOM      7  C   UNL     1      73.828  74.264  26.117  1.00  0.00    -0.028 C 
ATOM      8  C   UNL     1      74.939  73.490  26.133  1.00  0.00    -0.070 CG0
ATOM      9  C   UNL     1      76.185  74.078  26.749  1.00  0.00     0.039 C 
ATOM     10  G   UNL     1      75.025  72.086  25.559  1.00  0.00     0.000 G0
ENDBRANCH   6   7
ENDBRANCH   5   6
ENDBRANCH   3   5
ENDBRANCH   1   3
BRANCH   1  11
ATOM     11  C   UNL     1      73.620  72.086  22.418  1.00  0.00     0.087 C 
BRANCH  11  12
ATOM     12  C   UNL     1      74.826  72.845  23.023  1.00  0.00     0.066 C 
BRANCH  12  13
ATOM     13  C   UNL     1      75.526  72.084  24.141  1.00  0.00     0.140 C 
ATOM     14  O   UNL     1      76.502  71.403  23.853  1.00  0.00    -0.299 OA
BRANCH  13  15
ATOM     15  C   UNL     1      75.036  72.069  25.571  1.00  0.00     0.106 CG0
ATOM     16  G   UNL     1      74.932  73.479  26.130  1.00  0.00     0.000 G0
ENDBRANCH  13  15
ENDBRANCH  12  13
BRANCH  12  17
ATOM     17  C   UNL     1      75.810  73.359  21.927  1.00  0.00    -0.006 C 
ATOM     18  C   UNL     1      75.906  74.891  21.837  1.00  0.00     0.008 C 
ATOM     19  C   UNL     1      75.465  72.776  20.547  1.00  0.00     0.008 C 
ENDBRANCH  12  17
ENDBRANCH  11  12
ENDBRANCH   1  11
TORSDOF 1
ENDMDL
