MODEL 1
REMARK VINA RESULT:    -2.583      0.000      0.000
REMARK INTER + INTRA:          -7.656
REMARK INTER:                  -6.508
REMARK INTRA:                  -1.148
REMARK UNBOUND:                -1.148
REMARK SMILES CCCCCCCCCCCCCCCCCCCCCCCCCCCC(=O)[O-]
REMARK SMILES IDX 15 1 16 2 17 3 18 4 19 5 20 6 21 7 22 8 23 9 24 10 25 11
REMARK SMILES IDX 26 12 27 13 28 14 29 15 30 16 14 17 13 18 12 19 11 20 10 21
REMARK SMILES IDX 9 22 8 23 7 24 6 25 5 26 4 27 3 28 2 29 1 30
REMARK H PARENT
REMARK Flexibility Score: inf
ROOT
ATOM      1  C   UNL     1      20.944  65.571  16.680  1.00  0.00     0.000 C 
ENDROOT
BRANCH   1   2
ATOM      2  C   UNL     1      22.298  65.000  16.220  1.00  0.00     0.000 C 
BRANCH   2   3
ATOM      3  C   UNL     1      23.444  66.023  16.084  1.00  0.00     0.000 C 
BRANCH   3   4
ATOM      4  C   UNL     1      24.867  65.430  16.013  1.00  0.00     0.000 C 
BRANCH   4   5
ATOM      5  C   UNL     1      25.856  65.975  17.069  1.00  0.00     0.000 C 
BRANCH   5   6
ATOM      6  C   UNL     1      27.054  65.048  17.346  1.00  0.00     0.000 C 
BRANCH   6   7
ATOM      7  C   UNL     1      28.233  65.190  16.367  1.00  0.00     0.000 C 
BRANCH   7   8
ATOM      8  C   UNL     1      29.429  66.006  16.893  1.00  0.00     0.000 C 
BRANCH   8   9
ATOM      9  C   UNL     1      30.637  65.133  17.273  1.00  0.00     0.000 C 
BRANCH   9  10
ATOM     10  C   UNL     1      31.463  65.752  18.414  1.00  0.00     0.000 C 
BRANCH  10  11
ATOM     11  C   UNL     1      30.775  65.592  19.782  1.00  0.00     0.000 C 
BRANCH  11  12
ATOM     12  C   UNL     1      31.693  64.962  20.841  1.00  0.00     0.006 C 
BRANCH  12  13
ATOM     13  C   UNL     1      32.931  64.290  20.233  1.00  0.00     0.053 C 
BRANCH  13  14
ATOM     14  C   UNL     1      32.833  62.801  20.347  1.00  0.00     0.041 C 
ATOM     15  O   UNL     1      32.679  62.262  21.475  1.00  0.00    -0.550 OA
ATOM     16  O   UNL     1      32.943  62.005  19.213  1.00  0.00    -0.550 OA
ENDBRANCH  13  14
ENDBRANCH  12  13
ENDBRANCH  11  12
ENDBRANCH  10  11
ENDBRANCH   9  10
ENDBRANCH   8   9
ENDBRANCH   7   8
ENDBRANCH   6   7
ENDBRANCH   5   6
ENDBRANCH   4   5
ENDBRANCH   3   4
ENDBRANCH   2   3
ENDBRANCH   1   2
BRANCH   1  17
ATOM     17  C   UNL     1      19.760  65.211  15.757  1.00  0.00     0.000 C 
BRANCH  17  18
ATOM     18  C   UNL     1      18.451  65.917  16.154  1.00  0.00     0.000 C 
BRANCH  18  19
ATOM     19  C   UNL     1      17.564  65.048  17.061  1.00  0.00     0.000 C 
BRANCH  19  20
ATOM     20  C   UNL     1      16.074  65.138  16.698  1.00  0.00     0.000 C 
BRANCH  20  21
ATOM     21  C   UNL     1      15.197  64.693  17.878  1.00  0.00     0.000 C 
BRANCH  21  22
ATOM     22  C   UNL     1      13.711  64.561  17.505  1.00  0.00    -0.000 C 
BRANCH  22  23
ATOM     23  C   UNL     1      13.043  65.859  17.008  1.00  0.00    -0.000 C 
BRANCH  23  24
ATOM     24  C   UNL     1      13.160  66.120  15.493  1.00  0.00    -0.000 C 
BRANCH  24  25
ATOM     25  C   UNL     1      12.955  64.882  14.602  1.00  0.00    -0.000 C 
BRANCH  25  26
ATOM     26  C   UNL     1      14.203  64.519  13.785  1.00  0.00    -0.000 C 
BRANCH  26  27
ATOM     27  C   UNL     1      14.188  65.225  12.422  1.00  0.00    -0.000 C 
BRANCH  27  28
ATOM     28  C   UNL     1      12.899  64.958  11.629  1.00  0.00    -0.000 C 
BRANCH  28  29
ATOM     29  C   UNL     1      13.132  64.056  10.408  1.00  0.00    -0.003 C 
ATOM     30  C   UNL     1      13.141  64.869   9.117  1.00  0.00     0.004 C 
ENDBRANCH  28  29
ENDBRANCH  27  28
ENDBRANCH  26  27
ENDBRANCH  25  26
ENDBRANCH  24  25
ENDBRANCH  23  24
ENDBRANCH  22  23
ENDBRANCH  21  22
ENDBRANCH  20  21
ENDBRANCH  19  20
ENDBRANCH  18  19
ENDBRANCH  17  18
ENDBRANCH   1  17
TORSDOF 26
ENDMDL
MODEL 2
REMARK VINA RESULT:    -2.169      5.528     15.828
REMARK INTER + INTRA:          -6.613
REMARK INTER:                  -5.288
REMARK INTRA:                  -1.326
REMARK UNBOUND:                -1.148
REMARK SMILES CCCCCCCCCCCCCCCCCCCCCCCCCCCC(=O)[O-]
REMARK SMILES IDX 15 1 16 2 17 3 18 4 19 5 20 6 21 7 22 8 23 9 24 10 25 11
REMARK SMILES IDX 26 12 27 13 28 14 29 15 30 16 14 17 13 18 12 19 11 20 10 21
REMARK SMILES IDX 9 22 8 23 7 24 6 25 5 26 4 27 3 28 2 29 1 30
REMARK H PARENT
REMARK Flexibility Score: inf
ROOT
ATOM      1  C   UNL     1      24.533  65.323  16.630  1.00  0.00     0.000 C 
ENDROOT
BRANCH   1   2
ATOM      2  C   UNL     1      23.000  65.180  16.636  1.00  0.00     0.000 C 
BRANCH   2   3
ATOM      3  C   UNL     1      22.252  65.943  15.525  1.00  0.00     0.000 C 
BRANCH   3   4
ATOM      4  C   UNL     1      20.725  66.070  15.711  1.00  0.00     0.000 C 
BRANCH   4   5
ATOM      5  C   UNL     1      19.877  65.149  14.802  1.00  0.00     0.000 C 
BRANCH   5   6
ATOM      6  C   UNL     1      18.479  65.706  14.474  1.00  0.00     0.000 C 
BRANCH   6   7
ATOM      7  C   UNL     1      17.637  66.125  15.693  1.00  0.00     0.000 C 
BRANCH   7   8
ATOM      8  C   UNL     1      17.654  65.136  16.874  1.00  0.00     0.000 C 
BRANCH   8   9
ATOM      9  C   UNL     1      16.256  64.865  17.455  1.00  0.00     0.000 C 
BRANCH   9  10
ATOM     10  C   UNL     1      15.153  65.615  16.687  1.00  0.00     0.000 C 
BRANCH  10  11
ATOM     11  C   UNL     1      13.750  65.061  16.996  1.00  0.00     0.000 C 
BRANCH  11  12
ATOM     12  C   UNL     1      12.888  64.889  15.736  1.00  0.00     0.006 C 
BRANCH  12  13
ATOM     13  C   UNL     1      13.451  63.842  14.766  1.00  0.00     0.053 C 
BRANCH  13  14
ATOM     14  C   UNL     1      13.419  64.354  13.361  1.00  0.00     0.041 C 
ATOM     15  O   UNL     1      13.840  65.512  13.100  1.00  0.00    -0.550 OA
ATOM     16  O   UNL     1      12.896  63.566  12.342  1.00  0.00    -0.550 OA
ENDBRANCH  13  14
ENDBRANCH  12  13
ENDBRANCH  11  12
ENDBRANCH  10  11
ENDBRANCH   9  10
ENDBRANCH   8   9
ENDBRANCH   7   8
ENDBRANCH   6   7
ENDBRANCH   5   6
ENDBRANCH   4   5
ENDBRANCH   3   4
ENDBRANCH   2   3
ENDBRANCH   1   2
BRANCH   1  17
ATOM     17  C   UNL     1      25.220  64.714  15.389  1.00  0.00     0.000 C 
BRANCH  17  18
ATOM     18  C   UNL     1      26.710  64.400  15.619  1.00  0.00     0.000 C 
BRANCH  18  19
ATOM     19  C   UNL     1      27.236  64.970  16.946  1.00  0.00     0.000 C 
BRANCH  19  20
ATOM     20  C   UNL     1      28.715  64.637  17.192  1.00  0.00     0.000 C 
BRANCH  20  21
ATOM     21  C   UNL     1      29.573  65.042  15.984  1.00  0.00     0.000 C 
BRANCH  21  22
ATOM     22  C   UNL     1      30.471  63.901  15.477  1.00  0.00    -0.000 C 
BRANCH  22  23
ATOM     23  C   UNL     1      31.777  63.694  16.271  1.00  0.00    -0.000 C 
BRANCH  23  24
ATOM     24  C   UNL     1      32.039  64.729  17.383  1.00  0.00    -0.000 C 
BRANCH  24  25
ATOM     25  C   UNL     1      32.931  64.234  18.536  1.00  0.00    -0.000 C 
BRANCH  25  26
ATOM     26  C   UNL     1      32.162  63.400  19.571  1.00  0.00    -0.000 C 
BRANCH  26  27
ATOM     27  C   UNL     1      31.651  64.287  20.716  1.00  0.00    -0.000 C 
BRANCH  27  28
ATOM     28  C   UNL     1      32.591  64.287  21.931  1.00  0.00    -0.000 C 
BRANCH  28  29
ATOM     29  C   UNL     1      32.087  65.188  23.069  1.00  0.00    -0.003 C 
ATOM     30  C   UNL     1      30.816  65.927  22.662  1.00  0.00     0.004 C 
ENDBRANCH  28  29
ENDBRANCH  27  28
ENDBRANCH  26  27
ENDBRANCH  25  26
ENDBRANCH  24  25
ENDBRANCH  23  24
ENDBRANCH  22  23
ENDBRANCH  21  22
ENDBRANCH  20  21
ENDBRANCH  19  20
ENDBRANCH  18  19
ENDBRANCH  17  18
ENDBRANCH   1  17
TORSDOF 26
ENDMDL
MODEL 3
REMARK VINA RESULT:    -2.148      1.053      2.519
REMARK INTER + INTRA:          -6.561
REMARK INTER:                  -5.001
REMARK INTRA:                  -1.560
REMARK UNBOUND:                -1.148
REMARK SMILES CCCCCCCCCCCCCCCCCCCCCCCCCCCC(=O)[O-]
REMARK SMILES IDX 15 1 16 2 17 3 18 4 19 5 20 6 21 7 22 8 23 9 24 10 25 11
REMARK SMILES IDX 26 12 27 13 28 14 29 15 30 16 14 17 13 18 12 19 11 20 10 21
REMARK SMILES IDX 9 22 8 23 7 24 6 25 5 26 4 27 3 28 2 29 1 30
REMARK H PARENT
REMARK Flexibility Score: inf
ROOT
ATOM      1  C   UNL     1      23.256  64.940  16.015  1.00  0.00     0.000 C 
ENDROOT
BRANCH   1   2
ATOM      2  C   UNL     1      24.300  65.453  17.025  1.00  0.00     0.000 C 
BRANCH   2   3
ATOM      3  C   UNL     1      25.574  66.071  16.415  1.00  0.00     0.000 C 
BRANCH   3   4
ATOM      4  C   UNL     1      26.803  66.125  17.346  1.00  0.00     0.000 C 
BRANCH   4   5
ATOM      5  C   UNL     1      27.698  64.864  17.321  1.00  0.00     0.000 C 
BRANCH   5   6
ATOM      6  C   UNL     1      29.018  65.045  16.550  1.00  0.00     0.000 C 
BRANCH   6   7
ATOM      7  C   UNL     1      29.999  66.065  17.158  1.00  0.00     0.000 C 
BRANCH   7   8
ATOM      8  C   UNL     1      31.474  65.623  17.184  1.00  0.00     0.000 C 
BRANCH   8   9
ATOM      9  C   UNL     1      31.907  65.038  18.539  1.00  0.00     0.000 C 
BRANCH   9  10
ATOM     10  C   UNL     1      31.855  66.085  19.665  1.00  0.00     0.000 C 
BRANCH  10  11
ATOM     11  C   UNL     1      32.240  65.489  21.031  1.00  0.00     0.000 C 
BRANCH  11  12
ATOM     12  C   UNL     1      31.887  63.999  21.151  1.00  0.00     0.006 C 
BRANCH  12  13
ATOM     13  C   UNL     1      33.125  63.097  21.243  1.00  0.00     0.053 C 
BRANCH  13  14
ATOM     14  C   UNL     1      32.802  61.708  20.789  1.00  0.00     0.041 C 
ATOM     15  O   UNL     1      32.916  61.398  19.574  1.00  0.00    -0.550 OA
ATOM     16  O   UNL     1      32.343  60.765  21.701  1.00  0.00    -0.550 OA
ENDBRANCH  13  14
ENDBRANCH  12  13
ENDBRANCH  11  12
ENDBRANCH  10  11
ENDBRANCH   9  10
ENDBRANCH   8   9
ENDBRANCH   7   8
ENDBRANCH   6   7
ENDBRANCH   5   6
ENDBRANCH   4   5
ENDBRANCH   3   4
ENDBRANCH   2   3
ENDBRANCH   1   2
BRANCH   1  17
ATOM     17  C   UNL     1      22.507  66.056  15.257  1.00  0.00     0.000 C 
BRANCH  17  18
ATOM     18  C   UNL     1      21.007  66.115  15.599  1.00  0.00     0.000 C 
BRANCH  18  19
ATOM     19  C   UNL     1      20.493  64.810  16.229  1.00  0.00     0.000 C 
BRANCH  19  20
ATOM     20  C   UNL     1      19.055  64.929  16.754  1.00  0.00     0.000 C 
BRANCH  20  21
ATOM     21  C   UNL     1      18.224  65.861  15.860  1.00  0.00     0.000 C 
BRANCH  21  22
ATOM     22  C   UNL     1      16.731  65.875  16.231  1.00  0.00    -0.000 C 
BRANCH  22  23
ATOM     23  C   UNL     1      16.353  65.009  17.450  1.00  0.00    -0.000 C 
BRANCH  23  24
ATOM     24  C   UNL     1      14.901  64.490  17.461  1.00  0.00    -0.000 C 
BRANCH  24  25
ATOM     25  C   UNL     1      13.830  65.542  17.121  1.00  0.00    -0.000 C 
BRANCH  25  26
ATOM     26  C   UNL     1      13.147  65.284  15.771  1.00  0.00    -0.000 C 
BRANCH  26  27
ATOM     27  C   UNL     1      13.482  63.880  15.249  1.00  0.00    -0.000 C 
BRANCH  27  28
ATOM     28  C   UNL     1      13.097  63.688  13.773  1.00  0.00    -0.000 C 
BRANCH  28  29
ATOM     29  C   UNL     1      13.850  64.645  12.836  1.00  0.00    -0.003 C 
ATOM     30  C   UNL     1      13.610  64.284  11.374  1.00  0.00     0.004 C 
ENDBRANCH  28  29
ENDBRANCH  27  28
ENDBRANCH  26  27
ENDBRANCH  25  26
ENDBRANCH  24  25
ENDBRANCH  23  24
ENDBRANCH  22  23
ENDBRANCH  21  22
ENDBRANCH  20  21
ENDBRANCH  19  20
ENDBRANCH  18  19
ENDBRANCH  17  18
ENDBRANCH   1  17
TORSDOF 26
ENDMDL
MODEL 4
REMARK VINA RESULT:    -1.390      5.453     15.528
REMARK INTER + INTRA:          -4.652
REMARK INTER:                  -4.199
REMARK INTRA:                  -0.452
REMARK UNBOUND:                -1.148
REMARK SMILES CCCCCCCCCCCCCCCCCCCCCCCCCCCC(=O)[O-]
REMARK SMILES IDX 15 1 16 2 17 3 18 4 19 5 20 6 21 7 22 8 23 9 24 10 25 11
REMARK SMILES IDX 26 12 27 13 28 14 29 15 30 16 14 17 13 18 12 19 11 20 10 21
REMARK SMILES IDX 9 22 8 23 7 24 6 25 5 26 4 27 3 28 2 29 1 30
REMARK H PARENT
REMARK Flexibility Score: inf
ROOT
ATOM      1  C   UNL     1      25.843  66.122  16.148  1.00  0.00     0.000 C 
ENDROOT
BRANCH   1   2
ATOM      2  C   UNL     1      24.559  65.527  15.540  1.00  0.00     0.000 C 
BRANCH   2   3
ATOM      3  C   UNL     1      23.262  65.781  16.335  1.00  0.00     0.000 C 
BRANCH   3   4
ATOM      4  C   UNL     1      22.019  65.004  15.853  1.00  0.00     0.000 C 
BRANCH   4   5
ATOM      5  C   UNL     1      20.713  65.831  15.797  1.00  0.00     0.000 C 
BRANCH   5   6
ATOM      6  C   UNL     1      19.497  65.129  16.430  1.00  0.00     0.000 C 
BRANCH   6   7
ATOM      7  C   UNL     1      18.271  66.029  16.669  1.00  0.00     0.000 C 
BRANCH   7   8
ATOM      8  C   UNL     1      16.984  65.591  15.945  1.00  0.00     0.000 C 
BRANCH   8   9
ATOM      9  C   UNL     1      15.717  65.781  16.796  1.00  0.00     0.000 C 
BRANCH   9  10
ATOM     10  C   UNL     1      14.445  65.850  15.934  1.00  0.00     0.000 C 
BRANCH  10  11
ATOM     11  C   UNL     1      14.647  65.214  14.547  1.00  0.00     0.000 C 
BRANCH  11  12
ATOM     12  C   UNL     1      13.348  65.142  13.730  1.00  0.00     0.006 C 
BRANCH  12  13
ATOM     13  C   UNL     1      13.395  65.999  12.458  1.00  0.00     0.053 C 
BRANCH  13  14
ATOM     14  C   UNL     1      14.400  65.456  11.492  1.00  0.00     0.041 C 
ATOM     15  O   UNL     1      15.598  65.843  11.543  1.00  0.00    -0.550 OA
ATOM     16  O   UNL     1      14.010  64.548  10.515  1.00  0.00    -0.550 OA
ENDBRANCH  13  14
ENDBRANCH  12  13
ENDBRANCH  11  12
ENDBRANCH  10  11
ENDBRANCH   9  10
ENDBRANCH   8   9
ENDBRANCH   7   8
ENDBRANCH   6   7
ENDBRANCH   5   6
ENDBRANCH   4   5
ENDBRANCH   3   4
ENDBRANCH   2   3
ENDBRANCH   1   2
BRANCH   1  17
ATOM     17  C   UNL     1      26.800  65.073  16.755  1.00  0.00     0.000 C 
BRANCH  17  18
ATOM     18  C   UNL     1      26.623  64.905  18.275  1.00  0.00     0.000 C 
BRANCH  18  19
ATOM     19  C   UNL     1      27.847  65.392  19.069  1.00  0.00     0.000 C 
BRANCH  19  20
ATOM     20  C   UNL     1      27.514  65.725  20.531  1.00  0.00     0.000 C 
BRANCH  20  21
ATOM     21  C   UNL     1      28.780  66.124  21.302  1.00  0.00     0.000 C 
BRANCH  21  22
ATOM     22  C   UNL     1      30.070  65.591  20.654  1.00  0.00    -0.000 C 
BRANCH  22  23
ATOM     23  C   UNL     1      31.149  65.109  21.645  1.00  0.00    -0.000 C 
BRANCH  23  24
ATOM     24  C   UNL     1      31.981  63.900  21.173  1.00  0.00    -0.000 C 
BRANCH  24  25
ATOM     25  C   UNL     1      32.912  64.177  19.979  1.00  0.00    -0.000 C 
BRANCH  25  26
ATOM     26  C   UNL     1      32.185  64.816  18.789  1.00  0.00    -0.000 C 
BRANCH  26  27
ATOM     27  C   UNL     1      32.961  64.583  17.485  1.00  0.00    -0.000 C 
BRANCH  27  28
ATOM     28  C   UNL     1      32.051  64.160  16.320  1.00  0.00    -0.000 C 
BRANCH  28  29
ATOM     29  C   UNL     1      32.623  62.980  15.521  1.00  0.00    -0.003 C 
ATOM     30  C   UNL     1      32.356  63.146  14.028  1.00  0.00     0.004 C 
ENDBRANCH  28  29
ENDBRANCH  27  28
ENDBRANCH  26  27
ENDBRANCH  25  26
ENDBRANCH  24  25
ENDBRANCH  23  24
ENDBRANCH  22  23
ENDBRANCH  21  22
ENDBRANCH  20  21
ENDBRANCH  19  20
ENDBRANCH  18  19
ENDBRANCH  17  18
ENDBRANCH   1  17
TORSDOF 26
ENDMDL
MODEL 5
REMARK VINA RESULT:    -1.326      1.649      2.071
REMARK INTER + INTRA:          -4.489
REMARK INTER:                  -3.370
REMARK INTRA:                  -1.119
REMARK UNBOUND:                -1.148
REMARK SMILES CCCCCCCCCCCCCCCCCCCCCCCCCCCC(=O)[O-]
REMARK SMILES IDX 15 1 16 2 17 3 18 4 19 5 20 6 21 7 22 8 23 9 24 10 25 11
REMARK SMILES IDX 26 12 27 13 28 14 29 15 30 16 14 17 13 18 12 19 11 20 10 21
REMARK SMILES IDX 9 22 8 23 7 24 6 25 5 26 4 27 3 28 2 29 1 30
REMARK H PARENT
REMARK Flexibility Score: inf
ROOT
ATOM      1  C   UNL     1      20.495  65.266  16.975  1.00  0.00     0.000 C 
ENDROOT
BRANCH   1   2
ATOM      2  C   UNL     1      21.893  64.708  16.652  1.00  0.00     0.000 C 
BRANCH   2   3
ATOM      3  C   UNL     1      22.973  65.758  16.323  1.00  0.00     0.000 C 
BRANCH   3   4
ATOM      4  C   UNL     1      24.372  65.197  15.988  1.00  0.00     0.000 C 
BRANCH   4   5
ATOM      5  C   UNL     1      25.557  66.019  16.548  1.00  0.00     0.000 C 
BRANCH   5   6
ATOM      6  C   UNL     1      26.616  65.174  17.280  1.00  0.00     0.000 C 
BRANCH   6   7
ATOM      7  C   UNL     1      28.049  65.298  16.731  1.00  0.00     0.000 C 
BRANCH   7   8
ATOM      8  C   UNL     1      29.154  65.401  17.799  1.00  0.00     0.000 C 
BRANCH   8   9
ATOM      9  C   UNL     1      30.573  65.316  17.211  1.00  0.00     0.000 C 
BRANCH   9  10
ATOM     10  C   UNL     1      31.614  64.904  18.266  1.00  0.00     0.000 C 
BRANCH  10  11
ATOM     11  C   UNL     1      30.958  64.412  19.569  1.00  0.00     0.000 C 
BRANCH  11  12
ATOM     12  C   UNL     1      31.807  64.713  20.813  1.00  0.00     0.006 C 
BRANCH  12  13
ATOM     13  C   UNL     1      31.219  65.834  21.680  1.00  0.00     0.053 C 
BRANCH  13  14
ATOM     14  C   UNL     1      31.287  65.471  23.130  1.00  0.00     0.041 C 
ATOM     15  O   UNL     1      30.253  65.076  23.732  1.00  0.00    -0.550 OA
ATOM     16  O   UNL     1      32.483  65.598  23.827  1.00  0.00    -0.550 OA
ENDBRANCH  13  14
ENDBRANCH  12  13
ENDBRANCH  11  12
ENDBRANCH  10  11
ENDBRANCH   9  10
ENDBRANCH   8   9
ENDBRANCH   7   8
ENDBRANCH   6   7
ENDBRANCH   5   6
ENDBRANCH   4   5
ENDBRANCH   3   4
ENDBRANCH   2   3
ENDBRANCH   1   2
BRANCH   1  17
ATOM     17  C   UNL     1      19.333  64.449  16.373  1.00  0.00     0.000 C 
BRANCH  17  18
ATOM     18  C   UNL     1      17.988  65.197  16.408  1.00  0.00     0.000 C 
BRANCH  18  19
ATOM     19  C   UNL     1      17.252  65.027  17.748  1.00  0.00     0.000 C 
BRANCH  19  20
ATOM     20  C   UNL     1      15.921  64.275  17.604  1.00  0.00     0.000 C 
BRANCH  20  21
ATOM     21  C   UNL     1      14.734  65.211  17.872  1.00  0.00     0.000 C 
BRANCH  21  22
ATOM     22  C   UNL     1      13.581  65.021  16.871  1.00  0.00    -0.000 C 
BRANCH  22  23
ATOM     23  C   UNL     1      14.005  64.533  15.471  1.00  0.00    -0.000 C 
BRANCH  23  24
ATOM     24  C   UNL     1      14.091  65.630  14.391  1.00  0.00    -0.000 C 
BRANCH  24  25
ATOM     25  C   UNL     1      13.175  65.418  13.173  1.00  0.00    -0.000 C 
BRANCH  25  26
ATOM     26  C   UNL     1      13.685  66.125  11.910  1.00  0.00    -0.000 C 
BRANCH  26  27
ATOM     27  C   UNL     1      14.222  65.107  10.893  1.00  0.00    -0.000 C 
BRANCH  27  28
ATOM     28  C   UNL     1      13.477  65.161   9.550  1.00  0.00    -0.000 C 
BRANCH  28  29
ATOM     29  C   UNL     1      14.336  65.751   8.421  1.00  0.00    -0.003 C 
ATOM     30  C   UNL     1      15.750  66.053   8.907  1.00  0.00     0.004 C 
ENDBRANCH  28  29
ENDBRANCH  27  28
ENDBRANCH  26  27
ENDBRANCH  25  26
ENDBRANCH  24  25
ENDBRANCH  23  24
ENDBRANCH  22  23
ENDBRANCH  21  22
ENDBRANCH  20  21
ENDBRANCH  19  20
ENDBRANCH  18  19
ENDBRANCH  17  18
ENDBRANCH   1  17
TORSDOF 26
ENDMDL
MODEL 6
REMARK VINA RESULT:    -1.277      5.262     16.015
REMARK INTER + INTRA:          -4.365
REMARK INTER:                  -3.078
REMARK INTRA:                  -1.287
REMARK UNBOUND:                -1.148
REMARK SMILES CCCCCCCCCCCCCCCCCCCCCCCCCCCC(=O)[O-]
REMARK SMILES IDX 15 1 16 2 17 3 18 4 19 5 20 6 21 7 22 8 23 9 24 10 25 11
REMARK SMILES IDX 26 12 27 13 28 14 29 15 30 16 14 17 13 18 12 19 11 20 10 21
REMARK SMILES IDX 9 22 8 23 7 24 6 25 5 26 4 27 3 28 2 29 1 30
REMARK H PARENT
REMARK Flexibility Score: inf
ROOT
ATOM      1  C   UNL     1      23.478  64.433  16.183  1.00  0.00     0.000 C 
ENDROOT
BRANCH   1   2
ATOM      2  C   UNL     1      22.167  65.073  16.675  1.00  0.00     0.000 C 
BRANCH   2   3
ATOM      3  C   UNL     1      21.322  65.782  15.598  1.00  0.00     0.000 C 
BRANCH   3   4
ATOM      4  C   UNL     1      19.872  66.122  16.001  1.00  0.00     0.000 C 
BRANCH   4   5
ATOM      5  C   UNL     1      18.779  65.440  15.144  1.00  0.00     0.000 C 
BRANCH   5   6
ATOM      6  C   UNL     1      17.787  64.585  15.956  1.00  0.00     0.000 C 
BRANCH   6   7
ATOM      7  C   UNL     1      16.502  65.310  16.393  1.00  0.00     0.000 C 
BRANCH   7   8
ATOM      8  C   UNL     1      15.462  64.428  17.110  1.00  0.00     0.000 C 
BRANCH   8   9
ATOM      9  C   UNL     1      14.497  65.231  17.999  1.00  0.00     0.000 C 
BRANCH   9  10
ATOM     10  C   UNL     1      13.113  65.398  17.347  1.00  0.00     0.000 C 
BRANCH  10  11
ATOM     11  C   UNL     1      13.193  66.120  15.990  1.00  0.00     0.000 C 
BRANCH  11  12
ATOM     12  C   UNL     1      12.883  65.194  14.804  1.00  0.00     0.006 C 
BRANCH  12  13
ATOM     13  C   UNL     1      13.455  65.710  13.477  1.00  0.00     0.053 C 
BRANCH  13  14
ATOM     14  C   UNL     1      14.095  64.597  12.710  1.00  0.00     0.041 C 
ATOM     15  O   UNL     1      15.345  64.443  12.742  1.00  0.00    -0.550 OA
ATOM     16  O   UNL     1      13.317  63.748  11.932  1.00  0.00    -0.550 OA
ENDBRANCH  13  14
ENDBRANCH  12  13
ENDBRANCH  11  12
ENDBRANCH  10  11
ENDBRANCH   9  10
ENDBRANCH   8   9
ENDBRANCH   7   8
ENDBRANCH   6   7
ENDBRANCH   5   6
ENDBRANCH   4   5
ENDBRANCH   3   4
ENDBRANCH   2   3
ENDBRANCH   1   2
BRANCH   1  17
ATOM     17  C   UNL     1      24.555  65.451  15.750  1.00  0.00     0.000 C 
BRANCH  17  18
ATOM     18  C   UNL     1      25.297  66.086  16.940  1.00  0.00     0.000 C 
BRANCH  18  19
ATOM     19  C   UNL     1      26.826  65.989  16.802  1.00  0.00     0.000 C 
BRANCH  19  20
ATOM     20  C   UNL     1      27.464  65.099  17.878  1.00  0.00     0.000 C 
BRANCH  20  21
ATOM     21  C   UNL     1      28.869  65.602  18.240  1.00  0.00     0.000 C 
BRANCH  21  22
ATOM     22  C   UNL     1      29.984  64.645  17.786  1.00  0.00    -0.000 C 
BRANCH  22  23
ATOM     23  C   UNL     1      31.378  64.938  18.378  1.00  0.00    -0.000 C 
BRANCH  23  24
ATOM     24  C   UNL     1      31.386  65.856  19.617  1.00  0.00    -0.000 C 
BRANCH  24  25
ATOM     25  C   UNL     1      32.776  66.118  20.225  1.00  0.00    -0.000 C 
BRANCH  25  26
ATOM     26  C   UNL     1      33.046  65.280  21.482  1.00  0.00    -0.000 C 
BRANCH  26  27
ATOM     27  C   UNL     1      32.197  64.000  21.478  1.00  0.00    -0.000 C 
BRANCH  27  28
ATOM     28  C   UNL     1      32.992  62.760  21.918  1.00  0.00    -0.000 C 
BRANCH  28  29
ATOM     29  C   UNL     1      32.583  61.493  21.152  1.00  0.00    -0.003 C 
ATOM     30  C   UNL     1      32.851  61.644  19.658  1.00  0.00     0.004 C 
ENDBRANCH  28  29
ENDBRANCH  27  28
ENDBRANCH  26  27
ENDBRANCH  25  26
ENDBRANCH  24  25
ENDBRANCH  23  24
ENDBRANCH  22  23
ENDBRANCH  21  22
ENDBRANCH  20  21
ENDBRANCH  19  20
ENDBRANCH  18  19
ENDBRANCH  17  18
ENDBRANCH   1  17
TORSDOF 26
ENDMDL
MODEL 7
REMARK VINA RESULT:    -0.842      1.841      3.784
REMARK INTER + INTRA:          -3.268
REMARK INTER:                  -2.099
REMARK INTRA:                  -1.170
REMARK UNBOUND:                -1.148
REMARK SMILES CCCCCCCCCCCCCCCCCCCCCCCCCCCC(=O)[O-]
REMARK SMILES IDX 15 1 16 2 17 3 18 4 19 5 20 6 21 7 22 8 23 9 24 10 25 11
REMARK SMILES IDX 26 12 27 13 28 14 29 15 30 16 14 17 13 18 12 19 11 20 10 21
REMARK SMILES IDX 9 22 8 23 7 24 6 25 5 26 4 27 3 28 2 29 1 30
REMARK H PARENT
REMARK Flexibility Score: inf
ROOT
ATOM      1  C   UNL     1      24.738  63.955  15.864  1.00  0.00     0.000 C 
ENDROOT
BRANCH   1   2
ATOM      2  C   UNL     1      26.002  64.211  15.022  1.00  0.00     0.000 C 
BRANCH   2   3
ATOM      3  C   UNL     1      27.131  64.987  15.730  1.00  0.00     0.000 C 
BRANCH   3   4
ATOM      4  C   UNL     1      28.371  64.155  16.121  1.00  0.00     0.000 C 
BRANCH   4   5
ATOM      5  C   UNL     1      29.638  64.983  16.440  1.00  0.00     0.000 C 
BRANCH   5   6
ATOM      6  C   UNL     1      30.958  64.216  16.231  1.00  0.00     0.000 C 
BRANCH   6   7
ATOM      7  C   UNL     1      32.166  64.764  17.012  1.00  0.00     0.000 C 
BRANCH   7   8
ATOM      8  C   UNL     1      31.818  65.658  18.218  1.00  0.00     0.000 C 
BRANCH   8   9
ATOM      9  C   UNL     1      33.046  66.043  19.059  1.00  0.00     0.000 C 
BRANCH   9  10
ATOM     10  C   UNL     1      33.124  65.244  20.372  1.00  0.00     0.000 C 
BRANCH  10  11
ATOM     11  C   UNL     1      31.843  64.431  20.633  1.00  0.00     0.000 C 
BRANCH  11  12
ATOM     12  C   UNL     1      31.983  63.465  21.820  1.00  0.00     0.006 C 
BRANCH  12  13
ATOM     13  C   UNL     1      32.859  64.027  22.947  1.00  0.00     0.053 C 
BRANCH  13  14
ATOM     14  C   UNL     1      32.084  64.993  23.785  1.00  0.00     0.041 C 
ATOM     15  O   UNL     1      32.687  65.795  24.547  1.00  0.00    -0.550 OA
ATOM     16  O   UNL     1      30.694  64.989  23.751  1.00  0.00    -0.550 OA
ENDBRANCH  13  14
ENDBRANCH  12  13
ENDBRANCH  11  12
ENDBRANCH  10  11
ENDBRANCH   9  10
ENDBRANCH   8   9
ENDBRANCH   7   8
ENDBRANCH   6   7
ENDBRANCH   5   6
ENDBRANCH   4   5
ENDBRANCH   3   4
ENDBRANCH   2   3
ENDBRANCH   1   2
BRANCH   1  17
ATOM     17  C   UNL     1      23.988  65.236  16.286  1.00  0.00     0.000 C 
BRANCH  17  18
ATOM     18  C   UNL     1      22.461  65.047  16.348  1.00  0.00     0.000 C 
BRANCH  18  19
ATOM     19  C   UNL     1      21.701  66.125  15.557  1.00  0.00     0.000 C 
BRANCH  19  20
ATOM     20  C   UNL     1      20.305  65.662  15.113  1.00  0.00     0.000 C 
BRANCH  20  21
ATOM     21  C   UNL     1      19.498  65.137  16.309  1.00  0.00     0.000 C 
BRANCH  21  22
ATOM     22  C   UNL     1      18.218  65.949  16.572  1.00  0.00    -0.000 C 
BRANCH  22  23
ATOM     23  C   UNL     1      16.989  65.115  16.987  1.00  0.00    -0.000 C 
BRANCH  23  24
ATOM     24  C   UNL     1      15.627  65.692  16.552  1.00  0.00    -0.000 C 
BRANCH  24  25
ATOM     25  C   UNL     1      14.401  65.039  17.215  1.00  0.00    -0.000 C 
BRANCH  25  26
ATOM     26  C   UNL     1      13.073  65.488  16.591  1.00  0.00    -0.000 C 
BRANCH  26  27
ATOM     27  C   UNL     1      12.995  65.071  15.115  1.00  0.00    -0.000 C 
BRANCH  27  28
ATOM     28  C   UNL     1      13.119  63.552  14.919  1.00  0.00    -0.000 C 
BRANCH  28  29
ATOM     29  C   UNL     1      13.179  63.149  13.438  1.00  0.00    -0.003 C 
ATOM     30  C   UNL     1      13.282  64.377  12.539  1.00  0.00     0.004 C 
ENDBRANCH  28  29
ENDBRANCH  27  28
ENDBRANCH  26  27
ENDBRANCH  25  26
ENDBRANCH  24  25
ENDBRANCH  23  24
ENDBRANCH  22  23
ENDBRANCH  21  22
ENDBRANCH  20  21
ENDBRANCH  19  20
ENDBRANCH  18  19
ENDBRANCH  17  18
ENDBRANCH   1  17
TORSDOF 26
ENDMDL
