MODEL 1
REMARK VINA RESULT:    -4.578      0.000      0.000
REMARK INTER + INTRA:          -7.987
REMARK INTER:                  -6.451
REMARK INTRA:                  -1.536
REMARK UNBOUND:                -1.536
REMARK SMILES OCC1=C[C@@H](O)[C@@H]2C=CO[C@@H](O[C@@H]3O[C@@H](CO)[C@@H](O)[C@H](O)[C@@H]3O)[C@@H]12
REMARK SMILES IDX 12 1 11 2 8 3 9 4 7 5 10 6 24 7 5 8 3 9 4 10 6 11 2 13 1 14
REMARK SMILES IDX 13 16 22 17 14 18 20 19 15 20 18 21 23 22 21 24 16 26 17 27
REMARK SMILES IDX 19 29
REMARK H PARENT 6 12 1 15 23 23 21 25 17 28 19 30
REMARK Flexibility Score: inf
ROOT
ATOM      1  O   UNL     1      -6.220  88.866 -10.916  1.00  0.00    -0.310 OA
ENDROOT
BRANCH   1   2
ATOM      2  C   UNL     1      -7.051  89.803 -11.577  1.00  0.00     0.316 C 
ATOM      3  C   UNL     1      -6.390  89.671 -14.416  1.00  0.00     0.018 C 
ATOM      4  C   UNL     1      -7.523  89.111 -13.964  1.00  0.00     0.186 C 
ATOM      5  C   UNL     1      -5.419  90.161 -13.392  1.00  0.00     0.061 C 
ATOM      6  O   UNL     1      -7.849  89.137 -12.584  1.00  0.00    -0.472 OA
ATOM      7  C   UNL     1      -6.189  90.864 -12.281  1.00  0.00     0.096 C 
ATOM      8  C   UNL     1      -4.346  91.175 -13.773  1.00  0.00     0.145 C 
ATOM      9  C   UNL     1      -5.095  91.605 -11.578  1.00  0.00    -0.036 C 
ATOM     10  C   UNL     1      -4.095  91.827 -12.442  1.00  0.00     0.007 C 
BRANCH   8  11
ATOM     11  O   UNL     1      -3.182  90.545 -14.234  1.00  0.00    -0.388 OA
ATOM     12  H   UNL     1      -3.406  90.166 -15.123  1.00  0.00     0.211 HD
ENDBRANCH   8  11
BRANCH   9  13
ATOM     13  C   UNL     1      -5.188  92.305 -10.250  1.00  0.00     0.187 C 
BRANCH  13  14
ATOM     14  O   UNL     1      -5.084  91.391  -9.196  1.00  0.00    -0.392 OA
ATOM     15  H   UNL     1      -5.121  91.927  -8.362  1.00  0.00     0.211 HD
ENDBRANCH  13  14
ENDBRANCH   9  13
ENDBRANCH   1   2
BRANCH   1  16
ATOM     16  C   UNL     1      -6.820  88.413  -9.711  1.00  0.00     0.286 C 
ATOM     17  C   UNL     1      -7.138  86.909  -9.807  1.00  0.00     0.202 C 
ATOM     18  O   UNL     1      -5.997  88.694  -8.586  1.00  0.00    -0.341 OA
ATOM     19  C   UNL     1      -5.848  86.066  -9.811  1.00  0.00     0.179 C 
ATOM     20  C   UNL     1      -4.746  88.028  -8.674  1.00  0.00     0.178 C 
ATOM     21  C   UNL     1      -4.940  86.493  -8.642  1.00  0.00     0.177 C 
BRANCH  17  22
ATOM     22  O   UNL     1      -7.893  86.658 -10.964  1.00  0.00    -0.385 OA
ATOM     23  H   UNL     1      -7.254  86.627 -11.722  1.00  0.00     0.211 HD
ENDBRANCH  17  22
BRANCH  19  24
ATOM     24  O   UNL     1      -5.175  86.227 -11.034  1.00  0.00    -0.387 OA
ATOM     25  H   UNL     1      -4.723  87.110 -11.001  1.00  0.00     0.211 HD
ENDBRANCH  19  24
BRANCH  20  26
ATOM     26  C   UNL     1      -3.855  88.508  -7.518  1.00  0.00     0.191 C 
BRANCH  26  27
ATOM     27  O   UNL     1      -3.257  89.739  -7.824  1.00  0.00    -0.394 OA
ATOM     28  H   UNL     1      -2.639  89.948  -7.076  1.00  0.00     0.210 HD
ENDBRANCH  26  27
ENDBRANCH  20  26
BRANCH  21  29
ATOM     29  O   UNL     1      -5.520  86.111  -7.420  1.00  0.00    -0.387 OA
ATOM     30  H   UNL     1      -4.789  85.740  -6.859  1.00  0.00     0.211 HD
ENDBRANCH  21  29
ENDBRANCH   1  16
TORSDOF 10
ENDMDL
MODEL 2
REMARK VINA RESULT:    -4.562      3.805      8.047
REMARK INTER + INTRA:          -7.964
REMARK INTER:                  -6.521
REMARK INTRA:                  -1.443
REMARK UNBOUND:                -1.536
REMARK SMILES OCC1=C[C@@H](O)[C@@H]2C=CO[C@@H](O[C@@H]3O[C@@H](CO)[C@@H](O)[C@H](O)[C@@H]3O)[C@@H]12
REMARK SMILES IDX 12 1 11 2 8 3 9 4 7 5 10 6 24 7 5 8 3 9 4 10 6 11 2 13 1 14
REMARK SMILES IDX 13 16 22 17 14 18 20 19 15 20 18 21 23 22 21 24 16 26 17 27
REMARK SMILES IDX 19 29
REMARK H PARENT 6 12 1 15 23 23 21 25 17 28 19 30
REMARK Flexibility Score: inf
ROOT
ATOM      1  O   UNL     1      -5.121  92.463 -15.304  1.00  0.00    -0.310 OA
ENDROOT
BRANCH   1   2
ATOM      2  C   UNL     1      -5.351  92.961 -14.000  1.00  0.00     0.316 C 
ATOM      3  C   UNL     1      -5.434  90.656 -12.213  1.00  0.00     0.018 C 
ATOM      4  C   UNL     1      -4.351  91.449 -12.234  1.00  0.00     0.186 C 
ATOM      5  C   UNL     1      -6.467  90.887 -13.266  1.00  0.00     0.061 C 
ATOM      6  O   UNL     1      -4.277  92.557 -13.116  1.00  0.00    -0.472 OA
ATOM      7  C   UNL     1      -6.663  92.388 -13.442  1.00  0.00     0.096 C 
ATOM      8  C   UNL     1      -7.888  90.365 -13.079  1.00  0.00     0.145 C 
ATOM      9  C   UNL     1      -7.950  92.436 -14.206  1.00  0.00    -0.036 C 
ATOM     10  C   UNL     1      -8.652  91.326 -13.946  1.00  0.00     0.007 C 
BRANCH   8  11
ATOM     11  O   UNL     1      -8.023  89.057 -13.564  1.00  0.00    -0.388 OA
ATOM     12  H   UNL     1      -8.903  88.732 -13.241  1.00  0.00     0.211 HD
ENDBRANCH   8  11
BRANCH   9  13
ATOM     13  C   UNL     1      -8.553  93.637 -14.882  1.00  0.00     0.187 C 
BRANCH  13  14
ATOM     14  O   UNL     1      -7.819  93.992 -16.018  1.00  0.00    -0.392 OA
ATOM     15  H   UNL     1      -8.463  93.993 -16.773  1.00  0.00     0.211 HD
ENDBRANCH  13  14
ENDBRANCH   9  13
ENDBRANCH   1   2
BRANCH   1  16
ATOM     16  C   UNL     1      -4.144  93.239 -15.982  1.00  0.00     0.286 C 
ATOM     17  C   UNL     1      -2.983  92.342 -16.452  1.00  0.00     0.202 C 
ATOM     18  O   UNL     1      -4.714  93.954 -17.071  1.00  0.00    -0.341 OA
ATOM     19  C   UNL     1      -3.431  91.402 -17.588  1.00  0.00     0.179 C 
ATOM     20  C   UNL     1      -5.259  93.076 -18.045  1.00  0.00     0.178 C 
ATOM     21  C   UNL     1      -4.148  92.212 -18.685  1.00  0.00     0.177 C 
BRANCH  17  22
ATOM     22  O   UNL     1      -2.489  91.601 -15.366  1.00  0.00    -0.385 OA
ATOM     23  H   UNL     1      -3.232  91.518 -14.714  1.00  0.00     0.211 HD
ENDBRANCH  17  22
BRANCH  19  24
ATOM     24  O   UNL     1      -4.284  90.409 -17.079  1.00  0.00    -0.387 OA
ATOM     25  H   UNL     1      -3.709  89.742 -16.620  1.00  0.00     0.211 HD
ENDBRANCH  19  24
BRANCH  20  26
ATOM     26  C   UNL     1      -5.999  93.914 -19.098  1.00  0.00     0.191 C 
BRANCH  26  27
ATOM     27  O   UNL     1      -6.073  93.230 -20.321  1.00  0.00    -0.394 OA
ATOM     28  H   UNL     1      -5.826  92.287 -20.134  1.00  0.00     0.210 HD
ENDBRANCH  26  27
ENDBRANCH  20  26
BRANCH  21  29
ATOM     29  O   UNL     1      -3.225  93.038 -19.352  1.00  0.00    -0.387 OA
ATOM     30  H   UNL     1      -2.945  92.551 -20.171  1.00  0.00     0.211 HD
ENDBRANCH  21  29
ENDBRANCH   1  16
TORSDOF 10
ENDMDL
MODEL 3
REMARK VINA RESULT:    -4.484      4.843      7.836
REMARK INTER + INTRA:          -7.855
REMARK INTER:                  -6.360
REMARK INTRA:                  -1.495
REMARK UNBOUND:                -1.536
REMARK SMILES OCC1=C[C@@H](O)[C@@H]2C=CO[C@@H](O[C@@H]3O[C@@H](CO)[C@@H](O)[C@H](O)[C@@H]3O)[C@@H]12
REMARK SMILES IDX 12 1 11 2 8 3 9 4 7 5 10 6 24 7 5 8 3 9 4 10 6 11 2 13 1 14
REMARK SMILES IDX 13 16 22 17 14 18 20 19 15 20 18 21 23 22 21 24 16 26 17 27
REMARK SMILES IDX 19 29
REMARK H PARENT 6 12 1 15 23 23 21 25 17 28 19 30
REMARK Flexibility Score: inf
ROOT
ATOM      1  O   UNL     1     -10.865  85.351  -8.721  1.00  0.00    -0.310 OA
ENDROOT
BRANCH   1   2
ATOM      2  C   UNL     1      -9.863  85.672  -7.774  1.00  0.00     0.316 C 
ATOM      3  C   UNL     1      -9.097  88.447  -8.255  1.00  0.00     0.018 C 
ATOM      4  C   UNL     1      -9.873  88.137  -7.204  1.00  0.00     0.186 C 
ATOM      5  C   UNL     1      -8.833  87.362  -9.246  1.00  0.00     0.061 C 
ATOM      6  O   UNL     1     -10.282  86.800  -6.969  1.00  0.00    -0.472 OA
ATOM      7  C   UNL     1      -8.563  86.064  -8.496  1.00  0.00     0.096 C 
ATOM      8  C   UNL     1      -7.651  87.467 -10.205  1.00  0.00     0.145 C 
ATOM      9  C   UNL     1      -7.955  85.216  -9.569  1.00  0.00    -0.036 C 
ATOM     10  C   UNL     1      -7.394  86.013 -10.488  1.00  0.00     0.007 C 
BRANCH   8  11
ATOM     11  O   UNL     1      -8.002  88.139 -11.384  1.00  0.00    -0.388 OA
ATOM     12  H   UNL     1      -7.740  89.086 -11.251  1.00  0.00     0.211 HD
ENDBRANCH   8  11
BRANCH   9  13
ATOM     13  C   UNL     1      -7.685  83.737  -9.507  1.00  0.00     0.187 C 
BRANCH  13  14
ATOM     14  O   UNL     1      -8.834  83.006  -9.825  1.00  0.00    -0.392 OA
ATOM     15  H   UNL     1      -9.384  82.984  -8.999  1.00  0.00     0.211 HD
ENDBRANCH  13  14
ENDBRANCH   9  13
ENDBRANCH   1   2
BRANCH   1  16
ATOM     16  C   UNL     1     -11.835  84.479  -8.161  1.00  0.00     0.286 C 
ATOM     17  C   UNL     1     -13.218  85.160  -8.145  1.00  0.00     0.202 C 
ATOM     18  O   UNL     1     -11.881  83.240  -8.857  1.00  0.00    -0.341 OA
ATOM     19  C   UNL     1     -13.776  85.320  -9.572  1.00  0.00     0.179 C 
ATOM     20  C   UNL     1     -12.253  83.417 -10.215  1.00  0.00     0.178 C 
ATOM     21  C   UNL     1     -13.692  83.977 -10.321  1.00  0.00     0.177 C 
BRANCH  17  22
ATOM     22  O   UNL     1     -13.122  86.409  -7.511  1.00  0.00    -0.385 OA
ATOM     23  H   UNL     1     -12.187  86.496  -7.188  1.00  0.00     0.211 HD
ENDBRANCH  17  22
BRANCH  19  24
ATOM     24  O   UNL     1     -13.052  86.308 -10.261  1.00  0.00    -0.387 OA
ATOM     25  H   UNL     1     -12.926  87.065  -9.631  1.00  0.00     0.211 HD
ENDBRANCH  19  24
BRANCH  20  26
ATOM     26  C   UNL     1     -12.119  82.068 -10.939  1.00  0.00     0.191 C 
BRANCH  26  27
ATOM     27  O   UNL     1     -10.884  81.972 -11.596  1.00  0.00    -0.394 OA
ATOM     28  H   UNL     1     -10.345  81.308 -11.092  1.00  0.00     0.210 HD
ENDBRANCH  26  27
ENDBRANCH  20  26
BRANCH  21  29
ATOM     29  O   UNL     1     -14.602  83.060  -9.765  1.00  0.00    -0.387 OA
ATOM     30  H   UNL     1     -15.488  83.255 -10.169  1.00  0.00     0.211 HD
ENDBRANCH  21  29
ENDBRANCH   1  16
TORSDOF 10
ENDMDL
MODEL 4
REMARK VINA RESULT:    -4.451      5.470      8.944
REMARK INTER + INTRA:          -7.808
REMARK INTER:                  -6.479
REMARK INTRA:                  -1.329
REMARK UNBOUND:                -1.536
REMARK SMILES OCC1=C[C@@H](O)[C@@H]2C=CO[C@@H](O[C@@H]3O[C@@H](CO)[C@@H](O)[C@H](O)[C@@H]3O)[C@@H]12
REMARK SMILES IDX 12 1 11 2 8 3 9 4 7 5 10 6 24 7 5 8 3 9 4 10 6 11 2 13 1 14
REMARK SMILES IDX 13 16 22 17 14 18 20 19 15 20 18 21 23 22 21 24 16 26 17 27
REMARK SMILES IDX 19 29
REMARK H PARENT 6 12 1 15 23 23 21 25 17 28 19 30
REMARK Flexibility Score: inf
ROOT
ATOM      1  O   UNL     1     -11.396  85.311  -8.955  1.00  0.00    -0.310 OA
ENDROOT
BRANCH   1   2
ATOM      2  C   UNL     1     -11.915  84.226  -8.208  1.00  0.00     0.316 C 
ATOM      3  C   UNL     1     -10.256  81.904  -8.818  1.00  0.00     0.018 C 
ATOM      4  C   UNL     1     -10.116  82.538  -7.643  1.00  0.00     0.186 C 
ATOM      5  C   UNL     1     -11.124  82.556  -9.843  1.00  0.00     0.061 C 
ATOM      6  O   UNL     1     -10.891  83.686  -7.338  1.00  0.00    -0.472 OA
ATOM      7  C   UNL     1     -12.369  83.104  -9.156  1.00  0.00     0.096 C 
ATOM      8  C   UNL     1     -11.690  81.743 -11.002  1.00  0.00     0.145 C 
ATOM      9  C   UNL     1     -13.271  83.357 -10.324  1.00  0.00    -0.036 C 
ATOM     10  C   UNL     1     -12.919  82.544 -11.329  1.00  0.00     0.007 C 
BRANCH   8  11
ATOM     11  O   UNL     1     -10.814  81.726 -12.096  1.00  0.00    -0.388 OA
ATOM     12  H   UNL     1     -11.363  81.490 -12.888  1.00  0.00     0.211 HD
ENDBRANCH   8  11
BRANCH   9  13
ATOM     13  C   UNL     1     -14.569  84.117 -10.313  1.00  0.00     0.187 C 
BRANCH  13  14
ATOM     14  O   UNL     1     -14.339  85.497 -10.334  1.00  0.00    -0.392 OA
ATOM     15  H   UNL     1     -13.656  85.673  -9.636  1.00  0.00     0.211 HD
ENDBRANCH  13  14
ENDBRANCH   9  13
ENDBRANCH   1   2
BRANCH   1  16
ATOM     16  C   UNL     1     -11.556  86.535  -8.253  1.00  0.00     0.286 C 
ATOM     17  C   UNL     1     -10.179  87.156  -7.945  1.00  0.00     0.202 C 
ATOM     18  O   UNL     1     -12.379  87.442  -8.975  1.00  0.00    -0.341 OA
ATOM     19  C   UNL     1      -9.495  87.657  -9.232  1.00  0.00     0.179 C 
ATOM     20  C   UNL     1     -11.807  87.782 -10.229  1.00  0.00     0.178 C 
ATOM     21  C   UNL     1     -10.471  88.538 -10.035  1.00  0.00     0.177 C 
BRANCH  17  22
ATOM     22  O   UNL     1      -9.370  86.212  -7.294  1.00  0.00    -0.385 OA
ATOM     23  H   UNL     1      -8.431  86.515  -7.402  1.00  0.00     0.211 HD
ENDBRANCH  17  22
BRANCH  19  24
ATOM     24  O   UNL     1      -9.075  86.564 -10.008  1.00  0.00    -0.387 OA
ATOM     25  H   UNL     1      -8.375  86.901 -10.626  1.00  0.00     0.211 HD
ENDBRANCH  19  24
BRANCH  20  26
ATOM     26  C   UNL     1     -12.822  88.625 -11.016  1.00  0.00     0.191 C 
BRANCH  26  27
ATOM     27  O   UNL     1     -12.584  88.538 -12.396  1.00  0.00    -0.394 OA
ATOM     28  H   UNL     1     -12.472  89.468 -12.724  1.00  0.00     0.210 HD
ENDBRANCH  26  27
ENDBRANCH  20  26
BRANCH  21  29
ATOM     29  O   UNL     1     -10.702  89.745  -9.351  1.00  0.00    -0.387 OA
ATOM     30  H   UNL     1     -11.207  90.334  -9.971  1.00  0.00     0.211 HD
ENDBRANCH  21  29
ENDBRANCH   1  16
TORSDOF 10
ENDMDL
MODEL 5
REMARK VINA RESULT:    -4.331      6.385      8.572
REMARK INTER + INTRA:          -7.639
REMARK INTER:                  -6.131
REMARK INTRA:                  -1.509
REMARK UNBOUND:                -1.536
REMARK SMILES OCC1=C[C@@H](O)[C@@H]2C=CO[C@@H](O[C@@H]3O[C@@H](CO)[C@@H](O)[C@H](O)[C@@H]3O)[C@@H]12
REMARK SMILES IDX 12 1 11 2 8 3 9 4 7 5 10 6 24 7 5 8 3 9 4 10 6 11 2 13 1 14
REMARK SMILES IDX 13 16 22 17 14 18 20 19 15 20 18 21 23 22 21 24 16 26 17 27
REMARK SMILES IDX 19 29
REMARK H PARENT 6 12 1 15 23 23 21 25 17 28 19 30
REMARK Flexibility Score: inf
ROOT
ATOM      1  O   UNL     1     -13.101  85.257  -8.880  1.00  0.00    -0.310 OA
ENDROOT
BRANCH   1   2
ATOM      2  C   UNL     1     -13.372  86.452  -8.171  1.00  0.00     0.316 C 
ATOM      3  C   UNL     1     -14.838  88.203  -9.989  1.00  0.00     0.018 C 
ATOM      4  C   UNL     1     -15.487  87.567  -9.000  1.00  0.00     0.186 C 
ATOM      5  C   UNL     1     -13.417  87.812 -10.229  1.00  0.00     0.061 C 
ATOM      6  O   UNL     1     -14.800  86.689  -8.124  1.00  0.00    -0.472 OA
ATOM      7  C   UNL     1     -12.718  87.646  -8.885  1.00  0.00     0.096 C 
ATOM      8  C   UNL     1     -12.484  88.740 -11.000  1.00  0.00     0.145 C 
ATOM      9  C   UNL     1     -11.278  87.647  -9.292  1.00  0.00    -0.036 C 
ATOM     10  C   UNL     1     -11.152  88.316 -10.446  1.00  0.00     0.007 C 
BRANCH   8  11
ATOM     11  O   UNL     1     -12.539  88.497 -12.379  1.00  0.00    -0.388 OA
ATOM     12  H   UNL     1     -12.397  87.522 -12.493  1.00  0.00     0.211 HD
ENDBRANCH   8  11
BRANCH   9  13
ATOM     13  C   UNL     1     -10.097  87.285  -8.433  1.00  0.00     0.187 C 
BRANCH  13  14
ATOM     14  O   UNL     1      -9.923  85.898  -8.383  1.00  0.00    -0.392 OA
ATOM     15  H   UNL     1      -9.902  85.589  -9.325  1.00  0.00     0.211 HD
ENDBRANCH  13  14
ENDBRANCH   9  13
ENDBRANCH   1   2
BRANCH   1  16
ATOM     16  C   UNL     1     -13.011  84.149  -7.996  1.00  0.00     0.286 C 
ATOM     17  C   UNL     1     -14.189  83.184  -8.231  1.00  0.00     0.202 C 
ATOM     18  O   UNL     1     -11.763  83.480  -8.129  1.00  0.00    -0.341 OA
ATOM     19  C   UNL     1     -14.059  82.468  -9.590  1.00  0.00     0.179 C 
ATOM     20  C   UNL     1     -11.590  82.952  -9.435  1.00  0.00     0.178 C 
ATOM     21  C   UNL     1     -12.649  81.864  -9.731  1.00  0.00     0.177 C 
BRANCH  17  22
ATOM     22  O   UNL     1     -15.400  83.890  -8.159  1.00  0.00    -0.385 OA
ATOM     23  H   UNL     1     -15.208  84.820  -8.446  1.00  0.00     0.211 HD
ENDBRANCH  17  22
BRANCH  19  24
ATOM     24  O   UNL     1     -14.307  83.376 -10.633  1.00  0.00    -0.387 OA
ATOM     25  H   UNL     1     -14.875  84.098 -10.259  1.00  0.00     0.211 HD
ENDBRANCH  19  24
BRANCH  20  26
ATOM     26  C   UNL     1     -10.163  82.395  -9.552  1.00  0.00     0.191 C 
BRANCH  26  27
ATOM     27  O   UNL     1      -9.277  83.381 -10.012  1.00  0.00    -0.394 OA
ATOM     28  H   UNL     1      -9.236  84.078  -9.306  1.00  0.00     0.210 HD
ENDBRANCH  26  27
ENDBRANCH  20  26
BRANCH  21  29
ATOM     29  O   UNL     1     -12.495  80.792  -8.834  1.00  0.00    -0.387 OA
ATOM     30  H   UNL     1     -13.109  80.965  -8.072  1.00  0.00     0.211 HD
ENDBRANCH  21  29
ENDBRANCH   1  16
TORSDOF 10
ENDMDL
MODEL 6
REMARK VINA RESULT:    -4.306      2.922      6.113
REMARK INTER + INTRA:          -7.604
REMARK INTER:                  -6.082
REMARK INTRA:                  -1.523
REMARK UNBOUND:                -1.536
REMARK SMILES OCC1=C[C@@H](O)[C@@H]2C=CO[C@@H](O[C@@H]3O[C@@H](CO)[C@@H](O)[C@H](O)[C@@H]3O)[C@@H]12
REMARK SMILES IDX 12 1 11 2 8 3 9 4 7 5 10 6 24 7 5 8 3 9 4 10 6 11 2 13 1 14
REMARK SMILES IDX 13 16 22 17 14 18 20 19 15 20 18 21 23 22 21 24 16 26 17 27
REMARK SMILES IDX 19 29
REMARK H PARENT 6 12 1 15 23 23 21 25 17 28 19 30
REMARK Flexibility Score: inf
ROOT
ATOM      1  O   UNL     1      -5.615  92.525 -11.681  1.00  0.00    -0.310 OA
ENDROOT
BRANCH   1   2
ATOM      2  C   UNL     1      -6.016  93.579 -10.825  1.00  0.00     0.316 C 
ATOM      3  C   UNL     1      -3.728  94.213  -9.129  1.00  0.00     0.018 C 
ATOM      4  C   UNL     1      -4.055  95.027 -10.146  1.00  0.00     0.186 C 
ATOM      5  C   UNL     1      -4.443  92.905  -9.049  1.00  0.00     0.061 C 
ATOM      6  O   UNL     1      -5.145  94.722 -11.000  1.00  0.00    -0.472 OA
ATOM      7  C   UNL     1      -5.917  93.130  -9.358  1.00  0.00     0.096 C 
ATOM      8  C   UNL     1      -4.473  92.123  -7.739  1.00  0.00     0.145 C 
ATOM      9  C   UNL     1      -6.527  91.854  -8.866  1.00  0.00    -0.036 C 
ATOM     10  C   UNL     1      -5.739  91.334  -7.916  1.00  0.00     0.007 C 
BRANCH   8  11
ATOM     11  O   UNL     1      -3.372  91.263  -7.628  1.00  0.00    -0.388 OA
ATOM     12  H   UNL     1      -3.046  91.349  -6.695  1.00  0.00     0.211 HD
ENDBRANCH   8  11
BRANCH   9  13
ATOM     13  C   UNL     1      -7.933  91.376  -9.105  1.00  0.00     0.187 C 
BRANCH  13  14
ATOM     14  O   UNL     1      -8.109  90.986 -10.437  1.00  0.00    -0.392 OA
ATOM     15  H   UNL     1      -9.068  91.134 -10.643  1.00  0.00     0.211 HD
ENDBRANCH  13  14
ENDBRANCH   9  13
ENDBRANCH   1   2
BRANCH   1  16
ATOM     16  C   UNL     1      -6.135  92.706 -12.990  1.00  0.00     0.286 C 
ATOM     17  C   UNL     1      -4.985  92.801 -14.012  1.00  0.00     0.202 C 
ATOM     18  O   UNL     1      -7.044  91.668 -13.334  1.00  0.00    -0.341 OA
ATOM     19  C   UNL     1      -4.275  91.443 -14.178  1.00  0.00     0.179 C 
ATOM     20  C   UNL     1      -6.410  90.398 -13.338  1.00  0.00     0.178 C 
ATOM     21  C   UNL     1      -5.316  90.335 -14.430  1.00  0.00     0.177 C 
BRANCH  17  22
ATOM     22  O   UNL     1      -4.072  93.788 -13.606  1.00  0.00    -0.385 OA
ATOM     23  H   UNL     1      -3.460  93.360 -12.953  1.00  0.00     0.211 HD
ENDBRANCH  17  22
BRANCH  19  24
ATOM     24  O   UNL     1      -3.523  91.153 -13.027  1.00  0.00    -0.387 OA
ATOM     25  H   UNL     1      -4.116  91.315 -12.247  1.00  0.00     0.211 HD
ENDBRANCH  19  24
BRANCH  20  26
ATOM     26  C   UNL     1      -7.481  89.318 -13.551  1.00  0.00     0.191 C 
BRANCH  26  27
ATOM     27  O   UNL     1      -7.884  88.763 -12.328  1.00  0.00    -0.394 OA
ATOM     28  H   UNL     1      -7.963  87.784 -12.472  1.00  0.00     0.210 HD
ENDBRANCH  26  27
ENDBRANCH  20  26
BRANCH  21  29
ATOM     29  O   UNL     1      -5.898  90.504 -15.699  1.00  0.00    -0.387 OA
ATOM     30  H   UNL     1      -5.179  90.831 -16.302  1.00  0.00     0.211 HD
ENDBRANCH  21  29
ENDBRANCH   1  16
TORSDOF 10
ENDMDL
MODEL 7
REMARK VINA RESULT:    -4.303      6.043      9.643
REMARK INTER + INTRA:          -7.600
REMARK INTER:                  -6.112
REMARK INTRA:                  -1.488
REMARK UNBOUND:                -1.536
REMARK SMILES OCC1=C[C@@H](O)[C@@H]2C=CO[C@@H](O[C@@H]3O[C@@H](CO)[C@@H](O)[C@H](O)[C@@H]3O)[C@@H]12
REMARK SMILES IDX 12 1 11 2 8 3 9 4 7 5 10 6 24 7 5 8 3 9 4 10 6 11 2 13 1 14
REMARK SMILES IDX 13 16 22 17 14 18 20 19 15 20 18 21 23 22 21 24 16 26 17 27
REMARK SMILES IDX 19 29
REMARK H PARENT 6 12 1 15 23 23 21 25 17 28 19 30
REMARK Flexibility Score: inf
ROOT
ATOM      1  O   UNL     1      -5.338  93.122 -18.289  1.00  0.00    -0.310 OA
ENDROOT
BRANCH   1   2
ATOM      2  C   UNL     1      -6.645  92.763 -17.881  1.00  0.00     0.316 C 
ATOM      3  C   UNL     1      -7.582  94.863 -16.085  1.00  0.00     0.018 C 
ATOM      4  C   UNL     1      -8.047  94.799 -17.343  1.00  0.00     0.186 C 
ATOM      5  C   UNL     1      -6.443  93.963 -15.736  1.00  0.00     0.061 C 
ATOM      6  O   UNL     1      -7.583  93.805 -18.241  1.00  0.00    -0.472 OA
ATOM      7  C   UNL     1      -6.690  92.593 -16.354  1.00  0.00     0.096 C 
ATOM      8  C   UNL     1      -6.136  93.642 -14.277  1.00  0.00     0.145 C 
ATOM      9  C   UNL     1      -5.706  91.745 -15.611  1.00  0.00    -0.036 C 
ATOM     10  C   UNL     1      -5.452  92.312 -14.424  1.00  0.00     0.007 C 
BRANCH   8  11
ATOM     11  O   UNL     1      -5.260  94.581 -13.715  1.00  0.00    -0.388 OA
ATOM     12  H   UNL     1      -4.721  94.941 -14.467  1.00  0.00     0.211 HD
ENDBRANCH   8  11
BRANCH   9  13
ATOM     13  C   UNL     1      -5.308  90.331 -15.935  1.00  0.00     0.187 C 
BRANCH  13  14
ATOM     14  O   UNL     1      -4.489  90.290 -17.068  1.00  0.00    -0.392 OA
ATOM     15  H   UNL     1      -4.567  89.371 -17.432  1.00  0.00     0.211 HD
ENDBRANCH  13  14
ENDBRANCH   9  13
ENDBRANCH   1   2
BRANCH   1  16
ATOM     16  C   UNL     1      -5.147  92.864 -19.672  1.00  0.00     0.286 C 
ATOM     17  C   UNL     1      -4.824  94.173 -20.419  1.00  0.00     0.202 C 
ATOM     18  O   UNL     1      -4.132  91.889 -19.882  1.00  0.00    -0.341 OA
ATOM     19  C   UNL     1      -3.428  94.702 -20.037  1.00  0.00     0.179 C 
ATOM     20  C   UNL     1      -2.876  92.329 -19.389  1.00  0.00     0.178 C 
ATOM     21  C   UNL     1      -2.387  93.574 -20.168  1.00  0.00     0.177 C 
BRANCH  17  22
ATOM     22  O   UNL     1      -5.809  95.133 -20.136  1.00  0.00    -0.385 OA
ATOM     23  H   UNL     1      -5.484  95.656 -19.358  1.00  0.00     0.211 HD
ENDBRANCH  17  22
BRANCH  19  24
ATOM     24  O   UNL     1      -3.447  95.197 -18.723  1.00  0.00    -0.387 OA
ATOM     25  H   UNL     1      -3.574  96.180 -18.787  1.00  0.00     0.211 HD
ENDBRANCH  19  24
BRANCH  20  26
ATOM     26  C   UNL     1      -1.875  91.168 -19.497  1.00  0.00     0.191 C 
BRANCH  26  27
ATOM     27  O   UNL     1      -2.390  90.006 -18.904  1.00  0.00    -0.394 OA
ATOM     28  H   UNL     1      -2.272  90.112 -17.924  1.00  0.00     0.210 HD
ENDBRANCH  26  27
ENDBRANCH  20  26
BRANCH  21  29
ATOM     29  O   UNL     1      -2.202  93.246 -21.523  1.00  0.00    -0.387 OA
ATOM     30  H   UNL     1      -2.525  94.022 -22.052  1.00  0.00     0.211 HD
ENDBRANCH  21  29
ENDBRANCH   1  16
TORSDOF 10
ENDMDL
MODEL 8
REMARK VINA RESULT:    -4.194      1.685      6.043
REMARK INTER + INTRA:          -7.446
REMARK INTER:                  -5.953
REMARK INTRA:                  -1.493
REMARK UNBOUND:                -1.536
REMARK SMILES OCC1=C[C@@H](O)[C@@H]2C=CO[C@@H](O[C@@H]3O[C@@H](CO)[C@@H](O)[C@H](O)[C@@H]3O)[C@@H]12
REMARK SMILES IDX 12 1 11 2 8 3 9 4 7 5 10 6 24 7 5 8 3 9 4 10 6 11 2 13 1 14
REMARK SMILES IDX 13 16 22 17 14 18 20 19 15 20 18 21 23 22 21 24 16 26 17 27
REMARK SMILES IDX 19 29
REMARK H PARENT 6 12 1 15 23 23 21 25 17 28 19 30
REMARK Flexibility Score: inf
ROOT
ATOM      1  O   UNL     1      -5.554  90.890 -10.845  1.00  0.00    -0.310 OA
ENDROOT
BRANCH   1   2
ATOM      2  C   UNL     1      -6.097  90.960  -9.540  1.00  0.00     0.316 C 
ATOM      3  C   UNL     1      -3.844  91.068  -7.687  1.00  0.00     0.018 C 
ATOM      4  C   UNL     1      -4.551  92.179  -7.950  1.00  0.00     0.186 C 
ATOM      5  C   UNL     1      -4.132  89.866  -8.526  1.00  0.00     0.061 C 
ATOM      6  O   UNL     1      -5.630  92.156  -8.869  1.00  0.00    -0.472 OA
ATOM      7  C   UNL     1      -5.638  89.746  -8.715  1.00  0.00     0.096 C 
ATOM      8  C   UNL     1      -3.725  88.477  -8.045  1.00  0.00     0.145 C 
ATOM      9  C   UNL     1      -5.769  88.341  -9.214  1.00  0.00    -0.036 C 
ATOM     10  C   UNL     1      -4.722  87.626  -8.780  1.00  0.00     0.007 C 
BRANCH   8  11
ATOM     11  O   UNL     1      -2.421  88.155  -8.446  1.00  0.00    -0.388 OA
ATOM     12  H   UNL     1      -2.498  87.766  -9.355  1.00  0.00     0.211 HD
ENDBRANCH   8  11
BRANCH   9  13
ATOM     13  C   UNL     1      -6.998  87.703  -9.801  1.00  0.00     0.187 C 
BRANCH  13  14
ATOM     14  O   UNL     1      -7.303  88.262 -11.047  1.00  0.00    -0.392 OA
ATOM     15  H   UNL     1      -6.467  88.223 -11.579  1.00  0.00     0.211 HD
ENDBRANCH  13  14
ENDBRANCH   9  13
ENDBRANCH   1   2
BRANCH   1  16
ATOM     16  C   UNL     1      -6.250  91.752 -11.733  1.00  0.00     0.286 C 
ATOM     17  C   UNL     1      -5.270  92.738 -12.397  1.00  0.00     0.202 C 
ATOM     18  O   UNL     1      -6.975  91.013 -12.709  1.00  0.00    -0.341 OA
ATOM     19  C   UNL     1      -4.335  92.013 -13.385  1.00  0.00     0.179 C 
ATOM     20  C   UNL     1      -6.112  90.230 -13.520  1.00  0.00     0.178 C 
ATOM     21  C   UNL     1      -5.164  91.135 -14.342  1.00  0.00     0.177 C 
BRANCH  17  22
ATOM     22  O   UNL     1      -4.524  93.400 -11.409  1.00  0.00    -0.385 OA
ATOM     23  H   UNL     1      -3.611  93.012 -11.431  1.00  0.00     0.211 HD
ENDBRANCH  17  22
BRANCH  19  24
ATOM     24  O   UNL     1      -3.411  91.226 -12.679  1.00  0.00    -0.387 OA
ATOM     25  H   UNL     1      -2.506  91.549 -12.930  1.00  0.00     0.211 HD
ENDBRANCH  19  24
BRANCH  20  26
ATOM     26  C   UNL     1      -6.972  89.340 -14.430  1.00  0.00     0.191 C 
BRANCH  26  27
ATOM     27  O   UNL     1      -8.144  88.937 -13.775  1.00  0.00    -0.394 OA
ATOM     28  H   UNL     1      -8.308  89.599 -13.054  1.00  0.00     0.210 HD
ENDBRANCH  26  27
ENDBRANCH  20  26
BRANCH  21  29
ATOM     29  O   UNL     1      -5.914  91.948 -15.210  1.00  0.00    -0.387 OA
ATOM     30  H   UNL     1      -5.748  91.614 -16.131  1.00  0.00     0.211 HD
ENDBRANCH  21  29
ENDBRANCH   1  16
TORSDOF 10
ENDMDL
MODEL 9
REMARK VINA RESULT:    -4.124      4.694      7.676
REMARK INTER + INTRA:          -7.347
REMARK INTER:                  -5.807
REMARK INTRA:                  -1.541
REMARK UNBOUND:                -1.536
REMARK SMILES OCC1=C[C@@H](O)[C@@H]2C=CO[C@@H](O[C@@H]3O[C@@H](CO)[C@@H](O)[C@H](O)[C@@H]3O)[C@@H]12
REMARK SMILES IDX 12 1 11 2 8 3 9 4 7 5 10 6 24 7 5 8 3 9 4 10 6 11 2 13 1 14
REMARK SMILES IDX 13 16 22 17 14 18 20 19 15 20 18 21 23 22 21 24 16 26 17 27
REMARK SMILES IDX 19 29
REMARK H PARENT 6 12 1 15 23 23 21 25 17 28 19 30
REMARK Flexibility Score: inf
ROOT
ATOM      1  O   UNL     1      -5.400  93.268 -15.239  1.00  0.00    -0.310 OA
ENDROOT
BRANCH   1   2
ATOM      2  C   UNL     1      -6.427  93.062 -14.287  1.00  0.00     0.316 C 
ATOM      3  C   UNL     1      -7.037  95.666 -13.119  1.00  0.00     0.018 C 
ATOM      4  C   UNL     1      -7.874  95.120 -14.016  1.00  0.00     0.186 C 
ATOM      5  C   UNL     1      -5.721  94.990 -12.920  1.00  0.00     0.061 C 
ATOM      6  O   UNL     1      -7.582  93.870 -14.618  1.00  0.00    -0.472 OA
ATOM      7  C   UNL     1      -5.941  93.483 -12.891  1.00  0.00     0.096 C 
ATOM      8  C   UNL     1      -4.905  95.252 -11.658  1.00  0.00     0.145 C 
ATOM      9  C   UNL     1      -4.647  93.000 -12.312  1.00  0.00    -0.036 C 
ATOM     10  C   UNL     1      -4.108  93.980 -11.574  1.00  0.00     0.007 C 
BRANCH   8  11
ATOM     11  O   UNL     1      -4.051  96.352 -11.816  1.00  0.00    -0.388 OA
ATOM     12  H   UNL     1      -3.268  96.024 -12.329  1.00  0.00     0.211 HD
ENDBRANCH   8  11
BRANCH   9  13
ATOM     13  C   UNL     1      -4.162  91.578 -12.249  1.00  0.00     0.187 C 
BRANCH  13  14
ATOM     14  O   UNL     1      -3.716  91.146 -13.502  1.00  0.00    -0.392 OA
ATOM     15  H   UNL     1      -4.367  91.498 -14.163  1.00  0.00     0.211 HD
ENDBRANCH  13  14
ENDBRANCH   9  13
ENDBRANCH   1   2
BRANCH   1  16
ATOM     16  C   UNL     1      -5.482  92.317 -16.290  1.00  0.00     0.286 C 
ATOM     17  C   UNL     1      -5.819  93.018 -17.620  1.00  0.00     0.202 C 
ATOM     18  O   UNL     1      -4.281  91.561 -16.398  1.00  0.00    -0.341 OA
ATOM     19  C   UNL     1      -4.638  93.878 -18.111  1.00  0.00     0.179 C 
ATOM     20  C   UNL     1      -3.169  92.388 -16.705  1.00  0.00     0.178 C 
ATOM     21  C   UNL     1      -3.342  93.045 -18.095  1.00  0.00     0.177 C 
BRANCH  17  22
ATOM     22  O   UNL     1      -6.969  93.808 -17.459  1.00  0.00    -0.385 OA
ATOM     23  H   UNL     1      -7.180  93.812 -16.489  1.00  0.00     0.211 HD
ENDBRANCH  17  22
BRANCH  19  24
ATOM     24  O   UNL     1      -4.499  95.011 -17.293  1.00  0.00    -0.387 OA
ATOM     25  H   UNL     1      -4.205  94.690 -16.401  1.00  0.00     0.211 HD
ENDBRANCH  19  24
BRANCH  20  26
ATOM     26  C   UNL     1      -1.893  91.534 -16.640  1.00  0.00     0.191 C 
BRANCH  26  27
ATOM     27  O   UNL     1      -1.875  90.747 -15.480  1.00  0.00    -0.394 OA
ATOM     28  H   UNL     1      -2.200  91.324 -14.740  1.00  0.00     0.210 HD
ENDBRANCH  26  27
ENDBRANCH  20  26
BRANCH  21  29
ATOM     29  O   UNL     1      -3.398  92.051 -19.089  1.00  0.00    -0.387 OA
ATOM     30  H   UNL     1      -3.219  92.502 -19.955  1.00  0.00     0.211 HD
ENDBRANCH  21  29
ENDBRANCH   1  16
TORSDOF 10
ENDMDL
