MODEL 1
REMARK VINA RESULT:    -6.690      0.000      0.000
REMARK INTER + INTRA:          -7.277
REMARK INTER:                  -7.277
REMARK INTRA:                   0.000
REMARK UNBOUND:                 0.000
REMARK SMILES Cc1cc(O)c2c(c1)C(=O)c1cc(O)cc(O)c1C2=O
REMARK SMILES IDX 1 1 2 2 8 3 7 4 6 5 4 6 3 7 19 8 20 9 18 10 11 11 9 12 10 13
REMARK SMILES IDX 12 14 13 15 15 16 16 17 5 18 17 20 14 22
REMARK H PARENT 5 19 17 21 14 23
REMARK Flexibility Score: inf
ROOT
ATOM      1  C   UNL     1      15.872 -25.255 -22.877  1.00  0.00     0.044 C 
ATOM      2  C   UNL     1      16.813 -24.340 -23.606  1.00  0.00    -0.047 A 
ATOM      3  C   UNL     1      16.687 -24.156 -24.989  1.00  0.00     0.016 A 
ATOM      4  C   UNL     1      17.584 -23.328 -25.686  1.00  0.00     0.038 A 
ATOM      5  C   UNL     1      18.635 -22.691 -24.993  1.00  0.00     0.076 A 
ATOM      6  C   UNL     1      18.766 -22.890 -23.600  1.00  0.00     0.127 A 
ATOM      7  C   UNL     1      17.861 -23.717 -22.921  1.00  0.00     0.050 A 
ATOM      8  C   UNL     1      19.597 -21.851 -25.752  1.00  0.00     0.201 C 
ATOM      9  O   UNL     1      20.717 -21.578 -25.244  1.00  0.00    -0.288 OA
ATOM     10  C   UNL     1      19.287 -21.432 -27.149  1.00  0.00     0.076 A 
ATOM     11  C   UNL     1      18.272 -22.126 -27.848  1.00  0.00     0.041 A 
ATOM     12  C   UNL     1      17.433 -23.126 -27.145  1.00  0.00     0.194 C 
ATOM     13  O   UNL     1      16.576 -23.794 -27.787  1.00  0.00    -0.289 OA
ATOM     14  C   UNL     1      18.052 -21.859 -29.210  1.00  0.00     0.059 A 
ATOM     15  C   UNL     1      18.818 -20.901 -29.879  1.00  0.00     0.120 A 
ATOM     16  C   UNL     1      19.787 -20.181 -29.183  1.00  0.00     0.093 A 
ATOM     17  C   UNL     1      20.008 -20.408 -27.822  1.00  0.00     0.131 A 
ENDROOT
BRANCH   6  18
ATOM     18  O   UNL     1      19.788 -22.264 -22.885  1.00  0.00    -0.507 OA
ATOM     19  H   UNL     1      20.744 -22.598 -22.918  1.00  0.00     0.293 HD
ENDBRANCH   6  18
BRANCH  17  20
ATOM     20  O   UNL     1      20.921 -19.570 -27.176  1.00  0.00    -0.507 OA
ATOM     21  H   UNL     1      21.618 -19.897 -26.523  1.00  0.00     0.293 HD
ENDBRANCH  17  20
BRANCH  15  22
ATOM     22  O   UNL     1      18.613 -20.647 -31.233  1.00  0.00    -0.508 OA
ATOM     23  H   UNL     1      18.660 -21.385 -31.925  1.00  0.00     0.293 HD
ENDBRANCH  15  22
TORSDOF 3
ENDMDL
MODEL 2
REMARK VINA RESULT:    -6.635      1.257      5.499
REMARK INTER + INTRA:          -7.217
REMARK INTER:                  -7.217
REMARK INTRA:                   0.000
REMARK UNBOUND:                 0.000
REMARK SMILES Cc1cc(O)c2c(c1)C(=O)c1cc(O)cc(O)c1C2=O
REMARK SMILES IDX 1 1 2 2 8 3 7 4 6 5 4 6 3 7 19 8 20 9 18 10 11 11 9 12 10 13
REMARK SMILES IDX 12 14 13 15 15 16 16 17 5 18 17 20 14 22
REMARK H PARENT 5 19 17 21 14 23
REMARK Flexibility Score: inf
ROOT
ATOM      1  C   UNL     1      18.778 -20.752 -31.440  1.00  0.00     0.044 C 
ATOM      2  C   UNL     1      18.879 -20.924 -29.952  1.00  0.00    -0.047 A 
ATOM      3  C   UNL     1      18.167 -21.945 -29.311  1.00  0.00     0.016 A 
ATOM      4  C   UNL     1      18.228 -22.092 -27.915  1.00  0.00     0.038 A 
ATOM      5  C   UNL     1      18.997 -21.193 -27.146  1.00  0.00     0.076 A 
ATOM      6  C   UNL     1      19.704 -20.155 -27.796  1.00  0.00     0.127 A 
ATOM      7  C   UNL     1      19.633 -20.026 -29.189  1.00  0.00     0.050 A 
ATOM      8  C   UNL     1      19.019 -21.340 -25.667  1.00  0.00     0.201 C 
ATOM      9  O   UNL     1      19.383 -20.369 -24.953  1.00  0.00    -0.288 OA
ATOM     10  C   UNL     1      18.504 -22.585 -25.030  1.00  0.00     0.076 A 
ATOM     11  C   UNL     1      17.682 -23.443 -25.800  1.00  0.00     0.041 A 
ATOM     12  C   UNL     1      17.485 -23.185 -27.246  1.00  0.00     0.194 C 
ATOM     13  O   UNL     1      16.697 -23.910 -27.914  1.00  0.00    -0.289 OA
ATOM     14  C   UNL     1      17.060 -24.547 -25.192  1.00  0.00     0.059 A 
ATOM     15  C   UNL     1      17.258 -24.816 -23.836  1.00  0.00     0.120 A 
ATOM     16  C   UNL     1      18.103 -24.003 -23.085  1.00  0.00     0.093 A 
ATOM     17  C   UNL     1      18.756 -22.914 -23.670  1.00  0.00     0.131 A 
ENDROOT
BRANCH   6  18
ATOM     18  O   UNL     1      20.482 -19.258 -27.065  1.00  0.00    -0.507 OA
ATOM     19  H   UNL     1      20.721 -19.428 -26.095  1.00  0.00     0.293 HD
ENDBRANCH   6  18
BRANCH  17  20
ATOM     20  O   UNL     1      19.668 -22.215 -22.875  1.00  0.00    -0.507 OA
ATOM     21  H   UNL     1      20.663 -22.192 -23.051  1.00  0.00     0.293 HD
ENDBRANCH  17  20
BRANCH  15  22
ATOM     22  O   UNL     1      16.628 -25.900 -23.228  1.00  0.00    -0.508 OA
ATOM     23  H   UNL     1      16.784 -26.125 -22.252  1.00  0.00     0.293 HD
ENDBRANCH  15  22
TORSDOF 3
ENDMDL
MODEL 3
REMARK VINA RESULT:    -6.527      5.088      7.320
REMARK INTER + INTRA:          -7.099
REMARK INTER:                  -7.099
REMARK INTRA:                   0.000
REMARK UNBOUND:                 0.000
REMARK SMILES Cc1cc(O)c2c(c1)C(=O)c1cc(O)cc(O)c1C2=O
REMARK SMILES IDX 1 1 2 2 8 3 7 4 6 5 4 6 3 7 19 8 20 9 18 10 11 11 9 12 10 13
REMARK SMILES IDX 12 14 13 15 15 16 16 17 5 18 17 20 14 22
REMARK H PARENT 5 19 17 21 14 23
REMARK Flexibility Score: inf
ROOT
ATOM      1  C   UNL     1      21.746 -22.424 -29.969  1.00  0.00     0.044 C 
ATOM      2  C   UNL     1      20.830 -23.579 -29.690  1.00  0.00    -0.047 A 
ATOM      3  C   UNL     1      20.051 -24.126 -30.718  1.00  0.00     0.016 A 
ATOM      4  C   UNL     1      19.165 -25.186 -30.459  1.00  0.00     0.038 A 
ATOM      5  C   UNL     1      19.041 -25.693 -29.148  1.00  0.00     0.076 A 
ATOM      6  C   UNL     1      19.819 -25.129 -28.111  1.00  0.00     0.127 A 
ATOM      7  C   UNL     1      20.699 -24.076 -28.389  1.00  0.00     0.050 A 
ATOM      8  C   UNL     1      18.070 -26.788 -28.885  1.00  0.00     0.201 C 
ATOM      9  O   UNL     1      17.683 -27.003 -27.706  1.00  0.00    -0.288 OA
ATOM     10  C   UNL     1      17.472 -27.547 -30.019  1.00  0.00     0.076 A 
ATOM     11  C   UNL     1      17.552 -26.990 -31.317  1.00  0.00     0.041 A 
ATOM     12  C   UNL     1      18.358 -25.769 -31.555  1.00  0.00     0.194 C 
ATOM     13  O   UNL     1      18.371 -25.235 -32.698  1.00  0.00    -0.289 OA
ATOM     14  C   UNL     1      16.874 -27.603 -32.385  1.00  0.00     0.059 A 
ATOM     15  C   UNL     1      16.133 -28.768 -32.180  1.00  0.00     0.120 A 
ATOM     16  C   UNL     1      16.089 -29.347 -30.914  1.00  0.00     0.093 A 
ATOM     17  C   UNL     1      16.776 -28.774 -29.840  1.00  0.00     0.131 A 
ENDROOT
BRANCH   6  18
ATOM     18  O   UNL     1      19.727 -25.618 -26.807  1.00  0.00    -0.507 OA
ATOM     19  H   UNL     1      18.920 -26.141 -26.490  1.00  0.00     0.293 HD
ENDBRANCH   6  18
BRANCH  17  20
ATOM     20  O   UNL     1      16.768 -29.475 -28.631  1.00  0.00    -0.507 OA
ATOM     21  H   UNL     1      17.097 -29.090 -27.757  1.00  0.00     0.293 HD
ENDBRANCH  17  20
BRANCH  15  22
ATOM     22  O   UNL     1      15.446 -29.368 -33.234  1.00  0.00    -0.508 OA
ATOM     23  H   UNL     1      15.855 -30.122 -33.773  1.00  0.00     0.293 HD
ENDBRANCH  15  22
TORSDOF 3
ENDMDL
MODEL 4
REMARK VINA RESULT:    -6.464      6.233      9.125
REMARK INTER + INTRA:          -7.031
REMARK INTER:                  -7.031
REMARK INTRA:                   0.000
REMARK UNBOUND:                 0.000
REMARK SMILES Cc1cc(O)c2c(c1)C(=O)c1cc(O)cc(O)c1C2=O
REMARK SMILES IDX 1 1 2 2 8 3 7 4 6 5 4 6 3 7 19 8 20 9 18 10 11 11 9 12 10 13
REMARK SMILES IDX 12 14 13 15 15 16 16 17 5 18 17 20 14 22
REMARK H PARENT 5 19 17 21 14 23
REMARK Flexibility Score: inf
ROOT
ATOM      1  C   UNL     1      16.495 -27.033 -36.178  1.00  0.00     0.044 C 
ATOM      2  C   UNL     1      16.494 -27.446 -34.735  1.00  0.00    -0.047 A 
ATOM      3  C   UNL     1      17.257 -26.737 -33.798  1.00  0.00     0.016 A 
ATOM      4  C   UNL     1      17.288 -27.136 -32.451  1.00  0.00     0.038 A 
ATOM      5  C   UNL     1      16.563 -28.273 -32.038  1.00  0.00     0.076 A 
ATOM      6  C   UNL     1      15.805 -28.994 -32.989  1.00  0.00     0.127 A 
ATOM      7  C   UNL     1      15.783 -28.580 -34.327  1.00  0.00     0.050 A 
ATOM      8  C   UNL     1      16.639 -28.704 -30.617  1.00  0.00     0.201 C 
ATOM      9  O   UNL     1      16.314 -29.881 -30.308  1.00  0.00    -0.288 OA
ATOM     10  C   UNL     1      17.207 -27.789 -29.587  1.00  0.00     0.076 A 
ATOM     11  C   UNL     1      17.985 -26.689 -30.020  1.00  0.00     0.041 A 
ATOM     12  C   UNL     1      18.084 -26.370 -31.464  1.00  0.00     0.194 C 
ATOM     13  O   UNL     1      18.834 -25.433 -31.852  1.00  0.00    -0.289 OA
ATOM     14  C   UNL     1      18.656 -25.892 -29.077  1.00  0.00     0.059 A 
ATOM     15  C   UNL     1      18.551 -26.166 -27.712  1.00  0.00     0.120 A 
ATOM     16  C   UNL     1      17.748 -27.219 -27.277  1.00  0.00     0.093 A 
ATOM     17  C   UNL     1      17.048 -28.011 -28.191  1.00  0.00     0.131 A 
ENDROOT
BRANCH   6  18
ATOM     18  O   UNL     1      15.067 -30.115 -32.609  1.00  0.00    -0.507 OA
ATOM     19  H   UNL     1      15.039 -30.953 -33.178  1.00  0.00     0.293 HD
ENDBRANCH   6  18
BRANCH  17  20
ATOM     20  O   UNL     1      16.183 -28.975 -27.668  1.00  0.00    -0.507 OA
ATOM     21  H   UNL     1      16.346 -29.970 -27.733  1.00  0.00     0.293 HD
ENDBRANCH  17  20
BRANCH  15  22
ATOM     22  O   UNL     1      19.229 -25.387 -26.776  1.00  0.00    -0.508 OA
ATOM     23  H   UNL     1      18.852 -25.222 -25.850  1.00  0.00     0.293 HD
ENDBRANCH  15  22
TORSDOF 3
ENDMDL
MODEL 5
REMARK VINA RESULT:    -6.454      6.078      7.913
REMARK INTER + INTRA:          -7.020
REMARK INTER:                  -7.020
REMARK INTRA:                   0.000
REMARK UNBOUND:                 0.000
REMARK SMILES Cc1cc(O)c2c(c1)C(=O)c1cc(O)cc(O)c1C2=O
REMARK SMILES IDX 1 1 2 2 8 3 7 4 6 5 4 6 3 7 19 8 20 9 18 10 11 11 9 12 10 13
REMARK SMILES IDX 12 14 13 15 15 16 16 17 5 18 17 20 14 22
REMARK H PARENT 5 19 17 21 14 23
REMARK Flexibility Score: inf
ROOT
ATOM      1  C   UNL     1      18.999 -25.329 -26.547  1.00  0.00     0.044 C 
ATOM      2  C   UNL     1      18.379 -26.118 -27.662  1.00  0.00    -0.047 A 
ATOM      3  C   UNL     1      18.602 -25.750 -28.995  1.00  0.00     0.016 A 
ATOM      4  C   UNL     1      17.998 -26.463 -30.045  1.00  0.00     0.038 A 
ATOM      5  C   UNL     1      17.142 -27.547 -29.757  1.00  0.00     0.076 A 
ATOM      6  C   UNL     1      16.909 -27.907 -28.410  1.00  0.00     0.127 A 
ATOM      7  C   UNL     1      17.522 -27.187 -27.377  1.00  0.00     0.050 A 
ATOM      8  C   UNL     1      16.481 -28.265 -30.879  1.00  0.00     0.201 C 
ATOM      9  O   UNL     1      15.464 -28.971 -30.649  1.00  0.00    -0.288 OA
ATOM     10  C   UNL     1      16.947 -28.057 -32.279  1.00  0.00     0.076 A 
ATOM     11  C   UNL     1      17.753 -26.928 -32.559  1.00  0.00     0.041 A 
ATOM     12  C   UNL     1      18.253 -26.077 -31.452  1.00  0.00     0.194 C 
ATOM     13  O   UNL     1      18.912 -25.032 -31.709  1.00  0.00    -0.289 OA
ATOM     14  C   UNL     1      18.088 -26.619 -33.888  1.00  0.00     0.059 A 
ATOM     15  C   UNL     1      17.646 -27.426 -34.938  1.00  0.00     0.120 A 
ATOM     16  C   UNL     1      16.892 -28.565 -34.665  1.00  0.00     0.093 A 
ATOM     17  C   UNL     1      16.566 -28.911 -33.351  1.00  0.00     0.131 A 
ENDROOT
BRANCH   6  18
ATOM     18  O   UNL     1      16.078 -28.982 -28.095  1.00  0.00    -0.507 OA
ATOM     19  H   UNL     1      16.322 -29.650 -27.373  1.00  0.00     0.293 HD
ENDBRANCH   6  18
BRANCH  17  20
ATOM     20  O   UNL     1      15.901 -30.124 -33.157  1.00  0.00    -0.507 OA
ATOM     21  H   UNL     1      14.901 -30.203 -33.041  1.00  0.00     0.293 HD
ENDBRANCH  17  20
BRANCH  15  22
ATOM     22  O   UNL     1      17.963 -27.112 -36.258  1.00  0.00    -0.508 OA
ATOM     23  H   UNL     1      17.251 -26.835 -36.924  1.00  0.00     0.293 HD
ENDBRANCH  15  22
TORSDOF 3
ENDMDL
MODEL 6
REMARK VINA RESULT:    -6.430      3.420      6.583
REMARK INTER + INTRA:          -6.993
REMARK INTER:                  -6.993
REMARK INTRA:                   0.000
REMARK UNBOUND:                 0.000
REMARK SMILES Cc1cc(O)c2c(c1)C(=O)c1cc(O)cc(O)c1C2=O
REMARK SMILES IDX 1 1 2 2 8 3 7 4 6 5 4 6 3 7 19 8 20 9 18 10 11 11 9 12 10 13
REMARK SMILES IDX 12 14 13 15 15 16 16 17 5 18 17 20 14 22
REMARK H PARENT 5 19 17 21 14 23
REMARK Flexibility Score: inf
ROOT
ATOM      1  C   UNL     1      19.779 -20.360 -26.935  1.00  0.00     0.044 C 
ATOM      2  C   UNL     1      19.181 -21.496 -27.712  1.00  0.00    -0.047 A 
ATOM      3  C   UNL     1      19.054 -22.762 -27.126  1.00  0.00     0.016 A 
ATOM      4  C   UNL     1      18.527 -23.840 -27.858  1.00  0.00     0.038 A 
ATOM      5  C   UNL     1      18.139 -23.654 -29.202  1.00  0.00     0.076 A 
ATOM      6  C   UNL     1      18.282 -22.379 -29.794  1.00  0.00     0.127 A 
ATOM      7  C   UNL     1      18.807 -21.315 -29.048  1.00  0.00     0.050 A 
ATOM      8  C   UNL     1      17.620 -24.815 -29.972  1.00  0.00     0.201 C 
ATOM      9  O   UNL     1      17.613 -24.771 -31.231  1.00  0.00    -0.288 OA
ATOM     10  C   UNL     1      17.221 -26.065 -29.265  1.00  0.00     0.076 A 
ATOM     11  C   UNL     1      17.673 -26.261 -27.938  1.00  0.00     0.041 A 
ATOM     12  C   UNL     1      18.381 -25.171 -27.225  1.00  0.00     0.194 C 
ATOM     13  O   UNL     1      18.844 -25.372 -26.068  1.00  0.00    -0.289 OA
ATOM     14  C   UNL     1      17.441 -27.487 -27.294  1.00  0.00     0.059 A 
ATOM     15  C   UNL     1      16.752 -28.513 -27.945  1.00  0.00     0.120 A 
ATOM     16  C   UNL     1      16.264 -28.310 -29.234  1.00  0.00     0.093 A 
ATOM     17  C   UNL     1      16.457 -27.090 -29.889  1.00  0.00     0.131 A 
ENDROOT
BRANCH   6  18
ATOM     18  O   UNL     1      17.896 -22.161 -31.116  1.00  0.00    -0.507 OA
ATOM     19  H   UNL     1      17.201 -22.742 -31.571  1.00  0.00     0.293 HD
ENDBRANCH   6  18
BRANCH  17  20
ATOM     20  O   UNL     1      15.844 -26.931 -31.134  1.00  0.00    -0.507 OA
ATOM     21  H   UNL     1      14.843 -26.925 -31.270  1.00  0.00     0.293 HD
ENDBRANCH  17  20
BRANCH  15  22
ATOM     22  O   UNL     1      16.536 -29.736 -27.314  1.00  0.00    -0.508 OA
ATOM     23  H   UNL     1      16.387 -29.798 -26.314  1.00  0.00     0.293 HD
ENDBRANCH  15  22
TORSDOF 3
ENDMDL
MODEL 7
REMARK VINA RESULT:    -6.281      1.666      5.648
REMARK INTER + INTRA:          -6.832
REMARK INTER:                  -6.832
REMARK INTRA:                   0.000
REMARK UNBOUND:                 0.000
REMARK SMILES Cc1cc(O)c2c(c1)C(=O)c1cc(O)cc(O)c1C2=O
REMARK SMILES IDX 1 1 2 2 8 3 7 4 6 5 4 6 3 7 19 8 20 9 18 10 11 11 9 12 10 13
REMARK SMILES IDX 12 14 13 15 15 16 16 17 5 18 17 20 14 22
REMARK H PARENT 5 19 17 21 14 23
REMARK Flexibility Score: inf
ROOT
ATOM      1  C   UNL     1      19.011 -20.218 -31.838  1.00  0.00     0.044 C 
ATOM      2  C   UNL     1      19.251 -20.232 -30.357  1.00  0.00    -0.047 A 
ATOM      3  C   UNL     1      18.672 -21.226 -29.558  1.00  0.00     0.016 A 
ATOM      4  C   UNL     1      18.863 -21.228 -28.166  1.00  0.00     0.038 A 
ATOM      5  C   UNL     1      19.628 -20.208 -27.560  1.00  0.00     0.076 A 
ATOM      6  C   UNL     1      20.200 -19.199 -28.368  1.00  0.00     0.127 A 
ATOM      7  C   UNL     1      20.001 -19.215 -29.755  1.00  0.00     0.050 A 
ATOM      8  C   UNL     1      19.787 -20.204 -26.082  1.00  0.00     0.201 C 
ATOM      9  O   UNL     1      20.140 -19.144 -25.500  1.00  0.00    -0.288 OA
ATOM     10  C   UNL     1      19.420 -21.408 -25.286  1.00  0.00     0.076 A 
ATOM     11  C   UNL     1      18.599 -22.390 -25.891  1.00  0.00     0.041 A 
ATOM     12  C   UNL     1      18.261 -22.292 -27.331  1.00  0.00     0.194 C 
ATOM     13  O   UNL     1      17.472 -23.129 -27.851  1.00  0.00    -0.289 OA
ATOM     14  C   UNL     1      18.113 -23.464 -25.126  1.00  0.00     0.059 A 
ATOM     15  C   UNL     1      18.445 -23.581 -23.775  1.00  0.00     0.120 A 
ATOM     16  C   UNL     1      19.290 -22.645 -23.186  1.00  0.00     0.093 A 
ATOM     17  C   UNL     1      19.811 -21.581 -23.929  1.00  0.00     0.131 A 
ENDROOT
BRANCH   6  18
ATOM     18  O   UNL     1      20.972 -18.185 -27.801  1.00  0.00    -0.507 OA
ATOM     19  H   UNL     1      20.741 -17.780 -26.901  1.00  0.00     0.293 HD
ENDBRANCH   6  18
BRANCH  17  20
ATOM     20  O   UNL     1      20.735 -20.749 -23.292  1.00  0.00    -0.507 OA
ATOM     21  H   UNL     1      20.477 -19.957 -22.721  1.00  0.00     0.293 HD
ENDBRANCH  17  20
BRANCH  15  22
ATOM     22  O   UNL     1      17.950 -24.636 -23.011  1.00  0.00    -0.508 OA
ATOM     23  H   UNL     1      16.993 -24.647 -22.678  1.00  0.00     0.293 HD
ENDBRANCH  15  22
TORSDOF 3
ENDMDL
MODEL 8
REMARK VINA RESULT:    -6.107      4.395      5.768
REMARK INTER + INTRA:          -6.642
REMARK INTER:                  -6.642
REMARK INTRA:                   0.000
REMARK UNBOUND:                 0.000
REMARK SMILES Cc1cc(O)c2c(c1)C(=O)c1cc(O)cc(O)c1C2=O
REMARK SMILES IDX 1 1 2 2 8 3 7 4 6 5 4 6 3 7 19 8 20 9 18 10 11 11 9 12 10 13
REMARK SMILES IDX 12 14 13 15 15 16 16 17 5 18 17 20 14 22
REMARK H PARENT 5 19 17 21 14 23
REMARK Flexibility Score: inf
ROOT
ATOM      1  C   UNL     1      15.788 -29.221 -31.954  1.00  0.00     0.044 C 
ATOM      2  C   UNL     1      16.558 -28.353 -31.001  1.00  0.00    -0.047 A 
ATOM      3  C   UNL     1      17.312 -27.275 -31.481  1.00  0.00     0.016 A 
ATOM      4  C   UNL     1      18.063 -26.478 -30.601  1.00  0.00     0.038 A 
ATOM      5  C   UNL     1      18.075 -26.775 -29.221  1.00  0.00     0.076 A 
ATOM      6  C   UNL     1      17.323 -27.872 -28.743  1.00  0.00     0.127 A 
ATOM      7  C   UNL     1      16.579 -28.654 -29.635  1.00  0.00     0.050 A 
ATOM      8  C   UNL     1      18.906 -25.945 -28.310  1.00  0.00     0.201 C 
ATOM      9  O   UNL     1      19.218 -26.393 -27.175  1.00  0.00    -0.288 OA
ATOM     10  C   UNL     1      19.463 -24.645 -28.779  1.00  0.00     0.076 A 
ATOM     11  C   UNL     1      19.499 -24.392 -30.171  1.00  0.00     0.041 A 
ATOM     12  C   UNL     1      18.844 -25.330 -31.115  1.00  0.00     0.194 C 
ATOM     13  O   UNL     1      18.939 -25.140 -32.359  1.00  0.00    -0.289 OA
ATOM     14  C   UNL     1      20.147 -23.245 -30.658  1.00  0.00     0.059 A 
ATOM     15  C   UNL     1      20.745 -22.340 -29.778  1.00  0.00     0.120 A 
ATOM     16  C   UNL     1      20.672 -22.559 -28.404  1.00  0.00     0.093 A 
ATOM     17  C   UNL     1      20.009 -23.678 -27.891  1.00  0.00     0.131 A 
ENDROOT
BRANCH   6  18
ATOM     18  O   UNL     1      17.306 -28.183 -27.383  1.00  0.00    -0.507 OA
ATOM     19  H   UNL     1      17.834 -28.962 -27.007  1.00  0.00     0.293 HD
ENDBRANCH   6  18
BRANCH  17  20
ATOM     20  O   UNL     1      19.889 -23.766 -26.502  1.00  0.00    -0.507 OA
ATOM     21  H   UNL     1      19.031 -24.009 -26.028  1.00  0.00     0.293 HD
ENDBRANCH  17  20
BRANCH  15  22
ATOM     22  O   UNL     1      21.404 -21.210 -30.260  1.00  0.00    -0.508 OA
ATOM     23  H   UNL     1      20.916 -20.335 -30.408  1.00  0.00     0.293 HD
ENDBRANCH  15  22
TORSDOF 3
ENDMDL
MODEL 9
REMARK VINA RESULT:    -6.015      4.373      6.860
REMARK INTER + INTRA:          -6.542
REMARK INTER:                  -6.542
REMARK INTRA:                   0.000
REMARK UNBOUND:                 0.000
REMARK SMILES Cc1cc(O)c2c(c1)C(=O)c1cc(O)cc(O)c1C2=O
REMARK SMILES IDX 1 1 2 2 8 3 7 4 6 5 4 6 3 7 19 8 20 9 18 10 11 11 9 12 10 13
REMARK SMILES IDX 12 14 13 15 15 16 16 17 5 18 17 20 14 22
REMARK H PARENT 5 19 17 21 14 23
REMARK Flexibility Score: inf
ROOT
ATOM      1  C   UNL     1      17.212 -27.665 -33.901  1.00  0.00     0.044 C 
ATOM      2  C   UNL     1      17.280 -27.446 -32.418  1.00  0.00    -0.047 A 
ATOM      3  C   UNL     1      18.079 -26.422 -31.893  1.00  0.00     0.016 A 
ATOM      4  C   UNL     1      18.176 -26.231 -30.504  1.00  0.00     0.038 A 
ATOM      5  C   UNL     1      17.481 -27.090 -29.626  1.00  0.00     0.076 A 
ATOM      6  C   UNL     1      16.687 -28.130 -30.160  1.00  0.00     0.127 A 
ATOM      7  C   UNL     1      16.600 -28.303 -31.547  1.00  0.00     0.050 A 
ATOM      8  C   UNL     1      17.627 -26.897 -28.159  1.00  0.00     0.201 C 
ATOM      9  O   UNL     1      17.326 -27.839 -27.378  1.00  0.00    -0.288 OA
ATOM     10  C   UNL     1      18.233 -25.646 -27.624  1.00  0.00     0.076 A 
ATOM     11  C   UNL     1      18.980 -24.830 -28.507  1.00  0.00     0.041 A 
ATOM     12  C   UNL     1      19.009 -25.135 -29.957  1.00  0.00     0.194 C 
ATOM     13  O   UNL     1      19.732 -24.449 -30.731  1.00  0.00    -0.289 OA
ATOM     14  C   UNL     1      19.686 -23.723 -28.008  1.00  0.00     0.059 A 
ATOM     15  C   UNL     1      19.646 -23.408 -26.648  1.00  0.00     0.120 A 
ATOM     16  C   UNL     1      18.874 -24.180 -25.782  1.00  0.00     0.093 A 
ATOM     17  C   UNL     1      18.140 -25.271 -26.255  1.00  0.00     0.131 A 
ENDROOT
BRANCH   6  18
ATOM     18  O   UNL     1      15.978 -28.987 -29.318  1.00  0.00    -0.507 OA
ATOM     19  H   UNL     1      16.412 -29.423 -28.512  1.00  0.00     0.293 HD
ENDBRANCH   6  18
BRANCH  17  20
ATOM     20  O   UNL     1      17.309 -25.925 -25.342  1.00  0.00    -0.507 OA
ATOM     21  H   UNL     1      17.060 -25.547 -24.439  1.00  0.00     0.293 HD
ENDBRANCH  17  20
BRANCH  15  22
ATOM     22  O   UNL     1      20.359 -22.320 -26.148  1.00  0.00    -0.508 OA
ATOM     23  H   UNL     1      20.470 -21.468 -26.684  1.00  0.00     0.293 HD
ENDBRANCH  15  22
TORSDOF 3
ENDMDL
