MODEL 1
REMARK VINA RESULT:    -5.299      0.000      0.000
REMARK INTER + INTRA:          -5.609
REMARK INTER:                  -5.609
REMARK INTRA:                   0.000
REMARK UNBOUND:                 0.000
REMARK SMILES Cc1cc(O)c(C)c(C)c1O
REMARK SMILES IDX 1 1 2 2 3 3 4 4 6 5 8 6 10 7 9 8 7 9 11 10 5 12
REMARK H PARENT 11 11 5 13
REMARK Flexibility Score: inf
ROOT
ATOM      1  C   UNL     1     -31.694  -8.881   1.196  1.00  0.00     0.048 C 
ATOM      2  C   UNL     1     -30.613  -9.564   1.990  1.00  0.00    -0.005 A 
ATOM      3  C   UNL     1     -29.713 -10.419   1.349  1.00  0.00     0.053 A 
ATOM      4  C   UNL     1     -28.683 -11.036   2.061  1.00  0.00     0.119 A 
ATOM      5  C   UNL     1     -28.541 -10.810   3.447  1.00  0.00    -0.003 A 
ATOM      6  C   UNL     1     -29.478  -9.977   4.118  1.00  0.00    -0.002 A 
ATOM      7  C   UNL     1     -30.491  -9.326   3.369  1.00  0.00     0.121 A 
ATOM      8  C   UNL     1     -29.404  -9.748   5.612  1.00  0.00     0.049 C 
ATOM      9  C   UNL     1     -27.406 -11.472   4.195  1.00  0.00     0.049 C 
ENDROOT
BRANCH   7  10
ATOM     10  O   UNL     1     -31.388  -8.433   3.967  1.00  0.00    -0.507 OA
ATOM     11  H   UNL     1     -31.103  -7.609   4.481  1.00  0.00     0.293 HD
ENDBRANCH   7  10
BRANCH   4  12
ATOM     12  O   UNL     1     -27.798 -11.881   1.388  1.00  0.00    -0.508 OA
ATOM     13  H   UNL     1     -27.740 -11.896   0.376  1.00  0.00     0.293 HD
ENDBRANCH   4  12
TORSDOF 2
ENDMDL
MODEL 2
REMARK VINA RESULT:    -5.114      1.774      2.911
REMARK INTER + INTRA:          -5.413
REMARK INTER:                  -5.413
REMARK INTRA:                   0.000
REMARK UNBOUND:                 0.000
REMARK SMILES Cc1cc(O)c(C)c(C)c1O
REMARK SMILES IDX 1 1 2 2 3 3 4 4 6 5 8 6 10 7 9 8 7 9 11 10 5 12
REMARK H PARENT 11 11 5 13
REMARK Flexibility Score: inf
ROOT
ATOM      1  C   UNL     1     -32.611  -8.554   2.979  1.00  0.00     0.048 C 
ATOM      2  C   UNL     1     -31.288  -9.227   3.224  1.00  0.00    -0.005 A 
ATOM      3  C   UNL     1     -30.788  -9.327   4.526  1.00  0.00     0.053 A 
ATOM      4  C   UNL     1     -29.578  -9.975   4.779  1.00  0.00     0.119 A 
ATOM      5  C   UNL     1     -28.836 -10.536   3.718  1.00  0.00    -0.003 A 
ATOM      6  C   UNL     1     -29.312 -10.402   2.384  1.00  0.00    -0.002 A 
ATOM      7  C   UNL     1     -30.564  -9.776   2.153  1.00  0.00     0.121 A 
ATOM      8  C   UNL     1     -28.526 -10.934   1.206  1.00  0.00     0.049 C 
ATOM      9  C   UNL     1     -27.539 -11.253   4.016  1.00  0.00     0.049 C 
ENDROOT
BRANCH   7  10
ATOM     10  O   UNL     1     -31.117  -9.691   0.870  1.00  0.00    -0.507 OA
ATOM     11  H   UNL     1     -30.579  -9.785   0.018  1.00  0.00     0.293 HD
ENDBRANCH   7  10
BRANCH   4  12
ATOM     12  O   UNL     1     -29.111 -10.061   6.091  1.00  0.00    -0.508 OA
ATOM     13  H   UNL     1     -28.135  -9.914   6.321  1.00  0.00     0.293 HD
ENDBRANCH   4  12
TORSDOF 2
ENDMDL
MODEL 3
REMARK VINA RESULT:    -5.070      1.377      4.108
REMARK INTER + INTRA:          -5.367
REMARK INTER:                  -5.367
REMARK INTRA:                   0.000
REMARK UNBOUND:                 0.000
REMARK SMILES Cc1cc(O)c(C)c(C)c1O
REMARK SMILES IDX 1 1 2 2 3 3 4 4 6 5 8 6 10 7 9 8 7 9 11 10 5 12
REMARK H PARENT 11 11 5 13
REMARK Flexibility Score: inf
ROOT
ATOM      1  C   UNL     1     -29.369  -9.737   6.274  1.00  0.00     0.048 C 
ATOM      2  C   UNL     1     -29.799  -9.713   4.832  1.00  0.00    -0.005 A 
ATOM      3  C   UNL     1     -30.941  -8.999   4.458  1.00  0.00     0.053 A 
ATOM      4  C   UNL     1     -31.338  -8.938   3.121  1.00  0.00     0.119 A 
ATOM      5  C   UNL     1     -30.593  -9.604   2.125  1.00  0.00    -0.003 A 
ATOM      6  C   UNL     1     -29.454 -10.370   2.500  1.00  0.00    -0.002 A 
ATOM      7  C   UNL     1     -29.043 -10.386   3.857  1.00  0.00     0.121 A 
ATOM      8  C   UNL     1     -28.654 -11.150   1.479  1.00  0.00     0.049 C 
ATOM      9  C   UNL     1     -31.029  -9.506   0.681  1.00  0.00     0.049 C 
ENDROOT
BRANCH   7  10
ATOM     10  O   UNL     1     -27.884 -11.056   4.267  1.00  0.00    -0.507 OA
ATOM     11  H   UNL     1     -27.065 -11.169   3.684  1.00  0.00     0.293 HD
ENDBRANCH   7  10
BRANCH   4  12
ATOM     12  O   UNL     1     -32.481  -8.211   2.781  1.00  0.00    -0.508 OA
ATOM     13  H   UNL     1     -32.815  -7.443   3.352  1.00  0.00     0.293 HD
ENDBRANCH   4  12
TORSDOF 2
ENDMDL
MODEL 4
REMARK VINA RESULT:    -4.939      1.378      3.360
REMARK INTER + INTRA:          -5.228
REMARK INTER:                  -5.228
REMARK INTRA:                   0.000
REMARK UNBOUND:                 0.000
REMARK SMILES Cc1cc(O)c(C)c(C)c1O
REMARK SMILES IDX 1 1 2 2 3 3 4 4 6 5 8 6 10 7 9 8 7 9 11 10 5 12
REMARK H PARENT 11 11 5 13
REMARK Flexibility Score: inf
ROOT
ATOM      1  C   UNL     1     -28.268 -11.870   1.029  1.00  0.00     0.048 C 
ATOM      2  C   UNL     1     -29.115 -10.893   1.798  1.00  0.00    -0.005 A 
ATOM      3  C   UNL     1     -30.055 -10.107   1.126  1.00  0.00     0.053 A 
ATOM      4  C   UNL     1     -30.873  -9.217   1.824  1.00  0.00     0.119 A 
ATOM      5  C   UNL     1     -30.757  -9.093   3.225  1.00  0.00    -0.003 A 
ATOM      6  C   UNL     1     -29.773  -9.855   3.915  1.00  0.00    -0.002 A 
ATOM      7  C   UNL     1     -28.981 -10.784   3.192  1.00  0.00     0.121 A 
ATOM      8  C   UNL     1     -29.569  -9.718   5.408  1.00  0.00     0.049 C 
ATOM      9  C   UNL     1     -31.667  -8.139   3.965  1.00  0.00     0.049 C 
ENDROOT
BRANCH   7  10
ATOM     10  O   UNL     1     -28.056 -11.616   3.834  1.00  0.00    -0.507 OA
ATOM     11  H   UNL     1     -27.484 -12.298   3.352  1.00  0.00     0.293 HD
ENDBRANCH   7  10
BRANCH   4  12
ATOM     12  O   UNL     1     -31.805  -8.451   1.122  1.00  0.00    -0.508 OA
ATOM     13  H   UNL     1     -32.802  -8.560   1.266  1.00  0.00     0.293 HD
ENDBRANCH   4  12
TORSDOF 2
ENDMDL
MODEL 5
REMARK VINA RESULT:    -4.914      1.772      2.741
REMARK INTER + INTRA:          -5.201
REMARK INTER:                  -5.201
REMARK INTRA:                   0.000
REMARK UNBOUND:                 0.000
REMARK SMILES Cc1cc(O)c(C)c(C)c1O
REMARK SMILES IDX 1 1 2 2 3 3 4 4 6 5 8 6 10 7 9 8 7 9 11 10 5 12
REMARK H PARENT 11 11 5 13
REMARK Flexibility Score: inf
ROOT
ATOM      1  C   UNL     1     -28.611 -11.693   0.344  1.00  0.00     0.048 C 
ATOM      2  C   UNL     1     -28.809 -11.214   1.757  1.00  0.00    -0.005 A 
ATOM      3  C   UNL     1     -27.856 -11.516   2.734  1.00  0.00     0.053 A 
ATOM      4  C   UNL     1     -28.004 -11.054   4.043  1.00  0.00     0.119 A 
ATOM      5  C   UNL     1     -29.127 -10.278   4.401  1.00  0.00    -0.003 A 
ATOM      6  C   UNL     1     -30.125 -10.002   3.426  1.00  0.00    -0.002 A 
ATOM      7  C   UNL     1     -29.935 -10.445   2.092  1.00  0.00     0.121 A 
ATOM      8  C   UNL     1     -31.376  -9.224   3.772  1.00  0.00     0.049 C 
ATOM      9  C   UNL     1     -29.257  -9.769   5.819  1.00  0.00     0.049 C 
ENDROOT
BRANCH   7  10
ATOM     10  O   UNL     1     -30.846 -10.131   1.077  1.00  0.00    -0.507 OA
ATOM     11  H   UNL     1     -31.152 -10.789   0.372  1.00  0.00     0.293 HD
ENDBRANCH   7  10
BRANCH   4  12
ATOM     12  O   UNL     1     -27.031 -11.369   4.993  1.00  0.00    -0.508 OA
ATOM     13  H   UNL     1     -26.241 -11.964   4.771  1.00  0.00     0.293 HD
ENDBRANCH   4  12
TORSDOF 2
ENDMDL
MODEL 6
REMARK VINA RESULT:    -4.875      1.050      2.968
REMARK INTER + INTRA:          -5.160
REMARK INTER:                  -5.160
REMARK INTRA:                   0.000
REMARK UNBOUND:                 0.000
REMARK SMILES Cc1cc(O)c(C)c(C)c1O
REMARK SMILES IDX 1 1 2 2 3 3 4 4 6 5 8 6 10 7 9 8 7 9 11 10 5 12
REMARK H PARENT 11 11 5 13
REMARK Flexibility Score: inf
ROOT
ATOM      1  C   UNL     1     -29.721  -9.453   6.209  1.00  0.00     0.048 C 
ATOM      2  C   UNL     1     -29.348  -9.955   4.840  1.00  0.00    -0.005 A 
ATOM      3  C   UNL     1     -28.184 -10.710   4.668  1.00  0.00     0.053 A 
ATOM      4  C   UNL     1     -27.837 -11.212   3.413  1.00  0.00     0.119 A 
ATOM      5  C   UNL     1     -28.656 -10.957   2.293  1.00  0.00    -0.003 A 
ATOM      6  C   UNL     1     -29.819 -10.152   2.447  1.00  0.00    -0.002 A 
ATOM      7  C   UNL     1     -30.176  -9.686   3.738  1.00  0.00     0.121 A 
ATOM      8  C   UNL     1     -30.699  -9.800   1.267  1.00  0.00     0.049 C 
ATOM      9  C   UNL     1     -28.273 -11.528   0.946  1.00  0.00     0.049 C 
ENDROOT
BRANCH   7  10
ATOM     10  O   UNL     1     -31.353  -8.960   3.958  1.00  0.00    -0.507 OA
ATOM     11  H   UNL     1     -31.953  -8.623   3.216  1.00  0.00     0.293 HD
ENDBRANCH   7  10
BRANCH   4  12
ATOM     12  O   UNL     1     -26.671 -11.967   3.278  1.00  0.00    -0.508 OA
ATOM     13  H   UNL     1     -25.990 -12.037   4.027  1.00  0.00     0.293 HD
ENDBRANCH   4  12
TORSDOF 2
ENDMDL
MODEL 7
REMARK VINA RESULT:    -4.528      1.311      3.235
REMARK INTER + INTRA:          -4.792
REMARK INTER:                  -4.792
REMARK INTRA:                   0.000
REMARK UNBOUND:                 0.000
REMARK SMILES Cc1cc(O)c(C)c(C)c1O
REMARK SMILES IDX 1 1 2 2 3 3 4 4 6 5 8 6 10 7 9 8 7 9 11 10 5 12
REMARK H PARENT 11 11 5 13
REMARK Flexibility Score: inf
ROOT
ATOM      1  C   UNL     1     -27.090 -11.591   4.765  1.00  0.00     0.048 C 
ATOM      2  C   UNL     1     -28.103 -10.984   3.832  1.00  0.00    -0.005 A 
ATOM      3  C   UNL     1     -28.034 -11.249   2.462  1.00  0.00     0.053 A 
ATOM      4  C   UNL     1     -28.983 -10.723   1.584  1.00  0.00     0.119 A 
ATOM      5  C   UNL     1     -30.026  -9.906   2.069  1.00  0.00    -0.003 A 
ATOM      6  C   UNL     1     -30.081  -9.593   3.456  1.00  0.00    -0.002 A 
ATOM      7  C   UNL     1     -29.132 -10.171   4.337  1.00  0.00     0.121 A 
ATOM      8  C   UNL     1     -31.145  -8.675   4.018  1.00  0.00     0.049 C 
ATOM      9  C   UNL     1     -31.056  -9.364   1.104  1.00  0.00     0.049 C 
ENDROOT
BRANCH   7  10
ATOM     10  O   UNL     1     -29.190  -9.962   5.720  1.00  0.00    -0.507 OA
ATOM     11  H   UNL     1     -30.053  -9.901   6.244  1.00  0.00     0.293 HD
ENDBRANCH   7  10
BRANCH   4  12
ATOM     12  O   UNL     1     -28.888 -11.012   0.221  1.00  0.00    -0.508 OA
ATOM     13  H   UNL     1     -28.569 -10.322  -0.450  1.00  0.00     0.293 HD
ENDBRANCH   4  12
TORSDOF 2
ENDMDL
MODEL 8
REMARK VINA RESULT:    -4.222      1.231      4.096
REMARK INTER + INTRA:          -4.469
REMARK INTER:                  -4.469
REMARK INTRA:                   0.000
REMARK UNBOUND:                 0.000
REMARK SMILES Cc1cc(O)c(C)c(C)c1O
REMARK SMILES IDX 1 1 2 2 3 3 4 4 6 5 8 6 10 7 9 8 7 9 11 10 5 12
REMARK H PARENT 11 11 5 13
REMARK Flexibility Score: inf
ROOT
ATOM      1  C   UNL     1     -27.008 -11.723   2.885  1.00  0.00     0.048 C 
ATOM      2  C   UNL     1     -28.246 -10.903   3.130  1.00  0.00    -0.005 A 
ATOM      3  C   UNL     1     -28.595 -10.542   4.435  1.00  0.00     0.053 A 
ATOM      4  C   UNL     1     -29.721  -9.754   4.681  1.00  0.00     0.119 A 
ATOM      5  C   UNL     1     -30.530  -9.316   3.612  1.00  0.00    -0.003 A 
ATOM      6  C   UNL     1     -30.211  -9.714   2.285  1.00  0.00    -0.002 A 
ATOM      7  C   UNL     1     -29.040 -10.479   2.052  1.00  0.00     0.121 A 
ATOM      8  C   UNL     1     -31.078  -9.319   1.109  1.00  0.00     0.049 C 
ATOM      9  C   UNL     1     -31.733  -8.446   3.900  1.00  0.00     0.049 C 
ENDROOT
BRANCH   7  10
ATOM     10  O   UNL     1     -28.635 -10.827   0.757  1.00  0.00    -0.507 OA
ATOM     11  H   UNL     1     -28.461 -11.779   0.459  1.00  0.00     0.293 HD
ENDBRANCH   7  10
BRANCH   4  12
ATOM     12  O   UNL     1     -30.037  -9.408   5.996  1.00  0.00    -0.508 OA
ATOM     13  H   UNL     1     -30.958  -9.574   6.385  1.00  0.00     0.293 HD
ENDBRANCH   4  12
TORSDOF 2
ENDMDL
MODEL 9
REMARK VINA RESULT:    -4.132      0.870      3.183
REMARK INTER + INTRA:          -4.374
REMARK INTER:                  -4.374
REMARK INTRA:                   0.000
REMARK UNBOUND:                 0.000
REMARK SMILES Cc1cc(O)c(C)c(C)c1O
REMARK SMILES IDX 1 1 2 2 3 3 4 4 6 5 8 6 10 7 9 8 7 9 11 10 5 12
REMARK H PARENT 11 11 5 13
REMARK Flexibility Score: inf
ROOT
ATOM      1  C   UNL     1     -30.891  -9.944   0.256  1.00  0.00     0.048 C 
ATOM      2  C   UNL     1     -30.467  -9.801   1.692  1.00  0.00    -0.005 A 
ATOM      3  C   UNL     1     -31.135  -8.904   2.530  1.00  0.00     0.053 A 
ATOM      4  C   UNL     1     -30.779  -8.779   3.874  1.00  0.00     0.119 A 
ATOM      5  C   UNL     1     -29.729  -9.557   4.406  1.00  0.00    -0.003 A 
ATOM      6  C   UNL     1     -29.012 -10.441   3.553  1.00  0.00    -0.002 A 
ATOM      7  C   UNL     1     -29.417 -10.583   2.201  1.00  0.00     0.121 A 
ATOM      8  C   UNL     1     -27.841 -11.254   4.061  1.00  0.00     0.049 C 
ATOM      9  C   UNL     1     -29.373  -9.422   5.870  1.00  0.00     0.049 C 
ENDROOT
BRANCH   7  10
ATOM     10  O   UNL     1     -28.799 -11.499   1.342  1.00  0.00    -0.507 OA
ATOM     11  H   UNL     1     -29.286 -12.260   0.886  1.00  0.00     0.293 HD
ENDBRANCH   7  10
BRANCH   4  12
ATOM     12  O   UNL     1     -31.471  -7.876   4.683  1.00  0.00    -0.508 OA
ATOM     13  H   UNL     1     -31.890  -8.160   5.561  1.00  0.00     0.293 HD
ENDBRANCH   4  12
TORSDOF 2
ENDMDL
