MODEL 1
REMARK VINA RESULT:    -6.846      0.000      0.000
REMARK INTER + INTRA:          -7.447
REMARK INTER:                  -7.447
REMARK INTRA:                   0.000
REMARK UNBOUND:                 0.000
REMARK SMILES Cc1cc(O)c2c(c1)C(=O)c1cc(O)cc(O)c1C2=O
REMARK SMILES IDX 1 1 2 2 8 3 7 4 6 5 4 6 3 7 19 8 20 9 18 10 11 11 9 12 10 13
REMARK SMILES IDX 12 14 13 15 15 16 16 17 5 18 17 20 14 22
REMARK H PARENT 5 19 17 21 14 23
REMARK Flexibility Score: inf
ROOT
ATOM      1  C   UNL     1      13.230  14.688  13.891  1.00  0.00     0.044 C 
ATOM      2  C   UNL     1      13.922  13.381  13.636  1.00  0.00    -0.047 A 
ATOM      3  C   UNL     1      14.586  12.722  14.677  1.00  0.00     0.016 A 
ATOM      4  C   UNL     1      15.261  11.512  14.443  1.00  0.00     0.038 A 
ATOM      5  C   UNL     1      15.271  10.953  13.145  1.00  0.00     0.076 A 
ATOM      6  C   UNL     1      14.668  11.668  12.079  1.00  0.00     0.127 A 
ATOM      7  C   UNL     1      13.985  12.859  12.340  1.00  0.00     0.050 A 
ATOM      8  C   UNL     1      15.865   9.602  12.968  1.00  0.00     0.201 C 
ATOM      9  O   UNL     1      15.427   8.839  12.067  1.00  0.00    -0.288 OA
ATOM     10  C   UNL     1      16.838   9.087  13.965  1.00  0.00     0.076 A 
ATOM     11  C   UNL     1      16.828   9.651  15.261  1.00  0.00     0.041 A 
ATOM     12  C   UNL     1      15.968  10.825  15.548  1.00  0.00     0.194 C 
ATOM     13  O   UNL     1      15.860  11.253  16.730  1.00  0.00    -0.289 OA
ATOM     14  C   UNL     1      17.635   9.100  16.271  1.00  0.00     0.059 A 
ATOM     15  C   UNL     1      18.461   8.006  15.998  1.00  0.00     0.120 A 
ATOM     16  C   UNL     1      18.505   7.472  14.711  1.00  0.00     0.093 A 
ATOM     17  C   UNL     1      17.726   8.016  13.684  1.00  0.00     0.131 A 
ENDROOT
BRANCH   6  18
ATOM     18  O   UNL     1      14.754  11.252  10.747  1.00  0.00    -0.507 OA
ATOM     19  H   UNL     1      15.336  11.706  10.057  1.00  0.00     0.293 HD
ENDBRANCH   6  18
BRANCH  17  20
ATOM     20  O   UNL     1      17.892   7.488  12.402  1.00  0.00    -0.507 OA
ATOM     21  H   UNL     1      18.699   6.950  12.119  1.00  0.00     0.293 HD
ENDBRANCH  17  20
BRANCH  15  22
ATOM     22  O   UNL     1      19.253   7.449  17.000  1.00  0.00    -0.508 OA
ATOM     23  H   UNL     1      20.184   7.098  16.808  1.00  0.00     0.293 HD
ENDBRANCH  15  22
TORSDOF 3
ENDMDL
MODEL 2
REMARK VINA RESULT:    -6.691      1.317      3.328
REMARK INTER + INTRA:          -7.278
REMARK INTER:                  -7.278
REMARK INTRA:                   0.000
REMARK UNBOUND:                 0.000
REMARK SMILES Cc1cc(O)c2c(c1)C(=O)c1cc(O)cc(O)c1C2=O
REMARK SMILES IDX 1 1 2 2 8 3 7 4 6 5 4 6 3 7 19 8 20 9 18 10 11 11 9 12 10 13
REMARK SMILES IDX 12 14 13 15 15 16 16 17 5 18 17 20 14 22
REMARK H PARENT 5 19 17 21 14 23
REMARK Flexibility Score: inf
ROOT
ATOM      1  C   UNL     1      12.914  13.596  12.018  1.00  0.00     0.044 C 
ATOM      2  C   UNL     1      13.814  12.662  12.772  1.00  0.00    -0.047 A 
ATOM      3  C   UNL     1      14.471  11.625  12.102  1.00  0.00     0.016 A 
ATOM      4  C   UNL     1      15.294  10.727  12.803  1.00  0.00     0.038 A 
ATOM      5  C   UNL     1      15.461  10.871  14.199  1.00  0.00     0.076 A 
ATOM      6  C   UNL     1      14.726  11.872  14.884  1.00  0.00     0.127 A 
ATOM      7  C   UNL     1      13.929  12.765  14.162  1.00  0.00     0.050 A 
ATOM      8  C   UNL     1      16.452   9.999  14.881  1.00  0.00     0.201 C 
ATOM      9  O   UNL     1      17.052  10.416  15.907  1.00  0.00    -0.288 OA
ATOM     10  C   UNL     1      16.869   8.720  14.249  1.00  0.00     0.076 A 
ATOM     11  C   UNL     1      16.697   8.579  12.853  1.00  0.00     0.041 A 
ATOM     12  C   UNL     1      15.981   9.627  12.087  1.00  0.00     0.194 C 
ATOM     13  O   UNL     1      15.936   9.567  10.828  1.00  0.00    -0.289 OA
ATOM     14  C   UNL     1      17.204   7.443  12.198  1.00  0.00     0.059 A 
ATOM     15  C   UNL     1      17.861   6.443  12.920  1.00  0.00     0.120 A 
ATOM     16  C   UNL     1      17.997   6.560  14.302  1.00  0.00     0.093 A 
ATOM     17  C   UNL     1      17.484   7.671  14.980  1.00  0.00     0.131 A 
ENDROOT
BRANCH   6  18
ATOM     18  O   UNL     1      14.728  11.990  16.276  1.00  0.00    -0.507 OA
ATOM     19  H   UNL     1      13.947  11.727  16.861  1.00  0.00     0.293 HD
ENDBRANCH   6  18
BRANCH  17  20
ATOM     20  O   UNL     1      17.576   7.674  16.373  1.00  0.00    -0.507 OA
ATOM     21  H   UNL     1      17.596   8.517  16.930  1.00  0.00     0.293 HD
ENDBRANCH  17  20
BRANCH  15  22
ATOM     22  O   UNL     1      18.375   5.322  12.271  1.00  0.00    -0.508 OA
ATOM     23  H   UNL     1      19.283   4.941  12.509  1.00  0.00     0.293 HD
ENDBRANCH  15  22
TORSDOF 3
ENDMDL
MODEL 3
REMARK VINA RESULT:    -6.663      4.998      6.978
REMARK INTER + INTRA:          -7.247
REMARK INTER:                  -7.247
REMARK INTRA:                   0.000
REMARK UNBOUND:                 0.000
REMARK SMILES Cc1cc(O)c2c(c1)C(=O)c1cc(O)cc(O)c1C2=O
REMARK SMILES IDX 1 1 2 2 8 3 7 4 6 5 4 6 3 7 19 8 20 9 18 10 11 11 9 12 10 13
REMARK SMILES IDX 12 14 13 15 15 16 16 17 5 18 17 20 14 22
REMARK H PARENT 5 19 17 21 14 23
REMARK Flexibility Score: inf
ROOT
ATOM      1  C   UNL     1      18.124  16.810   7.436  1.00  0.00     0.044 C 
ATOM      2  C   UNL     1      16.866  16.308   8.080  1.00  0.00    -0.047 A 
ATOM      3  C   UNL     1      16.853  15.986   9.442  1.00  0.00     0.016 A 
ATOM      4  C   UNL     1      15.688  15.488  10.049  1.00  0.00     0.038 A 
ATOM      5  C   UNL     1      14.515  15.309   9.280  1.00  0.00     0.076 A 
ATOM      6  C   UNL     1      14.560  15.558   7.885  1.00  0.00     0.127 A 
ATOM      7  C   UNL     1      15.724  16.072   7.307  1.00  0.00     0.050 A 
ATOM      8  C   UNL     1      13.266  14.924   9.985  1.00  0.00     0.201 C 
ATOM      9  O   UNL     1      12.151  15.292   9.528  1.00  0.00    -0.288 OA
ATOM     10  C   UNL     1      13.341  14.271  11.317  1.00  0.00     0.076 A 
ATOM     11  C   UNL     1      14.516  14.449  12.082  1.00  0.00     0.041 A 
ATOM     12  C   UNL     1      15.684  15.142  11.490  1.00  0.00     0.194 C 
ATOM     13  O   UNL     1      16.687  15.414  12.207  1.00  0.00    -0.289 OA
ATOM     14  C   UNL     1      14.572  13.965  13.401  1.00  0.00     0.059 A 
ATOM     15  C   UNL     1      13.479  13.293  13.956  1.00  0.00     0.120 A 
ATOM     16  C   UNL     1      12.333  13.081  13.191  1.00  0.00     0.093 A 
ATOM     17  C   UNL     1      12.260  13.534  11.870  1.00  0.00     0.131 A 
ENDROOT
BRANCH   6  18
ATOM     18  O   UNL     1      13.488  15.276   7.033  1.00  0.00    -0.507 OA
ATOM     19  H   UNL     1      12.519  15.360   7.308  1.00  0.00     0.293 HD
ENDBRANCH   6  18
BRANCH  17  20
ATOM     20  O   UNL     1      11.118  13.204  11.138  1.00  0.00    -0.507 OA
ATOM     21  H   UNL     1      10.382  12.608  11.489  1.00  0.00     0.293 HD
ENDBRANCH  17  20
BRANCH  15  22
ATOM     22  O   UNL     1      13.527  12.823  15.267  1.00  0.00    -0.508 OA
ATOM     23  H   UNL     1      12.807  12.217  15.640  1.00  0.00     0.293 HD
ENDBRANCH  15  22
TORSDOF 3
ENDMDL
MODEL 4
REMARK VINA RESULT:    -6.473      1.958      6.503
REMARK INTER + INTRA:          -7.040
REMARK INTER:                  -7.040
REMARK INTRA:                   0.000
REMARK UNBOUND:                 0.000
REMARK SMILES Cc1cc(O)c2c(c1)C(=O)c1cc(O)cc(O)c1C2=O
REMARK SMILES IDX 1 1 2 2 8 3 7 4 6 5 4 6 3 7 19 8 20 9 18 10 11 11 9 12 10 13
REMARK SMILES IDX 12 14 13 15 15 16 16 17 5 18 17 20 14 22
REMARK H PARENT 5 19 17 21 14 23
REMARK Flexibility Score: inf
ROOT
ATOM      1  C   UNL     1      17.739   7.697  15.090  1.00  0.00     0.044 C 
ATOM      2  C   UNL     1      16.920   8.937  14.885  1.00  0.00    -0.047 A 
ATOM      3  C   UNL     1      16.635   9.386  13.591  1.00  0.00     0.016 A 
ATOM      4  C   UNL     1      15.894  10.562  13.389  1.00  0.00     0.038 A 
ATOM      5  C   UNL     1      15.429  11.301  14.501  1.00  0.00     0.076 A 
ATOM      6  C   UNL     1      15.793  10.886  15.807  1.00  0.00     0.127 A 
ATOM      7  C   UNL     1      16.515   9.702  15.984  1.00  0.00     0.050 A 
ATOM      8  C   UNL     1      14.525  12.453  14.250  1.00  0.00     0.201 C 
ATOM      9  O   UNL     1      13.662  12.770  15.111  1.00  0.00    -0.288 OA
ATOM     10  C   UNL     1      14.513  13.106  12.915  1.00  0.00     0.076 A 
ATOM     11  C   UNL     1      14.982  12.366  11.806  1.00  0.00     0.041 A 
ATOM     12  C   UNL     1      15.603  11.036  12.015  1.00  0.00     0.194 C 
ATOM     13  O   UNL     1      15.907  10.319  11.022  1.00  0.00    -0.289 OA
ATOM     14  C   UNL     1      14.859  12.895  10.510  1.00  0.00     0.059 A 
ATOM     15  C   UNL     1      14.293  14.157  10.311  1.00  0.00     0.120 A 
ATOM     16  C   UNL     1      13.866  14.907  11.406  1.00  0.00     0.093 A 
ATOM     17  C   UNL     1      13.996  14.411  12.707  1.00  0.00     0.131 A 
ENDROOT
BRANCH   6  18
ATOM     18  O   UNL     1      15.492  11.635  16.948  1.00  0.00    -0.507 OA
ATOM     19  H   UNL     1      15.682  12.624  17.033  1.00  0.00     0.293 HD
ENDBRANCH   6  18
BRANCH  17  20
ATOM     20  O   UNL     1      13.632  15.256  13.757  1.00  0.00    -0.507 OA
ATOM     21  H   UNL     1      13.276  16.193  13.624  1.00  0.00     0.293 HD
ENDBRANCH  17  20
BRANCH  15  22
ATOM     22  O   UNL     1      14.159  14.679   9.026  1.00  0.00    -0.508 OA
ATOM     23  H   UNL     1      14.049  14.079   8.217  1.00  0.00     0.293 HD
ENDBRANCH  15  22
TORSDOF 3
ENDMDL
MODEL 5
REMARK VINA RESULT:    -6.436      1.701      3.763
REMARK INTER + INTRA:          -7.000
REMARK INTER:                  -7.000
REMARK INTRA:                   0.000
REMARK UNBOUND:                 0.000
REMARK SMILES Cc1cc(O)c2c(c1)C(=O)c1cc(O)cc(O)c1C2=O
REMARK SMILES IDX 1 1 2 2 8 3 7 4 6 5 4 6 3 7 19 8 20 9 18 10 11 11 9 12 10 13
REMARK SMILES IDX 12 14 13 15 15 16 16 17 5 18 17 20 14 22
REMARK H PARENT 5 19 17 21 14 23
REMARK Flexibility Score: inf
ROOT
ATOM      1  C   UNL     1      14.279  12.448  12.128  1.00  0.00     0.044 C 
ATOM      2  C   UNL     1      14.959  11.596  13.159  1.00  0.00    -0.047 A 
ATOM      3  C   UNL     1      15.497  10.355  12.803  1.00  0.00     0.016 A 
ATOM      4  C   UNL     1      16.110   9.537  13.766  1.00  0.00     0.038 A 
ATOM      5  C   UNL     1      16.187   9.969  15.110  1.00  0.00     0.076 A 
ATOM      6  C   UNL     1      15.567  11.190  15.479  1.00  0.00     0.127 A 
ATOM      7  C   UNL     1      14.980  11.996  14.499  1.00  0.00     0.050 A 
ATOM      8  C   UNL     1      16.972   9.148  16.068  1.00  0.00     0.201 C 
ATOM      9  O   UNL     1      17.548   9.702  17.042  1.00  0.00    -0.288 OA
ATOM     10  C   UNL     1      17.231   7.715  15.772  1.00  0.00     0.076 A 
ATOM     11  C   UNL     1      17.150   7.285  14.429  1.00  0.00     0.041 A 
ATOM     12  C   UNL     1      16.670   8.219  13.382  1.00  0.00     0.194 C 
ATOM     13  O   UNL     1      16.715   7.883  12.167  1.00  0.00    -0.289 OA
ATOM     14  C   UNL     1      17.521   5.973  14.091  1.00  0.00     0.059 A 
ATOM     15  C   UNL     1      17.955   5.083  15.077  1.00  0.00     0.120 A 
ATOM     16  C   UNL     1      17.998   5.491  16.410  1.00  0.00     0.093 A 
ATOM     17  C   UNL     1      17.614   6.786  16.775  1.00  0.00     0.131 A 
ENDROOT
BRANCH   6  18
ATOM     18  O   UNL     1      15.478  11.620  16.806  1.00  0.00    -0.507 OA
ATOM     19  H   UNL     1      16.170  12.209  17.250  1.00  0.00     0.293 HD
ENDBRANCH   6  18
BRANCH  17  20
ATOM     20  O   UNL     1      17.596   7.092  18.136  1.00  0.00    -0.507 OA
ATOM     21  H   UNL     1      16.762   7.370  18.636  1.00  0.00     0.293 HD
ENDBRANCH  17  20
BRANCH  15  22
ATOM     22  O   UNL     1      18.335   3.785  14.744  1.00  0.00    -0.508 OA
ATOM     23  H   UNL     1      18.096   2.994  15.330  1.00  0.00     0.293 HD
ENDBRANCH  15  22
TORSDOF 3
ENDMDL
MODEL 6
REMARK VINA RESULT:    -6.423      1.320      1.643
REMARK INTER + INTRA:          -6.987
REMARK INTER:                  -6.987
REMARK INTRA:                   0.000
REMARK UNBOUND:                 0.000
REMARK SMILES Cc1cc(O)c2c(c1)C(=O)c1cc(O)cc(O)c1C2=O
REMARK SMILES IDX 1 1 2 2 8 3 7 4 6 5 4 6 3 7 19 8 20 9 18 10 11 11 9 12 10 13
REMARK SMILES IDX 12 14 13 15 15 16 16 17 5 18 17 20 14 22
REMARK H PARENT 5 19 17 21 14 23
REMARK Flexibility Score: inf
ROOT
ATOM      1  C   UNL     1      13.076  13.806  11.747  1.00  0.00     0.044 C 
ATOM      2  C   UNL     1      13.973  12.690  12.195  1.00  0.00    -0.047 A 
ATOM      3  C   UNL     1      14.250  12.511  13.555  1.00  0.00     0.016 A 
ATOM      4  C   UNL     1      15.111  11.487  13.982  1.00  0.00     0.038 A 
ATOM      5  C   UNL     1      15.705  10.625  13.032  1.00  0.00     0.076 A 
ATOM      6  C   UNL     1      15.487  10.864  11.651  1.00  0.00     0.127 A 
ATOM      7  C   UNL     1      14.611  11.877  11.251  1.00  0.00     0.050 A 
ATOM      8  C   UNL     1      16.489   9.465  13.530  1.00  0.00     0.201 C 
ATOM      9  O   UNL     1      16.544   8.408  12.846  1.00  0.00    -0.288 OA
ATOM     10  C   UNL     1      17.045   9.486  14.907  1.00  0.00     0.076 A 
ATOM     11  C   UNL     1      16.450  10.350  15.854  1.00  0.00     0.041 A 
ATOM     12  C   UNL     1      15.405  11.310  15.424  1.00  0.00     0.194 C 
ATOM     13  O   UNL     1      14.784  11.993  16.284  1.00  0.00    -0.289 OA
ATOM     14  C   UNL     1      16.855  10.299  17.199  1.00  0.00     0.059 A 
ATOM     15  C   UNL     1      17.855   9.410  17.604  1.00  0.00     0.120 A 
ATOM     16  C   UNL     1      18.471   8.584  16.666  1.00  0.00     0.093 A 
ATOM     17  C   UNL     1      18.101   8.630  15.318  1.00  0.00     0.131 A 
ENDROOT
BRANCH   6  18
ATOM     18  O   UNL     1      16.145  10.147  10.648  1.00  0.00    -0.507 OA
ATOM     19  H   UNL     1      16.649  10.584   9.888  1.00  0.00     0.293 HD
ENDBRANCH   6  18
BRANCH  17  20
ATOM     20  O   UNL     1      18.825   7.841  14.423  1.00  0.00    -0.507 OA
ATOM     21  H   UNL     1      18.396   7.252  13.723  1.00  0.00     0.293 HD
ENDBRANCH  17  20
BRANCH  15  22
ATOM     22  O   UNL     1      18.250   9.349  18.939  1.00  0.00    -0.508 OA
ATOM     23  H   UNL     1      18.135  10.137  19.564  1.00  0.00     0.293 HD
ENDBRANCH  15  22
TORSDOF 3
ENDMDL
MODEL 7
REMARK VINA RESULT:    -6.385      1.935      5.399
REMARK INTER + INTRA:          -6.945
REMARK INTER:                  -6.945
REMARK INTRA:                   0.000
REMARK UNBOUND:                 0.000
REMARK SMILES Cc1cc(O)c2c(c1)C(=O)c1cc(O)cc(O)c1C2=O
REMARK SMILES IDX 1 1 2 2 8 3 7 4 6 5 4 6 3 7 19 8 20 9 18 10 11 11 9 12 10 13
REMARK SMILES IDX 12 14 13 15 15 16 16 17 5 18 17 20 14 22
REMARK H PARENT 5 19 17 21 14 23
REMARK Flexibility Score: inf
ROOT
ATOM      1  C   UNL     1      17.756   5.324  15.280  1.00  0.00     0.044 C 
ATOM      2  C   UNL     1      17.169   6.493  14.546  1.00  0.00    -0.047 A 
ATOM      3  C   UNL     1      17.565   7.796  14.868  1.00  0.00     0.016 A 
ATOM      4  C   UNL     1      17.001   8.900  14.206  1.00  0.00     0.038 A 
ATOM      5  C   UNL     1      16.023   8.696  13.206  1.00  0.00     0.076 A 
ATOM      6  C   UNL     1      15.567   7.379  12.944  1.00  0.00     0.127 A 
ATOM      7  C   UNL     1      16.157   6.296  13.601  1.00  0.00     0.050 A 
ATOM      8  C   UNL     1      15.560   9.873  12.427  1.00  0.00     0.201 C 
ATOM      9  O   UNL     1      15.183   9.725  11.234  1.00  0.00    -0.288 OA
ATOM     10  C   UNL     1      15.719  11.240  12.988  1.00  0.00     0.076 A 
ATOM     11  C   UNL     1      16.695  11.439  13.991  1.00  0.00     0.041 A 
ATOM     12  C   UNL     1      17.420  10.277  14.558  1.00  0.00     0.194 C 
ATOM     13  O   UNL     1      18.377  10.461  15.359  1.00  0.00    -0.289 OA
ATOM     14  C   UNL     1      16.971  12.739  14.449  1.00  0.00     0.059 A 
ATOM     15  C   UNL     1      16.276  13.835  13.931  1.00  0.00     0.120 A 
ATOM     16  C   UNL     1      15.284  13.638  12.971  1.00  0.00     0.093 A 
ATOM     17  C   UNL     1      14.976  12.352  12.514  1.00  0.00     0.131 A 
ENDROOT
BRANCH   6  18
ATOM     18  O   UNL     1      14.509   7.106  12.072  1.00  0.00    -0.507 OA
ATOM     19  H   UNL     1      14.211   7.738  11.341  1.00  0.00     0.293 HD
ENDBRANCH   6  18
BRANCH  17  20
ATOM     20  O   UNL     1      13.910  12.224  11.621  1.00  0.00    -0.507 OA
ATOM     21  H   UNL     1      13.483  11.339  11.385  1.00  0.00     0.293 HD
ENDBRANCH  17  20
BRANCH  15  22
ATOM     22  O   UNL     1      16.556  15.126  14.374  1.00  0.00    -0.508 OA
ATOM     23  H   UNL     1      15.909  15.891  14.224  1.00  0.00     0.293 HD
ENDBRANCH  15  22
TORSDOF 3
ENDMDL
MODEL 8
REMARK VINA RESULT:    -6.334      1.637      6.286
REMARK INTER + INTRA:          -6.890
REMARK INTER:                  -6.890
REMARK INTRA:                   0.000
REMARK UNBOUND:                 0.000
REMARK SMILES Cc1cc(O)c2c(c1)C(=O)c1cc(O)cc(O)c1C2=O
REMARK SMILES IDX 1 1 2 2 8 3 7 4 6 5 4 6 3 7 19 8 20 9 18 10 11 11 9 12 10 13
REMARK SMILES IDX 12 14 13 15 15 16 16 17 5 18 17 20 14 22
REMARK H PARENT 5 19 17 21 14 23
REMARK Flexibility Score: inf
ROOT
ATOM      1  C   UNL     1      19.821   6.142  17.798  1.00  0.00     0.044 C 
ATOM      2  C   UNL     1      18.980   7.303  17.354  1.00  0.00    -0.047 A 
ATOM      3  C   UNL     1      18.364   7.285  16.098  1.00  0.00     0.016 A 
ATOM      4  C   UNL     1      17.597   8.379  15.661  1.00  0.00     0.038 A 
ATOM      5  C   UNL     1      17.446   9.510  16.496  1.00  0.00     0.076 A 
ATOM      6  C   UNL     1      18.142   9.555  17.731  1.00  0.00     0.127 A 
ATOM      7  C   UNL     1      18.882   8.447  18.153  1.00  0.00     0.050 A 
ATOM      8  C   UNL     1      16.510  10.580  16.064  1.00  0.00     0.201 C 
ATOM      9  O   UNL     1      15.906  11.269  16.929  1.00  0.00    -0.288 OA
ATOM     10  C   UNL     1      16.147  10.709  14.629  1.00  0.00     0.076 A 
ATOM     11  C   UNL     1      16.303   9.578  13.797  1.00  0.00     0.041 A 
ATOM     12  C   UNL     1      16.954   8.356  14.326  1.00  0.00     0.194 C 
ATOM     13  O   UNL     1      16.982   7.304  13.630  1.00  0.00    -0.289 OA
ATOM     14  C   UNL     1      15.843   9.617  12.470  1.00  0.00     0.059 A 
ATOM     15  C   UNL     1      15.246  10.774  11.961  1.00  0.00     0.120 A 
ATOM     16  C   UNL     1      15.127  11.906  12.767  1.00  0.00     0.093 A 
ATOM     17  C   UNL     1      15.596  11.898  14.085  1.00  0.00     0.131 A 
ENDROOT
BRANCH   6  18
ATOM     18  O   UNL     1      18.155  10.689  18.548  1.00  0.00    -0.507 OA
ATOM     19  H   UNL     1      17.467  10.868  19.266  1.00  0.00     0.293 HD
ENDBRANCH   6  18
BRANCH  17  20
ATOM     20  O   UNL     1      15.525  13.095  14.800  1.00  0.00    -0.507 OA
ATOM     21  H   UNL     1      14.657  13.522  15.091  1.00  0.00     0.293 HD
ENDBRANCH  17  20
BRANCH  15  22
ATOM     22  O   UNL     1      14.778  10.813  10.649  1.00  0.00    -0.508 OA
ATOM     23  H   UNL     1      15.255  11.343   9.930  1.00  0.00     0.293 HD
ENDBRANCH  15  22
TORSDOF 3
ENDMDL
MODEL 9
REMARK VINA RESULT:    -6.287      1.844      6.337
REMARK INTER + INTRA:          -6.839
REMARK INTER:                  -6.839
REMARK INTRA:                   0.000
REMARK UNBOUND:                 0.000
REMARK SMILES Cc1cc(O)c2c(c1)C(=O)c1cc(O)cc(O)c1C2=O
REMARK SMILES IDX 1 1 2 2 8 3 7 4 6 5 4 6 3 7 19 8 20 9 18 10 11 11 9 12 10 13
REMARK SMILES IDX 12 14 13 15 15 16 16 17 5 18 17 20 14 22
REMARK H PARENT 5 19 17 21 14 23
REMARK Flexibility Score: inf
ROOT
ATOM      1  C   UNL     1      17.254   3.659  14.976  1.00  0.00     0.044 C 
ATOM      2  C   UNL     1      17.269   5.159  15.010  1.00  0.00    -0.047 A 
ATOM      3  C   UNL     1      16.487   5.891  14.110  1.00  0.00     0.016 A 
ATOM      4  C   UNL     1      16.515   7.296  14.115  1.00  0.00     0.038 A 
ATOM      5  C   UNL     1      17.342   7.980  15.035  1.00  0.00     0.076 A 
ATOM      6  C   UNL     1      18.195   7.231  15.886  1.00  0.00     0.127 A 
ATOM      7  C   UNL     1      18.134   5.835  15.878  1.00  0.00     0.050 A 
ATOM      8  C   UNL     1      17.234   9.460  15.110  1.00  0.00     0.201 C 
ATOM      9  O   UNL     1      17.459  10.049  16.201  1.00  0.00    -0.288 OA
ATOM     10  C   UNL     1      16.683  10.219  13.959  1.00  0.00     0.076 A 
ATOM     11  C   UNL     1      15.860   9.532  13.038  1.00  0.00     0.041 A 
ATOM     12  C   UNL     1      15.690   8.064  13.153  1.00  0.00     0.194 C 
ATOM     13  O   UNL     1      14.859   7.465  12.415  1.00  0.00    -0.289 OA
ATOM     14  C   UNL     1      15.209  10.243  12.016  1.00  0.00     0.059 A 
ATOM     15  C   UNL     1      15.383  11.624  11.892  1.00  0.00     0.120 A 
ATOM     16  C   UNL     1      16.225  12.300  12.773  1.00  0.00     0.093 A 
ATOM     17  C   UNL     1      16.901  11.612  13.787  1.00  0.00     0.131 A 
ENDROOT
BRANCH   6  18
ATOM     18  O   UNL     1      19.139   7.831  16.725  1.00  0.00    -0.507 OA
ATOM     19  H   UNL     1      20.052   7.437  16.909  1.00  0.00     0.293 HD
ENDBRANCH   6  18
BRANCH  17  20
ATOM     20  O   UNL     1      17.798  12.338  14.572  1.00  0.00    -0.507 OA
ATOM     21  H   UNL     1      18.191  11.993  15.436  1.00  0.00     0.293 HD
ENDBRANCH  17  20
BRANCH  15  22
ATOM     22  O   UNL     1      14.729  12.334  10.887  1.00  0.00    -0.508 OA
ATOM     23  H   UNL     1      14.318  13.243  11.060  1.00  0.00     0.293 HD
ENDBRANCH  15  22
TORSDOF 3
ENDMDL
