MODEL 1
REMARK VINA RESULT:    -2.945      0.000      0.000
REMARK INTER + INTRA:          -3.477
REMARK INTER:                  -3.461
REMARK INTRA:                  -0.016
REMARK UNBOUND:                -0.016
REMARK SMILES CCCCC(=O)[O-]
REMARK SMILES IDX 4 1 5 2 6 3 7 4 3 5 2 6 1 7
REMARK H PARENT
REMARK Flexibility Score: inf
ROOT
ATOM      1  C   UNL     1      18.192 -12.442 186.683  1.00  0.00     0.053 C 
ENDROOT
BRANCH   1   2
ATOM      2  C   UNL     1      17.912 -13.897 186.901  1.00  0.00     0.041 C 
ATOM      3  O   UNL     1      16.733 -14.294 187.095  1.00  0.00    -0.550 OA
ATOM      4  O   UNL     1      18.950 -14.819 186.859  1.00  0.00    -0.550 OA
ENDBRANCH   1   2
BRANCH   1   5
ATOM      5  C   UNL     1      19.416 -11.973 187.479  1.00  0.00     0.006 C 
BRANCH   5   6
ATOM      6  C   UNL     1      19.664 -10.465 187.328  1.00  0.00    -0.003 C 
ATOM      7  C   UNL     1      19.321  -9.719 188.614  1.00  0.00     0.004 C 
ENDBRANCH   5   6
ENDBRANCH   1   5
TORSDOF 3
ENDMDL
MODEL 2
REMARK VINA RESULT:    -2.896      0.971      1.581
REMARK INTER + INTRA:          -3.420
REMARK INTER:                  -3.399
REMARK INTRA:                  -0.021
REMARK UNBOUND:                -0.016
REMARK SMILES CCCCC(=O)[O-]
REMARK SMILES IDX 4 1 5 2 6 3 7 4 3 5 2 6 1 7
REMARK H PARENT
REMARK Flexibility Score: inf
ROOT
ATOM      1  C   UNL     1      17.872 -13.475 186.605  1.00  0.00     0.053 C 
ENDROOT
BRANCH   1   2
ATOM      2  C   UNL     1      18.084 -14.944 186.806  1.00  0.00     0.041 C 
ATOM      3  O   UNL     1      19.250 -15.410 186.900  1.00  0.00    -0.550 OA
ATOM      4  O   UNL     1      16.991 -15.795 186.923  1.00  0.00    -0.550 OA
ENDBRANCH   1   2
BRANCH   1   5
ATOM      5  C   UNL     1      18.999 -12.646 187.234  1.00  0.00     0.006 C 
BRANCH   5   6
ATOM      6  C   UNL     1      18.909 -11.161 186.854  1.00  0.00    -0.003 C 
ATOM      7  C   UNL     1      19.509 -10.278 187.943  1.00  0.00     0.004 C 
ENDBRANCH   5   6
ENDBRANCH   1   5
TORSDOF 3
ENDMDL
MODEL 3
REMARK VINA RESULT:    -2.874      3.084      4.287
REMARK INTER + INTRA:          -3.395
REMARK INTER:                  -3.379
REMARK INTRA:                  -0.016
REMARK UNBOUND:                -0.016
REMARK SMILES CCCCC(=O)[O-]
REMARK SMILES IDX 4 1 5 2 6 3 7 4 3 5 2 6 1 7
REMARK H PARENT
REMARK Flexibility Score: inf
ROOT
ATOM      1  C   UNL     1      19.684 -11.575 187.500  1.00  0.00     0.053 C 
ENDROOT
BRANCH   1   2
ATOM      2  C   UNL     1      19.756 -10.080 187.432  1.00  0.00     0.041 C 
ATOM      3  O   UNL     1      19.783  -9.397 188.490  1.00  0.00    -0.550 OA
ATOM      4  O   UNL     1      19.825  -9.443 186.199  1.00  0.00    -0.550 OA
ENDBRANCH   1   2
BRANCH   1   5
ATOM      5  C   UNL     1      18.393 -12.112 186.872  1.00  0.00     0.006 C 
BRANCH   5   6
ATOM      6  C   UNL     1      18.351 -13.646 186.852  1.00  0.00    -0.003 C 
ATOM      7  C   UNL     1      16.927 -14.160 187.042  1.00  0.00     0.004 C 
ENDBRANCH   5   6
ENDBRANCH   1   5
TORSDOF 3
ENDMDL
MODEL 4
REMARK VINA RESULT:    -2.736      1.346      1.757
REMARK INTER + INTRA:          -3.233
REMARK INTER:                  -3.167
REMARK INTRA:                  -0.066
REMARK UNBOUND:                -0.016
REMARK SMILES CCCCC(=O)[O-]
REMARK SMILES IDX 4 1 5 2 6 3 7 4 3 5 2 6 1 7
REMARK H PARENT
REMARK Flexibility Score: inf
ROOT
ATOM      1  C   UNL     1      19.448 -11.797 187.338  1.00  0.00     0.053 C 
ENDROOT
BRANCH   1   2
ATOM      2  C   UNL     1      18.373 -12.633 186.714  1.00  0.00     0.041 C 
ATOM      3  O   UNL     1      17.511 -12.103 185.964  1.00  0.00    -0.550 OA
ATOM      4  O   UNL     1      18.343 -14.005 186.934  1.00  0.00    -0.550 OA
ENDBRANCH   1   2
BRANCH   1   5
ATOM      5  C   UNL     1      18.866 -10.592 188.088  1.00  0.00     0.006 C 
BRANCH   5   6
ATOM      6  C   UNL     1      19.778  -9.359 188.002  1.00  0.00    -0.003 C 
ATOM      7  C   UNL     1      20.103  -9.015 186.552  1.00  0.00     0.004 C 
ENDBRANCH   5   6
ENDBRANCH   1   5
TORSDOF 3
ENDMDL
MODEL 5
REMARK VINA RESULT:    -2.711      1.248      1.664
REMARK INTER + INTRA:          -3.203
REMARK INTER:                  -3.181
REMARK INTRA:                  -0.021
REMARK UNBOUND:                -0.016
REMARK SMILES CCCCC(=O)[O-]
REMARK SMILES IDX 4 1 5 2 6 3 7 4 3 5 2 6 1 7
REMARK H PARENT
REMARK Flexibility Score: inf
ROOT
ATOM      1  C   UNL     1      18.048 -11.383 186.806  1.00  0.00     0.053 C 
ENDROOT
BRANCH   1   2
ATOM      2  C   UNL     1      17.561 -12.662 186.198  1.00  0.00     0.041 C 
ATOM      3  O   UNL     1      18.027 -13.766 186.585  1.00  0.00    -0.550 OA
ATOM      4  O   UNL     1      16.569 -12.636 185.225  1.00  0.00    -0.550 OA
ENDBRANCH   1   2
BRANCH   1   5
ATOM      5  C   UNL     1      19.494 -11.504 187.304  1.00  0.00     0.006 C 
BRANCH   5   6
ATOM      6  C   UNL     1      20.119 -10.135 187.610  1.00  0.00    -0.003 C 
ATOM      7  C   UNL     1      19.429  -9.468 188.795  1.00  0.00     0.004 C 
ENDBRANCH   5   6
ENDBRANCH   1   5
TORSDOF 3
ENDMDL
MODEL 6
REMARK VINA RESULT:    -2.698      3.986      5.010
REMARK INTER + INTRA:          -3.188
REMARK INTER:                  -3.165
REMARK INTRA:                  -0.023
REMARK UNBOUND:                -0.016
REMARK SMILES CCCCC(=O)[O-]
REMARK SMILES IDX 4 1 5 2 6 3 7 4 3 5 2 6 1 7
REMARK H PARENT
REMARK Flexibility Score: inf
ROOT
ATOM      1  C   UNL     1      18.635  -9.677 188.549  1.00  0.00     0.053 C 
ENDROOT
BRANCH   1   2
ATOM      2  C   UNL     1      19.151  -8.545 189.383  1.00  0.00     0.041 C 
ATOM      3  O   UNL     1      19.777  -8.778 190.451  1.00  0.00    -0.550 OA
ATOM      4  O   UNL     1      18.969  -7.233 188.964  1.00  0.00    -0.550 OA
ENDBRANCH   1   2
BRANCH   1   5
ATOM      5  C   UNL     1      19.740 -10.296 187.684  1.00  0.00     0.006 C 
BRANCH   5   6
ATOM      6  C   UNL     1      19.554 -11.809 187.498  1.00  0.00    -0.003 C 
ATOM      7  C   UNL     1      18.252 -12.116 186.764  1.00  0.00     0.004 C 
ENDBRANCH   5   6
ENDBRANCH   1   5
TORSDOF 3
ENDMDL
MODEL 7
REMARK VINA RESULT:    -2.679      1.634      2.498
REMARK INTER + INTRA:          -3.166
REMARK INTER:                  -3.132
REMARK INTRA:                  -0.034
REMARK UNBOUND:                -0.016
REMARK SMILES CCCCC(=O)[O-]
REMARK SMILES IDX 4 1 5 2 6 3 7 4 3 5 2 6 1 7
REMARK H PARENT
REMARK Flexibility Score: inf
ROOT
ATOM      1  C   UNL     1      16.849 -14.122 187.226  1.00  0.00     0.053 C 
ENDROOT
BRANCH   1   2
ATOM      2  C   UNL     1      16.277 -14.845 186.046  1.00  0.00     0.041 C 
ATOM      3  O   UNL     1      16.668 -16.008 185.764  1.00  0.00    -0.550 OA
ATOM      4  O   UNL     1      15.287 -14.247 185.276  1.00  0.00    -0.550 OA
ENDBRANCH   1   2
BRANCH   1   5
ATOM      5  C   UNL     1      18.278 -13.635 186.957  1.00  0.00     0.006 C 
BRANCH   5   6
ATOM      6  C   UNL     1      18.348 -12.111 186.775  1.00  0.00    -0.003 C 
ATOM      7  C   UNL     1      19.517 -11.517 187.554  1.00  0.00     0.004 C 
ENDBRANCH   5   6
ENDBRANCH   1   5
TORSDOF 3
ENDMDL
