MODEL 1
REMARK VINA RESULT:    -2.227      0.000      0.000
REMARK INTER + INTRA:          -2.227
REMARK INTER:                  -2.227
REMARK INTRA:                   0.000
REMARK UNBOUND:                 0.000
REMARK SMILES CC(=O)[O-]
REMARK SMILES IDX 1 1 2 2 3 3 4 4
REMARK H PARENT
REMARK Flexibility Score: inf
ROOT
ATOM      1  C   UNL     1      34.403  -1.503  15.740  1.00  0.00     0.063 C 
ATOM      2  C   UNL     1      34.509  -1.507  14.253  1.00  0.00     0.038 C 
ATOM      3  O   UNL     1      34.000  -2.444  13.586  1.00  0.00    -0.550 OA
ATOM      4  O   UNL     1      35.124  -0.448  13.597  1.00  0.00    -0.550 OA
ENDROOT
TORSDOF 0
ENDMDL
MODEL 2
REMARK VINA RESULT:    -2.158      1.381      1.767
REMARK INTER + INTRA:          -2.158
REMARK INTER:                  -2.158
REMARK INTRA:                   0.000
REMARK UNBOUND:                 0.000
REMARK SMILES CC(=O)[O-]
REMARK SMILES IDX 1 1 2 2 3 3 4 4
REMARK H PARENT
REMARK Flexibility Score: inf
ROOT
ATOM      1  C   UNL     1      35.125  -0.417  13.565  1.00  0.00     0.063 C 
ATOM      2  C   UNL     1      34.471  -1.532  14.309  1.00  0.00     0.038 C 
ATOM      3  O   UNL     1      34.015  -2.525  13.686  1.00  0.00    -0.550 OA
ATOM      4  O   UNL     1      34.411  -1.501  15.697  1.00  0.00    -0.550 OA
ENDROOT
TORSDOF 0
ENDMDL
MODEL 3
REMARK VINA RESULT:    -2.058     16.329     16.581
REMARK INTER + INTRA:          -2.058
REMARK INTER:                  -2.058
REMARK INTRA:                   0.000
REMARK UNBOUND:                 0.000
REMARK SMILES CC(=O)[O-]
REMARK SMILES IDX 1 1 2 2 3 3 4 4
REMARK H PARENT
REMARK Flexibility Score: inf
ROOT
ATOM      1  C   UNL     1      21.312   1.194  24.324  1.00  0.00     0.063 C 
ATOM      2  C   UNL     1      21.895   2.554  24.140  1.00  0.00     0.038 C 
ATOM      3  O   UNL     1      21.262   3.431  23.498  1.00  0.00    -0.550 OA
ATOM      4  O   UNL     1      23.116   2.872  24.722  1.00  0.00    -0.550 OA
ENDROOT
TORSDOF 0
ENDMDL
MODEL 4
REMARK VINA RESULT:    -1.994     16.672     16.755
REMARK INTER + INTRA:          -1.994
REMARK INTER:                  -1.994
REMARK INTRA:                   0.000
REMARK UNBOUND:                 0.000
REMARK SMILES CC(=O)[O-]
REMARK SMILES IDX 1 1 2 2 3 3 4 4
REMARK H PARENT
REMARK Flexibility Score: inf
ROOT
ATOM      1  C   UNL     1      21.261   1.117  24.309  1.00  0.00     0.063 C 
ATOM      2  C   UNL     1      21.829   2.494  24.374  1.00  0.00     0.038 C 
ATOM      3  O   UNL     1      22.771   2.752  25.168  1.00  0.00    -0.550 OA
ATOM      4  O   UNL     1      21.357   3.484  23.521  1.00  0.00    -0.550 OA
ENDROOT
TORSDOF 0
ENDMDL
MODEL 5
REMARK VINA RESULT:    -1.945     16.829     16.969
REMARK INTER + INTRA:          -1.945
REMARK INTER:                  -1.945
REMARK INTRA:                   0.000
REMARK UNBOUND:                 0.000
REMARK SMILES CC(=O)[O-]
REMARK SMILES IDX 1 1 2 2 3 3 4 4
REMARK H PARENT
REMARK Flexibility Score: inf
ROOT
ATOM      1  C   UNL     1      21.497   3.055  23.703  1.00  0.00     0.063 C 
ATOM      2  C   UNL     1      21.405   1.772  24.457  1.00  0.00     0.038 C 
ATOM      3  O   UNL     1      20.847   0.771  23.937  1.00  0.00    -0.550 OA
ATOM      4  O   UNL     1      21.983   1.662  25.716  1.00  0.00    -0.550 OA
ENDROOT
TORSDOF 0
ENDMDL
MODEL 6
REMARK VINA RESULT:    -1.855     16.266     16.631
REMARK INTER + INTRA:          -1.855
REMARK INTER:                  -1.855
REMARK INTRA:                   0.000
REMARK UNBOUND:                 0.000
REMARK SMILES CC(=O)[O-]
REMARK SMILES IDX 1 1 2 2 3 3 4 4
REMARK H PARENT
REMARK Flexibility Score: inf
ROOT
ATOM      1  C   UNL     1      21.016   3.703  23.926  1.00  0.00     0.063 C 
ATOM      2  C   UNL     1      21.986   2.597  24.168  1.00  0.00     0.038 C 
ATOM      3  O   UNL     1      23.177   2.858  24.479  1.00  0.00    -0.550 OA
ATOM      4  O   UNL     1      21.564   1.275  24.103  1.00  0.00    -0.550 OA
ENDROOT
TORSDOF 0
ENDMDL
MODEL 7
REMARK VINA RESULT:    -1.744     19.984     20.215
REMARK INTER + INTRA:          -1.744
REMARK INTER:                  -1.744
REMARK INTRA:                   0.000
REMARK UNBOUND:                 0.000
REMARK SMILES CC(=O)[O-]
REMARK SMILES IDX 1 1 2 2 3 3 4 4
REMARK H PARENT
REMARK Flexibility Score: inf
ROOT
ATOM      1  C   UNL     1      18.324   9.760  22.849  1.00  0.00     0.063 C 
ATOM      2  C   UNL     1      19.727   9.445  22.453  1.00  0.00     0.038 C 
ATOM      3  O   UNL     1      20.097   9.600  21.261  1.00  0.00    -0.550 OA
ATOM      4  O   UNL     1      20.643   9.028  23.411  1.00  0.00    -0.550 OA
ENDROOT
TORSDOF 0
ENDMDL
MODEL 8
REMARK VINA RESULT:    -1.645     17.277     17.666
REMARK INTER + INTRA:          -1.645
REMARK INTER:                  -1.645
REMARK INTRA:                   0.000
REMARK UNBOUND:                 0.000
REMARK SMILES CC(=O)[O-]
REMARK SMILES IDX 1 1 2 2 3 3 4 4
REMARK H PARENT
REMARK Flexibility Score: inf
ROOT
ATOM      1  C   UNL     1      22.311   2.370  25.937  1.00  0.00     0.063 C 
ATOM      2  C   UNL     1      21.178   1.539  25.438  1.00  0.00     0.038 C 
ATOM      3  O   UNL     1      20.105   1.474  26.093  1.00  0.00    -0.550 OA
ATOM      4  O   UNL     1      21.285   0.875  24.222  1.00  0.00    -0.550 OA
ENDROOT
TORSDOF 0
ENDMDL
MODEL 9
REMARK VINA RESULT:    -1.627     17.789     18.066
REMARK INTER + INTRA:          -1.627
REMARK INTER:                  -1.627
REMARK INTRA:                   0.000
REMARK UNBOUND:                 0.000
REMARK SMILES CC(=O)[O-]
REMARK SMILES IDX 1 1 2 2 3 3 4 4
REMARK H PARENT
REMARK Flexibility Score: inf
ROOT
ATOM      1  C   UNL     1      19.664   3.460  25.127  1.00  0.00     0.063 C 
ATOM      2  C   UNL     1      20.596   4.170  24.205  1.00  0.00     0.038 C 
ATOM      3  O   UNL     1      20.509   5.417  24.056  1.00  0.00    -0.550 OA
ATOM      4  O   UNL     1      21.596   3.465  23.547  1.00  0.00    -0.550 OA
ENDROOT
TORSDOF 0
ENDMDL
