MODEL 1
REMARK VINA RESULT:    -3.989      0.000      0.000
REMARK INTER + INTRA:          -7.053
REMARK INTER:                  -6.088
REMARK INTRA:                  -0.965
REMARK UNBOUND:                -0.965
REMARK SMILES O=C([O-])CCCCCCCCC(=O)[O-]
REMARK SMILES IDX 7 1 6 2 5 3 4 4 2 5 1 6 3 7 8 8 9 9 10 10 11 11 12 12 13 13
REMARK SMILES IDX 14 14
REMARK H PARENT
REMARK Flexibility Score: inf
ROOT
ATOM      1  C   UNL     1     -44.345 -36.620  36.491  1.00  0.00     0.000 C 
ENDROOT
BRANCH   1   2
ATOM      2  C   UNL     1     -45.324 -37.758  36.835  1.00  0.00     0.000 C 
BRANCH   2   3
ATOM      3  C   UNL     1     -46.556 -37.268  37.616  1.00  0.00     0.006 C 
BRANCH   3   4
ATOM      4  C   UNL     1     -46.491 -37.651  39.099  1.00  0.00     0.053 C 
BRANCH   4   5
ATOM      5  C   UNL     1     -46.176 -36.470  39.964  1.00  0.00     0.041 C 
ATOM      6  O   UNL     1     -45.348 -36.578  40.907  1.00  0.00    -0.550 OA
ATOM      7  O   UNL     1     -46.824 -35.259  39.753  1.00  0.00    -0.550 OA
ENDBRANCH   4   5
ENDBRANCH   3   4
ENDBRANCH   2   3
ENDBRANCH   1   2
BRANCH   1   8
ATOM      8  C   UNL     1     -44.900 -35.198  36.708  1.00  0.00     0.000 C 
BRANCH   8   9
ATOM      9  C   UNL     1     -44.088 -34.319  37.681  1.00  0.00     0.000 C 
BRANCH   9  10
ATOM     10  C   UNL     1     -42.974 -35.055  38.446  1.00  0.00     0.006 C 
BRANCH  10  11
ATOM     11  C   UNL     1     -41.609 -34.369  38.313  1.00  0.00     0.053 C 
BRANCH  11  12
ATOM     12  C   UNL     1     -40.707 -35.170  37.429  1.00  0.00     0.041 C 
ATOM     13  O   UNL     1     -41.037 -35.409  36.237  1.00  0.00    -0.550 OA
ATOM     14  O   UNL     1     -39.524 -35.693  37.934  1.00  0.00    -0.550 OA
ENDBRANCH  11  12
ENDBRANCH  10  11
ENDBRANCH   9  10
ENDBRANCH   8   9
ENDBRANCH   1   8
TORSDOF 9
ENDMDL
MODEL 2
REMARK VINA RESULT:    -3.917      1.055      5.752
REMARK INTER + INTRA:          -6.943
REMARK INTER:                  -6.200
REMARK INTRA:                  -0.743
REMARK UNBOUND:                -0.965
REMARK SMILES O=C([O-])CCCCCCCCC(=O)[O-]
REMARK SMILES IDX 7 1 6 2 5 3 4 4 2 5 1 6 3 7 8 8 9 9 10 10 11 11 12 12 13 13
REMARK SMILES IDX 14 14
REMARK H PARENT
REMARK Flexibility Score: inf
ROOT
ATOM      1  C   UNL     1     -44.405 -34.387  37.851  1.00  0.00     0.000 C 
ENDROOT
BRANCH   1   2
ATOM      2  C   UNL     1     -43.241 -35.007  38.647  1.00  0.00     0.000 C 
BRANCH   2   3
ATOM      3  C   UNL     1     -41.885 -34.356  38.325  1.00  0.00     0.006 C 
BRANCH   3   4
ATOM      4  C   UNL     1     -41.157 -35.072  37.181  1.00  0.00     0.053 C 
BRANCH   4   5
ATOM      5  C   UNL     1     -39.806 -35.561  37.603  1.00  0.00     0.041 C 
ATOM      6  O   UNL     1     -39.495 -35.588  38.823  1.00  0.00    -0.550 OA
ATOM      7  O   UNL     1     -38.876 -35.953  36.648  1.00  0.00    -0.550 OA
ENDBRANCH   4   5
ENDBRANCH   3   4
ENDBRANCH   2   3
ENDBRANCH   1   2
BRANCH   1   8
ATOM      8  C   UNL     1     -44.902 -35.234  36.662  1.00  0.00     0.000 C 
BRANCH   8   9
ATOM      9  C   UNL     1     -44.374 -36.682  36.622  1.00  0.00     0.000 C 
BRANCH   9  10
ATOM     10  C   UNL     1     -45.399 -37.759  37.019  1.00  0.00     0.006 C 
BRANCH  10  11
ATOM     11  C   UNL     1     -46.702 -37.165  37.569  1.00  0.00     0.053 C 
BRANCH  11  12
ATOM     12  C   UNL     1     -46.837 -37.462  39.028  1.00  0.00     0.041 C 
ATOM     13  O   UNL     1     -47.807 -38.145  39.449  1.00  0.00    -0.550 OA
ATOM     14  O   UNL     1     -45.918 -36.943  39.931  1.00  0.00    -0.550 OA
ENDBRANCH  11  12
ENDBRANCH  10  11
ENDBRANCH   9  10
ENDBRANCH   8   9
ENDBRANCH   1   8
TORSDOF 9
ENDMDL
MODEL 3
REMARK VINA RESULT:    -3.872      2.139      5.792
REMARK INTER + INTRA:          -6.874
REMARK INTER:                  -6.475
REMARK INTRA:                  -0.399
REMARK UNBOUND:                -0.965
REMARK SMILES O=C([O-])CCCCCCCCC(=O)[O-]
REMARK SMILES IDX 7 1 6 2 5 3 4 4 2 5 1 6 3 7 8 8 9 9 10 10 11 11 12 12 13 13
REMARK SMILES IDX 14 14
REMARK H PARENT
REMARK Flexibility Score: inf
ROOT
ATOM      1  C   UNL     1     -41.066 -35.813  36.081  1.00  0.00     0.000 C 
ENDROOT
BRANCH   1   2
ATOM      2  C   UNL     1     -39.715 -35.746  36.818  1.00  0.00     0.000 C 
BRANCH   2   3
ATOM      3  C   UNL     1     -39.865 -35.381  38.304  1.00  0.00     0.006 C 
BRANCH   3   4
ATOM      4  C   UNL     1     -38.917 -36.191  39.197  1.00  0.00     0.053 C 
BRANCH   4   5
ATOM      5  C   UNL     1     -38.955 -35.720  40.618  1.00  0.00     0.041 C 
ATOM      6  O   UNL     1     -38.292 -36.323  41.503  1.00  0.00    -0.550 OA
ATOM      7  O   UNL     1     -39.750 -34.637  40.973  1.00  0.00    -0.550 OA
ENDBRANCH   4   5
ENDBRANCH   3   4
ENDBRANCH   2   3
ENDBRANCH   1   2
BRANCH   1   8
ATOM      8  C   UNL     1     -42.293 -35.447  36.940  1.00  0.00     0.000 C 
BRANCH   8   9
ATOM      9  C   UNL     1     -43.657 -35.620  36.241  1.00  0.00     0.000 C 
BRANCH   9  10
ATOM     10  C   UNL     1     -44.498 -36.806  36.744  1.00  0.00     0.006 C 
BRANCH  10  11
ATOM     11  C   UNL     1     -45.949 -36.416  37.057  1.00  0.00     0.053 C 
BRANCH  11  12
ATOM     12  C   UNL     1     -46.062 -35.903  38.456  1.00  0.00     0.041 C 
ATOM     13  O   UNL     1     -45.771 -36.647  39.430  1.00  0.00    -0.550 OA
ATOM     14  O   UNL     1     -46.536 -34.618  38.689  1.00  0.00    -0.550 OA
ENDBRANCH  11  12
ENDBRANCH  10  11
ENDBRANCH   9  10
ENDBRANCH   8   9
ENDBRANCH   1   8
TORSDOF 9
ENDMDL
MODEL 4
REMARK VINA RESULT:    -3.855      3.484      6.326
REMARK INTER + INTRA:          -6.848
REMARK INTER:                  -6.420
REMARK INTRA:                  -0.428
REMARK UNBOUND:                -0.965
REMARK SMILES O=C([O-])CCCCCCCCC(=O)[O-]
REMARK SMILES IDX 7 1 6 2 5 3 4 4 2 5 1 6 3 7 8 8 9 9 10 10 11 11 12 12 13 13
REMARK SMILES IDX 14 14
REMARK H PARENT
REMARK Flexibility Score: inf
ROOT
ATOM      1  C   UNL     1     -39.318 -35.807  38.457  1.00  0.00     0.000 C 
ENDROOT
BRANCH   1   2
ATOM      2  C   UNL     1     -39.396 -35.160  39.852  1.00  0.00     0.000 C 
BRANCH   2   3
ATOM      3  C   UNL     1     -38.603 -35.939  40.916  1.00  0.00     0.006 C 
BRANCH   3   4
ATOM      4  C   UNL     1     -38.148 -37.312  40.408  1.00  0.00     0.053 C 
BRANCH   4   5
ATOM      5  C   UNL     1     -38.076 -38.317  41.515  1.00  0.00     0.041 C 
ATOM      6  O   UNL     1     -37.404 -39.373  41.370  1.00  0.00    -0.550 OA
ATOM      7  O   UNL     1     -38.779 -38.107  42.695  1.00  0.00    -0.550 OA
ENDBRANCH   4   5
ENDBRANCH   3   4
ENDBRANCH   2   3
ENDBRANCH   1   2
BRANCH   1   8
ATOM      8  C   UNL     1     -40.039 -35.028  37.339  1.00  0.00     0.000 C 
BRANCH   8   9
ATOM      9  C   UNL     1     -40.743 -35.901  36.280  1.00  0.00     0.000 C 
BRANCH   9  10
ATOM     10  C   UNL     1     -42.252 -35.642  36.124  1.00  0.00     0.006 C 
BRANCH  10  11
ATOM     11  C   UNL     1     -42.928 -35.248  37.444  1.00  0.00     0.053 C 
BRANCH  11  12
ATOM     12  C   UNL     1     -44.263 -35.911  37.565  1.00  0.00     0.041 C 
ATOM     13  O   UNL     1     -44.771 -36.497  36.574  1.00  0.00    -0.550 OA
ATOM     14  O   UNL     1     -44.969 -35.839  38.759  1.00  0.00    -0.550 OA
ENDBRANCH  11  12
ENDBRANCH  10  11
ENDBRANCH   9  10
ENDBRANCH   8   9
ENDBRANCH   1   8
TORSDOF 9
ENDMDL
MODEL 5
REMARK VINA RESULT:    -3.791      3.480      5.908
REMARK INTER + INTRA:          -6.751
REMARK INTER:                  -5.991
REMARK INTRA:                  -0.760
REMARK UNBOUND:                -0.965
REMARK SMILES O=C([O-])CCCCCCCCC(=O)[O-]
REMARK SMILES IDX 7 1 6 2 5 3 4 4 2 5 1 6 3 7 8 8 9 9 10 10 11 11 12 12 13 13
REMARK SMILES IDX 14 14
REMARK H PARENT
REMARK Flexibility Score: inf
ROOT
ATOM      1  C   UNL     1     -44.092 -36.112  36.818  1.00  0.00     0.000 C 
ENDROOT
BRANCH   1   2
ATOM      2  C   UNL     1     -44.880 -34.850  36.419  1.00  0.00     0.000 C 
BRANCH   2   3
ATOM      3  C   UNL     1     -44.988 -33.828  37.563  1.00  0.00     0.006 C 
BRANCH   3   4
ATOM      4  C   UNL     1     -46.441 -33.587  37.988  1.00  0.00     0.053 C 
BRANCH   4   5
ATOM      5  C   UNL     1     -47.032 -32.397  37.297  1.00  0.00     0.041 C 
ATOM      6  O   UNL     1     -46.344 -31.737  36.474  1.00  0.00    -0.550 OA
ATOM      7  O   UNL     1     -48.330 -31.995  37.587  1.00  0.00    -0.550 OA
ENDBRANCH   4   5
ENDBRANCH   3   4
ENDBRANCH   2   3
ENDBRANCH   1   2
BRANCH   1   8
ATOM      8  C   UNL     1     -44.880 -37.433  36.701  1.00  0.00     0.000 C 
BRANCH   8   9
ATOM      9  C   UNL     1     -46.347 -37.364  37.171  1.00  0.00     0.000 C 
BRANCH   9  10
ATOM     10  C   UNL     1     -46.542 -37.368  38.697  1.00  0.00     0.006 C 
BRANCH  10  11
ATOM     11  C   UNL     1     -47.927 -36.864  39.122  1.00  0.00     0.053 C 
BRANCH  11  12
ATOM     12  C   UNL     1     -48.718 -37.970  39.742  1.00  0.00     0.041 C 
ATOM     13  O   UNL     1     -48.130 -38.947  40.276  1.00  0.00    -0.550 OA
ATOM     14  O   UNL     1     -50.106 -37.948  39.687  1.00  0.00    -0.550 OA
ENDBRANCH  11  12
ENDBRANCH  10  11
ENDBRANCH   9  10
ENDBRANCH   8   9
ENDBRANCH   1   8
TORSDOF 9
ENDMDL
MODEL 6
REMARK VINA RESULT:    -3.734      1.208      5.412
REMARK INTER + INTRA:          -6.664
REMARK INTER:                  -5.706
REMARK INTRA:                  -0.958
REMARK UNBOUND:                -0.965
REMARK SMILES O=C([O-])CCCCCCCCC(=O)[O-]
REMARK SMILES IDX 7 1 6 2 5 3 4 4 2 5 1 6 3 7 8 8 9 9 10 10 11 11 12 12 13 13
REMARK SMILES IDX 14 14
REMARK H PARENT
REMARK Flexibility Score: inf
ROOT
ATOM      1  C   UNL     1     -44.751 -35.140  36.525  1.00  0.00     0.000 C 
ENDROOT
BRANCH   1   2
ATOM      2  C   UNL     1     -44.236 -34.278  37.691  1.00  0.00     0.000 C 
BRANCH   2   3
ATOM      3  C   UNL     1     -43.518 -35.104  38.772  1.00  0.00     0.006 C 
BRANCH   3   4
ATOM      4  C   UNL     1     -42.299 -34.371  39.346  1.00  0.00     0.053 C 
BRANCH   4   5
ATOM      5  C   UNL     1     -41.248 -34.142  38.305  1.00  0.00     0.041 C 
ATOM      6  O   UNL     1     -40.873 -35.090  37.565  1.00  0.00    -0.550 OA
ATOM      7  O   UNL     1     -40.657 -32.892  38.174  1.00  0.00    -0.550 OA
ENDBRANCH   4   5
ENDBRANCH   3   4
ENDBRANCH   2   3
ENDBRANCH   1   2
BRANCH   1   8
ATOM      8  C   UNL     1     -44.453 -36.648  36.651  1.00  0.00     0.000 C 
BRANCH   8   9
ATOM      9  C   UNL     1     -45.694 -37.550  36.817  1.00  0.00     0.000 C 
BRANCH   9  10
ATOM     10  C   UNL     1     -46.161 -37.749  38.270  1.00  0.00     0.006 C 
BRANCH  10  11
ATOM     11  C   UNL     1     -47.457 -36.992  38.586  1.00  0.00     0.053 C 
BRANCH  11  12
ATOM     12  C   UNL     1     -47.169 -35.798  39.439  1.00  0.00     0.041 C 
ATOM     13  O   UNL     1     -46.620 -35.940  40.563  1.00  0.00    -0.550 OA
ATOM     14  O   UNL     1     -47.551 -34.532  39.015  1.00  0.00    -0.550 OA
ENDBRANCH  11  12
ENDBRANCH  10  11
ENDBRANCH   9  10
ENDBRANCH   8   9
ENDBRANCH   1   8
TORSDOF 9
ENDMDL
MODEL 7
REMARK VINA RESULT:    -3.712      2.780      4.597
REMARK INTER + INTRA:          -6.629
REMARK INTER:                  -5.652
REMARK INTRA:                  -0.978
REMARK UNBOUND:                -0.965
REMARK SMILES O=C([O-])CCCCCCCCC(=O)[O-]
REMARK SMILES IDX 7 1 6 2 5 3 4 4 2 5 1 6 3 7 8 8 9 9 10 10 11 11 12 12 13 13
REMARK SMILES IDX 14 14
REMARK H PARENT
REMARK Flexibility Score: inf
ROOT
ATOM      1  C   UNL     1     -45.138 -37.683  36.743  1.00  0.00     0.000 C 
ENDROOT
BRANCH   1   2
ATOM      2  C   UNL     1     -44.158 -36.504  36.602  1.00  0.00     0.000 C 
BRANCH   2   3
ATOM      3  C   UNL     1     -44.871 -35.147  36.479  1.00  0.00     0.006 C 
BRANCH   3   4
ATOM      4  C   UNL     1     -44.363 -34.131  37.510  1.00  0.00     0.053 C 
BRANCH   4   5
ATOM      5  C   UNL     1     -45.305 -32.976  37.662  1.00  0.00     0.041 C 
ATOM      6  O   UNL     1     -44.926 -31.923  38.239  1.00  0.00    -0.550 OA
ATOM      7  O   UNL     1     -46.610 -33.076  37.198  1.00  0.00    -0.550 OA
ENDBRANCH   4   5
ENDBRANCH   3   4
ENDBRANCH   2   3
ENDBRANCH   1   2
BRANCH   1   8
ATOM      8  C   UNL     1     -46.468 -37.341  37.445  1.00  0.00     0.000 C 
BRANCH   8   9
ATOM      9  C   UNL     1     -46.505 -37.634  38.959  1.00  0.00     0.000 C 
BRANCH   9  10
ATOM     10  C   UNL     1     -46.646 -36.393  39.857  1.00  0.00     0.006 C 
BRANCH  10  11
ATOM     11  C   UNL     1     -45.332 -36.006  40.547  1.00  0.00     0.053 C 
BRANCH  11  12
ATOM     12  C   UNL     1     -45.420 -34.617  41.096  1.00  0.00     0.041 C 
ATOM     13  O   UNL     1     -44.413 -33.861  41.068  1.00  0.00    -0.550 OA
ATOM     14  O   UNL     1     -46.598 -34.175  41.683  1.00  0.00    -0.550 OA
ENDBRANCH  11  12
ENDBRANCH  10  11
ENDBRANCH   9  10
ENDBRANCH   8   9
ENDBRANCH   1   8
TORSDOF 9
ENDMDL
MODEL 8
REMARK VINA RESULT:    -3.690      2.536      2.855
REMARK INTER + INTRA:          -6.596
REMARK INTER:                  -5.632
REMARK INTRA:                  -0.965
REMARK UNBOUND:                -0.965
REMARK SMILES O=C([O-])CCCCCCCCC(=O)[O-]
REMARK SMILES IDX 7 1 6 2 5 3 4 4 2 5 1 6 3 7 8 8 9 9 10 10 11 11 12 12 13 13
REMARK SMILES IDX 14 14
REMARK H PARENT
REMARK Flexibility Score: inf
ROOT
ATOM      1  C   UNL     1     -44.296 -36.591  36.676  1.00  0.00     0.000 C 
ENDROOT
BRANCH   1   2
ATOM      2  C   UNL     1     -45.361 -37.701  36.724  1.00  0.00     0.000 C 
BRANCH   2   3
ATOM      3  C   UNL     1     -46.595 -37.308  37.554  1.00  0.00     0.006 C 
BRANCH   3   4
ATOM      4  C   UNL     1     -46.476 -37.756  39.016  1.00  0.00     0.053 C 
BRANCH   4   5
ATOM      5  C   UNL     1     -46.296 -36.591  39.940  1.00  0.00     0.041 C 
ATOM      6  O   UNL     1     -46.951 -35.531  39.758  1.00  0.00    -0.550 OA
ATOM      7  O   UNL     1     -45.377 -36.662  40.980  1.00  0.00    -0.550 OA
ENDBRANCH   4   5
ENDBRANCH   3   4
ENDBRANCH   2   3
ENDBRANCH   1   2
BRANCH   1   8
ATOM      8  C   UNL     1     -44.854 -35.161  36.533  1.00  0.00     0.000 C 
BRANCH   8   9
ATOM      9  C   UNL     1     -44.450 -34.184  37.657  1.00  0.00     0.000 C 
BRANCH   9  10
ATOM     10  C   UNL     1     -43.384 -34.718  38.629  1.00  0.00     0.006 C 
BRANCH  10  11
ATOM     11  C   UNL     1     -42.715 -33.606  39.447  1.00  0.00     0.053 C 
BRANCH  11  12
ATOM     12  C   UNL     1     -43.734 -32.868  40.255  1.00  0.00     0.041 C 
ATOM     13  O   UNL     1     -43.867 -31.623  40.121  1.00  0.00    -0.550 OA
ATOM     14  O   UNL     1     -44.502 -33.545  41.193  1.00  0.00    -0.550 OA
ENDBRANCH  11  12
ENDBRANCH  10  11
ENDBRANCH   9  10
ENDBRANCH   8   9
ENDBRANCH   1   8
TORSDOF 9
ENDMDL
MODEL 9
REMARK VINA RESULT:    -3.622      2.251      2.975
REMARK INTER + INTRA:          -6.492
REMARK INTER:                  -6.062
REMARK INTRA:                  -0.430
REMARK UNBOUND:                -0.965
REMARK SMILES O=C([O-])CCCCCCCCC(=O)[O-]
REMARK SMILES IDX 7 1 6 2 5 3 4 4 2 5 1 6 3 7 8 8 9 9 10 10 11 11 12 12 13 13
REMARK SMILES IDX 14 14
REMARK H PARENT
REMARK Flexibility Score: inf
ROOT
ATOM      1  C   UNL     1     -43.759 -36.586  36.483  1.00  0.00     0.000 C 
ENDROOT
BRANCH   1   2
ATOM      2  C   UNL     1     -45.140 -36.067  36.924  1.00  0.00     0.000 C 
BRANCH   2   3
ATOM      3  C   UNL     1     -45.254 -34.535  36.846  1.00  0.00     0.006 C 
BRANCH   3   4
ATOM      4  C   UNL     1     -45.478 -33.901  38.225  1.00  0.00     0.053 C 
BRANCH   4   5
ATOM      5  C   UNL     1     -46.927 -33.621  38.477  1.00  0.00     0.041 C 
ATOM      6  O   UNL     1     -47.591 -34.365  39.246  1.00  0.00    -0.550 OA
ATOM      7  O   UNL     1     -47.554 -32.560  37.836  1.00  0.00    -0.550 OA
ENDBRANCH   4   5
ENDBRANCH   3   4
ENDBRANCH   2   3
ENDBRANCH   1   2
BRANCH   1   8
ATOM      8  C   UNL     1     -42.665 -35.505  36.367  1.00  0.00     0.000 C 
BRANCH   8   9
ATOM      9  C   UNL     1     -41.246 -36.036  36.081  1.00  0.00     0.000 C 
BRANCH   9  10
ATOM     10  C   UNL     1     -40.114 -35.289  36.808  1.00  0.00     0.006 C 
BRANCH  10  11
ATOM     11  C   UNL     1     -40.451 -34.978  38.272  1.00  0.00     0.053 C 
BRANCH  11  12
ATOM     12  C   UNL     1     -40.674 -33.511  38.457  1.00  0.00     0.041 C 
ATOM     13  O   UNL     1     -39.942 -32.679  37.859  1.00  0.00    -0.550 OA
ATOM     14  O   UNL     1     -41.658 -33.061  39.327  1.00  0.00    -0.550 OA
ENDBRANCH  11  12
ENDBRANCH  10  11
ENDBRANCH   9  10
ENDBRANCH   8   9
ENDBRANCH   1   8
TORSDOF 9
ENDMDL
