MODEL 1
REMARK VINA RESULT:    -3.969      0.000      0.000
REMARK INTER + INTRA:         -10.366
REMARK INTER:                  -8.377
REMARK INTRA:                  -1.989
REMARK UNBOUND:                -1.989
REMARK SMILES CCC(=O)CCCCC[C@H]1NC(=O)[C@@H]2CCCCN2C(=O)[C@@H]([C@H](C)CC)NC(=O)[C@@H](Cc2cn(OC)c3ccccc23)NC1=O
REMARK SMILES IDX 9 1 10 2 44 3 43 4 45 6 30 7 28 8 27 9 29 11 22 12 23 14
REMARK SMILES IDX 24 15 25 16 26 17 31 18 32 19 33 20 42 21 34 22 37 23 41 24
REMARK SMILES IDX 38 25 40 26 39 27 35 28 36 29 11 30 12 31 13 33 14 34 19 35
REMARK SMILES IDX 15 36 18 37 16 38 17 39 20 40 21 41 8 43 7 44 6 45 5 46 3 47
REMARK SMILES IDX 4 48 2 49 1 50
REMARK H PARENT 43 5 27 10 11 32
REMARK Flexibility Score: 80.00
ROOT
ATOM      1  C   UNL     1      65.054  29.075  48.096  1.00  0.00     0.035 C 
ENDROOT
BRANCH   1   2
ATOM      2  C   UNL     1      64.593  29.926  49.318  1.00  0.00     0.171 C 
BRANCH   2   3
ATOM      3  C   UNL     1      63.330  29.382  49.972  1.00  0.00     0.243 C 
ATOM      4  N   UNL     1      62.159  30.194  50.218  1.00  0.00    -0.342 N 
ATOM      5  H   UNL     1      61.884  30.950  49.559  1.00  0.00     0.164 HD
ATOM      6  O   UNL     1      63.407  28.210  50.429  1.00  0.00    -0.273 OA
BRANCH   4   7
ATOM      7  C   UNL     1      61.368  30.001  51.496  1.00  0.00     0.175 C 
BRANCH   7   8
ATOM      8  C   UNL     1      61.687  31.121  52.474  1.00  0.00     0.243 C 
ATOM      9  N   UNL     1      62.807  32.009  52.252  1.00  0.00    -0.342 N 
ATOM     10  H   UNL     1      63.667  31.539  51.905  1.00  0.00     0.164 HD
ATOM     11  O   UNL     1      60.965  31.316  53.500  1.00  0.00    -0.273 OA
BRANCH   9  12
ATOM     12  C   UNL     1      62.775  33.478  52.284  1.00  0.00     0.174 CG0
ATOM     13  G   UNL     1      63.060  33.836  50.876  1.00  0.00     0.000 G0
BRANCH  12  14
ATOM     14  C   UNL     1      61.474  34.185  52.830  1.00  0.00     0.018 C 
ATOM     15  C   UNL     1      60.991  35.332  51.922  1.00  0.00     0.010 C 
BRANCH  14  16
ATOM     16  C   UNL     1      61.457  34.635  54.342  1.00  0.00     0.002 C 
ATOM     17  C   UNL     1      60.241  34.262  55.227  1.00  0.00     0.004 C 
ENDBRANCH  14  16
ENDBRANCH  12  14
ENDBRANCH   9  12
ENDBRANCH   7   8
BRANCH   7  18
ATOM     18  C   UNL     1      59.854  29.880  51.172  1.00  0.00     0.073 C 
BRANCH  18  19
ATOM     19  C   UNL     1      59.364  28.440  51.078  1.00  0.00    -0.016 A 
ATOM     20  C   UNL     1      60.120  27.300  51.309  1.00  0.00     0.134 A 
ATOM     21  C   UNL     1      58.055  28.003  50.946  1.00  0.00     0.006 A 
ATOM     22  N   UNL     1      59.328  26.195  51.291  1.00  0.00    -0.191 N 
ATOM     23  C   UNL     1      58.062  26.638  51.103  1.00  0.00     0.087 A 
ATOM     24  C   UNL     1      56.850  28.694  50.750  1.00  0.00     0.011 A 
ATOM     25  C   UNL     1      56.904  25.875  51.063  1.00  0.00     0.030 A 
ATOM     26  C   UNL     1      55.657  27.948  50.729  1.00  0.00     0.001 A 
ATOM     27  C   UNL     1      55.679  26.551  50.892  1.00  0.00     0.002 A 
BRANCH  22  28
ATOM     28  O   UNL     1      59.651  24.914  51.656  1.00  0.00    -0.417 OA
ATOM     29  C   UNL     1      60.290  24.010  50.760  1.00  0.00     0.313 C 
ENDBRANCH  22  28
ENDBRANCH  18  19
ENDBRANCH   7  18
ENDBRANCH   4   7
ENDBRANCH   2   3
BRANCH   2  30
ATOM     30  N   UNL     1      64.484  31.359  48.964  1.00  0.00    -0.343 N 
ATOM     31  C   UNL     1      65.234  32.357  49.644  1.00  0.00     0.243 C 
ATOM     32  H   UNL     1      64.034  31.596  48.038  1.00  0.00     0.164 HD
ATOM     33  O   UNL     1      65.955  32.098  50.672  1.00  0.00    -0.273 OA
BRANCH  31  34
ATOM     34  C   UNL     1      64.981  33.812  49.277  1.00  0.00     0.174 C 
ATOM     35  N   UNL     1      64.319  34.439  50.454  1.00  0.00    -0.329 N 
ATOM     36  C   UNL     1      66.216  34.626  48.867  1.00  0.00     0.035 C 
ATOM     37  C   UNL     1      64.660  35.798  50.901  1.00  0.00     0.120 C 
ATOM     38  C   UNL     1      67.048  35.349  50.037  1.00  0.00     0.004 C 
ATOM     39  C   UNL     1      66.210  35.882  51.247  1.00  0.00     0.022 C 
BRANCH  35  40
ATOM     40  C   UNL     1      63.098  33.800  50.864  1.00  0.00     0.246 CG0
ATOM     41  O   UNL     1      62.261  33.365  49.934  1.00  0.00    -0.272 OA
ATOM     42  G   UNL     1      62.767  33.494  52.274  1.00  0.00     0.000 G0
ENDBRANCH  35  40
ENDBRANCH  31  34
ENDBRANCH   2  30
ENDBRANCH   1   2
BRANCH   1  43
ATOM     43  C   UNL     1      66.356  29.583  47.453  1.00  0.00     0.003 C 
BRANCH  43  44
ATOM     44  C   UNL     1      67.519  28.584  47.654  1.00  0.00     0.001 C 
BRANCH  44  45
ATOM     45  C   UNL     1      68.248  28.870  48.974  1.00  0.00     0.008 C 
BRANCH  45  46
ATOM     46  C   UNL     1      68.498  30.369  49.165  1.00  0.00     0.075 C 
BRANCH  46  47
ATOM     47  C   UNL     1      69.814  30.734  48.527  1.00  0.00     0.132 C 
ATOM     48  O   UNL     1      70.796  30.024  48.704  1.00  0.00    -0.300 OA
BRANCH  47  49
ATOM     49  C   UNL     1      69.906  32.054  47.796  1.00  0.00     0.072 C 
ATOM     50  C   UNL     1      68.571  32.422  47.174  1.00  0.00     0.012 C 
ENDBRANCH  47  49
ENDBRANCH  46  47
ENDBRANCH  45  46
ENDBRANCH  44  45
ENDBRANCH  43  44
ENDBRANCH   1  43
TORSDOF 12
ENDMDL
MODEL 2
REMARK VINA RESULT:    -3.900      1.892      2.582
REMARK INTER + INTRA:         -10.222
REMARK INTER:                  -8.876
REMARK INTRA:                  -1.346
REMARK UNBOUND:                -1.989
REMARK SMILES CCC(=O)CCCCC[C@H]1NC(=O)[C@@H]2CCCCN2C(=O)[C@@H]([C@H](C)CC)NC(=O)[C@@H](Cc2cn(OC)c3ccccc23)NC1=O
REMARK SMILES IDX 9 1 10 2 44 3 43 4 45 6 30 7 28 8 27 9 29 11 22 12 23 14
REMARK SMILES IDX 24 15 25 16 26 17 31 18 32 19 33 20 42 21 34 22 37 23 41 24
REMARK SMILES IDX 38 25 40 26 39 27 35 28 36 29 11 30 12 31 13 33 14 34 19 35
REMARK SMILES IDX 15 36 18 37 16 38 17 39 20 40 21 41 8 43 7 44 6 45 5 46 3 47
REMARK SMILES IDX 4 48 2 49 1 50
REMARK H PARENT 43 5 27 10 11 32
REMARK Flexibility Score: 80.00
ROOT
ATOM      1  C   UNL     1      66.020  28.346  47.420  1.00  0.00     0.035 C 
ENDROOT
BRANCH   1   2
ATOM      2  C   UNL     1      65.651  29.297  48.598  1.00  0.00     0.171 C 
BRANCH   2   3
ATOM      3  C   UNL     1      64.381  28.873  49.323  1.00  0.00     0.243 C 
ATOM      4  N   UNL     1      63.273  29.772  49.558  1.00  0.00    -0.342 N 
ATOM      5  H   UNL     1      63.022  30.506  48.865  1.00  0.00     0.164 HD
ATOM      6  O   UNL     1      64.401  27.726  49.845  1.00  0.00    -0.273 OA
BRANCH   4   7
ATOM      7  C   UNL     1      62.518  29.702  50.870  1.00  0.00     0.175 C 
BRANCH   7   8
ATOM      8  C   UNL     1      62.991  30.812  51.796  1.00  0.00     0.243 C 
ATOM      9  N   UNL     1      64.142  31.622  51.462  1.00  0.00    -0.342 N 
ATOM     10  H   UNL     1      64.936  31.094  51.052  1.00  0.00     0.164 HD
ATOM     11  O   UNL     1      62.375  31.065  52.877  1.00  0.00    -0.273 OA
BRANCH   9  12
ATOM     12  C   UNL     1      64.206  33.090  51.471  1.00  0.00     0.174 CG0
ATOM     13  G   UNL     1      64.410  33.412  50.041  1.00  0.00     0.000 G0
BRANCH  12  14
ATOM     14  C   UNL     1      62.995  33.887  52.096  1.00  0.00     0.018 C 
ATOM     15  C   UNL     1      62.828  35.293  51.489  1.00  0.00     0.010 C 
BRANCH  14  16
ATOM     16  C   UNL     1      62.885  33.950  53.669  1.00  0.00     0.002 C 
ATOM     17  C   UNL     1      62.762  35.330  54.363  1.00  0.00     0.004 C 
ENDBRANCH  14  16
ENDBRANCH  12  14
ENDBRANCH   9  12
ENDBRANCH   7   8
BRANCH   7  18
ATOM     18  C   UNL     1      60.988  29.734  50.606  1.00  0.00     0.073 C 
BRANCH  18  19
ATOM     19  C   UNL     1      60.367  28.350  50.455  1.00  0.00    -0.016 A 
ATOM     20  C   UNL     1      61.050  27.144  50.426  1.00  0.00     0.134 A 
ATOM     21  C   UNL     1      59.022  28.019  50.521  1.00  0.00     0.006 A 
ATOM     22  N   UNL     1      60.176  26.103  50.439  1.00  0.00    -0.191 N 
ATOM     23  C   UNL     1      58.939  26.648  50.532  1.00  0.00     0.087 A 
ATOM     24  C   UNL     1      57.865  28.806  50.620  1.00  0.00     0.011 A 
ATOM     25  C   UNL     1      57.731  25.973  50.626  1.00  0.00     0.030 A 
ATOM     26  C   UNL     1      56.627  28.148  50.741  1.00  0.00     0.001 A 
ATOM     27  C   UNL     1      56.557  26.743  50.753  1.00  0.00     0.002 A 
BRANCH  22  28
ATOM     28  O   UNL     1      60.447  24.770  50.606  1.00  0.00    -0.417 OA
ATOM     29  C   UNL     1      61.767  24.289  50.837  1.00  0.00     0.313 C 
ENDBRANCH  22  28
ENDBRANCH  18  19
ENDBRANCH   7  18
ENDBRANCH   4   7
ENDBRANCH   2   3
BRANCH   2  30
ATOM     30  N   UNL     1      65.617  30.710  48.158  1.00  0.00    -0.343 N 
ATOM     31  C   UNL     1      66.403  31.710  48.790  1.00  0.00     0.243 C 
ATOM     32  H   UNL     1      65.193  30.911  47.210  1.00  0.00     0.164 HD
ATOM     33  O   UNL     1      67.095  31.480  49.845  1.00  0.00    -0.273 OA
BRANCH  31  34
ATOM     34  C   UNL     1      66.225  33.151  48.333  1.00  0.00     0.174 C 
ATOM     35  N   UNL     1      65.680  33.903  49.496  1.00  0.00    -0.329 N 
ATOM     36  C   UNL     1      67.485  33.846  47.796  1.00  0.00     0.035 C 
ATOM     37  C   UNL     1      66.137  35.262  49.822  1.00  0.00     0.120 C 
ATOM     38  C   UNL     1      68.433  34.587  48.861  1.00  0.00     0.004 C 
ATOM     39  C   UNL     1      67.707  35.260  50.074  1.00  0.00     0.022 C 
BRANCH  35  40
ATOM     40  C   UNL     1      64.446  33.382  50.019  1.00  0.00     0.246 CG0
ATOM     41  O   UNL     1      63.491  33.030  49.171  1.00  0.00    -0.272 OA
ATOM     42  G   UNL     1      64.217  33.105  51.455  1.00  0.00     0.000 G0
ENDBRANCH  35  40
ENDBRANCH  31  34
ENDBRANCH   2  30
ENDBRANCH   1   2
BRANCH   1  43
ATOM     43  C   UNL     1      67.250  28.809  46.620  1.00  0.00     0.003 C 
BRANCH  43  44
ATOM     44  C   UNL     1      68.112  27.611  46.156  1.00  0.00     0.001 C 
BRANCH  44  45
ATOM     45  C   UNL     1      68.828  26.972  47.354  1.00  0.00     0.008 C 
BRANCH  45  46
ATOM     46  C   UNL     1      68.477  25.488  47.493  1.00  0.00     0.075 C 
BRANCH  46  47
ATOM     47  C   UNL     1      69.311  24.886  48.595  1.00  0.00     0.132 C 
ATOM     48  O   UNL     1      70.333  24.270  48.321  1.00  0.00    -0.300 OA
BRANCH  47  49
ATOM     49  C   UNL     1      68.774  24.950  50.007  1.00  0.00     0.072 C 
ATOM     50  C   UNL     1      67.394  25.580  50.033  1.00  0.00     0.012 C 
ENDBRANCH  47  49
ENDBRANCH  46  47
ENDBRANCH  45  46
ENDBRANCH  44  45
ENDBRANCH  43  44
ENDBRANCH   1  43
TORSDOF 12
ENDMDL
MODEL 3
REMARK VINA RESULT:    -3.894      5.256      9.326
REMARK INTER + INTRA:         -10.208
REMARK INTER:                  -8.464
REMARK INTRA:                  -1.744
REMARK UNBOUND:                -1.989
REMARK SMILES CCC(=O)CCCCC[C@H]1NC(=O)[C@@H]2CCCCN2C(=O)[C@@H]([C@H](C)CC)NC(=O)[C@@H](Cc2cn(OC)c3ccccc23)NC1=O
REMARK SMILES IDX 9 1 10 2 44 3 43 4 45 6 30 7 28 8 27 9 29 11 22 12 23 14
REMARK SMILES IDX 24 15 25 16 26 17 31 18 32 19 33 20 42 21 34 22 37 23 41 24
REMARK SMILES IDX 38 25 40 26 39 27 35 28 36 29 11 30 12 31 13 33 14 34 19 35
REMARK SMILES IDX 15 36 18 37 16 38 17 39 20 40 21 41 8 43 7 44 6 45 5 46 3 47
REMARK SMILES IDX 4 48 2 49 1 50
REMARK H PARENT 43 5 27 10 11 32
REMARK Flexibility Score: 80.00
ROOT
ATOM      1  C   UNL     1      60.796  22.987  50.346  1.00  0.00     0.035 C 
ENDROOT
BRANCH   1   2
ATOM      2  C   UNL     1      61.110  23.653  51.719  1.00  0.00     0.171 C 
BRANCH   2   3
ATOM      3  C   UNL     1      59.914  23.652  52.662  1.00  0.00     0.243 C 
ATOM      4  N   UNL     1      58.734  24.455  52.436  1.00  0.00    -0.342 N 
ATOM      5  H   UNL     1      58.387  24.640  51.473  1.00  0.00     0.164 HD
ATOM      6  O   UNL     1      60.064  23.019  53.742  1.00  0.00    -0.273 OA
BRANCH   4   7
ATOM      7  C   UNL     1      58.037  25.112  53.611  1.00  0.00     0.175 C 
BRANCH   7   8
ATOM      8  C   UNL     1      58.087  26.624  53.461  1.00  0.00     0.243 C 
ATOM      9  N   UNL     1      58.908  27.246  52.446  1.00  0.00    -0.342 N 
ATOM     10  H   UNL     1      59.844  26.813  52.324  1.00  0.00     0.164 HD
ATOM     11  O   UNL     1      57.393  27.377  54.212  1.00  0.00    -0.273 OA
BRANCH   9  12
ATOM     12  C   UNL     1      58.476  28.267  51.480  1.00  0.00     0.174 CG0
ATOM     13  G   UNL     1      59.674  28.428  50.626  1.00  0.00     0.000 G0
BRANCH  12  14
ATOM     14  C   UNL     1      57.172  27.992  50.636  1.00  0.00     0.018 C 
ATOM     15  C   UNL     1      55.966  28.825  51.109  1.00  0.00     0.010 C 
BRANCH  14  16
ATOM     16  C   UNL     1      56.746  26.490  50.401  1.00  0.00     0.002 C 
ATOM     17  C   UNL     1      55.279  26.174  50.016  1.00  0.00     0.004 C 
ENDBRANCH  14  16
ENDBRANCH  12  14
ENDBRANCH   9  12
ENDBRANCH   7   8
BRANCH   7  18
ATOM     18  C   UNL     1      56.594  24.555  53.754  1.00  0.00     0.073 C 
BRANCH  18  19
ATOM     19  C   UNL     1      56.425  23.592  54.923  1.00  0.00    -0.016 A 
ATOM     20  C   UNL     1      56.493  23.916  56.269  1.00  0.00     0.134 A 
ATOM     21  C   UNL     1      55.981  22.279  54.873  1.00  0.00     0.006 A 
ATOM     22  N   UNL     1      56.140  22.848  57.033  1.00  0.00    -0.191 N 
ATOM     23  C   UNL     1      55.795  21.863  56.169  1.00  0.00     0.087 A 
ATOM     24  C   UNL     1      55.677  21.430  53.799  1.00  0.00     0.011 A 
ATOM     25  C   UNL     1      55.319  20.599  56.487  1.00  0.00     0.030 A 
ATOM     26  C   UNL     1      55.170  20.150  54.091  1.00  0.00     0.001 A 
ATOM     27  C   UNL     1      54.984  19.738  55.423  1.00  0.00     0.002 A 
BRANCH  22  28
ATOM     28  O   UNL     1      55.900  22.812  58.381  1.00  0.00    -0.417 OA
ATOM     29  C   UNL     1      55.522  23.973  59.114  1.00  0.00     0.313 C 
ENDBRANCH  22  28
ENDBRANCH  18  19
ENDBRANCH   7  18
ENDBRANCH   4   7
ENDBRANCH   2   3
BRANCH   2  30
ATOM     30  N   UNL     1      61.699  24.999  51.542  1.00  0.00    -0.343 N 
ATOM     31  C   UNL     1      61.129  25.955  50.658  1.00  0.00     0.243 C 
ATOM     32  H   UNL     1      62.396  25.322  52.268  1.00  0.00     0.164 HD
ATOM     33  O   UNL     1      60.150  25.677  49.879  1.00  0.00    -0.273 OA
BRANCH  31  34
ATOM     34  C   UNL     1      61.862  27.275  50.468  1.00  0.00     0.174 C 
ATOM     35  N   UNL     1      61.032  28.322  51.125  1.00  0.00    -0.329 N 
ATOM     36  C   UNL     1      63.301  27.328  51.000  1.00  0.00     0.035 C 
ATOM     37  C   UNL     1      61.637  29.409  51.910  1.00  0.00     0.120 C 
ATOM     38  C   UNL     1      63.507  27.748  52.538  1.00  0.00     0.004 C 
ATOM     39  C   UNL     1      62.497  28.802  53.102  1.00  0.00     0.022 C 
BRANCH  35  40
ATOM     40  C   UNL     1      59.685  28.414  50.631  1.00  0.00     0.246 CG0
ATOM     41  O   UNL     1      59.491  28.561  49.329  1.00  0.00    -0.272 OA
ATOM     42  G   UNL     1      58.487  28.241  51.482  1.00  0.00     0.000 G0
ENDBRANCH  35  40
ENDBRANCH  31  34
ENDBRANCH   2  30
ENDBRANCH   1   2
BRANCH   1  43
ATOM     43  C   UNL     1      61.608  21.706  50.086  1.00  0.00     0.003 C 
BRANCH  43  44
ATOM     44  C   UNL     1      61.292  20.610  51.130  1.00  0.00     0.001 C 
BRANCH  44  45
ATOM     45  C   UNL     1      60.992  19.277  50.431  1.00  0.00     0.008 C 
BRANCH  45  46
ATOM     46  C   UNL     1      60.015  18.422  51.243  1.00  0.00     0.075 C 
BRANCH  46  47
ATOM     47  C   UNL     1      59.163  17.615  50.296  1.00  0.00     0.132 C 
ATOM     48  O   UNL     1      59.650  17.174  49.263  1.00  0.00    -0.300 OA
BRANCH  47  49
ATOM     49  C   UNL     1      57.686  17.497  50.596  1.00  0.00     0.072 C 
ATOM     50  C   UNL     1      57.081  18.859  50.881  1.00  0.00     0.012 C 
ENDBRANCH  47  49
ENDBRANCH  46  47
ENDBRANCH  45  46
ENDBRANCH  44  45
ENDBRANCH  43  44
ENDBRANCH   1  43
TORSDOF 12
ENDMDL
MODEL 4
REMARK VINA RESULT:    -3.775     10.161     13.593
REMARK INTER + INTRA:          -9.958
REMARK INTER:                  -8.130
REMARK INTRA:                  -1.829
REMARK UNBOUND:                -1.989
REMARK SMILES CCC(=O)CCCCC[C@H]1NC(=O)[C@@H]2CCCCN2C(=O)[C@@H]([C@H](C)CC)NC(=O)[C@@H](Cc2cn(OC)c3ccccc23)NC1=O
REMARK SMILES IDX 9 1 10 2 44 3 43 4 45 6 30 7 28 8 27 9 29 11 22 12 23 14
REMARK SMILES IDX 24 15 25 16 26 17 31 18 32 19 33 20 42 21 34 22 37 23 41 24
REMARK SMILES IDX 38 25 40 26 39 27 35 28 36 29 11 30 12 31 13 33 14 34 19 35
REMARK SMILES IDX 15 36 18 37 16 38 17 39 20 40 21 41 8 43 7 44 6 45 5 46 3 47
REMARK SMILES IDX 4 48 2 49 1 50
REMARK H PARENT 43 5 27 10 11 32
REMARK Flexibility Score: 80.00
ROOT
ATOM      1  C   UNL     1      56.455  27.655  61.431  1.00  0.00     0.035 C 
ENDROOT
BRANCH   1   2
ATOM      2  C   UNL     1      57.867  27.302  60.876  1.00  0.00     0.171 C 
BRANCH   2   3
ATOM      3  C   UNL     1      58.519  26.142  61.617  1.00  0.00     0.243 C 
ATOM      4  N   UNL     1      59.876  26.190  62.114  1.00  0.00    -0.342 N 
ATOM      5  H   UNL     1      60.284  27.076  62.475  1.00  0.00     0.164 HD
ATOM      6  O   UNL     1      57.860  25.069  61.648  1.00  0.00    -0.273 OA
BRANCH   4   7
ATOM      7  C   UNL     1      60.748  24.953  62.029  1.00  0.00     0.175 C 
BRANCH   7   8
ATOM      8  C   UNL     1      61.819  25.150  60.967  1.00  0.00     0.243 C 
ATOM      9  N   UNL     1      61.730  26.230  60.009  1.00  0.00    -0.342 N 
ATOM     10  H   UNL     1      60.776  26.394  59.633  1.00  0.00     0.164 HD
ATOM     11  O   UNL     1      62.828  24.381  60.909  1.00  0.00    -0.273 OA
BRANCH   9  12
ATOM     12  C   UNL     1      62.788  27.197  59.685  1.00  0.00     0.174 CG0
ATOM     13  G   UNL     1      62.242  28.462  60.226  1.00  0.00     0.000 G0
BRANCH  12  14
ATOM     14  C   UNL     1      64.250  26.907  60.202  1.00  0.00     0.018 C 
ATOM     15  C   UNL     1      65.047  28.192  60.495  1.00  0.00     0.010 C 
BRANCH  14  16
ATOM     16  C   UNL     1      65.134  25.885  59.386  1.00  0.00     0.002 C 
ATOM     17  C   UNL     1      66.620  26.224  59.112  1.00  0.00     0.004 C 
ENDBRANCH  14  16
ENDBRANCH  12  14
ENDBRANCH   9  12
ENDBRANCH   7   8
BRANCH   7  18
ATOM     18  C   UNL     1      61.327  24.612  63.429  1.00  0.00     0.073 C 
BRANCH  18  19
ATOM     19  C   UNL     1      61.048  23.181  63.871  1.00  0.00    -0.016 A 
ATOM     20  C   UNL     1      60.058  22.347  63.374  1.00  0.00     0.134 A 
ATOM     21  C   UNL     1      61.836  22.384  64.689  1.00  0.00     0.006 A 
ATOM     22  N   UNL     1      60.196  21.092  63.880  1.00  0.00    -0.191 N 
ATOM     23  C   UNL     1      61.306  21.117  64.655  1.00  0.00     0.087 A 
ATOM     24  C   UNL     1      63.002  22.653  65.421  1.00  0.00     0.011 A 
ATOM     25  C   UNL     1      61.873  20.052  65.341  1.00  0.00     0.030 A 
ATOM     26  C   UNL     1      63.612  21.586  66.107  1.00  0.00     0.001 A 
ATOM     27  C   UNL     1      63.059  20.293  66.063  1.00  0.00     0.002 A 
BRANCH  22  28
ATOM     28  O   UNL     1      59.544  19.949  63.500  1.00  0.00    -0.417 OA
ATOM     29  C   UNL     1      58.263  19.978  62.880  1.00  0.00     0.313 C 
ENDBRANCH  22  28
ENDBRANCH  18  19
ENDBRANCH   7  18
ENDBRANCH   4   7
ENDBRANCH   2   3
BRANCH   2  30
ATOM     30  N   UNL     1      58.734  28.501  60.811  1.00  0.00    -0.343 N 
ATOM     31  C   UNL     1      59.442  28.850  59.630  1.00  0.00     0.243 C 
ATOM     32  H   UNL     1      58.617  29.224  61.573  1.00  0.00     0.164 HD
ATOM     33  O   UNL     1      59.469  28.095  58.593  1.00  0.00    -0.273 OA
BRANCH  31  34
ATOM     34  C   UNL     1      60.385  30.042  59.689  1.00  0.00     0.174 C 
ATOM     35  N   UNL     1      61.741  29.530  59.353  1.00  0.00    -0.329 N 
ATOM     36  C   UNL     1      60.027  31.229  58.783  1.00  0.00     0.035 C 
ATOM     37  C   UNL     1      62.666  30.291  58.499  1.00  0.00     0.120 C 
ATOM     38  C   UNL     1      60.588  31.206  57.277  1.00  0.00     0.004 C 
ATOM     39  C   UNL     1      61.998  30.556  57.080  1.00  0.00     0.022 C 
BRANCH  35  40
ATOM     40  C   UNL     1      62.209  28.471  60.207  1.00  0.00     0.246 CG0
ATOM     41  O   UNL     1      62.003  28.565  61.512  1.00  0.00    -0.272 OA
ATOM     42  G   UNL     1      62.812  27.218  59.701  1.00  0.00     0.000 G0
ENDBRANCH  35  40
ENDBRANCH  31  34
ENDBRANCH   2  30
ENDBRANCH   1   2
BRANCH   1  43
ATOM     43  C   UNL     1      55.311  27.309  60.462  1.00  0.00     0.003 C 
BRANCH  43  44
ATOM     44  C   UNL     1      55.795  27.294  58.993  1.00  0.00     0.001 C 
BRANCH  44  45
ATOM     45  C   UNL     1      54.595  27.271  58.036  1.00  0.00     0.008 C 
BRANCH  45  46
ATOM     46  C   UNL     1      54.565  28.513  57.140  1.00  0.00     0.075 C 
BRANCH  46  47
ATOM     47  C   UNL     1      54.573  29.745  58.007  1.00  0.00     0.132 C 
ATOM     48  O   UNL     1      53.749  29.865  58.906  1.00  0.00    -0.300 OA
BRANCH  47  49
ATOM     49  C   UNL     1      55.521  30.864  57.642  1.00  0.00     0.072 C 
ATOM     50  C   UNL     1      56.739  30.325  56.915  1.00  0.00     0.012 C 
ENDBRANCH  47  49
ENDBRANCH  46  47
ENDBRANCH  45  46
ENDBRANCH  44  45
ENDBRANCH  43  44
ENDBRANCH   1  43
TORSDOF 12
ENDMDL
MODEL 5
REMARK VINA RESULT:    -3.706      5.358      9.092
REMARK INTER + INTRA:          -9.811
REMARK INTER:                  -6.506
REMARK INTRA:                  -3.305
REMARK UNBOUND:                -1.989
REMARK SMILES CCC(=O)CCCCC[C@H]1NC(=O)[C@@H]2CCCCN2C(=O)[C@@H]([C@H](C)CC)NC(=O)[C@@H](Cc2cn(OC)c3ccccc23)NC1=O
REMARK SMILES IDX 9 1 10 2 44 3 43 4 45 6 30 7 28 8 27 9 29 11 22 12 23 14
REMARK SMILES IDX 24 15 25 16 26 17 31 18 32 19 33 20 42 21 34 22 37 23 41 24
REMARK SMILES IDX 38 25 40 26 39 27 35 28 36 29 11 30 12 31 13 33 14 34 19 35
REMARK SMILES IDX 15 36 18 37 16 38 17 39 20 40 21 41 8 43 7 44 6 45 5 46 3 47
REMARK SMILES IDX 4 48 2 49 1 50
REMARK H PARENT 43 5 27 10 11 32
REMARK Flexibility Score: 80.00
ROOT
ATOM      1  C   UNL     1      59.285  30.959  55.945  1.00  0.00     0.035 C 
ENDROOT
BRANCH   1   2
ATOM      2  C   UNL     1      60.822  31.138  56.129  1.00  0.00     0.171 C 
BRANCH   2   3
ATOM      3  C   UNL     1      61.628  30.032  55.461  1.00  0.00     0.243 C 
ATOM      4  N   UNL     1      61.447  28.631  55.771  1.00  0.00    -0.342 N 
ATOM      5  H   UNL     1      60.508  28.251  56.007  1.00  0.00     0.164 HD
ATOM      6  O   UNL     1      62.576  30.410  54.722  1.00  0.00    -0.273 OA
BRANCH   4   7
ATOM      7  C   UNL     1      62.654  27.717  55.837  1.00  0.00     0.175 C 
BRANCH   7   8
ATOM      8  C   UNL     1      63.129  27.593  57.276  1.00  0.00     0.243 C 
ATOM      9  N   UNL     1      62.346  28.127  58.369  1.00  0.00    -0.342 N 
ATOM     10  H   UNL     1      61.918  29.054  58.179  1.00  0.00     0.164 HD
ATOM     11  O   UNL     1      64.217  27.001  57.555  1.00  0.00    -0.273 OA
BRANCH   9  12
ATOM     12  C   UNL     1      61.958  27.413  59.593  1.00  0.00     0.174 CG0
ATOM     13  G   UNL     1      61.336  28.483  60.406  1.00  0.00     0.000 G0
BRANCH  12  14
ATOM     14  C   UNL     1      61.025  26.148  59.457  1.00  0.00     0.018 C 
ATOM     15  C   UNL     1      61.783  24.821  59.655  1.00  0.00     0.010 C 
BRANCH  14  16
ATOM     16  C   UNL     1      60.080  26.058  58.197  1.00  0.00     0.002 C 
ATOM     17  C   UNL     1      58.549  26.200  58.389  1.00  0.00     0.004 C 
ENDBRANCH  14  16
ENDBRANCH  12  14
ENDBRANCH   9  12
ENDBRANCH   7   8
BRANCH   7  18
ATOM     18  C   UNL     1      62.324  26.349  55.180  1.00  0.00     0.073 C 
BRANCH  18  19
ATOM     19  C   UNL     1      62.121  26.432  53.671  1.00  0.00    -0.016 A 
ATOM     20  C   UNL     1      63.000  26.989  52.755  1.00  0.00     0.134 A 
ATOM     21  C   UNL     1      61.142  25.800  52.918  1.00  0.00     0.006 A 
ATOM     22  N   UNL     1      62.577  26.750  51.486  1.00  0.00    -0.191 N 
ATOM     23  C   UNL     1      61.459  25.993  51.595  1.00  0.00     0.087 A 
ATOM     24  C   UNL     1      60.026  25.033  53.282  1.00  0.00     0.011 A 
ATOM     25  C   UNL     1      60.702  25.462  50.561  1.00  0.00     0.030 A 
ATOM     26  C   UNL     1      59.254  24.462  52.254  1.00  0.00     0.001 A 
ATOM     27  C   UNL     1      59.590  24.666  50.903  1.00  0.00     0.002 A 
BRANCH  22  28
ATOM     28  O   UNL     1      63.250  26.968  50.312  1.00  0.00    -0.417 OA
ATOM     29  C   UNL     1      63.295  28.248  49.692  1.00  0.00     0.313 C 
ENDBRANCH  22  28
ENDBRANCH  18  19
ENDBRANCH   7  18
ENDBRANCH   4   7
ENDBRANCH   2   3
BRANCH   2  30
ATOM     30  N   UNL     1      61.175  31.324  57.554  1.00  0.00    -0.343 N 
ATOM     31  C   UNL     1      60.545  30.577  58.586  1.00  0.00     0.243 C 
ATOM     32  H   UNL     1      62.075  31.837  57.767  1.00  0.00     0.164 HD
ATOM     33  O   UNL     1      59.560  29.787  58.362  1.00  0.00    -0.273 OA
BRANCH  31  34
ATOM     34  C   UNL     1      60.903  30.908  60.027  1.00  0.00     0.174 C 
ATOM     35  N   UNL     1      61.842  29.850  60.488  1.00  0.00    -0.329 N 
ATOM     36  C   UNL     1      61.511  32.298  60.266  1.00  0.00     0.035 C 
ATOM     37  C   UNL     1      63.010  30.162  61.325  1.00  0.00     0.120 C 
ATOM     38  C   UNL     1      63.106  32.442  60.123  1.00  0.00     0.004 C 
ATOM     39  C   UNL     1      63.950  31.203  60.576  1.00  0.00     0.022 C 
BRANCH  35  40
ATOM     40  C   UNL     1      61.327  28.510  60.389  1.00  0.00     0.246 CG0
ATOM     41  O   UNL     1      60.162  28.230  60.953  1.00  0.00    -0.272 OA
ATOM     42  G   UNL     1      61.972  27.443  59.592  1.00  0.00     0.000 G0
ENDBRANCH  35  40
ENDBRANCH  31  34
ENDBRANCH   2  30
ENDBRANCH   1   2
BRANCH   1  43
ATOM     43  C   UNL     1      58.762  31.496  54.602  1.00  0.00     0.003 C 
BRANCH  43  44
ATOM     44  C   UNL     1      57.825  30.480  53.907  1.00  0.00     0.001 C 
BRANCH  44  45
ATOM     45  C   UNL     1      58.121  29.057  54.401  1.00  0.00     0.008 C 
BRANCH  45  46
ATOM     46  C   UNL     1      58.119  28.049  53.247  1.00  0.00     0.075 C 
BRANCH  46  47
ATOM     47  C   UNL     1      58.946  28.598  52.113  1.00  0.00     0.132 C 
ATOM     48  O   UNL     1      60.038  29.102  52.342  1.00  0.00    -0.300 OA
BRANCH  47  49
ATOM     49  C   UNL     1      58.326  28.629  50.734  1.00  0.00     0.072 C 
ATOM     50  C   UNL     1      56.887  28.151  50.777  1.00  0.00     0.012 C 
ENDBRANCH  47  49
ENDBRANCH  46  47
ENDBRANCH  45  46
ENDBRANCH  44  45
ENDBRANCH  43  44
ENDBRANCH   1  43
TORSDOF 12
ENDMDL
MODEL 6
REMARK VINA RESULT:    -3.676     10.232     13.777
REMARK INTER + INTRA:          -9.749
REMARK INTER:                  -7.760
REMARK INTRA:                  -1.989
REMARK UNBOUND:                -1.989
REMARK SMILES CCC(=O)CCCCC[C@H]1NC(=O)[C@@H]2CCCCN2C(=O)[C@@H]([C@H](C)CC)NC(=O)[C@@H](Cc2cn(OC)c3ccccc23)NC1=O
REMARK SMILES IDX 9 1 10 2 44 3 43 4 45 6 30 7 28 8 27 9 29 11 22 12 23 14
REMARK SMILES IDX 24 15 25 16 26 17 31 18 32 19 33 20 42 21 34 22 37 23 41 24
REMARK SMILES IDX 38 25 40 26 39 27 35 28 36 29 11 30 12 31 13 33 14 34 19 35
REMARK SMILES IDX 15 36 18 37 16 38 17 39 20 40 21 41 8 43 7 44 6 45 5 46 3 47
REMARK SMILES IDX 4 48 2 49 1 50
REMARK H PARENT 43 5 27 10 11 32
REMARK Flexibility Score: 80.00
ROOT
ATOM      1  C   UNL     1      56.601  27.553  61.320  1.00  0.00     0.035 C 
ENDROOT
BRANCH   1   2
ATOM      2  C   UNL     1      58.032  27.287  60.764  1.00  0.00     0.171 C 
BRANCH   2   3
ATOM      3  C   UNL     1      58.756  26.173  61.510  1.00  0.00     0.243 C 
ATOM      4  N   UNL     1      60.112  26.304  61.994  1.00  0.00    -0.342 N 
ATOM      5  H   UNL     1      60.471  27.216  62.344  1.00  0.00     0.164 HD
ATOM      6  O   UNL     1      58.161  25.063  61.556  1.00  0.00    -0.273 OA
BRANCH   4   7
ATOM      7  C   UNL     1      61.055  25.120  61.913  1.00  0.00     0.175 C 
BRANCH   7   8
ATOM      8  C   UNL     1      62.158  25.408  60.907  1.00  0.00     0.243 C 
ATOM      9  N   UNL     1      62.019  26.463  59.928  1.00  0.00    -0.342 N 
ATOM     10  H   UNL     1      61.076  26.531  59.499  1.00  0.00     0.164 HD
ATOM     11  O   UNL     1      63.238  24.740  60.916  1.00  0.00    -0.273 OA
BRANCH   9  12
ATOM     12  C   UNL     1      62.996  27.525  59.646  1.00  0.00     0.174 CG0
ATOM     13  G   UNL     1      62.310  28.735  60.153  1.00  0.00     0.000 G0
BRANCH  12  14
ATOM     14  C   UNL     1      64.453  27.375  60.232  1.00  0.00     0.018 C 
ATOM     15  C   UNL     1      65.090  28.726  60.607  1.00  0.00     0.010 C 
BRANCH  14  16
ATOM     16  C   UNL     1      65.483  26.484  59.433  1.00  0.00     0.002 C 
ATOM     17  C   UNL     1      66.940  26.981  59.266  1.00  0.00     0.004 C 
ENDBRANCH  14  16
ENDBRANCH  12  14
ENDBRANCH   9  12
ENDBRANCH   7   8
BRANCH   7  18
ATOM     18  C   UNL     1      61.589  24.766  63.327  1.00  0.00     0.073 C 
BRANCH  18  19
ATOM     19  C   UNL     1      61.169  23.382  63.809  1.00  0.00    -0.016 A 
ATOM     20  C   UNL     1      60.071  22.660  63.369  1.00  0.00     0.134 A 
ATOM     21  C   UNL     1      61.898  22.513  64.607  1.00  0.00     0.006 A 
ATOM     22  N   UNL     1      60.087  21.405  63.893  1.00  0.00    -0.191 N 
ATOM     23  C   UNL     1      61.227  21.314  64.621  1.00  0.00     0.087 A 
ATOM     24  C   UNL     1      63.117  22.657  65.284  1.00  0.00     0.011 A 
ATOM     25  C   UNL     1      61.698  20.201  65.302  1.00  0.00     0.030 A 
ATOM     26  C   UNL     1      63.632  21.538  65.964  1.00  0.00     0.001 A 
ATOM     27  C   UNL     1      62.935  20.316  65.969  1.00  0.00     0.002 A 
BRANCH  22  28
ATOM     28  O   UNL     1      59.294  20.338  63.564  1.00  0.00    -0.417 OA
ATOM     29  C   UNL     1      58.462  20.342  62.408  1.00  0.00     0.313 C 
ENDBRANCH  22  28
ENDBRANCH  18  19
ENDBRANCH   7  18
ENDBRANCH   4   7
ENDBRANCH   2   3
BRANCH   2  30
ATOM     30  N   UNL     1      58.822  28.536  60.691  1.00  0.00    -0.343 N 
ATOM     31  C   UNL     1      59.509  28.920  59.508  1.00  0.00     0.243 C 
ATOM     32  H   UNL     1      58.659  29.257  61.447  1.00  0.00     0.164 HD
ATOM     33  O   UNL     1      59.585  28.161  58.477  1.00  0.00    -0.273 OA
BRANCH  31  34
ATOM     34  C   UNL     1      60.375  30.170  59.560  1.00  0.00     0.174 C 
ATOM     35  N   UNL     1      61.767  29.736  59.259  1.00  0.00    -0.329 N 
ATOM     36  C   UNL     1      59.962  31.314  58.622  1.00  0.00     0.035 C 
ATOM     37  C   UNL     1      62.659  30.536  58.406  1.00  0.00     0.120 C 
ATOM     38  C   UNL     1      60.553  31.296  57.127  1.00  0.00     0.004 C 
ATOM     39  C   UNL     1      62.005  30.731  56.970  1.00  0.00     0.022 C 
BRANCH  35  40
ATOM     40  C   UNL     1      62.282  28.726  60.143  1.00  0.00     0.246 CG0
ATOM     41  O   UNL     1      62.019  28.816  61.438  1.00  0.00    -0.272 OA
ATOM     42  G   UNL     1      63.000  27.518  59.676  1.00  0.00     0.000 G0
ENDBRANCH  35  40
ENDBRANCH  31  34
ENDBRANCH   2  30
ENDBRANCH   1   2
BRANCH   1  43
ATOM     43  C   UNL     1      55.505  27.500  60.242  1.00  0.00     0.003 C 
BRANCH  43  44
ATOM     44  C   UNL     1      54.863  26.096  60.150  1.00  0.00     0.001 C 
BRANCH  44  45
ATOM     45  C   UNL     1      54.783  25.640  58.687  1.00  0.00     0.008 C 
BRANCH  45  46
ATOM     46  C   UNL     1      54.808  24.113  58.571  1.00  0.00     0.075 C 
BRANCH  46  47
ATOM     47  C   UNL     1      56.163  23.610  58.998  1.00  0.00     0.132 C 
ATOM     48  O   UNL     1      57.177  24.098  58.513  1.00  0.00    -0.300 OA
BRANCH  47  49
ATOM     49  C   UNL     1      56.218  22.411  59.918  1.00  0.00     0.072 C 
ATOM     50  C   UNL     1      55.487  22.694  61.218  1.00  0.00     0.012 C 
ENDBRANCH  47  49
ENDBRANCH  46  47
ENDBRANCH  45  46
ENDBRANCH  44  45
ENDBRANCH  43  44
ENDBRANCH   1  43
TORSDOF 12
ENDMDL
MODEL 7
REMARK VINA RESULT:    -3.575      3.274      9.440
REMARK INTER + INTRA:          -9.534
REMARK INTER:                  -7.213
REMARK INTRA:                  -2.322
REMARK UNBOUND:                -1.989
REMARK SMILES CCC(=O)CCCCC[C@H]1NC(=O)[C@@H]2CCCCN2C(=O)[C@@H]([C@H](C)CC)NC(=O)[C@@H](Cc2cn(OC)c3ccccc23)NC1=O
REMARK SMILES IDX 9 1 10 2 44 3 43 4 45 6 30 7 28 8 27 9 29 11 22 12 23 14
REMARK SMILES IDX 24 15 25 16 26 17 31 18 32 19 33 20 42 21 34 22 37 23 41 24
REMARK SMILES IDX 38 25 40 26 39 27 35 28 36 29 11 30 12 31 13 33 14 34 19 35
REMARK SMILES IDX 15 36 18 37 16 38 17 39 20 40 21 41 8 43 7 44 6 45 5 46 3 47
REMARK SMILES IDX 4 48 2 49 1 50
REMARK H PARENT 43 5 27 10 11 32
REMARK Flexibility Score: 80.00
ROOT
ATOM      1  C   UNL     1      59.426  25.136  51.079  1.00  0.00     0.035 C 
ENDROOT
BRANCH   1   2
ATOM      2  C   UNL     1      58.793  26.408  50.440  1.00  0.00     0.171 C 
BRANCH   2   3
ATOM      3  C   UNL     1      59.644  27.655  50.643  1.00  0.00     0.243 C 
ATOM      4  N   UNL     1      59.806  28.296  51.928  1.00  0.00    -0.342 N 
ATOM      5  H   UNL     1      59.833  27.739  52.806  1.00  0.00     0.164 HD
ATOM      6  O   UNL     1      60.089  28.194  49.594  1.00  0.00    -0.273 OA
BRANCH   4   7
ATOM      7  C   UNL     1      59.850  29.809  52.010  1.00  0.00     0.175 C 
BRANCH   7   8
ATOM      8  C   UNL     1      58.684  30.315  52.845  1.00  0.00     0.243 C 
ATOM      9  N   UNL     1      57.620  29.425  53.256  1.00  0.00    -0.342 N 
ATOM     10  H   UNL     1      57.312  28.756  52.524  1.00  0.00     0.164 HD
ATOM     11  O   UNL     1      58.628  31.527  53.219  1.00  0.00    -0.273 OA
BRANCH   9  12
ATOM     12  C   UNL     1      57.097  29.263  54.620  1.00  0.00     0.174 CG0
ATOM     13  G   UNL     1      56.178  28.112  54.476  1.00  0.00     0.000 G0
BRANCH  12  14
ATOM     14  C   UNL     1      58.129  29.061  55.796  1.00  0.00     0.018 C 
ATOM     15  C   UNL     1      58.438  30.368  56.552  1.00  0.00     0.010 C 
BRANCH  14  16
ATOM     16  C   UNL     1      59.463  28.277  55.484  1.00  0.00     0.002 C 
ATOM     17  C   UNL     1      60.168  27.503  56.625  1.00  0.00     0.004 C 
ENDBRANCH  14  16
ENDBRANCH  12  14
ENDBRANCH   9  12
ENDBRANCH   7   8
BRANCH   7  18
ATOM     18  C   UNL     1      61.234  30.273  52.541  1.00  0.00     0.073 C 
BRANCH  18  19
ATOM     19  C   UNL     1      62.223  30.628  51.437  1.00  0.00    -0.016 A 
ATOM     20  C   UNL     1      62.554  31.905  51.013  1.00  0.00     0.134 A 
ATOM     21  C   UNL     1      63.112  29.776  50.799  1.00  0.00     0.006 A 
ATOM     22  N   UNL     1      63.582  31.858  50.124  1.00  0.00    -0.191 N 
ATOM     23  C   UNL     1      63.939  30.555  50.026  1.00  0.00     0.087 A 
ATOM     24  C   UNL     1      63.297  28.387  50.869  1.00  0.00     0.011 A 
ATOM     25  C   UNL     1      64.976  30.024  49.272  1.00  0.00     0.030 A 
ATOM     26  C   UNL     1      64.357  27.824  50.133  1.00  0.00     0.001 A 
ATOM     27  C   UNL     1      65.196  28.634  49.347  1.00  0.00     0.002 A 
BRANCH  22  28
ATOM     28  O   UNL     1      64.316  32.899  49.620  1.00  0.00    -0.417 OA
ATOM     29  C   UNL     1      63.706  34.019  48.987  1.00  0.00     0.313 C 
ENDBRANCH  22  28
ENDBRANCH  18  19
ENDBRANCH   7  18
ENDBRANCH   4   7
ENDBRANCH   2   3
BRANCH   2  30
ATOM     30  N   UNL     1      57.392  26.592  50.882  1.00  0.00    -0.343 N 
ATOM     31  C   UNL     1      57.021  26.500  52.251  1.00  0.00     0.243 C 
ATOM     32  H   UNL     1      56.724  27.041  50.198  1.00  0.00     0.164 HD
ATOM     33  O   UNL     1      57.843  26.139  53.166  1.00  0.00    -0.273 OA
BRANCH  31  34
ATOM     34  C   UNL     1      55.543  26.605  52.597  1.00  0.00     0.174 C 
ATOM     35  N   UNL     1      55.355  27.920  53.268  1.00  0.00    -0.329 N 
ATOM     36  C   UNL     1      54.566  26.464  51.421  1.00  0.00     0.035 C 
ATOM     37  C   UNL     1      54.182  28.766  52.997  1.00  0.00     0.120 C 
ATOM     38  C   UNL     1      54.190  27.798  50.607  1.00  0.00     0.004 C 
ATOM     39  C   UNL     1      54.113  29.117  51.448  1.00  0.00     0.022 C 
BRANCH  35  40
ATOM     40  C   UNL     1      56.165  28.115  54.440  1.00  0.00     0.246 CG0
ATOM     41  O   UNL     1      56.179  27.172  55.370  1.00  0.00    -0.272 OA
ATOM     42  G   UNL     1      57.080  29.264  54.621  1.00  0.00     0.000 G0
ENDBRANCH  35  40
ENDBRANCH  31  34
ENDBRANCH   2  30
ENDBRANCH   1   2
BRANCH   1  43
ATOM     43  C   UNL     1      60.924  24.975  50.770  1.00  0.00     0.003 C 
BRANCH  43  44
ATOM     44  C   UNL     1      61.730  24.604  52.037  1.00  0.00     0.001 C 
BRANCH  44  45
ATOM     45  C   UNL     1      60.813  23.954  53.082  1.00  0.00     0.008 C 
BRANCH  45  46
ATOM     46  C   UNL     1      60.795  22.429  52.944  1.00  0.00     0.075 C 
BRANCH  46  47
ATOM     47  C   UNL     1      59.534  21.893  53.573  1.00  0.00     0.132 C 
ATOM     48  O   UNL     1      59.522  20.765  54.051  1.00  0.00    -0.300 OA
BRANCH  47  49
ATOM     49  C   UNL     1      58.277  22.726  53.463  1.00  0.00     0.072 C 
ATOM     50  C   UNL     1      57.237  22.268  54.469  1.00  0.00     0.012 C 
ENDBRANCH  47  49
ENDBRANCH  46  47
ENDBRANCH  45  46
ENDBRANCH  44  45
ENDBRANCH  43  44
ENDBRANCH   1  43
TORSDOF 12
ENDMDL
MODEL 8
REMARK VINA RESULT:    -3.526      7.321     10.293
REMARK INTER + INTRA:          -9.433
REMARK INTER:                  -7.826
REMARK INTRA:                  -1.607
REMARK UNBOUND:                -1.989
REMARK SMILES CCC(=O)CCCCC[C@H]1NC(=O)[C@@H]2CCCCN2C(=O)[C@@H]([C@H](C)CC)NC(=O)[C@@H](Cc2cn(OC)c3ccccc23)NC1=O
REMARK SMILES IDX 9 1 10 2 44 3 43 4 45 6 30 7 28 8 27 9 29 11 22 12 23 14
REMARK SMILES IDX 24 15 25 16 26 17 31 18 32 19 33 20 42 21 34 22 37 23 41 24
REMARK SMILES IDX 38 25 40 26 39 27 35 28 36 29 11 30 12 31 13 33 14 34 19 35
REMARK SMILES IDX 15 36 18 37 16 38 17 39 20 40 21 41 8 43 7 44 6 45 5 46 3 47
REMARK SMILES IDX 4 48 2 49 1 50
REMARK H PARENT 43 5 27 10 11 32
REMARK Flexibility Score: 80.00
ROOT
ATOM      1  C   UNL     1      66.441  28.665  60.404  1.00  0.00     0.035 C 
ENDROOT
BRANCH   1   2
ATOM      2  C   UNL     1      65.551  28.086  59.264  1.00  0.00     0.171 C 
BRANCH   2   3
ATOM      3  C   UNL     1      65.459  29.013  58.059  1.00  0.00     0.243 C 
ATOM      4  N   UNL     1      65.085  30.406  58.166  1.00  0.00    -0.342 N 
ATOM      5  H   UNL     1      65.362  30.973  58.992  1.00  0.00     0.164 HD
ATOM      6  O   UNL     1      65.583  28.465  56.931  1.00  0.00    -0.273 OA
BRANCH   4   7
ATOM      7  C   UNL     1      64.203  31.028  57.102  1.00  0.00     0.175 C 
BRANCH   7   8
ATOM      8  C   UNL     1      62.740  30.792  57.442  1.00  0.00     0.243 C 
ATOM      9  N   UNL     1      62.337  30.404  58.776  1.00  0.00    -0.342 N 
ATOM     10  H   UNL     1      62.958  29.703  59.226  1.00  0.00     0.164 HD
ATOM     11  O   UNL     1      61.833  30.951  56.567  1.00  0.00    -0.273 OA
BRANCH   9  12
ATOM     12  C   UNL     1      61.286  31.033  59.587  1.00  0.00     0.174 CG0
ATOM     13  G   UNL     1      61.149  30.091  60.722  1.00  0.00     0.000 G0
BRANCH  12  14
ATOM     14  C   UNL     1      61.501  32.520  60.068  1.00  0.00     0.018 C 
ATOM     15  C   UNL     1      60.908  33.555  59.094  1.00  0.00     0.010 C 
BRANCH  14  16
ATOM     16  C   UNL     1      62.954  32.951  60.511  1.00  0.00     0.002 C 
ATOM     17  C   UNL     1      63.236  34.440  60.829  1.00  0.00     0.004 C 
ENDBRANCH  14  16
ENDBRANCH  12  14
ENDBRANCH   9  12
ENDBRANCH   7   8
BRANCH   7  18
ATOM     18  C   UNL     1      64.559  32.529  56.926  1.00  0.00     0.073 C 
BRANCH  18  19
ATOM     19  C   UNL     1      64.487  33.008  55.481  1.00  0.00    -0.016 A 
ATOM     20  C   UNL     1      65.370  32.680  54.464  1.00  0.00     0.134 A 
ATOM     21  C   UNL     1      63.440  33.680  54.869  1.00  0.00     0.006 A 
ATOM     22  N   UNL     1      64.918  33.152  53.272  1.00  0.00    -0.191 N 
ATOM     23  C   UNL     1      63.720  33.732  53.524  1.00  0.00     0.087 A 
ATOM     24  C   UNL     1      62.241  34.208  55.370  1.00  0.00     0.011 A 
ATOM     25  C   UNL     1      62.858  34.311  52.604  1.00  0.00     0.030 A 
ATOM     26  C   UNL     1      61.337  34.780  54.456  1.00  0.00     0.001 A 
ATOM     27  C   UNL     1      61.637  34.826  53.082  1.00  0.00     0.002 A 
BRANCH  22  28
ATOM     28  O   UNL     1      65.396  32.883  52.017  1.00  0.00    -0.417 OA
ATOM     29  C   UNL     1      66.787  32.914  51.714  1.00  0.00     0.313 C 
ENDBRANCH  22  28
ENDBRANCH  18  19
ENDBRANCH   7  18
ENDBRANCH   4   7
ENDBRANCH   2   3
BRANCH   2  30
ATOM     30  N   UNL     1      64.224  27.675  59.774  1.00  0.00    -0.343 N 
ATOM     31  C   UNL     1      63.508  28.461  60.717  1.00  0.00     0.243 C 
ATOM     32  H   UNL     1      63.711  26.922  59.238  1.00  0.00     0.164 HD
ATOM     33  O   UNL     1      64.010  29.503  61.270  1.00  0.00    -0.273 OA
BRANCH  31  34
ATOM     34  C   UNL     1      62.197  27.907  61.258  1.00  0.00     0.174 C 
ATOM     35  N   UNL     1      61.106  28.645  60.565  1.00  0.00    -0.329 N 
ATOM     36  C   UNL     1      61.994  26.393  61.107  1.00  0.00     0.035 C 
ATOM     37  C   UNL     1      59.884  27.966  60.106  1.00  0.00     0.120 C 
ATOM     38  C   UNL     1      61.336  25.867  59.737  1.00  0.00     0.004 C 
ATOM     39  C   UNL     1      60.260  26.802  59.090  1.00  0.00     0.022 C 
BRANCH  35  40
ATOM     40  C   UNL     1      61.155  30.073  60.723  1.00  0.00     0.246 CG0
ATOM     41  O   UNL     1      61.166  30.581  61.945  1.00  0.00    -0.272 OA
ATOM     42  G   UNL     1      61.312  31.016  59.592  1.00  0.00     0.000 G0
ENDBRANCH  35  40
ENDBRANCH  31  34
ENDBRANCH   2  30
ENDBRANCH   1   2
BRANCH   1  43
ATOM     43  C   UNL     1      67.941  28.680  60.063  1.00  0.00     0.003 C 
BRANCH  43  44
ATOM     44  C   UNL     1      68.814  28.441  61.318  1.00  0.00     0.001 C 
BRANCH  44  45
ATOM     45  C   UNL     1      70.293  28.698  60.997  1.00  0.00     0.008 C 
BRANCH  45  46
ATOM     46  C   UNL     1      70.464  29.373  59.633  1.00  0.00     0.075 C 
BRANCH  46  47
ATOM     47  C   UNL     1      71.265  30.638  59.808  1.00  0.00     0.132 C 
ATOM     48  O   UNL     1      71.954  30.791  60.809  1.00  0.00    -0.300 OA
BRANCH  47  49
ATOM     49  C   UNL     1      71.077  31.743  58.793  1.00  0.00     0.072 C 
ATOM     50  C   UNL     1      71.764  31.398  57.485  1.00  0.00     0.012 C 
ENDBRANCH  47  49
ENDBRANCH  46  47
ENDBRANCH  45  46
ENDBRANCH  44  45
ENDBRANCH  43  44
ENDBRANCH   1  43
TORSDOF 12
ENDMDL
MODEL 9
REMARK VINA RESULT:    -3.476      6.149      9.736
REMARK INTER + INTRA:          -9.326
REMARK INTER:                  -7.050
REMARK INTRA:                  -2.276
REMARK UNBOUND:                -1.989
REMARK SMILES CCC(=O)CCCCC[C@H]1NC(=O)[C@@H]2CCCCN2C(=O)[C@@H]([C@H](C)CC)NC(=O)[C@@H](Cc2cn(OC)c3ccccc23)NC1=O
REMARK SMILES IDX 9 1 10 2 44 3 43 4 45 6 30 7 28 8 27 9 29 11 22 12 23 14
REMARK SMILES IDX 24 15 25 16 26 17 31 18 32 19 33 20 42 21 34 22 37 23 41 24
REMARK SMILES IDX 38 25 40 26 39 27 35 28 36 29 11 30 12 31 13 33 14 34 19 35
REMARK SMILES IDX 15 36 18 37 16 38 17 39 20 40 21 41 8 43 7 44 6 45 5 46 3 47
REMARK SMILES IDX 4 48 2 49 1 50
REMARK H PARENT 43 5 27 10 11 32
REMARK Flexibility Score: 80.00
ROOT
ATOM      1  C   UNL     1      58.111  31.686  57.693  1.00  0.00     0.035 C 
ENDROOT
BRANCH   1   2
ATOM      2  C   UNL     1      59.486  32.136  57.114  1.00  0.00     0.171 C 
BRANCH   2   3
ATOM      3  C   UNL     1      60.016  31.189  56.047  1.00  0.00     0.243 C 
ATOM      4  N   UNL     1      60.248  29.782  56.289  1.00  0.00    -0.342 N 
ATOM      5  H   UNL     1      59.632  29.240  56.928  1.00  0.00     0.164 HD
ATOM      6  O   UNL     1      60.388  31.726  54.969  1.00  0.00    -0.273 OA
BRANCH   4   7
ATOM      7  C   UNL     1      61.456  29.105  55.673  1.00  0.00     0.175 C 
BRANCH   7   8
ATOM      8  C   UNL     1      62.579  29.025  56.695  1.00  0.00     0.243 C 
ATOM      9  N   UNL     1      62.368  29.427  58.068  1.00  0.00    -0.342 N 
ATOM     10  H   UNL     1      61.800  30.289  58.182  1.00  0.00     0.164 HD
ATOM     11  O   UNL     1      63.725  28.585  56.370  1.00  0.00    -0.273 OA
BRANCH   9  12
ATOM     12  C   UNL     1      62.707  28.646  59.266  1.00  0.00     0.174 CG0
ATOM     13  G   UNL     1      62.435  29.604  60.361  1.00  0.00     0.000 G0
BRANCH  12  14
ATOM     14  C   UNL     1      61.979  27.264  59.488  1.00  0.00     0.018 C 
ATOM     15  C   UNL     1      62.878  26.056  59.164  1.00  0.00     0.010 C 
BRANCH  14  16
ATOM     16  C   UNL     1      60.547  27.071  58.850  1.00  0.00     0.002 C 
ATOM     17  C   UNL     1      59.312  26.987  59.781  1.00  0.00     0.004 C 
ENDBRANCH  14  16
ENDBRANCH  12  14
ENDBRANCH   9  12
ENDBRANCH   7   8
BRANCH   7  18
ATOM     18  C   UNL     1      61.053  27.722  55.093  1.00  0.00     0.073 C 
BRANCH  18  19
ATOM     19  C   UNL     1      59.866  27.784  54.139  1.00  0.00    -0.016 A 
ATOM     20  C   UNL     1      58.536  27.579  54.471  1.00  0.00     0.134 A 
ATOM     21  C   UNL     1      59.861  28.245  52.831  1.00  0.00     0.006 A 
ATOM     22  N   UNL     1      57.733  27.865  53.411  1.00  0.00    -0.191 N 
ATOM     23  C   UNL     1      58.550  28.305  52.425  1.00  0.00     0.087 A 
ATOM     24  C   UNL     1      60.894  28.663  51.978  1.00  0.00     0.011 A 
ATOM     25  C   UNL     1      58.177  28.760  51.168  1.00  0.00     0.030 A 
ATOM     26  C   UNL     1      60.543  29.153  50.707  1.00  0.00     0.001 A 
ATOM     27  C   UNL     1      59.196  29.209  50.304  1.00  0.00     0.002 A 
BRANCH  22  28
ATOM     28  O   UNL     1      56.367  27.969  53.386  1.00  0.00    -0.417 OA
ATOM     29  C   UNL     1      55.681  29.072  53.970  1.00  0.00     0.313 C 
ENDBRANCH  22  28
ENDBRANCH  18  19
ENDBRANCH   7  18
ENDBRANCH   4   7
ENDBRANCH   2   3
BRANCH   2  30
ATOM     30  N   UNL     1      60.466  32.390  58.194  1.00  0.00    -0.343 N 
ATOM     31  C   UNL     1      60.591  31.521  59.311  1.00  0.00     0.243 C 
ATOM     32  H   UNL     1      61.238  33.083  57.994  1.00  0.00     0.164 HD
ATOM     33  O   UNL     1      59.792  30.538  59.514  1.00  0.00    -0.273 OA
BRANCH  31  34
ATOM     34  C   UNL     1      61.556  31.917  60.419  1.00  0.00     0.174 C 
ATOM     35  N   UNL     1      62.737  31.019  60.296  1.00  0.00    -0.329 N 
ATOM     36  C   UNL     1      62.005  33.385  60.426  1.00  0.00     0.035 C 
ATOM     37  C   UNL     1      64.109  31.516  60.484  1.00  0.00     0.120 C 
ATOM     38  C   UNL     1      63.289  33.772  59.541  1.00  0.00     0.004 C 
ATOM     39  C   UNL     1      64.409  32.682  59.445  1.00  0.00     0.022 C 
BRANCH  35  40
ATOM     40  C   UNL     1      62.431  29.616  60.369  1.00  0.00     0.246 CG0
ATOM     41  O   UNL     1      61.777  29.159  61.426  1.00  0.00    -0.272 OA
ATOM     42  G   UNL     1      62.706  28.661  59.273  1.00  0.00     0.000 G0
ENDBRANCH  35  40
ENDBRANCH  31  34
ENDBRANCH   2  30
ENDBRANCH   1   2
BRANCH   1  43
ATOM     43  C   UNL     1      57.142  31.152  56.623  1.00  0.00     0.003 C 
BRANCH  43  44
ATOM     44  C   UNL     1      55.748  31.815  56.736  1.00  0.00     0.001 C 
BRANCH  44  45
ATOM     45  C   UNL     1      55.863  33.188  57.413  1.00  0.00     0.008 C 
BRANCH  45  46
ATOM     46  C   UNL     1      55.381  34.312  56.492  1.00  0.00     0.075 C 
BRANCH  46  47
ATOM     47  C   UNL     1      56.325  34.429  55.323  1.00  0.00     0.132 C 
ATOM     48  O   UNL     1      57.508  34.679  55.516  1.00  0.00    -0.300 OA
BRANCH  47  49
ATOM     49  C   UNL     1      55.741  34.370  53.930  1.00  0.00     0.072 C 
ATOM     50  C   UNL     1      56.002  35.663  53.179  1.00  0.00     0.012 C 
ENDBRANCH  47  49
ENDBRANCH  46  47
ENDBRANCH  45  46
ENDBRANCH  44  45
ENDBRANCH  43  44
ENDBRANCH   1  43
TORSDOF 12
ENDMDL
