MODEL 1
REMARK VINA RESULT:    -3.883      0.000      0.000
REMARK INTER + INTRA:          -4.689
REMARK INTER:                  -4.563
REMARK INTRA:                  -0.125
REMARK UNBOUND:                -0.125
REMARK SMILES O=C([O-])CCC(=O)[O-]
REMARK SMILES IDX 4 1 2 2 1 3 3 4 5 5 6 6 7 7 8 8
REMARK H PARENT
REMARK Flexibility Score: inf
ROOT
ATOM      1  C   UNL     1      21.889  12.585  37.219  1.00  0.00     0.059 C 
ENDROOT
BRANCH   1   2
ATOM      2  C   UNL     1      21.331  13.713  36.412  1.00  0.00     0.042 C 
ATOM      3  O   UNL     1      21.890  14.841  36.427  1.00  0.00    -0.550 OA
ATOM      4  O   UNL     1      20.165  13.533  35.679  1.00  0.00    -0.550 OA
ENDBRANCH   1   2
BRANCH   1   5
ATOM      5  C   UNL     1      20.765  11.816  37.914  1.00  0.00     0.059 C 
BRANCH   5   6
ATOM      6  C   UNL     1      20.481  12.403  39.260  1.00  0.00     0.042 C 
ATOM      7  O   UNL     1      21.159  12.050  40.261  1.00  0.00    -0.550 OA
ATOM      8  O   UNL     1      19.502  13.377  39.402  1.00  0.00    -0.550 OA
ENDBRANCH   5   6
ENDBRANCH   1   5
TORSDOF 3
ENDMDL
MODEL 2
REMARK VINA RESULT:    -3.880      0.090      3.604
REMARK INTER + INTRA:          -4.686
REMARK INTER:                  -4.562
REMARK INTRA:                  -0.124
REMARK UNBOUND:                -0.125
REMARK SMILES O=C([O-])CCC(=O)[O-]
REMARK SMILES IDX 4 1 2 2 1 3 3 4 5 5 6 6 7 7 8 8
REMARK H PARENT
REMARK Flexibility Score: inf
ROOT
ATOM      1  C   UNL     1      20.782  11.740  37.934  1.00  0.00     0.059 C 
ENDROOT
BRANCH   1   2
ATOM      2  C   UNL     1      20.506  12.352  39.271  1.00  0.00     0.042 C 
ATOM      3  O   UNL     1      21.174  11.999  40.279  1.00  0.00    -0.550 OA
ATOM      4  O   UNL     1      19.480  13.276  39.415  1.00  0.00    -0.550 OA
ENDBRANCH   1   2
BRANCH   1   5
ATOM      5  C   UNL     1      21.882  12.515  37.207  1.00  0.00     0.059 C 
BRANCH   5   6
ATOM      6  C   UNL     1      21.294  13.619  36.388  1.00  0.00     0.042 C 
ATOM      7  O   UNL     1      20.256  13.416  35.704  1.00  0.00    -0.550 OA
ATOM      8  O   UNL     1      21.862  14.885  36.417  1.00  0.00    -0.550 OA
ENDBRANCH   5   6
ENDBRANCH   1   5
TORSDOF 3
ENDMDL
MODEL 3
REMARK VINA RESULT:    -3.754      1.551      3.589
REMARK INTER + INTRA:          -4.538
REMARK INTER:                  -4.457
REMARK INTRA:                  -0.081
REMARK UNBOUND:                -0.125
REMARK SMILES O=C([O-])CCC(=O)[O-]
REMARK SMILES IDX 4 1 2 2 1 3 3 4 5 5 6 6 7 7 8 8
REMARK H PARENT
REMARK Flexibility Score: inf
ROOT
ATOM      1  C   UNL     1      20.763  12.013  39.736  1.00  0.00     0.059 C 
ENDROOT
BRANCH   1   2
ATOM      2  C   UNL     1      19.622  12.887  40.149  1.00  0.00     0.042 C 
ATOM      3  O   UNL     1      19.360  13.935  39.504  1.00  0.00    -0.550 OA
ATOM      4  O   UNL     1      18.876  12.569  41.277  1.00  0.00    -0.550 OA
ENDBRANCH   1   2
BRANCH   1   5
ATOM      5  C   UNL     1      20.491  11.388  38.367  1.00  0.00     0.059 C 
BRANCH   5   6
ATOM      6  C   UNL     1      21.251  12.108  37.300  1.00  0.00     0.042 C 
ATOM      7  O   UNL     1      22.510  12.129  37.323  1.00  0.00    -0.550 OA
ATOM      8  O   UNL     1      20.572  12.716  36.251  1.00  0.00    -0.550 OA
ENDBRANCH   5   6
ENDBRANCH   1   5
TORSDOF 3
ENDMDL
MODEL 4
REMARK VINA RESULT:    -3.636     21.463     22.519
REMARK INTER + INTRA:          -4.399
REMARK INTER:                  -4.360
REMARK INTRA:                  -0.039
REMARK UNBOUND:                -0.125
REMARK SMILES O=C([O-])CCC(=O)[O-]
REMARK SMILES IDX 4 1 2 2 1 3 3 4 5 5 6 6 7 7 8 8
REMARK H PARENT
REMARK Flexibility Score: inf
ROOT
ATOM      1  C   UNL     1      37.433  26.811  35.638  1.00  0.00     0.059 C 
ENDROOT
BRANCH   1   2
ATOM      2  C   UNL     1      37.682  27.745  36.779  1.00  0.00     0.042 C 
ATOM      3  O   UNL     1      38.846  28.164  37.012  1.00  0.00    -0.550 OA
ATOM      4  O   UNL     1      36.637  28.114  37.616  1.00  0.00    -0.550 OA
ENDBRANCH   1   2
BRANCH   1   5
ATOM      5  C   UNL     1      38.705  26.624  34.811  1.00  0.00     0.059 C 
BRANCH   5   6
ATOM      6  C   UNL     1      38.365  26.258  33.401  1.00  0.00     0.042 C 
ATOM      7  O   UNL     1      39.125  26.601  32.457  1.00  0.00    -0.550 OA
ATOM      8  O   UNL     1      37.235  25.496  33.132  1.00  0.00    -0.550 OA
ENDBRANCH   5   6
ENDBRANCH   1   5
TORSDOF 3
ENDMDL
MODEL 5
REMARK VINA RESULT:    -3.627     21.245     22.128
REMARK INTER + INTRA:          -4.389
REMARK INTER:                  -4.350
REMARK INTRA:                  -0.039
REMARK UNBOUND:                -0.125
REMARK SMILES O=C([O-])CCC(=O)[O-]
REMARK SMILES IDX 4 1 2 2 1 3 3 4 5 5 6 6 7 7 8 8
REMARK H PARENT
REMARK Flexibility Score: inf
ROOT
ATOM      1  C   UNL     1      38.458  26.559  34.787  1.00  0.00     0.059 C 
ENDROOT
BRANCH   1   2
ATOM      2  C   UNL     1      38.094  26.129  33.401  1.00  0.00     0.042 C 
ATOM      3  O   UNL     1      37.066  25.429  33.205  1.00  0.00    -0.550 OA
ATOM      4  O   UNL     1      38.916  26.460  32.332  1.00  0.00    -0.550 OA
ENDBRANCH   1   2
BRANCH   1   5
ATOM      5  C   UNL     1      37.205  26.692  35.654  1.00  0.00     0.059 C 
BRANCH   5   6
ATOM      6  C   UNL     1      37.433  27.674  36.758  1.00  0.00     0.042 C 
ATOM      7  O   UNL     1      36.481  28.016  37.508  1.00  0.00    -0.550 OA
ATOM      8  O   UNL     1      38.708  28.175  36.992  1.00  0.00    -0.550 OA
ENDBRANCH   5   6
ENDBRANCH   1   5
TORSDOF 3
ENDMDL
MODEL 6
REMARK VINA RESULT:    -3.625     21.404     22.476
REMARK INTER + INTRA:          -4.386
REMARK INTER:                  -4.348
REMARK INTRA:                  -0.038
REMARK UNBOUND:                -0.125
REMARK SMILES O=C([O-])CCC(=O)[O-]
REMARK SMILES IDX 4 1 2 2 1 3 3 4 5 5 6 6 7 7 8 8
REMARK H PARENT
REMARK Flexibility Score: inf
ROOT
ATOM      1  C   UNL     1      37.294  26.803  35.702  1.00  0.00     0.059 C 
ENDROOT
BRANCH   1   2
ATOM      2  C   UNL     1      37.478  27.754  36.842  1.00  0.00     0.042 C 
ATOM      3  O   UNL     1      36.498  28.074  37.565  1.00  0.00    -0.550 OA
ATOM      4  O   UNL     1      38.722  28.324  37.078  1.00  0.00    -0.550 OA
ENDBRANCH   1   2
BRANCH   1   5
ATOM      5  C   UNL     1      38.599  26.642  34.922  1.00  0.00     0.059 C 
BRANCH   5   6
ATOM      6  C   UNL     1      38.318  26.304  33.493  1.00  0.00     0.042 C 
ATOM      7  O   UNL     1      39.125  26.651  32.590  1.00  0.00    -0.550 OA
ATOM      8  O   UNL     1      37.191  25.563  33.162  1.00  0.00    -0.550 OA
ENDBRANCH   5   6
ENDBRANCH   1   5
TORSDOF 3
ENDMDL
MODEL 7
REMARK VINA RESULT:    -3.601     21.556     22.407
REMARK INTER + INTRA:          -4.358
REMARK INTER:                  -4.320
REMARK INTRA:                  -0.038
REMARK UNBOUND:                -0.125
REMARK SMILES O=C([O-])CCC(=O)[O-]
REMARK SMILES IDX 4 1 2 2 1 3 3 4 5 5 6 6 7 7 8 8
REMARK H PARENT
REMARK Flexibility Score: inf
ROOT
ATOM      1  C   UNL     1      38.800  26.625  34.770  1.00  0.00     0.059 C 
ENDROOT
BRANCH   1   2
ATOM      2  C   UNL     1      38.423  26.241  33.374  1.00  0.00     0.042 C 
ATOM      3  O   UNL     1      39.125  26.621  32.401  1.00  0.00    -0.550 OA
ATOM      4  O   UNL     1      37.269  25.503  33.144  1.00  0.00    -0.550 OA
ENDBRANCH   1   2
BRANCH   1   5
ATOM      5  C   UNL     1      37.550  26.908  35.604  1.00  0.00     0.059 C 
BRANCH   5   6
ATOM      6  C   UNL     1      37.890  27.757  36.787  1.00  0.00     0.042 C 
ATOM      7  O   UNL     1      39.084  28.096  37.002  1.00  0.00    -0.550 OA
ATOM      8  O   UNL     1      36.884  28.216  37.627  1.00  0.00    -0.550 OA
ENDBRANCH   5   6
ENDBRANCH   1   5
TORSDOF 3
ENDMDL
MODEL 8
REMARK VINA RESULT:    -3.552     21.320     22.372
REMARK INTER + INTRA:          -4.300
REMARK INTER:                  -4.260
REMARK INTRA:                  -0.041
REMARK UNBOUND:                -0.125
REMARK SMILES O=C([O-])CCC(=O)[O-]
REMARK SMILES IDX 4 1 2 2 1 3 3 4 5 5 6 6 7 7 8 8
REMARK H PARENT
REMARK Flexibility Score: inf
ROOT
ATOM      1  C   UNL     1      37.400  26.594  34.842  1.00  0.00     0.059 C 
ENDROOT
BRANCH   1   2
ATOM      2  C   UNL     1      37.785  27.281  36.113  1.00  0.00     0.042 C 
ATOM      3  O   UNL     1      36.898  27.757  36.869  1.00  0.00    -0.550 OA
ATOM      4  O   UNL     1      39.125  27.440  36.440  1.00  0.00    -0.550 OA
ENDBRANCH   1   2
BRANCH   1   5
ATOM      5  C   UNL     1      38.586  26.549  33.877  1.00  0.00     0.059 C 
BRANCH   5   6
ATOM      6  C   UNL     1      38.302  25.621  32.739  1.00  0.00     0.042 C 
ATOM      7  O   UNL     1      37.406  24.743  32.846  1.00  0.00    -0.550 OA
ATOM      8  O   UNL     1      38.991  25.759  31.541  1.00  0.00    -0.550 OA
ENDBRANCH   5   6
ENDBRANCH   1   5
TORSDOF 3
ENDMDL
MODEL 9
REMARK VINA RESULT:    -3.490      1.864      2.607
REMARK INTER + INTRA:          -4.228
REMARK INTER:                  -4.118
REMARK INTRA:                  -0.109
REMARK UNBOUND:                -0.125
REMARK SMILES O=C([O-])CCC(=O)[O-]
REMARK SMILES IDX 4 1 2 2 1 3 3 4 5 5 6 6 7 7 8 8
REMARK H PARENT
REMARK Flexibility Score: inf
ROOT
ATOM      1  C   UNL     1      20.865  11.855  39.376  1.00  0.00     0.059 C 
ENDROOT
BRANCH   1   2
ATOM      2  C   UNL     1      20.913  11.823  37.881  1.00  0.00     0.042 C 
ATOM      3  O   UNL     1      20.377  10.875  37.250  1.00  0.00    -0.550 OA
ATOM      4  O   UNL     1      21.590  12.817  37.186  1.00  0.00    -0.550 OA
ENDBRANCH   1   2
BRANCH   1   5
ATOM      5  C   UNL     1      19.545  12.458  39.858  1.00  0.00     0.059 C 
BRANCH   5   6
ATOM      6  C   UNL     1      19.757  13.849  40.364  1.00  0.00     0.042 C 
ATOM      7  O   UNL     1      20.099  14.043  41.560  1.00  0.00    -0.550 OA
ATOM      8  O   UNL     1      19.627  14.930  39.502  1.00  0.00    -0.550 OA
ENDBRANCH   5   6
ENDBRANCH   1   5
TORSDOF 3
ENDMDL
