MODEL 1
REMARK VINA RESULT:    -4.325      0.000      0.000
REMARK INTER + INTRA:          -7.112
REMARK INTER:                  -6.348
REMARK INTRA:                  -0.764
REMARK UNBOUND:                -0.764
REMARK SMILES O=C([O-])CCCCCCCC(=O)[O-]
REMARK SMILES IDX 7 1 6 2 5 3 4 4 2 5 1 6 3 7 8 8 9 9 10 10 11 11 12 12 13 13
REMARK H PARENT
REMARK Flexibility Score: inf
ROOT
ATOM      1  C   UNL     1      63.281  30.325  13.268  1.00  0.00     0.000 C 
ENDROOT
BRANCH   1   2
ATOM      2  C   UNL     1      62.620  28.935  13.254  1.00  0.00     0.000 C 
BRANCH   2   3
ATOM      3  C   UNL     1      61.162  28.904  13.751  1.00  0.00     0.006 C 
BRANCH   3   4
ATOM      4  C   UNL     1      60.243  28.065  12.855  1.00  0.00     0.053 C 
BRANCH   4   5
ATOM      5  C   UNL     1      60.188  28.641  11.476  1.00  0.00     0.041 C 
ATOM      6  O   UNL     1      59.609  29.740  11.271  1.00  0.00    -0.550 OA
ATOM      7  O   UNL     1      60.732  27.940  10.408  1.00  0.00    -0.550 OA
ENDBRANCH   4   5
ENDBRANCH   3   4
ENDBRANCH   2   3
ENDBRANCH   1   2
BRANCH   1   8
ATOM      8  C   UNL     1      62.510  31.422  12.509  1.00  0.00     0.000 C 
BRANCH   8   9
ATOM      9  C   UNL     1      61.954  32.537  13.422  1.00  0.00     0.006 C 
BRANCH   9  10
ATOM     10  C   UNL     1      60.431  32.685  13.305  1.00  0.00     0.053 C 
BRANCH  10  11
ATOM     11  C   UNL     1      59.753  32.050  14.478  1.00  0.00     0.041 C 
ATOM     12  O   UNL     1      58.568  31.639  14.378  1.00  0.00    -0.550 OA
ATOM     13  O   UNL     1      60.447  31.866  15.667  1.00  0.00    -0.550 OA
ENDBRANCH  10  11
ENDBRANCH   9  10
ENDBRANCH   8   9
ENDBRANCH   1   8
TORSDOF 8
ENDMDL
MODEL 2
REMARK VINA RESULT:    -4.311     12.030     13.021
REMARK INTER + INTRA:          -7.091
REMARK INTER:                  -6.372
REMARK INTRA:                  -0.719
REMARK UNBOUND:                -0.764
REMARK SMILES O=C([O-])CCCCCCCC(=O)[O-]
REMARK SMILES IDX 7 1 6 2 5 3 4 4 2 5 1 6 3 7 8 8 9 9 10 10 11 11 12 12 13 13
REMARK H PARENT
REMARK Flexibility Score: inf
ROOT
ATOM      1  C   UNL     1      63.492  29.542  24.636  1.00  0.00     0.000 C 
ENDROOT
BRANCH   1   2
ATOM      2  C   UNL     1      64.355  28.858  25.712  1.00  0.00     0.000 C 
BRANCH   2   3
ATOM      3  C   UNL     1      65.307  27.768  25.186  1.00  0.00     0.006 C 
BRANCH   3   4
ATOM      4  C   UNL     1      64.722  26.355  25.307  1.00  0.00     0.053 C 
BRANCH   4   5
ATOM      5  C   UNL     1      64.491  25.767  23.951  1.00  0.00     0.041 C 
ATOM      6  O   UNL     1      65.354  25.907  23.044  1.00  0.00    -0.550 OA
ATOM      7  O   UNL     1      63.300  25.110  23.673  1.00  0.00    -0.550 OA
ENDBRANCH   4   5
ENDBRANCH   3   4
ENDBRANCH   2   3
ENDBRANCH   1   2
BRANCH   1   8
ATOM      8  C   UNL     1      61.971  29.411  24.839  1.00  0.00     0.000 C 
BRANCH   8   9
ATOM      9  C   UNL     1      61.432  27.983  24.606  1.00  0.00     0.006 C 
BRANCH   9  10
ATOM     10  C   UNL     1      60.457  27.538  25.704  1.00  0.00     0.053 C 
BRANCH  10  11
ATOM     11  C   UNL     1      61.142  27.511  27.033  1.00  0.00     0.041 C 
ATOM     12  O   UNL     1      61.991  26.617  27.290  1.00  0.00    -0.550 OA
ATOM     13  O   UNL     1      60.881  28.502  27.970  1.00  0.00    -0.550 OA
ENDBRANCH  10  11
ENDBRANCH   9  10
ENDBRANCH   8   9
ENDBRANCH   1   8
TORSDOF 8
ENDMDL
MODEL 3
REMARK VINA RESULT:    -4.296      1.466      2.203
REMARK INTER + INTRA:          -7.069
REMARK INTER:                  -6.301
REMARK INTRA:                  -0.767
REMARK UNBOUND:                -0.764
REMARK SMILES O=C([O-])CCCCCCCC(=O)[O-]
REMARK SMILES IDX 7 1 6 2 5 3 4 4 2 5 1 6 3 7 8 8 9 9 10 10 11 11 12 12 13 13
REMARK H PARENT
REMARK Flexibility Score: inf
ROOT
ATOM      1  C   UNL     1      61.860  28.568  12.979  1.00  0.00     0.000 C 
ENDROOT
BRANCH   1   2
ATOM      2  C   UNL     1      60.392  28.228  13.295  1.00  0.00     0.000 C 
BRANCH   2   3
ATOM      3  C   UNL     1      59.419  28.391  12.112  1.00  0.00     0.006 C 
BRANCH   3   4
ATOM      4  C   UNL     1      59.919  29.389  11.061  1.00  0.00     0.053 C 
BRANCH   4   5
ATOM      5  C   UNL     1      60.105  28.710   9.741  1.00  0.00     0.041 C 
ATOM      6  O   UNL     1      59.117  28.215   9.139  1.00  0.00    -0.550 OA
ATOM      7  O   UNL     1      61.378  28.579   9.201  1.00  0.00    -0.550 OA
ENDBRANCH   4   5
ENDBRANCH   3   4
ENDBRANCH   2   3
ENDBRANCH   1   2
BRANCH   1   8
ATOM      8  C   UNL     1      62.521  29.567  13.948  1.00  0.00     0.000 C 
BRANCH   8   9
ATOM      9  C   UNL     1      61.520  30.292  14.873  1.00  0.00     0.006 C 
BRANCH   9  10
ATOM     10  C   UNL     1      61.415  31.791  14.564  1.00  0.00     0.053 C 
BRANCH  10  11
ATOM     11  C   UNL     1      60.214  32.067  13.716  1.00  0.00     0.041 C 
ATOM     12  O   UNL     1      60.341  32.650  12.607  1.00  0.00    -0.550 OA
ATOM     13  O   UNL     1      58.959  31.636  14.127  1.00  0.00    -0.550 OA
ENDBRANCH  10  11
ENDBRANCH   9  10
ENDBRANCH   8   9
ENDBRANCH   1   8
TORSDOF 8
ENDMDL
MODEL 4
REMARK VINA RESULT:    -4.280     12.673     13.885
REMARK INTER + INTRA:          -7.045
REMARK INTER:                  -6.326
REMARK INTRA:                  -0.720
REMARK UNBOUND:                -0.764
REMARK SMILES O=C([O-])CCCCCCCC(=O)[O-]
REMARK SMILES IDX 7 1 6 2 5 3 4 4 2 5 1 6 3 7 8 8 9 9 10 10 11 11 12 12 13 13
REMARK H PARENT
REMARK Flexibility Score: inf
ROOT
ATOM      1  C   UNL     1      63.202  30.276  25.311  1.00  0.00     0.000 C 
ENDROOT
BRANCH   1   2
ATOM      2  C   UNL     1      61.871  29.536  25.084  1.00  0.00     0.000 C 
BRANCH   2   3
ATOM      3  C   UNL     1      61.982  28.237  24.264  1.00  0.00     0.006 C 
BRANCH   3   4
ATOM      4  C   UNL     1      61.968  26.977  25.138  1.00  0.00     0.053 C 
BRANCH   4   5
ATOM      5  C   UNL     1      63.254  26.227  24.994  1.00  0.00     0.041 C 
ATOM      6  O   UNL     1      64.223  26.479  25.757  1.00  0.00    -0.550 OA
ATOM      7  O   UNL     1      63.400  25.285  23.984  1.00  0.00    -0.550 OA
ENDBRANCH   4   5
ENDBRANCH   3   4
ENDBRANCH   2   3
ENDBRANCH   1   2
BRANCH   1   8
ATOM      8  C   UNL     1      63.774  30.169  26.737  1.00  0.00     0.000 C 
BRANCH   8   9
ATOM      9  C   UNL     1      62.693  30.049  27.833  1.00  0.00     0.006 C 
BRANCH   9  10
ATOM     10  C   UNL     1      62.733  28.693  28.550  1.00  0.00     0.053 C 
BRANCH  10  11
ATOM     11  C   UNL     1      61.345  28.181  28.776  1.00  0.00     0.041 C 
ATOM     12  O   UNL     1      60.428  28.970  29.125  1.00  0.00    -0.550 OA
ATOM     13  O   UNL     1      61.053  26.842  28.554  1.00  0.00    -0.550 OA
ENDBRANCH  10  11
ENDBRANCH   9  10
ENDBRANCH   8   9
ENDBRANCH   1   8
TORSDOF 8
ENDMDL
MODEL 5
REMARK VINA RESULT:    -4.224      1.251      4.678
REMARK INTER + INTRA:          -6.963
REMARK INTER:                  -6.226
REMARK INTRA:                  -0.737
REMARK UNBOUND:                -0.764
REMARK SMILES O=C([O-])CCCCCCCC(=O)[O-]
REMARK SMILES IDX 7 1 6 2 5 3 4 4 2 5 1 6 3 7 8 8 9 9 10 10 11 11 12 12 13 13
REMARK H PARENT
REMARK Flexibility Score: inf
ROOT
ATOM      1  C   UNL     1      62.088  28.617  13.189  1.00  0.00     0.000 C 
ENDROOT
BRANCH   1   2
ATOM      2  C   UNL     1      62.874  29.862  13.639  1.00  0.00     0.000 C 
BRANCH   2   3
ATOM      3  C   UNL     1      62.087  30.836  14.536  1.00  0.00     0.006 C 
BRANCH   3   4
ATOM      4  C   UNL     1      61.654  32.110  13.800  1.00  0.00     0.053 C 
BRANCH   4   5
ATOM      5  C   UNL     1      60.330  32.584  14.308  1.00  0.00     0.041 C 
ATOM      6  O   UNL     1      59.283  31.932  14.051  1.00  0.00    -0.550 OA
ATOM      7  O   UNL     1      60.244  33.772  15.020  1.00  0.00    -0.550 OA
ENDBRANCH   4   5
ENDBRANCH   3   4
ENDBRANCH   2   3
ENDBRANCH   1   2
BRANCH   1   8
ATOM      8  C   UNL     1      60.604  28.597  13.600  1.00  0.00     0.000 C 
BRANCH   8   9
ATOM      9  C   UNL     1      59.627  28.588  12.404  1.00  0.00     0.006 C 
BRANCH   9  10
ATOM     10  C   UNL     1      60.004  29.618  11.331  1.00  0.00     0.053 C 
BRANCH  10  11
ATOM     11  C   UNL     1      60.021  28.979   9.978  1.00  0.00     0.041 C 
ATOM     12  O   UNL     1      59.287  29.427   9.058  1.00  0.00    -0.550 OA
ATOM     13  O   UNL     1      60.882  27.922   9.719  1.00  0.00    -0.550 OA
ENDBRANCH  10  11
ENDBRANCH   9  10
ENDBRANCH   8   9
ENDBRANCH   1   8
TORSDOF 8
ENDMDL
MODEL 6
REMARK VINA RESULT:    -4.222     11.984     13.055
REMARK INTER + INTRA:          -6.961
REMARK INTER:                  -6.249
REMARK INTRA:                  -0.712
REMARK UNBOUND:                -0.764
REMARK SMILES O=C([O-])CCCCCCCC(=O)[O-]
REMARK SMILES IDX 7 1 6 2 5 3 4 4 2 5 1 6 3 7 8 8 9 9 10 10 11 11 12 12 13 13
REMARK H PARENT
REMARK Flexibility Score: inf
ROOT
ATOM      1  C   UNL     1      64.514  30.101  25.150  1.00  0.00     0.000 C 
ENDROOT
BRANCH   1   2
ATOM      2  C   UNL     1      63.060  30.130  24.645  1.00  0.00     0.000 C 
BRANCH   2   3
ATOM      3  C   UNL     1      62.066  29.300  25.479  1.00  0.00     0.006 C 
BRANCH   3   4
ATOM      4  C   UNL     1      61.383  28.193  24.668  1.00  0.00     0.053 C 
BRANCH   4   5
ATOM      5  C   UNL     1      60.660  27.249  25.575  1.00  0.00     0.041 C 
ATOM      6  O   UNL     1      59.537  26.785  25.243  1.00  0.00    -0.550 OA
ATOM      7  O   UNL     1      61.202  26.922  26.812  1.00  0.00    -0.550 OA
ENDBRANCH   4   5
ENDBRANCH   3   4
ENDBRANCH   2   3
ENDBRANCH   1   2
BRANCH   1   8
ATOM      8  C   UNL     1      64.906  28.837  25.939  1.00  0.00     0.000 C 
BRANCH   8   9
ATOM      9  C   UNL     1      65.386  27.671  25.047  1.00  0.00     0.006 C 
BRANCH   9  10
ATOM     10  C   UNL     1      64.621  26.370  25.322  1.00  0.00     0.053 C 
BRANCH  10  11
ATOM     11  C   UNL     1      64.300  25.671  24.038  1.00  0.00     0.041 C 
ATOM     12  O   UNL     1      63.164  25.156  23.865  1.00  0.00    -0.550 OA
ATOM     13  O   UNL     1      65.237  25.633  23.014  1.00  0.00    -0.550 OA
ENDBRANCH  10  11
ENDBRANCH   9  10
ENDBRANCH   8   9
ENDBRANCH   1   8
TORSDOF 8
ENDMDL
MODEL 7
REMARK VINA RESULT:    -4.180      1.938      4.841
REMARK INTER + INTRA:          -6.899
REMARK INTER:                  -6.246
REMARK INTRA:                  -0.653
REMARK UNBOUND:                -0.764
REMARK SMILES O=C([O-])CCCCCCCC(=O)[O-]
REMARK SMILES IDX 7 1 6 2 5 3 4 4 2 5 1 6 3 7 8 8 9 9 10 10 11 11 12 12 13 13
REMARK H PARENT
REMARK Flexibility Score: inf
ROOT
ATOM      1  C   UNL     1      60.603  28.251  12.998  1.00  0.00     0.000 C 
ENDROOT
BRANCH   1   2
ATOM      2  C   UNL     1      61.713  29.024  13.732  1.00  0.00     0.000 C 
BRANCH   2   3
ATOM      3  C   UNL     1      61.215  30.097  14.717  1.00  0.00     0.006 C 
BRANCH   3   4
ATOM      4  C   UNL     1      61.449  31.526  14.212  1.00  0.00     0.053 C 
BRANCH   4   5
ATOM      5  C   UNL     1      60.201  32.340  14.346  1.00  0.00     0.041 C 
ATOM      6  O   UNL     1      60.267  33.547  14.698  1.00  0.00    -0.550 OA
ATOM      7  O   UNL     1      58.961  31.751  14.134  1.00  0.00    -0.550 OA
ENDBRANCH   4   5
ENDBRANCH   3   4
ENDBRANCH   2   3
ENDBRANCH   1   2
BRANCH   1   8
ATOM      8  C   UNL     1      59.826  29.065  11.946  1.00  0.00     0.000 C 
BRANCH   8   9
ATOM      9  C   UNL     1      60.724  29.694  10.859  1.00  0.00     0.006 C 
BRANCH   9  10
ATOM     10  C   UNL     1      61.573  28.649  10.122  1.00  0.00     0.053 C 
BRANCH  10  11
ATOM     11  C   UNL     1      62.997  29.100  10.034  1.00  0.00     0.041 C 
ATOM     12  O   UNL     1      63.746  28.656   9.125  1.00  0.00    -0.550 OA
ATOM     13  O   UNL     1      63.482  30.048  10.925  1.00  0.00    -0.550 OA
ENDBRANCH  10  11
ENDBRANCH   9  10
ENDBRANCH   8   9
ENDBRANCH   1   8
TORSDOF 8
ENDMDL
MODEL 8
REMARK VINA RESULT:    -4.150      1.719      5.297
REMARK INTER + INTRA:          -6.855
REMARK INTER:                  -6.169
REMARK INTRA:                  -0.685
REMARK UNBOUND:                -0.764
REMARK SMILES O=C([O-])CCCCCCCC(=O)[O-]
REMARK SMILES IDX 7 1 6 2 5 3 4 4 2 5 1 6 3 7 8 8 9 9 10 10 11 11 12 12 13 13
REMARK H PARENT
REMARK Flexibility Score: inf
ROOT
ATOM      1  C   UNL     1      60.033  29.882  13.087  1.00  0.00     0.000 C 
ENDROOT
BRANCH   1   2
ATOM      2  C   UNL     1      60.006  31.278  12.436  1.00  0.00     0.000 C 
BRANCH   2   3
ATOM      3  C   UNL     1      60.993  32.294  13.039  1.00  0.00     0.006 C 
BRANCH   3   4
ATOM      4  C   UNL     1      60.338  33.224  14.068  1.00  0.00     0.053 C 
BRANCH   4   5
ATOM      5  C   UNL     1      60.934  33.007  15.423  1.00  0.00     0.041 C 
ATOM      6  O   UNL     1      60.600  32.005  16.109  1.00  0.00    -0.550 OA
ATOM      7  O   UNL     1      61.819  33.939  15.950  1.00  0.00    -0.550 OA
ENDBRANCH   4   5
ENDBRANCH   3   4
ENDBRANCH   2   3
ENDBRANCH   1   2
BRANCH   1   8
ATOM      8  C   UNL     1      61.341  29.529  13.820  1.00  0.00     0.000 C 
BRANCH   8   9
ATOM      9  C   UNL     1      62.255  28.565  13.033  1.00  0.00     0.006 C 
BRANCH   9  10
ATOM     10  C   UNL     1      63.160  29.299  12.034  1.00  0.00     0.053 C 
BRANCH  10  11
ATOM     11  C   UNL     1      62.813  28.910  10.632  1.00  0.00     0.041 C 
ATOM     12  O   UNL     1      61.666  28.466  10.363  1.00  0.00    -0.550 OA
ATOM     13  O   UNL     1      63.740  29.084   9.612  1.00  0.00    -0.550 OA
ENDBRANCH  10  11
ENDBRANCH   9  10
ENDBRANCH   8   9
ENDBRANCH   1   8
TORSDOF 8
ENDMDL
MODEL 9
REMARK VINA RESULT:    -4.149     11.975     13.215
REMARK INTER + INTRA:          -6.854
REMARK INTER:                  -6.269
REMARK INTRA:                  -0.585
REMARK UNBOUND:                -0.764
REMARK SMILES O=C([O-])CCCCCCCC(=O)[O-]
REMARK SMILES IDX 7 1 6 2 5 3 4 4 2 5 1 6 3 7 8 8 9 9 10 10 11 11 12 12 13 13
REMARK H PARENT
REMARK Flexibility Score: inf
ROOT
ATOM      1  C   UNL     1      61.986  28.826  24.637  1.00  0.00     0.000 C 
ENDROOT
BRANCH   1   2
ATOM      2  C   UNL     1      62.891  28.156  23.587  1.00  0.00     0.000 C 
BRANCH   2   3
ATOM      3  C   UNL     1      63.215  26.675  23.858  1.00  0.00     0.006 C 
BRANCH   3   4
ATOM      4  C   UNL     1      64.607  26.470  24.469  1.00  0.00     0.053 C 
BRANCH   4   5
ATOM      5  C   UNL     1      65.649  26.441  23.397  1.00  0.00     0.041 C 
ATOM      6  O   UNL     1      65.901  25.368  22.788  1.00  0.00    -0.550 OA
ATOM      7  O   UNL     1      66.380  27.586  23.107  1.00  0.00    -0.550 OA
ENDBRANCH   4   5
ENDBRANCH   3   4
ENDBRANCH   2   3
ENDBRANCH   1   2
BRANCH   1   8
ATOM      8  C   UNL     1      60.894  27.916  25.232  1.00  0.00     0.000 C 
BRANCH   8   9
ATOM      9  C   UNL     1      61.102  27.591  26.727  1.00  0.00     0.006 C 
BRANCH   9  10
ATOM     10  C   UNL     1      62.256  28.390  27.346  1.00  0.00     0.053 C 
BRANCH  10  11
ATOM     11  C   UNL     1      61.736  29.359  28.361  1.00  0.00     0.041 C 
ATOM     12  O   UNL     1      60.699  29.088  29.021  1.00  0.00    -0.550 OA
ATOM     13  O   UNL     1      62.424  30.539  28.611  1.00  0.00    -0.550 OA
ENDBRANCH  10  11
ENDBRANCH   9  10
ENDBRANCH   8   9
ENDBRANCH   1   8
TORSDOF 8
ENDMDL
