MODEL 1
REMARK VINA RESULT:    -6.237      0.000      0.000
REMARK INTER + INTRA:          -6.868
REMARK INTER:                  -6.601
REMARK INTRA:                  -0.267
REMARK UNBOUND:                -0.267
REMARK SMILES CC1=CC[C@H]2[C@H]3[C@@H]1[C@]2(C)CC[C@H]3C(C)C
REMARK SMILES IDX 1 1 2 2 3 3 4 4 5 5 6 6 7 7 8 8 10 9 11 10 12 11 9 12 13 13
REMARK SMILES IDX 14 14 15 15
REMARK H PARENT
REMARK Flexibility Score: inf
ROOT
ATOM      1  C   UNL     1     -44.427 -46.147  27.671  1.00  0.00     0.039 C 
ATOM      2  C   UNL     1     -43.280 -47.052  27.346  1.00  0.00    -0.073 C 
ATOM      3  C   UNL     1     -43.036 -47.451  26.068  1.00  0.00    -0.027 C 
ATOM      4  C   UNL     1     -41.875 -48.406  25.801  1.00  0.00     0.031 C 
ATOM      5  C   UNL     1     -41.121 -48.744  27.135  1.00  0.00     0.003 C 
ATOM      6  C   UNL     1     -40.898 -47.405  27.883  1.00  0.00     0.004 C 
ATOM      7  C   UNL     1     -42.334 -47.580  28.427  1.00  0.00     0.024 C 
ATOM      8  C   UNL     1     -42.117 -49.099  28.258  1.00  0.00    -0.022 C 
ATOM      9  C   UNL     1     -41.359 -49.656  29.497  1.00  0.00     0.008 C 
ATOM     10  C   UNL     1     -40.041 -48.884  29.824  1.00  0.00     0.005 C 
ATOM     11  C   UNL     1     -39.876 -47.536  29.047  1.00  0.00    -0.005 C 
ATOM     12  C   UNL     1     -43.323 -50.004  27.915  1.00  0.00     0.012 C 
ENDROOT
BRANCH  11  13
ATOM     13  C   UNL     1     -38.395 -47.273  28.627  1.00  0.00    -0.014 C 
ATOM     14  C   UNL     1     -37.729 -46.107  29.381  1.00  0.00     0.007 C 
ATOM     15  C   UNL     1     -37.524 -48.540  28.750  1.00  0.00     0.007 C 
ENDBRANCH  11  13
TORSDOF 1
ENDMDL
MODEL 2
REMARK VINA RESULT:    -6.039     10.269     12.436
REMARK INTER + INTRA:          -6.659
REMARK INTER:                  -6.386
REMARK INTRA:                  -0.272
REMARK UNBOUND:                -0.267
REMARK SMILES CC1=CC[C@H]2[C@H]3[C@@H]1[C@]2(C)CC[C@H]3C(C)C
REMARK SMILES IDX 1 1 2 2 3 3 4 4 5 5 6 6 7 7 8 8 10 9 11 10 12 11 9 12 13 13
REMARK SMILES IDX 14 14 15 15
REMARK H PARENT
REMARK Flexibility Score: inf
ROOT
ATOM      1  C   UNL     1     -49.989 -50.133  23.937  1.00  0.00     0.039 C 
ATOM      2  C   UNL     1     -50.018 -49.364  22.654  1.00  0.00    -0.073 C 
ATOM      3  C   UNL     1     -49.639 -48.058  22.604  1.00  0.00    -0.027 C 
ATOM      4  C   UNL     1     -49.727 -47.313  21.274  1.00  0.00     0.031 C 
ATOM      5  C   UNL     1     -50.244 -48.267  20.141  1.00  0.00     0.003 C 
ATOM      6  C   UNL     1     -49.449 -49.592  20.263  1.00  0.00     0.004 C 
ATOM      7  C   UNL     1     -50.480 -49.999  21.340  1.00  0.00     0.024 C 
ATOM      8  C   UNL     1     -51.474 -49.070  20.612  1.00  0.00    -0.022 C 
ATOM      9  C   UNL     1     -52.115 -49.828  19.415  1.00  0.00     0.008 C 
ATOM     10  C   UNL     1     -51.070 -50.478  18.453  1.00  0.00     0.005 C 
ATOM     11  C   UNL     1     -49.609 -50.500  19.012  1.00  0.00    -0.005 C 
ATOM     12  C   UNL     1     -52.564 -48.336  21.427  1.00  0.00     0.012 C 
ENDROOT
BRANCH  11  13
ATOM     13  C   UNL     1     -48.545 -50.244  17.898  1.00  0.00    -0.014 C 
ATOM     14  C   UNL     1     -47.316 -49.449  18.378  1.00  0.00     0.007 C 
ATOM     15  C   UNL     1     -48.088 -51.552  17.220  1.00  0.00     0.007 C 
ENDBRANCH  11  13
TORSDOF 1
ENDMDL
MODEL 3
REMARK VINA RESULT:    -5.999      3.006      5.480
REMARK INTER + INTRA:          -6.617
REMARK INTER:                  -6.338
REMARK INTRA:                  -0.280
REMARK UNBOUND:                -0.267
REMARK SMILES CC1=CC[C@H]2[C@H]3[C@@H]1[C@]2(C)CC[C@H]3C(C)C
REMARK SMILES IDX 1 1 2 2 3 3 4 4 5 5 6 6 7 7 8 8 10 9 11 10 12 11 9 12 13 13
REMARK SMILES IDX 14 14 15 15
REMARK H PARENT
REMARK Flexibility Score: inf
ROOT
ATOM      1  C   UNL     1     -44.165 -50.236  26.039  1.00  0.00     0.039 C 
ATOM      2  C   UNL     1     -44.131 -49.587  27.387  1.00  0.00    -0.073 C 
ATOM      3  C   UNL     1     -44.463 -48.277  27.549  1.00  0.00    -0.027 C 
ATOM      4  C   UNL     1     -44.372 -47.658  28.941  1.00  0.00     0.031 C 
ATOM      5  C   UNL     1     -43.910 -48.728  29.991  1.00  0.00     0.003 C 
ATOM      6  C   UNL     1     -44.749 -50.006  29.738  1.00  0.00     0.004 C 
ATOM      7  C   UNL     1     -43.715 -50.354  28.645  1.00  0.00     0.024 C 
ATOM      8  C   UNL     1     -42.702 -49.531  29.467  1.00  0.00    -0.022 C 
ATOM      9  C   UNL     1     -42.109 -50.417  30.600  1.00  0.00     0.008 C 
ATOM     10  C   UNL     1     -43.194 -51.110  31.485  1.00  0.00     0.005 C 
ATOM     11  C   UNL     1     -44.645 -51.028  30.905  1.00  0.00    -0.005 C 
ATOM     12  C   UNL     1     -41.572 -48.768  28.737  1.00  0.00     0.012 C 
ENDROOT
BRANCH  11  13
ATOM     13  C   UNL     1     -45.718 -50.832  32.022  1.00  0.00    -0.014 C 
ATOM     14  C   UNL     1     -46.948 -50.020  31.573  1.00  0.00     0.007 C 
ATOM     15  C   UNL     1     -46.173 -52.174  32.631  1.00  0.00     0.007 C 
ENDBRANCH  11  13
TORSDOF 1
ENDMDL
MODEL 4
REMARK VINA RESULT:    -5.882     10.617     13.869
REMARK INTER + INTRA:          -6.493
REMARK INTER:                  -6.235
REMARK INTRA:                  -0.258
REMARK UNBOUND:                -0.267
REMARK SMILES CC1=CC[C@H]2[C@H]3[C@@H]1[C@]2(C)CC[C@H]3C(C)C
REMARK SMILES IDX 1 1 2 2 3 3 4 4 5 5 6 6 7 7 8 8 10 9 11 10 12 11 9 12 13 13
REMARK SMILES IDX 14 14 15 15
REMARK H PARENT
REMARK Flexibility Score: inf
ROOT
ATOM      1  C   UNL     1     -49.644 -45.875  22.590  1.00  0.00     0.039 C 
ATOM      2  C   UNL     1     -50.706 -46.889  22.878  1.00  0.00    -0.073 C 
ATOM      3  C   UNL     1     -50.912 -47.357  24.139  1.00  0.00    -0.027 C 
ATOM      4  C   UNL     1     -51.983 -48.420  24.368  1.00  0.00     0.031 C 
ATOM      5  C   UNL     1     -52.708 -48.771  23.021  1.00  0.00     0.003 C 
ATOM      6  C   UNL     1     -53.049 -47.429  22.325  1.00  0.00     0.004 C 
ATOM      7  C   UNL     1     -51.605 -47.456  21.777  1.00  0.00     0.024 C 
ATOM      8  C   UNL     1     -51.687 -48.993  21.885  1.00  0.00    -0.022 C 
ATOM      9  C   UNL     1     -52.396 -49.566  20.626  1.00  0.00     0.008 C 
ATOM     10  C   UNL     1     -53.778 -48.901  20.327  1.00  0.00     0.005 C 
ATOM     11  C   UNL     1     -54.059 -47.604  21.156  1.00  0.00    -0.005 C 
ATOM     12  C   UNL     1     -50.406 -49.801  22.194  1.00  0.00     0.012 C 
ENDROOT
BRANCH  11  13
ATOM     13  C   UNL     1     -55.556 -47.489  21.585  1.00  0.00    -0.014 C 
ATOM     14  C   UNL     1     -56.281 -46.262  21.000  1.00  0.00     0.007 C 
ATOM     15  C   UNL     1     -56.353 -48.770  21.260  1.00  0.00     0.007 C 
ENDBRANCH  11  13
TORSDOF 1
ENDMDL
MODEL 5
REMARK VINA RESULT:    -5.817     10.265     13.547
REMARK INTER + INTRA:          -6.424
REMARK INTER:                  -6.184
REMARK INTRA:                  -0.240
REMARK UNBOUND:                -0.267
REMARK SMILES CC1=CC[C@H]2[C@H]3[C@@H]1[C@]2(C)CC[C@H]3C(C)C
REMARK SMILES IDX 1 1 2 2 3 3 4 4 5 5 6 6 7 7 8 8 10 9 11 10 12 11 9 12 13 13
REMARK SMILES IDX 14 14 15 15
REMARK H PARENT
REMARK Flexibility Score: inf
ROOT
ATOM      1  C   UNL     1     -50.276 -50.104  24.623  1.00  0.00     0.039 C 
ATOM      2  C   UNL     1     -50.666 -49.385  23.371  1.00  0.00    -0.073 C 
ATOM      3  C   UNL     1     -50.049 -49.643  22.186  1.00  0.00    -0.027 C 
ATOM      4  C   UNL     1     -50.462 -48.849  20.949  1.00  0.00     0.031 C 
ATOM      5  C   UNL     1     -51.613 -47.843  21.299  1.00  0.00     0.003 C 
ATOM      6  C   UNL     1     -52.660 -48.622  22.134  1.00  0.00     0.004 C 
ATOM      7  C   UNL     1     -51.767 -48.321  23.358  1.00  0.00     0.024 C 
ATOM      8  C   UNL     1     -51.295 -47.066  22.593  1.00  0.00    -0.022 C 
ATOM      9  C   UNL     1     -52.320 -45.915  22.799  1.00  0.00     0.008 C 
ATOM     10  C   UNL     1     -53.791 -46.319  22.462  1.00  0.00     0.005 C 
ATOM     11  C   UNL     1     -54.006 -47.856  22.266  1.00  0.00    -0.005 C 
ATOM     12  C   UNL     1     -49.854 -46.545  22.804  1.00  0.00     0.012 C 
ENDROOT
BRANCH  11  13
ATOM     13  C   UNL     1     -55.031 -48.170  21.130  1.00  0.00    -0.014 C 
ATOM     14  C   UNL     1     -56.118 -49.186  21.531  1.00  0.00     0.007 C 
ATOM     15  C   UNL     1     -55.692 -46.890  20.576  1.00  0.00     0.007 C 
ENDBRANCH  11  13
TORSDOF 1
ENDMDL
MODEL 6
REMARK VINA RESULT:    -5.792      3.869      5.913
REMARK INTER + INTRA:          -6.398
REMARK INTER:                  -6.141
REMARK INTRA:                  -0.257
REMARK UNBOUND:                -0.267
REMARK SMILES CC1=CC[C@H]2[C@H]3[C@@H]1[C@]2(C)CC[C@H]3C(C)C
REMARK SMILES IDX 1 1 2 2 3 3 4 4 5 5 6 6 7 7 8 8 10 9 11 10 12 11 9 12 13 13
REMARK SMILES IDX 14 14 15 15
REMARK H PARENT
REMARK Flexibility Score: inf
ROOT
ATOM      1  C   UNL     1     -46.971 -49.278  33.185  1.00  0.00     0.039 C 
ATOM      2  C   UNL     1     -46.185 -50.272  32.389  1.00  0.00    -0.073 C 
ATOM      3  C   UNL     1     -46.701 -51.491  32.073  1.00  0.00    -0.027 C 
ATOM      4  C   UNL     1     -45.839 -52.480  31.293  1.00  0.00     0.031 C 
ATOM      5  C   UNL     1     -44.441 -51.850  30.961  1.00  0.00     0.003 C 
ATOM      6  C   UNL     1     -44.702 -50.420  30.422  1.00  0.00     0.004 C 
ATOM      7  C   UNL     1     -44.764 -49.977  31.901  1.00  0.00     0.024 C 
ATOM      8  C   UNL     1     -43.832 -51.169  32.204  1.00  0.00    -0.022 C 
ATOM      9  C   UNL     1     -42.357 -50.759  31.928  1.00  0.00     0.008 C 
ATOM     10  C   UNL     1     -42.132 -50.153  30.506  1.00  0.00     0.005 C 
ATOM     11  C   UNL     1     -43.450 -49.802  29.741  1.00  0.00    -0.005 C 
ATOM     12  C   UNL     1     -43.941 -51.891  33.567  1.00  0.00     0.012 C 
ENDROOT
BRANCH  11  13
ATOM     13  C   UNL     1     -43.344 -50.101  28.211  1.00  0.00    -0.014 C 
ATOM     14  C   UNL     1     -44.686 -50.004  27.460  1.00  0.00     0.007 C 
ATOM     15  C   UNL     1     -42.292 -49.210  27.518  1.00  0.00     0.007 C 
ENDBRANCH  11  13
TORSDOF 1
ENDMDL
MODEL 7
REMARK VINA RESULT:    -5.720      1.171      2.824
REMARK INTER + INTRA:          -6.322
REMARK INTER:                  -6.115
REMARK INTRA:                  -0.206
REMARK UNBOUND:                -0.267
REMARK SMILES CC1=CC[C@H]2[C@H]3[C@@H]1[C@]2(C)CC[C@H]3C(C)C
REMARK SMILES IDX 1 1 2 2 3 3 4 4 5 5 6 6 7 7 8 8 10 9 11 10 12 11 9 12 13 13
REMARK SMILES IDX 14 14 15 15
REMARK H PARENT
REMARK Flexibility Score: inf
ROOT
ATOM      1  C   UNL     1     -43.617 -49.589  24.390  1.00  0.00     0.039 C 
ATOM      2  C   UNL     1     -43.364 -49.331  25.842  1.00  0.00    -0.073 C 
ATOM      3  C   UNL     1     -44.037 -50.012  26.809  1.00  0.00    -0.027 C 
ATOM      4  C   UNL     1     -43.766 -49.679  28.274  1.00  0.00     0.031 C 
ATOM      5  C   UNL     1     -42.673 -48.559  28.391  1.00  0.00     0.003 C 
ATOM      6  C   UNL     1     -41.518 -48.949  27.435  1.00  0.00     0.004 C 
ATOM      7  C   UNL     1     -42.350 -48.286  26.314  1.00  0.00     0.024 C 
ATOM      8  C   UNL     1     -42.963 -47.399  27.418  1.00  0.00    -0.022 C 
ATOM      9  C   UNL     1     -42.016 -46.200  27.708  1.00  0.00     0.008 C 
ATOM     10  C   UNL     1     -40.544 -46.625  28.014  1.00  0.00     0.005 C 
ATOM     11  C   UNL     1     -40.227 -48.123  27.691  1.00  0.00    -0.005 C 
ATOM     12  C   UNL     1     -44.422 -46.906  27.273  1.00  0.00     0.012 C 
ENDROOT
BRANCH  11  13
ATOM     13  C   UNL     1     -39.258 -48.761  28.736  1.00  0.00    -0.014 C 
ATOM     14  C   UNL     1     -37.787 -48.337  28.565  1.00  0.00     0.007 C 
ATOM     15  C   UNL     1     -39.713 -48.497  30.186  1.00  0.00     0.007 C 
ENDBRANCH  11  13
TORSDOF 1
ENDMDL
MODEL 8
REMARK VINA RESULT:    -5.593     10.035     12.742
REMARK INTER + INTRA:          -6.187
REMARK INTER:                  -5.945
REMARK INTRA:                  -0.242
REMARK UNBOUND:                -0.267
REMARK SMILES CC1=CC[C@H]2[C@H]3[C@@H]1[C@]2(C)CC[C@H]3C(C)C
REMARK SMILES IDX 1 1 2 2 3 3 4 4 5 5 6 6 7 7 8 8 10 9 11 10 12 11 9 12 13 13
REMARK SMILES IDX 14 14 15 15
REMARK H PARENT
REMARK Flexibility Score: inf
ROOT
ATOM      1  C   UNL     1     -47.406 -48.470  16.004  1.00  0.00     0.039 C 
ATOM      2  C   UNL     1     -47.917 -49.496  16.966  1.00  0.00    -0.073 C 
ATOM      3  C   UNL     1     -47.379 -50.744  17.019  1.00  0.00    -0.027 C 
ATOM      4  C   UNL     1     -47.967 -51.763  17.993  1.00  0.00     0.031 C 
ATOM      5  C   UNL     1     -49.137 -51.123  18.819  1.00  0.00     0.003 C 
ATOM      6  C   UNL     1     -48.643 -49.739  19.312  1.00  0.00     0.004 C 
ATOM      7  C   UNL     1     -49.071 -49.201  17.928  1.00  0.00     0.024 C 
ATOM      8  C   UNL     1     -50.103 -50.347  17.900  1.00  0.00    -0.022 C 
ATOM      9  C   UNL     1     -51.375 -49.922  18.688  1.00  0.00     0.008 C 
ATOM     10  C   UNL     1     -51.073 -49.407  20.132  1.00  0.00     0.005 C 
ATOM     11  C   UNL     1     -49.558 -49.138  20.415  1.00  0.00    -0.005 C 
ATOM     12  C   UNL     1     -50.499 -50.980  16.546  1.00  0.00     0.012 C 
ENDROOT
BRANCH  11  13
ATOM     13  C   UNL     1     -49.149 -49.536  21.869  1.00  0.00    -0.014 C 
ATOM     14  C   UNL     1     -48.381 -48.435  22.625  1.00  0.00     0.007 C 
ATOM     15  C   UNL     1     -50.359 -49.997  22.707  1.00  0.00     0.007 C 
ENDBRANCH  11  13
TORSDOF 1
ENDMDL
MODEL 9
REMARK VINA RESULT:    -5.550      1.620      3.758
REMARK INTER + INTRA:          -6.141
REMARK INTER:                  -5.857
REMARK INTRA:                  -0.284
REMARK UNBOUND:                -0.267
REMARK SMILES CC1=CC[C@H]2[C@H]3[C@@H]1[C@]2(C)CC[C@H]3C(C)C
REMARK SMILES IDX 1 1 2 2 3 3 4 4 5 5 6 6 7 7 8 8 10 9 11 10 12 11 9 12 13 13
REMARK SMILES IDX 14 14 15 15
REMARK H PARENT
REMARK Flexibility Score: inf
ROOT
ATOM      1  C   UNL     1     -43.599 -49.583  24.389  1.00  0.00     0.039 C 
ATOM      2  C   UNL     1     -43.443 -48.741  25.616  1.00  0.00    -0.073 C 
ATOM      3  C   UNL     1     -44.289 -47.707  25.875  1.00  0.00    -0.027 C 
ATOM      4  C   UNL     1     -44.058 -46.858  27.123  1.00  0.00     0.031 C 
ATOM      5  C   UNL     1     -42.826 -47.393  27.933  1.00  0.00     0.003 C 
ATOM      6  C   UNL     1     -42.980 -48.932  28.032  1.00  0.00     0.004 C 
ATOM      7  C   UNL     1     -42.327 -48.991  26.633  1.00  0.00     0.024 C 
ATOM      8  C   UNL     1     -41.627 -47.666  27.002  1.00  0.00    -0.022 C 
ATOM      9  C   UNL     1     -40.351 -47.967  27.838  1.00  0.00     0.008 C 
ATOM     10  C   UNL     1     -40.614 -48.884  29.075  1.00  0.00     0.005 C 
ATOM     11  C   UNL     1     -42.025 -49.560  29.085  1.00  0.00    -0.005 C 
ATOM     12  C   UNL     1     -41.310 -46.640  25.890  1.00  0.00     0.012 C 
ENDROOT
BRANCH  11  13
ATOM     13  C   UNL     1     -42.629 -49.647  30.522  1.00  0.00    -0.014 C 
ATOM     14  C   UNL     1     -44.167 -49.731  30.550  1.00  0.00     0.007 C 
ATOM     15  C   UNL     1     -42.028 -50.813  31.335  1.00  0.00     0.007 C 
ENDBRANCH  11  13
TORSDOF 1
ENDMDL
