MODEL 1
REMARK VINA RESULT:    -5.973      0.000      0.000
REMARK INTER + INTRA:         -11.935
REMARK INTER:                  -9.815
REMARK INTRA:                  -2.121
REMARK UNBOUND:                -2.121
REMARK SMILES COc1ccc([C@H]2CC(=O)c3c(O)cc(O[C@H]4O[C@@H](CO[C@H]5O[C@H](C)[C@H](O)[C@H](O)[C@H]5O)[C@@H](O)[C@@H](O)[C@@H]4O)cc3O2)cc1O
REMARK SMILES IDX 19 1 32 2 34 3 36 4 17 5 18 6 20 7 21 8 22 9 25 10 24 11
REMARK SMILES IDX 26 12 23 13 28 14 30 15 27 16 29 18 31 20 33 22 35 24 16 26
REMARK SMILES IDX 15 27 14 28 38 29 12 30 39 31 11 32 40 33 9 34 7 35 10 36
REMARK SMILES IDX 8 37 13 38 6 40 41 41 5 42 42 43 4 44 3 45 43 46 2 48 1 49
REMARK SMILES IDX 37 50
REMARK H PARENT 27 17 29 19 31 21 33 23 35 25 13 39 43 47 37 51
REMARK Flexibility Score: inf
ROOT
ATOM      1  C   UNL     1      10.948  38.015  86.047  1.00  0.00     0.180 C 
ATOM      2  C   UNL     1      10.574  36.872  87.047  1.00  0.00     0.177 C 
ATOM      3  C   UNL     1      10.774  37.264  88.520  1.00  0.00     0.180 C 
ATOM      4  C   UNL     1      10.132  38.633  88.774  1.00  0.00     0.214 C 
ATOM      5  C   UNL     1      10.662  39.668  87.769  1.00  0.00     0.339 C 
ATOM      6  O   UNL     1      10.409  39.284  86.421  1.00  0.00    -0.332 OA
ENDROOT
BRANCH   1   7
ATOM      7  C   UNL     1      12.416  38.154  85.559  1.00  0.00     0.198 C 
BRANCH   7   8
ATOM      8  O   UNL     1      13.345  37.725  86.536  1.00  0.00    -0.347 OA
BRANCH   8   9
ATOM      9  C   UNL     1      14.441  37.045  85.946  1.00  0.00     0.281 C 
ATOM     10  C   UNL     1      16.365  39.915  84.707  1.00  0.00     0.041 C 
ATOM     11  C   UNL     1      15.972  38.803  85.686  1.00  0.00     0.150 C 
ATOM     12  C   UNL     1      17.194  38.077  86.324  1.00  0.00     0.174 C 
ATOM     13  O   UNL     1      15.149  37.868  85.016  1.00  0.00    -0.344 OA
ATOM     14  C   UNL     1      16.860  36.606  86.699  1.00  0.00     0.179 C 
ATOM     15  C   UNL     1      15.363  36.439  87.054  1.00  0.00     0.202 C 
BRANCH  12  16
ATOM     16  O   UNL     1      18.352  38.142  85.520  1.00  0.00    -0.388 OA
ATOM     17  H   UNL     1      18.135  37.741  84.633  1.00  0.00     0.211 HD
ENDBRANCH  12  16
BRANCH  14  18
ATOM     18  O   UNL     1      17.171  35.743  85.629  1.00  0.00    -0.387 OA
ATOM     19  H   UNL     1      16.543  35.961  84.891  1.00  0.00     0.211 HD
ENDBRANCH  14  18
BRANCH  15  20
ATOM     20  O   UNL     1      15.081  36.976  88.330  1.00  0.00    -0.385 OA
ATOM     21  H   UNL     1      14.597  37.832  88.206  1.00  0.00     0.211 HD
ENDBRANCH  15  20
ENDBRANCH   8   9
ENDBRANCH   7   8
ENDBRANCH   1   7
BRANCH   2  22
ATOM     22  O   UNL     1      11.232  35.661  86.769  1.00  0.00    -0.387 OA
ATOM     23  H   UNL     1      11.886  35.849  86.046  1.00  0.00     0.211 HD
ENDBRANCH   2  22
BRANCH   3  24
ATOM     24  O   UNL     1      12.122  37.247  88.936  1.00  0.00    -0.387 OA
ATOM     25  H   UNL     1      12.161  37.357  89.917  1.00  0.00     0.211 HD
ENDBRANCH   3  24
BRANCH   5  26
ATOM     26  O   UNL     1      12.049  39.965  87.979  1.00  0.00    -0.462 OA
BRANCH  26  27
ATOM     27  C   UNL     1      12.549  40.532  89.153  1.00  0.00     0.130 A 
ATOM     28  C   UNL     1      13.790  40.145  89.676  1.00  0.00     0.093 A 
ATOM     29  C   UNL     1      11.819  41.540  89.791  1.00  0.00     0.094 A 
ATOM     30  C   UNL     1      14.255  40.681  90.887  1.00  0.00     0.133 A 
ATOM     31  C   UNL     1      12.294  42.118  90.973  1.00  0.00     0.138 A 
ATOM     32  C   UNL     1      13.485  41.654  91.559  1.00  0.00     0.102 A 
ATOM     33  O   UNL     1      11.573  43.156  91.577  1.00  0.00    -0.484 OA
ATOM     34  C   UNL     1      13.855  42.193  92.887  1.00  0.00     0.174 C 
ATOM     35  C   UNL     1      12.135  43.988  92.600  1.00  0.00     0.211 C 
ATOM     36  O   UNL     1      14.918  41.834  93.458  1.00  0.00    -0.294 OA
ATOM     37  C   UNL     1      12.909  43.111  93.609  1.00  0.00     0.131 C 
BRANCH  30  38
ATOM     38  O   UNL     1      15.478  40.257  91.408  1.00  0.00    -0.507 OA
ATOM     39  H   UNL     1      15.961  39.444  91.037  1.00  0.00     0.293 HD
ENDBRANCH  30  38
BRANCH  35  40
ATOM     40  C   UNL     1      11.054  44.835  93.259  1.00  0.00    -0.003 A 
ATOM     41  C   UNL     1      10.686  44.618  94.603  1.00  0.00     0.057 A 
ATOM     42  C   UNL     1      10.314  45.769  92.506  1.00  0.00     0.011 A 
ATOM     43  C   UNL     1       9.652  45.362  95.194  1.00  0.00     0.158 A 
ATOM     44  C   UNL     1       9.295  46.519  93.097  1.00  0.00     0.051 A 
ATOM     45  C   UNL     1       8.959  46.326  94.449  1.00  0.00     0.160 A 
BRANCH  43  46
ATOM     46  O   UNL     1       9.303  45.145  96.528  1.00  0.00    -0.504 OA
ATOM     47  H   UNL     1       9.876  45.496  97.288  1.00  0.00     0.293 HD
ENDBRANCH  43  46
BRANCH  45  48
ATOM     48  O   UNL     1       7.945  47.064  95.081  1.00  0.00    -0.493 OA
ATOM     49  C   UNL     1       8.095  48.401  95.553  1.00  0.00     0.278 C 
ENDBRANCH  45  48
ENDBRANCH  35  40
ENDBRANCH  26  27
ENDBRANCH   5  26
BRANCH   4  50
ATOM     50  O   UNL     1       8.737  38.544  88.630  1.00  0.00    -0.384 OA
ATOM     51  H   UNL     1       8.561  37.930  87.867  1.00  0.00     0.211 HD
ENDBRANCH   4  50
TORSDOF 15
ENDMDL
MODEL 2
REMARK VINA RESULT:    -5.941      2.907      5.622
REMARK INTER + INTRA:         -11.883
REMARK INTER:                 -10.287
REMARK INTRA:                  -1.596
REMARK UNBOUND:                -2.121
REMARK SMILES COc1ccc([C@H]2CC(=O)c3c(O)cc(O[C@H]4O[C@@H](CO[C@H]5O[C@H](C)[C@H](O)[C@H](O)[C@H]5O)[C@@H](O)[C@@H](O)[C@@H]4O)cc3O2)cc1O
REMARK SMILES IDX 19 1 32 2 34 3 36 4 17 5 18 6 20 7 21 8 22 9 25 10 24 11
REMARK SMILES IDX 26 12 23 13 28 14 30 15 27 16 29 18 31 20 33 22 35 24 16 26
REMARK SMILES IDX 15 27 14 28 38 29 12 30 39 31 11 32 40 33 9 34 7 35 10 36
REMARK SMILES IDX 8 37 13 38 6 40 41 41 5 42 42 43 4 44 3 45 43 46 2 48 1 49
REMARK SMILES IDX 37 50
REMARK H PARENT 27 17 29 19 31 21 33 23 35 25 13 39 43 47 37 51
REMARK Flexibility Score: inf
ROOT
ATOM      1  C   UNL     1      14.788  40.493  90.336  1.00  0.00     0.180 C 
ATOM      2  C   UNL     1      15.593  41.535  89.493  1.00  0.00     0.177 C 
ATOM      3  C   UNL     1      15.316  42.990  89.902  1.00  0.00     0.180 C 
ATOM      4  C   UNL     1      15.417  43.119  91.427  1.00  0.00     0.214 C 
ATOM      5  C   UNL     1      14.506  42.087  92.113  1.00  0.00     0.339 C 
ATOM      6  O   UNL     1      14.834  40.752  91.740  1.00  0.00    -0.332 OA
ENDROOT
BRANCH   1   7
ATOM      7  C   UNL     1      13.355  40.091  89.890  1.00  0.00     0.198 C 
BRANCH   7   8
ATOM      8  O   UNL     1      13.280  38.734  89.496  1.00  0.00    -0.347 OA
BRANCH   8   9
ATOM      9  C   UNL     1      13.299  38.602  88.084  1.00  0.00     0.281 C 
ATOM     10  C   UNL     1      16.449  36.765  87.669  1.00  0.00     0.041 C 
ATOM     11  C   UNL     1      14.933  36.942  87.811  1.00  0.00     0.150 C 
ATOM     12  C   UNL     1      14.109  36.030  86.853  1.00  0.00     0.174 C 
ATOM     13  O   UNL     1      14.605  38.299  87.588  1.00  0.00    -0.344 OA
ATOM     14  C   UNL     1      12.742  36.669  86.483  1.00  0.00     0.179 C 
ATOM     15  C   UNL     1      12.215  37.576  87.621  1.00  0.00     0.202 C 
BRANCH  12  16
ATOM     16  O   UNL     1      14.825  35.663  85.694  1.00  0.00    -0.388 OA
ATOM     17  H   UNL     1      15.029  36.493  85.182  1.00  0.00     0.211 HD
ENDBRANCH  12  16
BRANCH  14  18
ATOM     18  O   UNL     1      12.861  37.440  85.308  1.00  0.00    -0.387 OA
ATOM     19  H   UNL     1      11.938  37.642  85.001  1.00  0.00     0.211 HD
ENDBRANCH  14  18
BRANCH  15  20
ATOM     20  O   UNL     1      11.722  36.805  88.697  1.00  0.00    -0.385 OA
ATOM     21  H   UNL     1      10.949  37.283  89.093  1.00  0.00     0.211 HD
ENDBRANCH  15  20
ENDBRANCH   8   9
ENDBRANCH   7   8
ENDBRANCH   1   7
BRANCH   2  22
ATOM     22  O   UNL     1      15.418  41.374  88.108  1.00  0.00    -0.387 OA
ATOM     23  H   UNL     1      15.766  40.473  87.877  1.00  0.00     0.211 HD
ENDBRANCH   2  22
BRANCH   3  24
ATOM     24  O   UNL     1      14.086  43.492  89.428  1.00  0.00    -0.387 OA
ATOM     25  H   UNL     1      13.584  42.762  88.990  1.00  0.00     0.211 HD
ENDBRANCH   3  24
BRANCH   5  26
ATOM     26  O   UNL     1      13.116  42.366  91.899  1.00  0.00    -0.462 OA
BRANCH  26  27
ATOM     27  C   UNL     1      12.369  43.230  92.702  1.00  0.00     0.130 A 
ATOM     28  C   UNL     1      11.892  42.826  93.957  1.00  0.00     0.093 A 
ATOM     29  C   UNL     1      12.135  44.538  92.268  1.00  0.00     0.094 A 
ATOM     30  C   UNL     1      11.096  43.685  94.730  1.00  0.00     0.133 A 
ATOM     31  C   UNL     1      11.382  45.420  93.050  1.00  0.00     0.138 A 
ATOM     32  C   UNL     1      10.810  44.984  94.258  1.00  0.00     0.102 A 
ATOM     33  O   UNL     1      11.193  46.741  92.621  1.00  0.00    -0.484 OA
ATOM     34  C   UNL     1       9.898  45.912  94.964  1.00  0.00     0.174 C 
ATOM     35  C   UNL     1      10.702  47.768  93.492  1.00  0.00     0.211 C 
ATOM     36  O   UNL     1       9.368  45.589  96.059  1.00  0.00    -0.294 OA
ATOM     37  C   UNL     1       9.523  47.219  94.323  1.00  0.00     0.131 C 
BRANCH  30  38
ATOM     38  O   UNL     1      10.602  43.251  95.961  1.00  0.00    -0.507 OA
ATOM     39  H   UNL     1      10.874  42.356  96.358  1.00  0.00     0.293 HD
ENDBRANCH  30  38
BRANCH  35  40
ATOM     40  C   UNL     1      10.336  49.016  92.698  1.00  0.00    -0.003 A 
ATOM     41  C   UNL     1      10.683  50.299  93.170  1.00  0.00     0.057 A 
ATOM     42  C   UNL     1       9.537  48.924  91.540  1.00  0.00     0.011 A 
ATOM     43  C   UNL     1      10.298  51.452  92.467  1.00  0.00     0.158 A 
ATOM     44  C   UNL     1       9.166  50.069  90.833  1.00  0.00     0.051 A 
ATOM     45  C   UNL     1       9.549  51.344  91.287  1.00  0.00     0.160 A 
BRANCH  43  46
ATOM     46  O   UNL     1      10.657  52.716  92.938  1.00  0.00    -0.504 OA
ATOM     47  H   UNL     1      10.041  53.515  92.831  1.00  0.00     0.293 HD
ENDBRANCH  43  46
BRANCH  45  48
ATOM     48  O   UNL     1       9.201  52.519  90.601  1.00  0.00    -0.493 OA
ATOM     49  C   UNL     1       9.950  53.075  89.523  1.00  0.00     0.278 C 
ENDBRANCH  45  48
ENDBRANCH  35  40
ENDBRANCH  26  27
ENDBRANCH   5  26
BRANCH   4  50
ATOM     50  O   UNL     1      16.740  42.892  91.842  1.00  0.00    -0.384 OA
ATOM     51  H   UNL     1      17.220  42.479  91.075  1.00  0.00     0.211 HD
ENDBRANCH   4  50
TORSDOF 15
ENDMDL
MODEL 3
REMARK VINA RESULT:    -5.849      1.391      1.903
REMARK INTER + INTRA:         -11.732
REMARK INTER:                  -9.222
REMARK INTRA:                  -2.509
REMARK UNBOUND:                -2.121
REMARK SMILES COc1ccc([C@H]2CC(=O)c3c(O)cc(O[C@H]4O[C@@H](CO[C@H]5O[C@H](C)[C@H](O)[C@H](O)[C@H]5O)[C@@H](O)[C@@H](O)[C@@H]4O)cc3O2)cc1O
REMARK SMILES IDX 19 1 32 2 34 3 36 4 17 5 18 6 20 7 21 8 22 9 25 10 24 11
REMARK SMILES IDX 26 12 23 13 28 14 30 15 27 16 29 18 31 20 33 22 35 24 16 26
REMARK SMILES IDX 15 27 14 28 38 29 12 30 39 31 11 32 40 33 9 34 7 35 10 36
REMARK SMILES IDX 8 37 13 38 6 40 41 41 5 42 42 43 4 44 3 45 43 46 2 48 1 49
REMARK SMILES IDX 37 50
REMARK H PARENT 27 17 29 19 31 21 33 23 35 25 13 39 43 47 37 51
REMARK Flexibility Score: inf
ROOT
ATOM      1  C   UNL     1       9.021  38.865  86.100  1.00  0.00     0.180 C 
ATOM      2  C   UNL     1       8.540  37.789  87.128  1.00  0.00     0.177 C 
ATOM      3  C   UNL     1       8.995  38.079  88.567  1.00  0.00     0.180 C 
ATOM      4  C   UNL     1       8.689  39.541  88.914  1.00  0.00     0.214 C 
ATOM      5  C   UNL     1       9.298  40.480  87.860  1.00  0.00     0.339 C 
ATOM      6  O   UNL     1       8.809  40.204  86.551  1.00  0.00    -0.332 OA
ENDROOT
BRANCH   1   7
ATOM      7  C   UNL     1      10.416  38.715  85.432  1.00  0.00     0.198 C 
BRANCH   7   8
ATOM      8  O   UNL     1      11.329  38.019  86.259  1.00  0.00    -0.347 OA
BRANCH   8   9
ATOM      9  C   UNL     1      12.241  37.250  85.490  1.00  0.00     0.281 C 
ATOM     10  C   UNL     1      15.414  38.500  86.849  1.00  0.00     0.041 C 
ATOM     11  C   UNL     1      14.220  37.548  86.714  1.00  0.00     0.150 C 
ATOM     12  C   UNL     1      14.615  36.042  86.792  1.00  0.00     0.174 C 
ATOM     13  O   UNL     1      13.556  37.812  85.494  1.00  0.00    -0.344 OA
ATOM     14  C   UNL     1      13.633  35.146  85.985  1.00  0.00     0.179 C 
ATOM     15  C   UNL     1      12.212  35.756  85.949  1.00  0.00     0.202 C 
BRANCH  12  16
ATOM     16  O   UNL     1      15.950  35.805  86.402  1.00  0.00    -0.388 OA
ATOM     17  H   UNL     1      16.098  34.819  86.389  1.00  0.00     0.211 HD
ENDBRANCH  12  16
BRANCH  14  18
ATOM     18  O   UNL     1      14.090  34.983  84.662  1.00  0.00    -0.387 OA
ATOM     19  H   UNL     1      15.082  35.024  84.692  1.00  0.00     0.211 HD
ENDBRANCH  14  18
BRANCH  15  20
ATOM     20  O   UNL     1      11.558  35.597  87.191  1.00  0.00    -0.385 OA
ATOM     21  H   UNL     1      11.717  36.411  87.732  1.00  0.00     0.211 HD
ENDBRANCH  15  20
ENDBRANCH   8   9
ENDBRANCH   7   8
ENDBRANCH   1   7
BRANCH   2  22
ATOM     22  O   UNL     1       8.891  36.479  86.758  1.00  0.00    -0.387 OA
ATOM     23  H   UNL     1       8.135  36.120  86.224  1.00  0.00     0.211 HD
ENDBRANCH   2  22
BRANCH   3  24
ATOM     24  O   UNL     1      10.349  37.769  88.811  1.00  0.00    -0.387 OA
ATOM     25  H   UNL     1      10.693  37.210  88.072  1.00  0.00     0.211 HD
ENDBRANCH   3  24
BRANCH   5  26
ATOM     26  O   UNL     1      10.732  40.476  87.896  1.00  0.00    -0.462 OA
BRANCH  26  27
ATOM     27  C   UNL     1      11.478  40.922  88.988  1.00  0.00     0.130 A 
ATOM     28  C   UNL     1      12.733  40.373  89.285  1.00  0.00     0.093 A 
ATOM     29  C   UNL     1      10.985  41.972  89.771  1.00  0.00     0.094 A 
ATOM     30  C   UNL     1      13.448  40.792  90.418  1.00  0.00     0.133 A 
ATOM     31  C   UNL     1      11.710  42.432  90.876  1.00  0.00     0.138 A 
ATOM     32  C   UNL     1      12.916  41.809  91.240  1.00  0.00     0.102 A 
ATOM     33  O   UNL     1      11.224  43.512  91.624  1.00  0.00    -0.484 OA
ATOM     34  C   UNL     1      13.557  42.235  92.505  1.00  0.00     0.174 C 
ATOM     35  C   UNL     1      12.038  44.222  92.566  1.00  0.00     0.211 C 
ATOM     36  O   UNL     1      14.648  41.730  92.879  1.00  0.00    -0.294 OA
ATOM     37  C   UNL     1      12.855  43.214  93.403  1.00  0.00     0.131 C 
BRANCH  30  38
ATOM     38  O   UNL     1      14.679  40.208  90.715  1.00  0.00    -0.507 OA
ATOM     39  H   UNL     1      14.750  39.243  91.024  1.00  0.00     0.293 HD
ENDBRANCH  30  38
BRANCH  35  40
ATOM     40  C   UNL     1      11.185  45.150  93.423  1.00  0.00    -0.003 A 
ATOM     41  C   UNL     1      10.654  44.711  94.653  1.00  0.00     0.057 A 
ATOM     42  C   UNL     1      10.808  46.422  92.947  1.00  0.00     0.011 A 
ATOM     43  C   UNL     1       9.823  45.547  95.416  1.00  0.00     0.158 A 
ATOM     44  C   UNL     1       9.993  47.259  93.712  1.00  0.00     0.051 A 
ATOM     45  C   UNL     1       9.499  46.831  94.957  1.00  0.00     0.160 A 
BRANCH  43  46
ATOM     46  O   UNL     1       9.311  45.105  96.637  1.00  0.00    -0.504 OA
ATOM     47  H   UNL     1       9.840  45.199  97.497  1.00  0.00     0.293 HD
ENDBRANCH  43  46
BRANCH  45  48
ATOM     48  O   UNL     1       8.681  47.645  95.758  1.00  0.00    -0.493 OA
ATOM     49  C   UNL     1       9.163  48.679  96.613  1.00  0.00     0.278 C 
ENDBRANCH  45  48
ENDBRANCH  35  40
ENDBRANCH  26  27
ENDBRANCH   5  26
BRANCH   4  50
ATOM     50  O   UNL     1       7.299  39.748  88.945  1.00  0.00    -0.384 OA
ATOM     51  H   UNL     1       6.997  39.843  88.002  1.00  0.00     0.211 HD
ENDBRANCH   4  50
TORSDOF 15
ENDMDL
MODEL 4
REMARK VINA RESULT:    -5.808      1.584      2.145
REMARK INTER + INTRA:         -11.663
REMARK INTER:                 -10.266
REMARK INTRA:                  -1.397
REMARK UNBOUND:                -2.121
REMARK SMILES COc1ccc([C@H]2CC(=O)c3c(O)cc(O[C@H]4O[C@@H](CO[C@H]5O[C@H](C)[C@H](O)[C@H](O)[C@H]5O)[C@@H](O)[C@@H](O)[C@@H]4O)cc3O2)cc1O
REMARK SMILES IDX 19 1 32 2 34 3 36 4 17 5 18 6 20 7 21 8 22 9 25 10 24 11
REMARK SMILES IDX 26 12 23 13 28 14 30 15 27 16 29 18 31 20 33 22 35 24 16 26
REMARK SMILES IDX 15 27 14 28 38 29 12 30 39 31 11 32 40 33 9 34 7 35 10 36
REMARK SMILES IDX 8 37 13 38 6 40 41 41 5 42 42 43 4 44 3 45 43 46 2 48 1 49
REMARK SMILES IDX 37 50
REMARK H PARENT 27 17 29 19 31 21 33 23 35 25 13 39 43 47 37 51
REMARK Flexibility Score: inf
ROOT
ATOM      1  C   UNL     1      11.340  38.024  86.045  1.00  0.00     0.180 C 
ATOM      2  C   UNL     1      10.923  36.871  87.016  1.00  0.00     0.177 C 
ATOM      3  C   UNL     1      11.058  37.250  88.500  1.00  0.00     0.180 C 
ATOM      4  C   UNL     1      10.405  38.616  88.739  1.00  0.00     0.214 C 
ATOM      5  C   UNL     1      10.977  39.662  87.767  1.00  0.00     0.339 C 
ATOM      6  O   UNL     1      10.784  39.289  86.406  1.00  0.00    -0.332 OA
ENDROOT
BRANCH   1   7
ATOM      7  C   UNL     1      12.828  38.167  85.623  1.00  0.00     0.198 C 
BRANCH   7   8
ATOM      8  O   UNL     1      13.134  37.393  84.479  1.00  0.00    -0.347 OA
BRANCH   8   9
ATOM      9  C   UNL     1      14.350  36.680  84.647  1.00  0.00     0.281 C 
ATOM     10  C   UNL     1      13.750  33.875  82.356  1.00  0.00     0.041 C 
ATOM     11  C   UNL     1      14.285  35.243  82.793  1.00  0.00     0.150 C 
ATOM     12  C   UNL     1      15.727  35.538  82.283  1.00  0.00     0.174 C 
ATOM     13  O   UNL     1      14.244  35.324  84.205  1.00  0.00    -0.344 OA
ATOM     14  C   UNL     1      16.495  36.491  83.242  1.00  0.00     0.179 C 
ATOM     15  C   UNL     1      15.530  37.454  83.974  1.00  0.00     0.202 C 
BRANCH  12  16
ATOM     16  O   UNL     1      16.472  34.365  82.036  1.00  0.00    -0.388 OA
ATOM     17  H   UNL     1      16.015  33.856  81.311  1.00  0.00     0.211 HD
ENDBRANCH  12  16
BRANCH  14  18
ATOM     18  O   UNL     1      17.211  35.750  84.204  1.00  0.00    -0.387 OA
ATOM     19  H   UNL     1      16.768  34.864  84.273  1.00  0.00     0.211 HD
ENDBRANCH  14  18
BRANCH  15  20
ATOM     20  O   UNL     1      15.069  38.469  83.106  1.00  0.00    -0.385 OA
ATOM     21  H   UNL     1      14.167  38.747  83.404  1.00  0.00     0.211 HD
ENDBRANCH  15  20
ENDBRANCH   8   9
ENDBRANCH   7   8
ENDBRANCH   1   7
BRANCH   2  22
ATOM     22  O   UNL     1      11.593  35.663  86.757  1.00  0.00    -0.387 OA
ATOM     23  H   UNL     1      11.178  34.975  87.339  1.00  0.00     0.211 HD
ENDBRANCH   2  22
BRANCH   3  24
ATOM     24  O   UNL     1      12.386  37.230  88.975  1.00  0.00    -0.387 OA
ATOM     25  H   UNL     1      12.666  36.293  89.120  1.00  0.00     0.211 HD
ENDBRANCH   3  24
BRANCH   5  26
ATOM     26  O   UNL     1      12.354  39.957  88.040  1.00  0.00    -0.462 OA
BRANCH  26  27
ATOM     27  C   UNL     1      12.800  40.517  89.238  1.00  0.00     0.130 A 
ATOM     28  C   UNL     1      14.017  40.128  89.815  1.00  0.00     0.093 A 
ATOM     29  C   UNL     1      12.043  41.523  89.848  1.00  0.00     0.094 A 
ATOM     30  C   UNL     1      14.427  40.659  91.048  1.00  0.00     0.133 A 
ATOM     31  C   UNL     1      12.464  42.095  91.052  1.00  0.00     0.138 A 
ATOM     32  C   UNL     1      13.627  41.629  91.689  1.00  0.00     0.102 A 
ATOM     33  O   UNL     1      11.717  43.132  91.628  1.00  0.00    -0.484 OA
ATOM     34  C   UNL     1      13.938  42.162  93.035  1.00  0.00     0.174 C 
ATOM     35  C   UNL     1      12.232  43.958  92.680  1.00  0.00     0.211 C 
ATOM     36  O   UNL     1      14.974  41.800  93.651  1.00  0.00    -0.294 OA
ATOM     37  C   UNL     1      12.960  43.077  93.718  1.00  0.00     0.131 C 
BRANCH  30  38
ATOM     38  O   UNL     1      15.625  40.232  91.622  1.00  0.00    -0.507 OA
ATOM     39  H   UNL     1      16.526  40.518  91.250  1.00  0.00     0.293 HD
ENDBRANCH  30  38
BRANCH  35  40
ATOM     40  C   UNL     1      11.123  44.803  93.293  1.00  0.00    -0.003 A 
ATOM     41  C   UNL     1      10.708  44.594  94.625  1.00  0.00     0.057 A 
ATOM     42  C   UNL     1      10.404  45.726  92.507  1.00  0.00     0.011 A 
ATOM     43  C   UNL     1       9.649  45.334  95.172  1.00  0.00     0.158 A 
ATOM     44  C   UNL     1       9.360  46.473  93.056  1.00  0.00     0.051 A 
ATOM     45  C   UNL     1       8.977  46.288  94.396  1.00  0.00     0.160 A 
BRANCH  43  46
ATOM     46  O   UNL     1       9.255  45.125  96.495  1.00  0.00    -0.504 OA
ATOM     47  H   UNL     1       9.359  44.220  96.942  1.00  0.00     0.293 HD
ENDBRANCH  43  46
BRANCH  45  48
ATOM     48  O   UNL     1       7.936  47.023  94.986  1.00  0.00    -0.493 OA
ATOM     49  C   UNL     1       7.970  48.431  95.211  1.00  0.00     0.278 C 
ENDBRANCH  45  48
ENDBRANCH  35  40
ENDBRANCH  26  27
ENDBRANCH   5  26
BRANCH   4  50
ATOM     50  O   UNL     1       9.017  38.529  88.532  1.00  0.00    -0.384 OA
ATOM     51  H   UNL     1       8.758  37.582  88.692  1.00  0.00     0.211 HD
ENDBRANCH   4  50
TORSDOF 15
ENDMDL
MODEL 5
REMARK VINA RESULT:    -5.761      9.648     11.620
REMARK INTER + INTRA:         -11.587
REMARK INTER:                  -9.584
REMARK INTRA:                  -2.002
REMARK UNBOUND:                -2.121
REMARK SMILES COc1ccc([C@H]2CC(=O)c3c(O)cc(O[C@H]4O[C@@H](CO[C@H]5O[C@H](C)[C@H](O)[C@H](O)[C@H]5O)[C@@H](O)[C@@H](O)[C@@H]4O)cc3O2)cc1O
REMARK SMILES IDX 19 1 32 2 34 3 36 4 17 5 18 6 20 7 21 8 22 9 25 10 24 11
REMARK SMILES IDX 26 12 23 13 28 14 30 15 27 16 29 18 31 20 33 22 35 24 16 26
REMARK SMILES IDX 15 27 14 28 38 29 12 30 39 31 11 32 40 33 9 34 7 35 10 36
REMARK SMILES IDX 8 37 13 38 6 40 41 41 5 42 42 43 4 44 3 45 43 46 2 48 1 49
REMARK SMILES IDX 37 50
REMARK H PARENT 27 17 29 19 31 21 33 23 35 25 13 39 43 47 37 51
REMARK Flexibility Score: inf
ROOT
ATOM      1  C   UNL     1      17.590  51.747  87.126  1.00  0.00     0.180 C 
ATOM      2  C   UNL     1      17.571  51.716  85.563  1.00  0.00     0.177 C 
ATOM      3  C   UNL     1      17.371  50.306  84.986  1.00  0.00     0.180 C 
ATOM      4  C   UNL     1      16.196  49.625  85.698  1.00  0.00     0.214 C 
ATOM      5  C   UNL     1      16.400  49.660  87.222  1.00  0.00     0.339 C 
ATOM      6  O   UNL     1      16.530  50.990  87.715  1.00  0.00    -0.332 OA
ENDROOT
BRANCH   1   7
ATOM      7  C   UNL     1      18.928  51.512  87.880  1.00  0.00     0.198 C 
BRANCH   7   8
ATOM      8  O   UNL     1      20.009  51.303  86.991  1.00  0.00    -0.347 OA
BRANCH   8   9
ATOM      9  C   UNL     1      21.200  51.907  87.472  1.00  0.00     0.281 C 
ATOM     10  C   UNL     1      22.365  49.272  89.746  1.00  0.00     0.041 C 
ATOM     11  C   UNL     1      22.281  50.062  88.435  1.00  0.00     0.150 C 
ATOM     12  C   UNL     1      23.666  50.286  87.756  1.00  0.00     0.174 C 
ATOM     13  O   UNL     1      21.657  51.306  88.686  1.00  0.00    -0.344 OA
ATOM     14  C   UNL     1      23.690  51.593  86.914  1.00  0.00     0.179 C 
ATOM     15  C   UNL     1      22.288  51.928  86.350  1.00  0.00     0.202 C 
BRANCH  12  16
ATOM     16  O   UNL     1      24.737  50.258  88.674  1.00  0.00    -0.388 OA
ATOM     17  H   UNL     1      24.927  49.306  88.898  1.00  0.00     0.211 HD
ENDBRANCH  12  16
BRANCH  14  18
ATOM     18  O   UNL     1      24.133  52.676  87.699  1.00  0.00    -0.387 OA
ATOM     19  H   UNL     1      24.370  53.409  87.072  1.00  0.00     0.211 HD
ENDBRANCH  14  18
BRANCH  15  20
ATOM     20  O   UNL     1      21.956  51.074  85.275  1.00  0.00    -0.385 OA
ATOM     21  H   UNL     1      21.885  50.150  85.622  1.00  0.00     0.211 HD
ENDBRANCH  15  20
ENDBRANCH   8   9
ENDBRANCH   7   8
ENDBRANCH   1   7
BRANCH   2  22
ATOM     22  O   UNL     1      18.699  52.326  84.987  1.00  0.00    -0.387 OA
ATOM     23  H   UNL     1      18.856  53.169  85.487  1.00  0.00     0.211 HD
ENDBRANCH   2  22
BRANCH   3  24
ATOM     24  O   UNL     1      18.530  49.502  85.031  1.00  0.00    -0.387 OA
ATOM     25  H   UNL     1      18.493  48.837  84.302  1.00  0.00     0.211 HD
ENDBRANCH   3  24
BRANCH   5  26
ATOM     26  O   UNL     1      17.497  48.836  87.639  1.00  0.00    -0.462 OA
BRANCH  26  27
ATOM     27  C   UNL     1      17.676  48.395  88.952  1.00  0.00     0.130 A 
ATOM     28  C   UNL     1      18.793  47.631  89.317  1.00  0.00     0.093 A 
ATOM     29  C   UNL     1      16.749  48.766  89.931  1.00  0.00     0.094 A 
ATOM     30  C   UNL     1      18.932  47.147  90.627  1.00  0.00     0.133 A 
ATOM     31  C   UNL     1      16.901  48.331  91.252  1.00  0.00     0.138 A 
ATOM     32  C   UNL     1      17.960  47.473  91.597  1.00  0.00     0.102 A 
ATOM     33  O   UNL     1      15.988  48.747  92.230  1.00  0.00    -0.484 OA
ATOM     34  C   UNL     1      17.981  46.922  92.971  1.00  0.00     0.174 C 
ATOM     35  C   UNL     1      16.242  48.594  93.632  1.00  0.00     0.211 C 
ATOM     36  O   UNL     1      18.911  46.163  93.349  1.00  0.00    -0.294 OA
ATOM     37  C   UNL     1      16.830  47.193  93.900  1.00  0.00     0.131 C 
BRANCH  30  38
ATOM     38  O   UNL     1      20.034  46.359  90.961  1.00  0.00    -0.507 OA
ATOM     39  H   UNL     1      19.946  45.358  91.109  1.00  0.00     0.293 HD
ENDBRANCH  30  38
BRANCH  35  40
ATOM     40  C   UNL     1      14.980  48.871  94.441  1.00  0.00    -0.003 A 
ATOM     41  C   UNL     1      15.058  49.212  95.807  1.00  0.00     0.057 A 
ATOM     42  C   UNL     1      13.705  48.672  93.874  1.00  0.00     0.011 A 
ATOM     43  C   UNL     1      13.894  49.413  96.565  1.00  0.00     0.158 A 
ATOM     44  C   UNL     1      12.547  48.886  94.624  1.00  0.00     0.051 A 
ATOM     45  C   UNL     1      12.631  49.265  95.975  1.00  0.00     0.160 A 
BRANCH  43  46
ATOM     46  O   UNL     1      13.985  49.761  97.914  1.00  0.00    -0.504 OA
ATOM     47  H   UNL     1      13.504  49.228  98.631  1.00  0.00     0.293 HD
ENDBRANCH  43  46
BRANCH  45  48
ATOM     48  O   UNL     1      11.490  49.495  96.762  1.00  0.00    -0.493 OA
ATOM     49  C   UNL     1      10.703  48.467  97.360  1.00  0.00     0.278 C 
ENDBRANCH  45  48
ENDBRANCH  35  40
ENDBRANCH  26  27
ENDBRANCH   5  26
BRANCH   4  50
ATOM     50  O   UNL     1      14.997  50.293  85.394  1.00  0.00    -0.384 OA
ATOM     51  H   UNL     1      14.655  49.904  84.545  1.00  0.00     0.211 HD
ENDBRANCH   4  50
TORSDOF 15
ENDMDL
MODEL 6
REMARK VINA RESULT:    -5.573      9.447     11.372
REMARK INTER + INTRA:         -11.278
REMARK INTER:                  -8.543
REMARK INTRA:                  -2.735
REMARK UNBOUND:                -2.121
REMARK SMILES COc1ccc([C@H]2CC(=O)c3c(O)cc(O[C@H]4O[C@@H](CO[C@H]5O[C@H](C)[C@H](O)[C@H](O)[C@H]5O)[C@@H](O)[C@@H](O)[C@@H]4O)cc3O2)cc1O
REMARK SMILES IDX 19 1 32 2 34 3 36 4 17 5 18 6 20 7 21 8 22 9 25 10 24 11
REMARK SMILES IDX 26 12 23 13 28 14 30 15 27 16 29 18 31 20 33 22 35 24 16 26
REMARK SMILES IDX 15 27 14 28 38 29 12 30 39 31 11 32 40 33 9 34 7 35 10 36
REMARK SMILES IDX 8 37 13 38 6 40 41 41 5 42 42 43 4 44 3 45 43 46 2 48 1 49
REMARK SMILES IDX 37 50
REMARK H PARENT 27 17 29 19 31 21 33 23 35 25 13 39 43 47 37 51
REMARK Flexibility Score: inf
ROOT
ATOM      1  C   UNL     1      15.596  51.567  86.021  1.00  0.00     0.180 C 
ATOM      2  C   UNL     1      15.728  51.573  84.464  1.00  0.00     0.177 C 
ATOM      3  C   UNL     1      16.217  50.233  83.890  1.00  0.00     0.180 C 
ATOM      4  C   UNL     1      15.401  49.089  84.504  1.00  0.00     0.214 C 
ATOM      5  C   UNL     1      15.437  49.168  86.039  1.00  0.00     0.339 C 
ATOM      6  O   UNL     1      14.928  50.408  86.523  1.00  0.00    -0.332 OA
ENDROOT
BRANCH   1   7
ATOM      7  C   UNL     1      16.831  51.921  86.895  1.00  0.00     0.198 C 
BRANCH   7   8
ATOM      8  O   UNL     1      18.049  51.697  86.210  1.00  0.00    -0.347 OA
BRANCH   8   9
ATOM      9  C   UNL     1      19.143  52.293  86.890  1.00  0.00     0.281 C 
ATOM     10  C   UNL     1      20.242  49.443  88.925  1.00  0.00     0.041 C 
ATOM     11  C   UNL     1      20.240  50.394  87.723  1.00  0.00     0.150 C 
ATOM     12  C   UNL     1      21.668  50.778  87.232  1.00  0.00     0.174 C 
ATOM     13  O   UNL     1      19.513  51.560  88.060  1.00  0.00    -0.344 OA
ATOM     14  C   UNL     1      21.692  52.184  86.570  1.00  0.00     0.179 C 
ATOM     15  C   UNL     1      20.336  52.518  85.904  1.00  0.00     0.202 C 
BRANCH  12  16
ATOM     16  O   UNL     1      22.641  50.683  88.250  1.00  0.00    -0.388 OA
ATOM     17  H   UNL     1      22.999  51.597  88.421  1.00  0.00     0.211 HD
ENDBRANCH  12  16
BRANCH  14  18
ATOM     18  O   UNL     1      21.982  53.175  87.530  1.00  0.00    -0.387 OA
ATOM     19  H   UNL     1      21.334  53.914  87.386  1.00  0.00     0.211 HD
ENDBRANCH  14  18
BRANCH  15  20
ATOM     20  O   UNL     1      20.170  51.799  84.700  1.00  0.00    -0.385 OA
ATOM     21  H   UNL     1      20.074  50.838  84.922  1.00  0.00     0.211 HD
ENDBRANCH  15  20
ENDBRANCH   8   9
ENDBRANCH   7   8
ENDBRANCH   1   7
BRANCH   2  22
ATOM     22  O   UNL     1      16.520  52.630  83.982  1.00  0.00    -0.387 OA
ATOM     23  H   UNL     1      16.966  52.301  83.158  1.00  0.00     0.211 HD
ENDBRANCH   2  22
BRANCH   3  24
ATOM     24  O   UNL     1      17.601  50.016  84.050  1.00  0.00    -0.387 OA
ATOM     25  H   UNL     1      17.864  49.208  83.545  1.00  0.00     0.211 HD
ENDBRANCH   3  24
BRANCH   5  26
ATOM     26  O   UNL     1      16.743  48.896  86.564  1.00  0.00    -0.462 OA
BRANCH  26  27
ATOM     27  C   UNL     1      16.968  48.163  87.731  1.00  0.00     0.130 A 
ATOM     28  C   UNL     1      17.664  46.947  87.704  1.00  0.00     0.093 A 
ATOM     29  C   UNL     1      16.535  48.679  88.957  1.00  0.00     0.094 A 
ATOM     30  C   UNL     1      17.835  46.194  88.876  1.00  0.00     0.133 A 
ATOM     31  C   UNL     1      16.742  47.961  90.140  1.00  0.00     0.138 A 
ATOM     32  C   UNL     1      17.341  46.690  90.101  1.00  0.00     0.102 A 
ATOM     33  O   UNL     1      16.341  48.510  91.365  1.00  0.00    -0.484 OA
ATOM     34  C   UNL     1      17.392  45.912  91.360  1.00  0.00     0.174 C 
ATOM     35  C   UNL     1      16.781  47.984  92.624  1.00  0.00     0.211 C 
ATOM     36  O   UNL     1      17.931  44.776  91.397  1.00  0.00    -0.294 OA
ATOM     37  C   UNL     1      16.710  46.442  92.590  1.00  0.00     0.131 C 
BRANCH  30  38
ATOM     38  O   UNL     1      18.501  44.968  88.820  1.00  0.00    -0.507 OA
ATOM     39  H   UNL     1      18.073  44.114  89.166  1.00  0.00     0.293 HD
ENDBRANCH  30  38
BRANCH  35  40
ATOM     40  C   UNL     1      15.980  48.589  93.770  1.00  0.00    -0.003 A 
ATOM     41  C   UNL     1      15.019  49.592  93.528  1.00  0.00     0.057 A 
ATOM     42  C   UNL     1      16.270  48.250  95.107  1.00  0.00     0.011 A 
ATOM     43  C   UNL     1      14.320  50.189  94.589  1.00  0.00     0.158 A 
ATOM     44  C   UNL     1      15.565  48.833  96.162  1.00  0.00     0.051 A 
ATOM     45  C   UNL     1      14.579  49.803  95.912  1.00  0.00     0.160 A 
BRANCH  43  46
ATOM     46  O   UNL     1      13.363  51.173  94.336  1.00  0.00    -0.504 OA
ATOM     47  H   UNL     1      12.775  51.541  95.076  1.00  0.00     0.293 HD
ENDBRANCH  43  46
BRANCH  45  48
ATOM     48  O   UNL     1      13.845  50.409  96.945  1.00  0.00    -0.493 OA
ATOM     49  C   UNL     1      12.750  49.797  97.622  1.00  0.00     0.278 C 
ENDBRANCH  45  48
ENDBRANCH  35  40
ENDBRANCH  26  27
ENDBRANCH   5  26
BRANCH   4  50
ATOM     50  O   UNL     1      14.062  49.173  84.084  1.00  0.00    -0.384 OA
ATOM     51  H   UNL     1      13.799  50.131  84.140  1.00  0.00     0.211 HD
ENDBRANCH   4  50
TORSDOF 15
ENDMDL
MODEL 7
REMARK VINA RESULT:    -5.549      2.387      5.517
REMARK INTER + INTRA:         -11.238
REMARK INTER:                  -8.311
REMARK INTRA:                  -2.927
REMARK UNBOUND:                -2.121
REMARK SMILES COc1ccc([C@H]2CC(=O)c3c(O)cc(O[C@H]4O[C@@H](CO[C@H]5O[C@H](C)[C@H](O)[C@H](O)[C@H]5O)[C@@H](O)[C@@H](O)[C@@H]4O)cc3O2)cc1O
REMARK SMILES IDX 19 1 32 2 34 3 36 4 17 5 18 6 20 7 21 8 22 9 25 10 24 11
REMARK SMILES IDX 26 12 23 13 28 14 30 15 27 16 29 18 31 20 33 22 35 24 16 26
REMARK SMILES IDX 15 27 14 28 38 29 12 30 39 31 11 32 40 33 9 34 7 35 10 36
REMARK SMILES IDX 8 37 13 38 6 40 41 41 5 42 42 43 4 44 3 45 43 46 2 48 1 49
REMARK SMILES IDX 37 50
REMARK H PARENT 27 17 29 19 31 21 33 23 35 25 13 39 43 47 37 51
REMARK Flexibility Score: inf
ROOT
ATOM      1  C   UNL     1      16.485  36.599  86.234  1.00  0.00     0.180 C 
ATOM      2  C   UNL     1      15.912  36.217  84.831  1.00  0.00     0.177 C 
ATOM      3  C   UNL     1      15.607  37.437  83.947  1.00  0.00     0.180 C 
ATOM      4  C   UNL     1      16.809  38.389  83.960  1.00  0.00     0.214 C 
ATOM      5  C   UNL     1      17.200  38.739  85.405  1.00  0.00     0.339 C 
ATOM      6  O   UNL     1      17.521  37.580  86.169  1.00  0.00    -0.332 OA
ENDROOT
BRANCH   1   7
ATOM      7  C   UNL     1      15.506  36.897  87.404  1.00  0.00     0.198 C 
BRANCH   7   8
ATOM      8  O   UNL     1      14.259  37.382  86.944  1.00  0.00    -0.347 OA
BRANCH   8   9
ATOM      9  C   UNL     1      13.191  36.910  87.750  1.00  0.00     0.281 C 
ATOM     10  C   UNL     1      12.147  40.061  89.315  1.00  0.00     0.041 C 
ATOM     11  C   UNL     1      12.114  38.922  88.290  1.00  0.00     0.150 C 
ATOM     12  C   UNL     1      10.672  38.464  87.917  1.00  0.00     0.174 C 
ATOM     13  O   UNL     1      12.856  37.828  88.792  1.00  0.00    -0.344 OA
ATOM     14  C   UNL     1      10.633  36.967  87.501  1.00  0.00     0.179 C 
ATOM     15  C   UNL     1      11.968  36.524  86.856  1.00  0.00     0.202 C 
BRANCH  12  16
ATOM     16  O   UNL     1       9.733  38.728  88.936  1.00  0.00    -0.388 OA
ATOM     17  H   UNL     1      10.219  38.753  89.806  1.00  0.00     0.211 HD
ENDBRANCH  12  16
BRANCH  14  18
ATOM     18  O   UNL     1      10.379  36.150  88.621  1.00  0.00    -0.387 OA
ATOM     19  H   UNL     1      10.108  35.260  88.274  1.00  0.00     0.211 HD
ENDBRANCH  14  18
BRANCH  15  20
ATOM     20  O   UNL     1      12.091  37.032  85.543  1.00  0.00    -0.385 OA
ATOM     21  H   UNL     1      12.219  38.012  85.600  1.00  0.00     0.211 HD
ENDBRANCH  15  20
ENDBRANCH   8   9
ENDBRANCH   7   8
ENDBRANCH   1   7
BRANCH   2  22
ATOM     22  O   UNL     1      14.790  35.373  84.905  1.00  0.00    -0.387 OA
ATOM     23  H   UNL     1      15.126  34.470  85.143  1.00  0.00     0.211 HD
ENDBRANCH   2  22
BRANCH   3  24
ATOM     24  O   UNL     1      14.419  38.111  84.297  1.00  0.00    -0.387 OA
ATOM     25  H   UNL     1      13.651  37.662  83.866  1.00  0.00     0.211 HD
ENDBRANCH   3  24
BRANCH   5  26
ATOM     26  O   UNL     1      16.202  39.537  86.056  1.00  0.00    -0.462 OA
BRANCH  26  27
ATOM     27  C   UNL     1      16.499  40.551  86.969  1.00  0.00     0.130 A 
ATOM     28  C   UNL     1      17.605  41.392  86.788  1.00  0.00     0.093 A 
ATOM     29  C   UNL     1      15.648  40.763  88.059  1.00  0.00     0.094 A 
ATOM     30  C   UNL     1      17.925  42.371  87.741  1.00  0.00     0.133 A 
ATOM     31  C   UNL     1      15.928  41.766  88.992  1.00  0.00     0.138 A 
ATOM     32  C   UNL     1      17.096  42.539  88.871  1.00  0.00     0.102 A 
ATOM     33  O   UNL     1      15.042  41.994  90.053  1.00  0.00    -0.484 OA
ATOM     34  C   UNL     1      17.419  43.477  89.970  1.00  0.00     0.174 C 
ATOM     35  C   UNL     1      15.100  43.177  90.861  1.00  0.00     0.211 C 
ATOM     36  O   UNL     1      18.440  44.211  89.916  1.00  0.00    -0.294 OA
ATOM     37  C   UNL     1      16.570  43.490  91.211  1.00  0.00     0.131 C 
BRANCH  30  38
ATOM     38  O   UNL     1      19.050  43.175  87.559  1.00  0.00    -0.507 OA
ATOM     39  H   UNL     1      19.606  43.129  86.710  1.00  0.00     0.293 HD
ENDBRANCH  30  38
BRANCH  35  40
ATOM     40  C   UNL     1      14.216  43.030  92.094  1.00  0.00    -0.003 A 
ATOM     41  C   UNL     1      14.774  42.710  93.348  1.00  0.00     0.057 A 
ATOM     42  C   UNL     1      12.812  43.089  91.983  1.00  0.00     0.011 A 
ATOM     43  C   UNL     1      13.954  42.521  94.472  1.00  0.00     0.158 A 
ATOM     44  C   UNL     1      11.997  42.915  93.103  1.00  0.00     0.051 A 
ATOM     45  C   UNL     1      12.562  42.636  94.360  1.00  0.00     0.160 A 
BRANCH  43  46
ATOM     46  O   UNL     1      14.520  42.214  95.712  1.00  0.00    -0.504 OA
ATOM     47  H   UNL     1      14.068  41.573  96.355  1.00  0.00     0.293 HD
ENDBRANCH  43  46
BRANCH  45  48
ATOM     48  O   UNL     1      11.778  42.459  95.511  1.00  0.00    -0.493 OA
ATOM     49  C   UNL     1      10.626  43.238  95.830  1.00  0.00     0.278 C 
ENDBRANCH  45  48
ENDBRANCH  35  40
ENDBRANCH  26  27
ENDBRANCH   5  26
BRANCH   4  50
ATOM     50  O   UNL     1      17.912  37.780  83.335  1.00  0.00    -0.384 OA
ATOM     51  H   UNL     1      17.550  37.147  82.658  1.00  0.00     0.211 HD
ENDBRANCH   4  50
TORSDOF 15
ENDMDL
MODEL 8
REMARK VINA RESULT:    -5.520      9.775     11.736
REMARK INTER + INTRA:         -11.190
REMARK INTER:                  -9.027
REMARK INTRA:                  -2.163
REMARK UNBOUND:                -2.121
REMARK SMILES COc1ccc([C@H]2CC(=O)c3c(O)cc(O[C@H]4O[C@@H](CO[C@H]5O[C@H](C)[C@H](O)[C@H](O)[C@H]5O)[C@@H](O)[C@@H](O)[C@@H]4O)cc3O2)cc1O
REMARK SMILES IDX 19 1 32 2 34 3 36 4 17 5 18 6 20 7 21 8 22 9 25 10 24 11
REMARK SMILES IDX 26 12 23 13 28 14 30 15 27 16 29 18 31 20 33 22 35 24 16 26
REMARK SMILES IDX 15 27 14 28 38 29 12 30 39 31 11 32 40 33 9 34 7 35 10 36
REMARK SMILES IDX 8 37 13 38 6 40 41 41 5 42 42 43 4 44 3 45 43 46 2 48 1 49
REMARK SMILES IDX 37 50
REMARK H PARENT 27 17 29 19 31 21 33 23 35 25 13 39 43 47 37 51
REMARK Flexibility Score: inf
ROOT
ATOM      1  C   UNL     1      19.588  52.188  85.794  1.00  0.00     0.180 C 
ATOM      2  C   UNL     1      18.465  52.476  84.745  1.00  0.00     0.177 C 
ATOM      3  C   UNL     1      17.202  51.626  84.958  1.00  0.00     0.180 C 
ATOM      4  C   UNL     1      16.791  51.684  86.434  1.00  0.00     0.214 C 
ATOM      5  C   UNL     1      17.974  51.293  87.336  1.00  0.00     0.339 C 
ATOM      6  O   UNL     1      19.102  52.140  87.137  1.00  0.00    -0.332 OA
ENDROOT
BRANCH   1   7
ATOM      7  C   UNL     1      20.606  51.045  85.529  1.00  0.00     0.198 C 
BRANCH   7   8
ATOM      8  O   UNL     1      21.703  51.091  86.422  1.00  0.00    -0.347 OA
BRANCH   8   9
ATOM      9  C   UNL     1      21.862  49.861  87.111  1.00  0.00     0.281 C 
ATOM     10  C   UNL     1      25.526  49.693  87.252  1.00  0.00     0.041 C 
ATOM     11  C   UNL     1      24.112  49.999  87.759  1.00  0.00     0.150 C 
ATOM     12  C   UNL     1      23.895  49.625  89.256  1.00  0.00     0.174 C 
ATOM     13  O   UNL     1      23.175  49.319  86.948  1.00  0.00    -0.344 OA
ATOM     14  C   UNL     1      22.412  49.262  89.550  1.00  0.00     0.179 C 
ATOM     15  C   UNL     1      21.447  50.022  88.610  1.00  0.00     0.202 C 
BRANCH  12  16
ATOM     16  O   UNL     1      24.762  48.603  89.697  1.00  0.00    -0.388 OA
ATOM     17  H   UNL     1      25.043  48.817  90.629  1.00  0.00     0.211 HD
ENDBRANCH  12  16
BRANCH  14  18
ATOM     18  O   UNL     1      22.204  47.877  89.390  1.00  0.00    -0.387 OA
ATOM     19  H   UNL     1      23.019  47.422  89.728  1.00  0.00     0.211 HD
ENDBRANCH  14  18
BRANCH  15  20
ATOM     20  O   UNL     1      21.335  51.379  88.985  1.00  0.00    -0.385 OA
ATOM     21  H   UNL     1      20.380  51.638  88.936  1.00  0.00     0.211 HD
ENDBRANCH  15  20
ENDBRANCH   8   9
ENDBRANCH   7   8
ENDBRANCH   1   7
BRANCH   2  22
ATOM     22  O   UNL     1      18.911  52.366  83.417  1.00  0.00    -0.387 OA
ATOM     23  H   UNL     1      18.155  52.646  82.837  1.00  0.00     0.211 HD
ENDBRANCH   2  22
BRANCH   3  24
ATOM     24  O   UNL     1      17.332  50.292  84.517  1.00  0.00    -0.387 OA
ATOM     25  H   UNL     1      16.629  50.101  83.849  1.00  0.00     0.211 HD
ENDBRANCH   3  24
BRANCH   5  26
ATOM     26  O   UNL     1      18.326  49.910  87.196  1.00  0.00    -0.462 OA
BRANCH  26  27
ATOM     27  C   UNL     1      17.982  48.928  88.127  1.00  0.00     0.130 A 
ATOM     28  C   UNL     1      18.257  47.574  87.892  1.00  0.00     0.093 A 
ATOM     29  C   UNL     1      17.398  49.309  89.340  1.00  0.00     0.094 A 
ATOM     30  C   UNL     1      17.856  46.592  88.811  1.00  0.00     0.133 A 
ATOM     31  C   UNL     1      17.036  48.344  90.286  1.00  0.00     0.138 A 
ATOM     32  C   UNL     1      17.210  46.978  90.005  1.00  0.00     0.102 A 
ATOM     33  O   UNL     1      16.492  48.744  91.513  1.00  0.00    -0.484 OA
ATOM     34  C   UNL     1      16.668  46.000  90.976  1.00  0.00     0.174 C 
ATOM     35  C   UNL     1      16.380  47.854  92.631  1.00  0.00     0.211 C 
ATOM     36  O   UNL     1      16.807  44.762  90.793  1.00  0.00    -0.294 OA
ATOM     37  C   UNL     1      15.860  46.483  92.147  1.00  0.00     0.131 C 
BRANCH  30  38
ATOM     38  O   UNL     1      18.108  45.246  88.541  1.00  0.00    -0.507 OA
ATOM     39  H   UNL     1      18.728  44.693  89.126  1.00  0.00     0.293 HD
ENDBRANCH  30  38
BRANCH  35  40
ATOM     40  C   UNL     1      15.510  48.466  93.722  1.00  0.00    -0.003 A 
ATOM     41  C   UNL     1      14.146  48.739  93.490  1.00  0.00     0.057 A 
ATOM     42  C   UNL     1      16.077  48.887  94.942  1.00  0.00     0.011 A 
ATOM     43  C   UNL     1      13.358  49.353  94.476  1.00  0.00     0.158 A 
ATOM     44  C   UNL     1      15.291  49.486  95.928  1.00  0.00     0.051 A 
ATOM     45  C   UNL     1      13.922  49.718  95.706  1.00  0.00     0.160 A 
BRANCH  43  46
ATOM     46  O   UNL     1      12.006  49.608  94.238  1.00  0.00    -0.504 OA
ATOM     47  H   UNL     1      11.309  48.875  94.307  1.00  0.00     0.293 HD
ENDBRANCH  43  46
BRANCH  45  48
ATOM     48  O   UNL     1      13.096  50.312  96.674  1.00  0.00    -0.493 OA
ATOM     49  C   UNL     1      12.320  49.588  97.627  1.00  0.00     0.278 C 
ENDBRANCH  45  48
ENDBRANCH  35  40
ENDBRANCH  26  27
ENDBRANCH   5  26
BRANCH   4  50
ATOM     50  O   UNL     1      16.387  52.988  86.770  1.00  0.00    -0.384 OA
ATOM     51  H   UNL     1      15.403  52.960  86.912  1.00  0.00     0.211 HD
ENDBRANCH   4  50
TORSDOF 15
ENDMDL
MODEL 9
REMARK VINA RESULT:    -5.516      7.251      9.877
REMARK INTER + INTRA:         -11.184
REMARK INTER:                  -9.306
REMARK INTRA:                  -1.878
REMARK UNBOUND:                -2.121
REMARK SMILES COc1ccc([C@H]2CC(=O)c3c(O)cc(O[C@H]4O[C@@H](CO[C@H]5O[C@H](C)[C@H](O)[C@H](O)[C@H]5O)[C@@H](O)[C@@H](O)[C@@H]4O)cc3O2)cc1O
REMARK SMILES IDX 19 1 32 2 34 3 36 4 17 5 18 6 20 7 21 8 22 9 25 10 24 11
REMARK SMILES IDX 26 12 23 13 28 14 30 15 27 16 29 18 31 20 33 22 35 24 16 26
REMARK SMILES IDX 15 27 14 28 38 29 12 30 39 31 11 32 40 33 9 34 7 35 10 36
REMARK SMILES IDX 8 37 13 38 6 40 41 41 5 42 42 43 4 44 3 45 43 46 2 48 1 49
REMARK SMILES IDX 37 50
REMARK H PARENT 27 17 29 19 31 21 33 23 35 25 13 39 43 47 37 51
REMARK Flexibility Score: inf
ROOT
ATOM      1  C   UNL     1      19.726  47.163  88.798  1.00  0.00     0.180 C 
ATOM      2  C   UNL     1      20.294  47.523  90.209  1.00  0.00     0.177 C 
ATOM      3  C   UNL     1      19.669  46.694  91.344  1.00  0.00     0.180 C 
ATOM      4  C   UNL     1      19.683  45.210  90.958  1.00  0.00     0.214 C 
ATOM      5  C   UNL     1      19.015  45.006  89.588  1.00  0.00     0.339 C 
ATOM      6  O   UNL     1      19.660  45.756  88.562  1.00  0.00    -0.332 OA
ENDROOT
BRANCH   1   7
ATOM      7  C   UNL     1      18.443  47.875  88.285  1.00  0.00     0.198 C 
BRANCH   7   8
ATOM      8  O   UNL     1      18.520  49.281  88.432  1.00  0.00    -0.347 OA
BRANCH   8   9
ATOM      9  C   UNL     1      19.129  49.887  87.303  1.00  0.00     0.281 C 
ATOM     10  C   UNL     1      16.193  51.499  85.801  1.00  0.00     0.041 C 
ATOM     11  C   UNL     1      17.461  51.405  86.657  1.00  0.00     0.150 C 
ATOM     12  C   UNL     1      18.387  52.653  86.536  1.00  0.00     0.174 C 
ATOM     13  O   UNL     1      18.173  50.237  86.299  1.00  0.00    -0.344 OA
ATOM     14  C   UNL     1      19.878  52.290  86.778  1.00  0.00     0.179 C 
ATOM     15  C   UNL     1      20.018  51.093  87.749  1.00  0.00     0.202 C 
BRANCH  12  16
ATOM     16  O   UNL     1      18.227  53.336  85.312  1.00  0.00    -0.388 OA
ATOM     17  H   UNL     1      17.486  53.995  85.420  1.00  0.00     0.211 HD
ENDBRANCH  12  16
BRANCH  14  18
ATOM     18  O   UNL     1      20.510  51.962  85.561  1.00  0.00    -0.387 OA
ATOM     19  H   UNL     1      21.332  51.455  85.791  1.00  0.00     0.211 HD
ENDBRANCH  14  18
BRANCH  15  20
ATOM     20  O   UNL     1      19.751  51.484  89.080  1.00  0.00    -0.385 OA
ATOM     21  H   UNL     1      19.144  50.814  89.485  1.00  0.00     0.211 HD
ENDBRANCH  15  20
ENDBRANCH   8   9
ENDBRANCH   7   8
ENDBRANCH   1   7
BRANCH   2  22
ATOM     22  O   UNL     1      20.211  48.895  90.503  1.00  0.00    -0.387 OA
ATOM     23  H   UNL     1      19.969  49.355  89.657  1.00  0.00     0.211 HD
ENDBRANCH   2  22
BRANCH   3  24
ATOM     24  O   UNL     1      18.373  47.114  91.710  1.00  0.00    -0.387 OA
ATOM     25  H   UNL     1      17.899  46.363  92.143  1.00  0.00     0.211 HD
ENDBRANCH   3  24
BRANCH   5  26
ATOM     26  O   UNL     1      17.607  45.273  89.627  1.00  0.00    -0.462 OA
BRANCH  26  27
ATOM     27  C   UNL     1      16.649  44.315  89.962  1.00  0.00     0.130 A 
ATOM     28  C   UNL     1      16.661  43.040  89.381  1.00  0.00     0.093 A 
ATOM     29  C   UNL     1      15.689  44.617  90.933  1.00  0.00     0.094 A 
ATOM     30  C   UNL     1      15.659  42.105  89.685  1.00  0.00     0.133 A 
ATOM     31  C   UNL     1      14.713  43.678  91.281  1.00  0.00     0.138 A 
ATOM     32  C   UNL     1      14.656  42.438  90.620  1.00  0.00     0.102 A 
ATOM     33  O   UNL     1      13.785  43.980  92.286  1.00  0.00    -0.484 OA
ATOM     34  C   UNL     1      13.511  41.549  90.918  1.00  0.00     0.174 C 
ATOM     35  C   UNL     1      12.961  42.978  92.897  1.00  0.00     0.211 C 
ATOM     36  O   UNL     1      13.411  40.419  90.375  1.00  0.00    -0.294 OA
ATOM     37  C   UNL     1      12.403  42.036  91.810  1.00  0.00     0.131 C 
BRANCH  30  38
ATOM     38  O   UNL     1      15.670  40.853  89.068  1.00  0.00    -0.507 OA
ATOM     39  H   UNL     1      15.940  40.014  89.573  1.00  0.00     0.293 HD
ENDBRANCH  30  38
BRANCH  35  40
ATOM     40  C   UNL     1      11.869  43.621  93.742  1.00  0.00    -0.003 A 
ATOM     41  C   UNL     1      11.332  44.878  93.393  1.00  0.00     0.057 A 
ATOM     42  C   UNL     1      11.459  43.034  94.957  1.00  0.00     0.011 A 
ATOM     43  C   UNL     1      10.365  45.496  94.202  1.00  0.00     0.158 A 
ATOM     44  C   UNL     1      10.487  43.641  95.754  1.00  0.00     0.051 A 
ATOM     45  C   UNL     1       9.926  44.875  95.379  1.00  0.00     0.160 A 
BRANCH  43  46
ATOM     46  O   UNL     1       9.834  46.735  93.840  1.00  0.00    -0.504 OA
ATOM     47  H   UNL     1       8.834  46.904  93.847  1.00  0.00     0.293 HD
ENDBRANCH  43  46
BRANCH  45  48
ATOM     48  O   UNL     1       8.943  45.516  96.151  1.00  0.00    -0.493 OA
ATOM     49  C   UNL     1       9.116  45.915  97.509  1.00  0.00     0.278 C 
ENDBRANCH  45  48
ENDBRANCH  35  40
ENDBRANCH  26  27
ENDBRANCH   5  26
BRANCH   4  50
ATOM     50  O   UNL     1      21.008  44.745  90.882  1.00  0.00    -0.384 OA
ATOM     51  H   UNL     1      21.306  44.868  89.942  1.00  0.00     0.211 HD
ENDBRANCH   4  50
TORSDOF 15
ENDMDL
