MODEL 1
REMARK VINA RESULT:    -3.909      0.000      0.000
REMARK INTER + INTRA:          -6.016
REMARK INTER:                  -5.281
REMARK INTRA:                  -0.735
REMARK UNBOUND:                -0.735
REMARK SMILES O=C[C@@H](O)[C@@H](O)[C@@H](O)CO
REMARK SMILES IDX 7 1 9 2 10 3 5 5 3 6 2 7 1 8 4 9 6 11 8 13
REMARK H PARENT 10 4 4 10 6 12 8 14
REMARK Flexibility Score: inf
ROOT
ATOM      1  C   UNL     1      14.581  38.362  25.318  1.00  0.00     0.171 C 
ENDROOT
BRANCH   1   2
ATOM      2  C   UNL     1      14.835  39.701  24.601  1.00  0.00     0.190 C 
BRANCH   2   3
ATOM      3  O   UNL     1      16.192  40.049  24.676  1.00  0.00    -0.394 OA
ATOM      4  H   UNL     1      16.558  39.963  23.757  1.00  0.00     0.210 HD
ENDBRANCH   2   3
ENDBRANCH   1   2
BRANCH   1   5
ATOM      5  C   UNL     1      14.100  38.574  26.783  1.00  0.00     0.181 C 
BRANCH   5   6
ATOM      6  C   UNL     1      14.246  37.293  27.642  1.00  0.00     0.209 C 
BRANCH   6   7
ATOM      7  C   UNL     1      12.902  36.670  27.916  1.00  0.00     0.258 C 
ATOM      8  O   UNL     1      12.166  36.351  26.995  1.00  0.00    -0.300 OA
ENDBRANCH   6   7
BRANCH   6   9
ATOM      9  O   UNL     1      15.050  36.358  26.969  1.00  0.00    -0.383 OA
ATOM     10  H   UNL     1      15.647  35.948  27.649  1.00  0.00     0.211 HD
ENDBRANCH   6   9
ENDBRANCH   5   6
BRANCH   5  11
ATOM     11  O   UNL     1      14.802  39.642  27.373  1.00  0.00    -0.387 OA
ATOM     12  H   UNL     1      15.248  40.147  26.643  1.00  0.00     0.211 HD
ENDBRANCH   5  11
ENDBRANCH   1   5
BRANCH   1  13
ATOM     13  O   UNL     1      13.656  37.596  24.586  1.00  0.00    -0.388 OA
ATOM     14  H   UNL     1      13.279  36.912  25.201  1.00  0.00     0.211 HD
ENDBRANCH   1  13
TORSDOF 8
ENDMDL
MODEL 2
REMARK VINA RESULT:    -3.909      1.265      3.861
REMARK INTER + INTRA:          -6.016
REMARK INTER:                  -5.181
REMARK INTRA:                  -0.835
REMARK UNBOUND:                -0.735
REMARK SMILES O=C[C@@H](O)[C@@H](O)[C@@H](O)CO
REMARK SMILES IDX 7 1 9 2 10 3 5 5 3 6 2 7 1 8 4 9 6 11 8 13
REMARK H PARENT 10 4 4 10 6 12 8 14
REMARK Flexibility Score: inf
ROOT
ATOM      1  C   UNL     1      12.747  36.921  27.585  1.00  0.00     0.171 C 
ENDROOT
BRANCH   1   2
ATOM      2  C   UNL     1      13.331  36.812  29.006  1.00  0.00     0.190 C 
BRANCH   2   3
ATOM      3  O   UNL     1      14.060  37.966  29.328  1.00  0.00    -0.394 OA
ATOM      4  H   UNL     1      13.905  38.139  30.294  1.00  0.00     0.210 HD
ENDBRANCH   2   3
ENDBRANCH   1   2
BRANCH   1   5
ATOM      5  C   UNL     1      13.861  36.893  26.499  1.00  0.00     0.181 C 
BRANCH   5   6
ATOM      6  C   UNL     1      14.058  38.272  25.820  1.00  0.00     0.209 C 
BRANCH   6   7
ATOM      7  C   UNL     1      15.427  38.827  26.113  1.00  0.00     0.258 C 
ATOM      8  O   UNL     1      15.701  39.253  27.224  1.00  0.00    -0.300 OA
ENDBRANCH   6   7
BRANCH   6   9
ATOM      9  O   UNL     1      13.908  38.143  24.430  1.00  0.00    -0.383 OA
ATOM     10  H   UNL     1      14.626  38.686  24.010  1.00  0.00     0.211 HD
ENDBRANCH   6   9
ENDBRANCH   5   6
BRANCH   5  11
ATOM     11  O   UNL     1      15.073  36.446  27.060  1.00  0.00    -0.387 OA
ATOM     12  H   UNL     1      14.995  35.465  27.197  1.00  0.00     0.211 HD
ENDBRANCH   5  11
ENDBRANCH   1   5
BRANCH   1  13
ATOM     13  O   UNL     1      11.806  35.897  27.375  1.00  0.00    -0.388 OA
ATOM     14  H   UNL     1      11.178  35.904  28.145  1.00  0.00     0.211 HD
ENDBRANCH   1  13
TORSDOF 8
ENDMDL
MODEL 3
REMARK VINA RESULT:    -3.772      1.008      4.008
REMARK INTER + INTRA:          -5.830
REMARK INTER:                  -5.312
REMARK INTRA:                  -0.519
REMARK UNBOUND:                -0.735
REMARK SMILES O=C[C@@H](O)[C@@H](O)[C@@H](O)CO
REMARK SMILES IDX 7 1 9 2 10 3 5 5 3 6 2 7 1 8 4 9 6 11 8 13
REMARK H PARENT 10 4 4 10 6 12 8 14
REMARK Flexibility Score: inf
ROOT
ATOM      1  C   UNL     1      13.739  36.908  26.995  1.00  0.00     0.171 C 
ENDROOT
BRANCH   1   2
ATOM      2  C   UNL     1      13.152  36.586  28.382  1.00  0.00     0.190 C 
BRANCH   2   3
ATOM      3  O   UNL     1      11.750  36.562  28.329  1.00  0.00    -0.394 OA
ATOM      4  H   UNL     1      11.446  36.020  29.103  1.00  0.00     0.210 HD
ENDBRANCH   2   3
ENDBRANCH   1   2
BRANCH   1   5
ATOM      5  C   UNL     1      13.694  38.433  26.689  1.00  0.00     0.181 C 
BRANCH   5   6
ATOM      6  C   UNL     1      13.582  38.727  25.172  1.00  0.00     0.209 C 
BRANCH   6   7
ATOM      7  C   UNL     1      14.532  39.823  24.763  1.00  0.00     0.258 C 
ATOM      8  O   UNL     1      15.735  39.619  24.722  1.00  0.00    -0.300 OA
ENDBRANCH   6   7
BRANCH   6   9
ATOM      9  O   UNL     1      13.885  37.568  24.440  1.00  0.00    -0.383 OA
ATOM     10  H   UNL     1      13.047  37.040  24.375  1.00  0.00     0.211 HD
ENDBRANCH   6   9
ENDBRANCH   5   6
BRANCH   5  11
ATOM     11  O   UNL     1      12.628  39.035  27.385  1.00  0.00    -0.387 OA
ATOM     12  H   UNL     1      12.600  38.636  28.294  1.00  0.00     0.211 HD
ENDBRANCH   5  11
ENDBRANCH   1   5
BRANCH   1  13
ATOM     13  O   UNL     1      15.051  36.411  26.904  1.00  0.00    -0.388 OA
ATOM     14  H   UNL     1      15.004  35.517  26.472  1.00  0.00     0.211 HD
ENDBRANCH   1  13
TORSDOF 8
ENDMDL
MODEL 4
REMARK VINA RESULT:    -3.768      1.694      2.517
REMARK INTER + INTRA:          -5.825
REMARK INTER:                  -5.263
REMARK INTRA:                  -0.563
REMARK UNBOUND:                -0.735
REMARK SMILES O=C[C@@H](O)[C@@H](O)[C@@H](O)CO
REMARK SMILES IDX 7 1 9 2 10 3 5 5 3 6 2 7 1 8 4 9 6 11 8 13
REMARK H PARENT 10 4 4 10 6 12 8 14
REMARK Flexibility Score: inf
ROOT
ATOM      1  C   UNL     1      14.898  38.721  26.362  1.00  0.00     0.171 C 
ENDROOT
BRANCH   1   2
ATOM      2  C   UNL     1      13.612  38.297  25.628  1.00  0.00     0.190 C 
BRANCH   2   3
ATOM      3  O   UNL     1      13.924  37.653  24.422  1.00  0.00    -0.394 OA
ATOM      4  H   UNL     1      14.913  37.683  24.332  1.00  0.00     0.210 HD
ENDBRANCH   2   3
ENDBRANCH   1   2
BRANCH   1   5
ATOM      5  C   UNL     1      15.457  37.576  27.255  1.00  0.00     0.181 C 
BRANCH   5   6
ATOM      6  C   UNL     1      15.441  37.941  28.761  1.00  0.00     0.209 C 
BRANCH   6   7
ATOM      7  C   UNL     1      14.287  37.278  29.466  1.00  0.00     0.258 C 
ATOM      8  O   UNL     1      13.136  37.597  29.211  1.00  0.00    -0.300 OA
ENDBRANCH   6   7
BRANCH   6   9
ATOM      9  O   UNL     1      16.640  37.525  29.363  1.00  0.00    -0.383 OA
ATOM     10  H   UNL     1      16.562  36.547  29.515  1.00  0.00     0.211 HD
ENDBRANCH   6   9
ENDBRANCH   5   6
BRANCH   5  11
ATOM     11  O   UNL     1      14.732  36.389  27.032  1.00  0.00    -0.387 OA
ATOM     12  H   UNL     1      15.116  35.688  27.621  1.00  0.00     0.211 HD
ENDBRANCH   5  11
ENDBRANCH   1   5
BRANCH   1  13
ATOM     13  O   UNL     1      15.859  39.155  25.432  1.00  0.00    -0.388 OA
ATOM     14  H   UNL     1      15.838  40.148  25.421  1.00  0.00     0.211 HD
ENDBRANCH   1  13
TORSDOF 8
ENDMDL
MODEL 5
REMARK VINA RESULT:    -3.727      1.665      2.771
REMARK INTER + INTRA:          -5.770
REMARK INTER:                  -5.022
REMARK INTRA:                  -0.747
REMARK UNBOUND:                -0.735
REMARK SMILES O=C[C@@H](O)[C@@H](O)[C@@H](O)CO
REMARK SMILES IDX 7 1 9 2 10 3 5 5 3 6 2 7 1 8 4 9 6 11 8 13
REMARK H PARENT 10 4 4 10 6 12 8 14
REMARK Flexibility Score: inf
ROOT
ATOM      1  C   UNL     1      13.090  38.095  26.617  1.00  0.00     0.171 C 
ENDROOT
BRANCH   1   2
ATOM      2  C   UNL     1      13.833  38.653  25.389  1.00  0.00     0.190 C 
BRANCH   2   3
ATOM      3  O   UNL     1      13.885  37.694  24.367  1.00  0.00    -0.394 OA
ATOM      4  H   UNL     1      14.846  37.498  24.211  1.00  0.00     0.210 HD
ENDBRANCH   2   3
ENDBRANCH   1   2
BRANCH   1   5
ATOM      5  C   UNL     1      14.045  37.307  27.560  1.00  0.00     0.181 C 
BRANCH   5   6
ATOM      6  C   UNL     1      13.281  36.562  28.684  1.00  0.00     0.209 C 
BRANCH   6   7
ATOM      7  C   UNL     1      13.480  37.241  30.014  1.00  0.00     0.258 C 
ATOM      8  O   UNL     1      13.182  38.416  30.162  1.00  0.00    -0.300 OA
ENDBRANCH   6   7
BRANCH   6   9
ATOM      9  O   UNL     1      11.908  36.537  28.388  1.00  0.00    -0.383 OA
ATOM     10  H   UNL     1      11.808  36.058  27.524  1.00  0.00     0.211 HD
ENDBRANCH   6   9
ENDBRANCH   5   6
BRANCH   5  11
ATOM     11  O   UNL     1      14.825  36.403  26.815  1.00  0.00    -0.387 OA
ATOM     12  H   UNL     1      14.211  35.896  26.221  1.00  0.00     0.211 HD
ENDBRANCH   5  11
ENDBRANCH   1   5
BRANCH   1  13
ATOM     13  O   UNL     1      12.447  39.140  27.303  1.00  0.00    -0.388 OA
ATOM     14  H   UNL     1      11.620  38.768  27.710  1.00  0.00     0.211 HD
ENDBRANCH   1  13
TORSDOF 8
ENDMDL
MODEL 6
REMARK VINA RESULT:    -3.715      2.205      3.506
REMARK INTER + INTRA:          -5.753
REMARK INTER:                  -5.150
REMARK INTRA:                  -0.603
REMARK UNBOUND:                -0.735
REMARK SMILES O=C[C@@H](O)[C@@H](O)[C@@H](O)CO
REMARK SMILES IDX 7 1 9 2 10 3 5 5 3 6 2 7 1 8 4 9 6 11 8 13
REMARK H PARENT 10 4 4 10 6 12 8 14
REMARK Flexibility Score: inf
ROOT
ATOM      1  C   UNL     1      13.190  37.880  27.364  1.00  0.00     0.171 C 
ENDROOT
BRANCH   1   2
ATOM      2  C   UNL     1      12.446  36.597  26.946  1.00  0.00     0.190 C 
BRANCH   2   3
ATOM      3  O   UNL     1      12.417  35.678  28.005  1.00  0.00    -0.394 OA
ATOM      4  H   UNL     1      11.545  35.207  27.948  1.00  0.00     0.210 HD
ENDBRANCH   2   3
ENDBRANCH   1   2
BRANCH   1   5
ATOM      5  C   UNL     1      14.726  37.648  27.465  1.00  0.00     0.181 C 
BRANCH   5   6
ATOM      6  C   UNL     1      15.303  38.112  28.827  1.00  0.00     0.209 C 
BRANCH   6   7
ATOM      7  C   UNL     1      14.298  37.922  29.932  1.00  0.00     0.258 C 
ATOM      8  O   UNL     1      13.938  36.802  30.259  1.00  0.00    -0.300 OA
ENDBRANCH   6   7
BRANCH   6   9
ATOM      9  O   UNL     1      16.457  37.372  29.130  1.00  0.00    -0.383 OA
ATOM     10  H   UNL     1      16.657  36.810  28.336  1.00  0.00     0.211 HD
ENDBRANCH   6   9
ENDBRANCH   5   6
BRANCH   5  11
ATOM     11  O   UNL     1      15.027  36.291  27.243  1.00  0.00    -0.387 OA
ATOM     12  H   UNL     1      16.011  36.186  27.325  1.00  0.00     0.211 HD
ENDBRANCH   5  11
ENDBRANCH   1   5
BRANCH   1  13
ATOM     13  O   UNL     1      12.891  38.920  26.466  1.00  0.00    -0.388 OA
ATOM     14  H   UNL     1      13.145  39.776  26.903  1.00  0.00     0.211 HD
ENDBRANCH   1  13
TORSDOF 8
ENDMDL
MODEL 7
REMARK VINA RESULT:    -3.706      1.801      3.771
REMARK INTER + INTRA:          -5.741
REMARK INTER:                  -5.054
REMARK INTRA:                  -0.687
REMARK UNBOUND:                -0.735
REMARK SMILES O=C[C@@H](O)[C@@H](O)[C@@H](O)CO
REMARK SMILES IDX 7 1 9 2 10 3 5 5 3 6 2 7 1 8 4 9 6 11 8 13
REMARK H PARENT 10 4 4 10 6 12 8 14
REMARK Flexibility Score: inf
ROOT
ATOM      1  C   UNL     1      15.695  38.679  28.024  1.00  0.00     0.171 C 
ENDROOT
BRANCH   1   2
ATOM      2  C   UNL     1      15.753  38.113  29.455  1.00  0.00     0.190 C 
BRANCH   2   3
ATOM      3  O   UNL     1      16.968  37.448  29.672  1.00  0.00    -0.394 OA
ATOM      4  H   UNL     1      17.502  38.022  30.281  1.00  0.00     0.210 HD
ENDBRANCH   2   3
ENDBRANCH   1   2
BRANCH   1   5
ATOM      5  C   UNL     1      14.821  37.794  27.089  1.00  0.00     0.181 C 
BRANCH   5   6
ATOM      6  C   UNL     1      14.944  38.209  25.600  1.00  0.00     0.209 C 
BRANCH   6   7
ATOM      7  C   UNL     1      13.691  38.896  25.126  1.00  0.00     0.258 C 
ATOM      8  O   UNL     1      13.059  39.625  25.876  1.00  0.00    -0.300 OA
ENDBRANCH   6   7
BRANCH   6   9
ATOM      9  O   UNL     1      16.030  39.085  25.440  1.00  0.00    -0.383 OA
ATOM     10  H   UNL     1      16.582  38.727  24.696  1.00  0.00     0.211 HD
ENDBRANCH   6   9
ENDBRANCH   5   6
BRANCH   5  11
ATOM     11  O   UNL     1      15.161  36.437  27.249  1.00  0.00    -0.387 OA
ATOM     12  H   UNL     1      14.318  35.913  27.227  1.00  0.00     0.211 HD
ENDBRANCH   5  11
ENDBRANCH   1   5
BRANCH   1  13
ATOM     13  O   UNL     1      15.226  40.005  28.052  1.00  0.00    -0.388 OA
ATOM     14  H   UNL     1      14.495  40.051  28.723  1.00  0.00     0.211 HD
ENDBRANCH   1  13
TORSDOF 8
ENDMDL
MODEL 8
REMARK VINA RESULT:    -3.698      2.628      4.287
REMARK INTER + INTRA:          -5.731
REMARK INTER:                  -5.240
REMARK INTRA:                  -0.491
REMARK UNBOUND:                -0.735
REMARK SMILES O=C[C@@H](O)[C@@H](O)[C@@H](O)CO
REMARK SMILES IDX 7 1 9 2 10 3 5 5 3 6 2 7 1 8 4 9 6 11 8 13
REMARK H PARENT 10 4 4 10 6 12 8 14
REMARK Flexibility Score: inf
ROOT
ATOM      1  C   UNL     1      14.148  37.269  27.750  1.00  0.00     0.171 C 
ENDROOT
BRANCH   1   2
ATOM      2  C   UNL     1      12.669  36.850  27.644  1.00  0.00     0.190 C 
BRANCH   2   3
ATOM      3  O   UNL     1      12.474  35.586  28.220  1.00  0.00    -0.394 OA
ATOM      4  H   UNL     1      12.757  35.660  29.169  1.00  0.00     0.210 HD
ENDBRANCH   2   3
ENDBRANCH   1   2
BRANCH   1   5
ATOM      5  C   UNL     1      14.616  37.367  29.230  1.00  0.00     0.181 C 
BRANCH   5   6
ATOM      6  C   UNL     1      15.809  38.341  29.408  1.00  0.00     0.209 C 
BRANCH   6   7
ATOM      7  C   UNL     1      15.327  39.749  29.638  1.00  0.00     0.258 C 
ATOM      8  O   UNL     1      15.019  40.125  30.759  1.00  0.00    -0.300 OA
ENDBRANCH   6   7
BRANCH   6   9
ATOM      9  O   UNL     1      16.587  37.942  30.507  1.00  0.00    -0.383 OA
ATOM     10  H   UNL     1      17.493  37.731  30.159  1.00  0.00     0.211 HD
ENDBRANCH   6   9
ENDBRANCH   5   6
BRANCH   5  11
ATOM     11  O   UNL     1      13.542  37.754  30.054  1.00  0.00    -0.387 OA
ATOM     12  H   UNL     1      13.922  38.065  30.917  1.00  0.00     0.211 HD
ENDBRANCH   5  11
ENDBRANCH   1   5
BRANCH   1  13
ATOM     13  O   UNL     1      14.952  36.374  27.021  1.00  0.00    -0.388 OA
ATOM     14  H   UNL     1      15.251  36.842  26.197  1.00  0.00     0.211 HD
ENDBRANCH   1  13
TORSDOF 8
ENDMDL
MODEL 9
REMARK VINA RESULT:    -3.662      1.740      3.828
REMARK INTER + INTRA:          -5.682
REMARK INTER:                  -4.926
REMARK INTRA:                  -0.756
REMARK UNBOUND:                -0.735
REMARK SMILES O=C[C@@H](O)[C@@H](O)[C@@H](O)CO
REMARK SMILES IDX 7 1 9 2 10 3 5 5 3 6 2 7 1 8 4 9 6 11 8 13
REMARK H PARENT 10 4 4 10 6 12 8 14
REMARK Flexibility Score: inf
ROOT
ATOM      1  C   UNL     1      12.636  37.174  28.719  1.00  0.00     0.171 C 
ENDROOT
BRANCH   1   2
ATOM      2  C   UNL     1      13.371  37.295  30.068  1.00  0.00     0.190 C 
BRANCH   2   3
ATOM      3  O   UNL     1      14.759  37.269  29.875  1.00  0.00    -0.394 OA
ATOM      4  H   UNL     1      14.937  36.577  29.185  1.00  0.00     0.210 HD
ENDBRANCH   2   3
ENDBRANCH   1   2
BRANCH   1   5
ATOM      5  C   UNL     1      13.364  37.962  27.593  1.00  0.00     0.181 C 
BRANCH   5   6
ATOM      6  C   UNL     1      13.923  37.030  26.488  1.00  0.00     0.209 C 
BRANCH   6   7
ATOM      7  C   UNL     1      14.338  37.820  25.274  1.00  0.00     0.258 C 
ATOM      8  O   UNL     1      15.018  38.827  25.391  1.00  0.00    -0.300 OA
ENDBRANCH   6   7
BRANCH   6   9
ATOM      9  O   UNL     1      15.038  36.330  26.977  1.00  0.00    -0.383 OA
ATOM     10  H   UNL     1      14.946  35.390  26.669  1.00  0.00     0.211 HD
ENDBRANCH   6   9
ENDBRANCH   5   6
BRANCH   5  11
ATOM     11  O   UNL     1      12.496  38.920  27.033  1.00  0.00    -0.387 OA
ATOM     12  H   UNL     1      13.031  39.481  26.412  1.00  0.00     0.211 HD
ENDBRANCH   5  11
ENDBRANCH   1   5
BRANCH   1  13
ATOM     13  O   UNL     1      12.486  35.819  28.376  1.00  0.00    -0.388 OA
ATOM     14  H   UNL     1      13.026  35.285  29.018  1.00  0.00     0.211 HD
ENDBRANCH   1  13
TORSDOF 8
ENDMDL
