MODEL 1
REMARK VINA RESULT:    -5.872      0.000      0.000
REMARK INTER + INTRA:         -13.906
REMARK INTER:                 -11.021
REMARK INTRA:                  -2.885
REMARK UNBOUND:                -2.885
REMARK SMILES CCCCCCCCC=CCCCCCCCC(=O)[O-]
REMARK SMILES IDX 10 1 9 2 11 3 12 4 13 5 14 6 15 7 16 8 17 9 18 10 19 11
REMARK SMILES IDX 20 12 8 13 7 14 6 15 5 16 4 17 3 18 2 19 1 20
REMARK H PARENT
REMARK Flexibility Score: inf
ROOT
ATOM      1  C   UNL     1     -15.978   1.714 -36.227  1.00  0.00    -0.031 C 
ATOM      2  C   UNL     1     -16.383   2.897 -36.708  1.00  0.00    -0.031 C 
ENDROOT
BRANCH   1   3
ATOM      3  C   UNL     1     -16.643   1.109 -35.020  1.00  0.00     0.027 C 
BRANCH   3   4
ATOM      4  C   UNL     1     -17.210   2.171 -34.066  1.00  0.00     0.004 C 
BRANCH   4   5
ATOM      5  C   UNL     1     -16.512   2.221 -32.694  1.00  0.00     0.000 C 
BRANCH   5   6
ATOM      6  C   UNL     1     -15.096   2.815 -32.766  1.00  0.00     0.000 C 
BRANCH   6   7
ATOM      7  C   UNL     1     -15.106   4.184 -33.463  1.00  0.00     0.000 C 
BRANCH   7   8
ATOM      8  C   UNL     1     -13.828   4.444 -34.276  1.00  0.00     0.006 C 
BRANCH   8   9
ATOM      9  C   UNL     1     -12.561   4.408 -33.414  1.00  0.00     0.053 C 
BRANCH   9  10
ATOM     10  C   UNL     1     -12.553   5.553 -32.451  1.00  0.00     0.041 C 
ATOM     11  O   UNL     1     -12.707   6.732 -32.868  1.00  0.00    -0.550 OA
ATOM     12  O   UNL     1     -12.429   5.315 -31.089  1.00  0.00    -0.550 OA
ENDBRANCH   9  10
ENDBRANCH   8   9
ENDBRANCH   7   8
ENDBRANCH   6   7
ENDBRANCH   5   6
ENDBRANCH   4   5
ENDBRANCH   3   4
ENDBRANCH   1   3
BRANCH   2  13
ATOM     13  C   UNL     1     -15.719   3.538 -37.897  1.00  0.00     0.027 C 
BRANCH  13  14
ATOM     14  C   UNL     1     -14.319   2.958 -38.170  1.00  0.00     0.004 C 
BRANCH  14  15
ATOM     15  C   UNL     1     -13.158   3.873 -37.731  1.00  0.00     0.000 C 
BRANCH  15  16
ATOM     16  C   UNL     1     -11.788   3.177 -37.602  1.00  0.00     0.000 C 
BRANCH  16  17
ATOM     17  C   UNL     1     -11.588   2.371 -36.307  1.00  0.00    -0.000 C 
BRANCH  17  18
ATOM     18  C   UNL     1     -11.485   0.859 -36.558  1.00  0.00    -0.000 C 
BRANCH  18  19
ATOM     19  C   UNL     1     -12.605   0.105 -35.832  1.00  0.00    -0.003 C 
ATOM     20  C   UNL     1     -12.876   0.707 -34.458  1.00  0.00     0.004 C 
ENDBRANCH  18  19
ENDBRANCH  17  18
ENDBRANCH  16  17
ENDBRANCH  15  16
ENDBRANCH  14  15
ENDBRANCH  13  14
ENDBRANCH   2  13
TORSDOF 15
ENDMDL
MODEL 2
REMARK VINA RESULT:    -5.738      1.177      4.124
REMARK INTER + INTRA:         -13.654
REMARK INTER:                 -11.005
REMARK INTRA:                  -2.649
REMARK UNBOUND:                -2.885
REMARK SMILES CCCCCCCCC=CCCCCCCCC(=O)[O-]
REMARK SMILES IDX 10 1 9 2 11 3 12 4 13 5 14 6 15 7 16 8 17 9 18 10 19 11
REMARK SMILES IDX 20 12 8 13 7 14 6 15 5 16 4 17 3 18 2 19 1 20
REMARK H PARENT
REMARK Flexibility Score: inf
ROOT
ATOM      1  C   UNL     1     -12.545   2.692 -37.476  1.00  0.00    -0.031 C 
ATOM      2  C   UNL     1     -12.480   4.027 -37.570  1.00  0.00    -0.031 C 
ENDROOT
BRANCH   1   3
ATOM      3  C   UNL     1     -11.290   1.868 -37.372  1.00  0.00     0.027 C 
BRANCH   3   4
ATOM      4  C   UNL     1     -11.381   0.794 -36.277  1.00  0.00     0.004 C 
BRANCH   4   5
ATOM      5  C   UNL     1     -12.778   0.161 -36.130  1.00  0.00     0.000 C 
BRANCH   5   6
ATOM      6  C   UNL     1     -13.290   0.174 -34.681  1.00  0.00     0.000 C 
BRANCH   6   7
ATOM      7  C   UNL     1     -12.564   1.242 -33.849  1.00  0.00     0.000 C 
BRANCH   7   8
ATOM      8  C   UNL     1     -13.336   2.570 -33.787  1.00  0.00     0.006 C 
BRANCH   8   9
ATOM      9  C   UNL     1     -12.432   3.790 -33.993  1.00  0.00     0.053 C 
BRANCH   9  10
ATOM     10  C   UNL     1     -12.831   4.897 -33.068  1.00  0.00     0.041 C 
ATOM     11  O   UNL     1     -14.045   5.076 -32.782  1.00  0.00    -0.550 OA
ATOM     12  O   UNL     1     -11.859   5.697 -32.482  1.00  0.00    -0.550 OA
ENDBRANCH   9  10
ENDBRANCH   8   9
ENDBRANCH   7   8
ENDBRANCH   6   7
ENDBRANCH   5   6
ENDBRANCH   4   5
ENDBRANCH   3   4
ENDBRANCH   1   3
BRANCH   2  13
ATOM     13  C   UNL     1     -13.718   4.872 -37.700  1.00  0.00     0.027 C 
BRANCH  13  14
ATOM     14  C   UNL     1     -14.990   4.026 -37.881  1.00  0.00     0.004 C 
BRANCH  14  15
ATOM     15  C   UNL     1     -15.693   3.647 -36.561  1.00  0.00     0.000 C 
BRANCH  15  16
ATOM     16  C   UNL     1     -16.065   2.157 -36.421  1.00  0.00     0.000 C 
BRANCH  16  17
ATOM     17  C   UNL     1     -17.151   1.854 -35.375  1.00  0.00    -0.000 C 
BRANCH  17  18
ATOM     18  C   UNL     1     -16.607   1.097 -34.155  1.00  0.00    -0.000 C 
BRANCH  18  19
ATOM     19  C   UNL     1     -16.909   1.857 -32.859  1.00  0.00    -0.003 C 
ATOM     20  C   UNL     1     -17.664   3.151 -33.140  1.00  0.00     0.004 C 
ENDBRANCH  18  19
ENDBRANCH  17  18
ENDBRANCH  16  17
ENDBRANCH  15  16
ENDBRANCH  14  15
ENDBRANCH  13  14
ENDBRANCH   2  13
TORSDOF 15
ENDMDL
MODEL 3
REMARK VINA RESULT:    -5.692      2.968      5.692
REMARK INTER + INTRA:         -13.569
REMARK INTER:                 -10.795
REMARK INTRA:                  -2.774
REMARK UNBOUND:                -2.885
REMARK SMILES CCCCCCCCC=CCCCCCCCC(=O)[O-]
REMARK SMILES IDX 10 1 9 2 11 3 12 4 13 5 14 6 15 7 16 8 17 9 18 10 19 11
REMARK SMILES IDX 20 12 8 13 7 14 6 15 5 16 4 17 3 18 2 19 1 20
REMARK H PARENT
REMARK Flexibility Score: inf
ROOT
ATOM      1  C   UNL     1     -14.613   0.864 -34.571  1.00  0.00    -0.031 C 
ATOM      2  C   UNL     1     -15.658   0.630 -35.375  1.00  0.00    -0.031 C 
ENDROOT
BRANCH   1   3
ATOM      3  C   UNL     1     -13.315   0.127 -34.767  1.00  0.00     0.027 C 
BRANCH   3   4
ATOM      4  C   UNL     1     -12.130   1.077 -35.005  1.00  0.00     0.004 C 
BRANCH   4   5
ATOM      5  C   UNL     1     -11.713   1.205 -36.482  1.00  0.00     0.000 C 
BRANCH   5   6
ATOM      6  C   UNL     1     -12.197   2.513 -37.128  1.00  0.00     0.000 C 
BRANCH   6   7
ATOM      7  C   UNL     1     -13.536   2.309 -37.852  1.00  0.00     0.000 C 
BRANCH   7   8
ATOM      8  C   UNL     1     -14.545   3.430 -37.558  1.00  0.00     0.006 C 
BRANCH   8   9
ATOM      9  C   UNL     1     -15.946   3.122 -38.100  1.00  0.00     0.053 C 
BRANCH   9  10
ATOM     10  C   UNL     1     -15.995   3.352 -39.578  1.00  0.00     0.041 C 
ATOM     11  O   UNL     1     -16.229   2.393 -40.361  1.00  0.00    -0.550 OA
ATOM     12  O   UNL     1     -15.838   4.634 -40.087  1.00  0.00    -0.550 OA
ENDBRANCH   9  10
ENDBRANCH   8   9
ENDBRANCH   7   8
ENDBRANCH   6   7
ENDBRANCH   5   6
ENDBRANCH   4   5
ENDBRANCH   3   4
ENDBRANCH   1   3
BRANCH   2  13
ATOM     13  C   UNL     1     -16.976   1.334 -35.184  1.00  0.00     0.027 C 
BRANCH  13  14
ATOM     14  C   UNL     1     -17.152   1.871 -33.753  1.00  0.00     0.004 C 
BRANCH  14  15
ATOM     15  C   UNL     1     -17.308   3.404 -33.667  1.00  0.00     0.000 C 
BRANCH  15  16
ATOM     16  C   UNL     1     -16.122   4.215 -34.227  1.00  0.00     0.000 C 
BRANCH  16  17
ATOM     17  C   UNL     1     -14.841   4.165 -33.378  1.00  0.00    -0.000 C 
BRANCH  17  18
ATOM     18  C   UNL     1     -13.574   4.453 -34.196  1.00  0.00    -0.000 C 
BRANCH  18  19
ATOM     19  C   UNL     1     -12.400   4.815 -33.280  1.00  0.00    -0.003 C 
ATOM     20  C   UNL     1     -12.886   5.232 -31.897  1.00  0.00     0.004 C 
ENDBRANCH  18  19
ENDBRANCH  17  18
ENDBRANCH  16  17
ENDBRANCH  15  16
ENDBRANCH  14  15
ENDBRANCH  13  14
ENDBRANCH   2  13
TORSDOF 15
ENDMDL
MODEL 4
REMARK VINA RESULT:    -5.678      1.045      2.860
REMARK INTER + INTRA:         -13.542
REMARK INTER:                 -10.427
REMARK INTRA:                  -3.115
REMARK UNBOUND:                -2.885
REMARK SMILES CCCCCCCCC=CCCCCCCCC(=O)[O-]
REMARK SMILES IDX 10 1 9 2 11 3 12 4 13 5 14 6 15 7 16 8 17 9 18 10 19 11
REMARK SMILES IDX 20 12 8 13 7 14 6 15 5 16 4 17 3 18 2 19 1 20
REMARK H PARENT
REMARK Flexibility Score: inf
ROOT
ATOM      1  C   UNL     1     -15.099   0.842 -35.443  1.00  0.00    -0.031 C 
ATOM      2  C   UNL     1     -14.268   0.891 -34.394  1.00  0.00    -0.031 C 
ENDROOT
BRANCH   1   3
ATOM      3  C   UNL     1     -16.589   0.923 -35.247  1.00  0.00     0.027 C 
BRANCH   3   4
ATOM      4  C   UNL     1     -16.980   1.861 -34.094  1.00  0.00     0.004 C 
BRANCH   4   5
ATOM      5  C   UNL     1     -17.225   3.320 -34.524  1.00  0.00     0.000 C 
BRANCH   5   6
ATOM      6  C   UNL     1     -16.276   4.313 -33.834  1.00  0.00     0.000 C 
BRANCH   6   7
ATOM      7  C   UNL     1     -15.307   4.944 -34.846  1.00  0.00     0.000 C 
BRANCH   7   8
ATOM      8  C   UNL     1     -13.838   4.607 -34.547  1.00  0.00     0.006 C 
BRANCH   8   9
ATOM      9  C   UNL     1     -13.591   4.297 -33.067  1.00  0.00     0.053 C 
BRANCH   9  10
ATOM     10  C   UNL     1     -12.870   5.432 -32.409  1.00  0.00     0.041 C 
ATOM     11  O   UNL     1     -11.641   5.609 -32.621  1.00  0.00    -0.550 OA
ATOM     12  O   UNL     1     -13.567   6.326 -31.607  1.00  0.00    -0.550 OA
ENDBRANCH   9  10
ENDBRANCH   8   9
ENDBRANCH   7   8
ENDBRANCH   6   7
ENDBRANCH   5   6
ENDBRANCH   4   5
ENDBRANCH   3   4
ENDBRANCH   1   3
BRANCH   2  13
ATOM     13  C   UNL     1     -12.776   0.787 -34.560  1.00  0.00     0.027 C 
BRANCH  13  14
ATOM     14  C   UNL     1     -12.378   0.212 -35.931  1.00  0.00     0.004 C 
BRANCH  14  15
ATOM     15  C   UNL     1     -11.492   1.149 -36.778  1.00  0.00     0.000 C 
BRANCH  15  16
ATOM     16  C   UNL     1     -11.780   2.654 -36.606  1.00  0.00     0.000 C 
BRANCH  16  17
ATOM     17  C   UNL     1     -12.437   3.333 -37.821  1.00  0.00    -0.000 C 
BRANCH  17  18
ATOM     18  C   UNL     1     -13.821   2.754 -38.148  1.00  0.00    -0.000 C 
BRANCH  18  19
ATOM     19  C   UNL     1     -14.878   3.863 -38.207  1.00  0.00    -0.003 C 
ATOM     20  C   UNL     1     -16.288   3.285 -38.167  1.00  0.00     0.004 C 
ENDBRANCH  18  19
ENDBRANCH  17  18
ENDBRANCH  16  17
ENDBRANCH  15  16
ENDBRANCH  14  15
ENDBRANCH  13  14
ENDBRANCH   2  13
TORSDOF 15
ENDMDL
MODEL 5
REMARK VINA RESULT:    -5.618      3.006      5.784
REMARK INTER + INTRA:         -13.430
REMARK INTER:                 -10.728
REMARK INTRA:                  -2.702
REMARK UNBOUND:                -2.885
REMARK SMILES CCCCCCCCC=CCCCCCCCC(=O)[O-]
REMARK SMILES IDX 10 1 9 2 11 3 12 4 13 5 14 6 15 7 16 8 17 9 18 10 19 11
REMARK SMILES IDX 20 12 8 13 7 14 6 15 5 16 4 17 3 18 2 19 1 20
REMARK H PARENT
REMARK Flexibility Score: inf
ROOT
ATOM      1  C   UNL     1     -12.899   3.044 -33.981  1.00  0.00    -0.031 C 
ATOM      2  C   UNL     1     -13.701   3.479 -33.000  1.00  0.00    -0.031 C 
ENDROOT
BRANCH   1   3
ATOM      3  C   UNL     1     -12.545   1.586 -34.093  1.00  0.00     0.027 C 
BRANCH   3   4
ATOM      4  C   UNL     1     -11.725   1.274 -35.355  1.00  0.00     0.004 C 
BRANCH   4   5
ATOM      5  C   UNL     1     -12.447   0.365 -36.366  1.00  0.00     0.000 C 
BRANCH   5   6
ATOM      6  C   UNL     1     -13.287   1.153 -37.384  1.00  0.00     0.000 C 
BRANCH   6   7
ATOM      7  C   UNL     1     -12.779   2.596 -37.518  1.00  0.00     0.000 C 
BRANCH   7   8
ATOM      8  C   UNL     1     -13.891   3.581 -37.911  1.00  0.00     0.006 C 
BRANCH   8   9
ATOM      9  C   UNL     1     -15.254   2.899 -38.079  1.00  0.00     0.053 C 
BRANCH   9  10
ATOM     10  C   UNL     1     -15.887   3.309 -39.371  1.00  0.00     0.041 C 
ATOM     11  O   UNL     1     -16.093   4.528 -39.616  1.00  0.00    -0.550 OA
ATOM     12  O   UNL     1     -16.201   2.352 -40.326  1.00  0.00    -0.550 OA
ENDBRANCH   9  10
ENDBRANCH   8   9
ENDBRANCH   7   8
ENDBRANCH   6   7
ENDBRANCH   5   6
ENDBRANCH   4   5
ENDBRANCH   3   4
ENDBRANCH   1   3
BRANCH   2  13
ATOM     13  C   UNL     1     -14.049   4.936 -32.850  1.00  0.00     0.027 C 
BRANCH  13  14
ATOM     14  C   UNL     1     -14.527   5.564 -34.171  1.00  0.00     0.004 C 
BRANCH  14  15
ATOM     15  C   UNL     1     -16.053   5.501 -34.388  1.00  0.00     0.000 C 
BRANCH  15  16
ATOM     16  C   UNL     1     -16.602   4.114 -34.780  1.00  0.00     0.000 C 
BRANCH  16  17
ATOM     17  C   UNL     1     -17.382   3.387 -33.672  1.00  0.00    -0.000 C 
BRANCH  17  18
ATOM     18  C   UNL     1     -17.252   1.859 -33.758  1.00  0.00    -0.000 C 
BRANCH  18  19
ATOM     19  C   UNL     1     -16.345   1.451 -34.925  1.00  0.00    -0.003 C 
ATOM     20  C   UNL     1     -15.774   0.053 -34.720  1.00  0.00     0.004 C 
ENDBRANCH  18  19
ENDBRANCH  17  18
ENDBRANCH  16  17
ENDBRANCH  15  16
ENDBRANCH  14  15
ENDBRANCH  13  14
ENDBRANCH   2  13
TORSDOF 15
ENDMDL
MODEL 6
REMARK VINA RESULT:    -5.543      2.468      4.485
REMARK INTER + INTRA:         -13.290
REMARK INTER:                 -10.602
REMARK INTRA:                  -2.687
REMARK UNBOUND:                -2.885
REMARK SMILES CCCCCCCCC=CCCCCCCCC(=O)[O-]
REMARK SMILES IDX 10 1 9 2 11 3 12 4 13 5 14 6 15 7 16 8 17 9 18 10 19 11
REMARK SMILES IDX 20 12 8 13 7 14 6 15 5 16 4 17 3 18 2 19 1 20
REMARK H PARENT
REMARK Flexibility Score: inf
ROOT
ATOM      1  C   UNL     1     -12.825   1.636 -34.005  1.00  0.00    -0.031 C 
ATOM      2  C   UNL     1     -13.295   0.606 -34.722  1.00  0.00    -0.031 C 
ENDROOT
BRANCH   1   3
ATOM      3  C   UNL     1     -13.650   2.242 -32.902  1.00  0.00     0.027 C 
BRANCH   3   4
ATOM      4  C   UNL     1     -13.359   3.738 -32.704  1.00  0.00     0.004 C 
BRANCH   4   5
ATOM      5  C   UNL     1     -13.734   4.618 -33.911  1.00  0.00     0.000 C 
BRANCH   5   6
ATOM      6  C   UNL     1     -14.808   5.665 -33.576  1.00  0.00     0.000 C 
BRANCH   6   7
ATOM      7  C   UNL     1     -16.037   5.505 -34.484  1.00  0.00     0.000 C 
BRANCH   7   8
ATOM      8  C   UNL     1     -16.218   4.064 -34.986  1.00  0.00     0.006 C 
BRANCH   8   9
ATOM      9  C   UNL     1     -17.303   3.302 -34.218  1.00  0.00     0.053 C 
BRANCH   9  10
ATOM     10  C   UNL     1     -17.044   1.829 -34.271  1.00  0.00     0.041 C 
ATOM     11  O   UNL     1     -17.033   1.149 -33.210  1.00  0.00    -0.550 OA
ATOM     12  O   UNL     1     -16.867   1.198 -35.496  1.00  0.00    -0.550 OA
ENDBRANCH   9  10
ENDBRANCH   8   9
ENDBRANCH   7   8
ENDBRANCH   6   7
ENDBRANCH   5   6
ENDBRANCH   4   5
ENDBRANCH   3   4
ENDBRANCH   1   3
BRANCH   2  13
ATOM     13  C   UNL     1     -12.500  -0.002 -35.847  1.00  0.00     0.027 C 
BRANCH  13  14
ATOM     14  C   UNL     1     -11.365   0.919 -36.328  1.00  0.00     0.004 C 
BRANCH  14  15
ATOM     15  C   UNL     1     -11.728   1.786 -37.552  1.00  0.00     0.000 C 
BRANCH  15  16
ATOM     16  C   UNL     1     -12.086   3.251 -37.234  1.00  0.00     0.000 C 
BRANCH  16  17
ATOM     17  C   UNL     1     -13.553   3.633 -37.494  1.00  0.00    -0.000 C 
BRANCH  17  18
ATOM     18  C   UNL     1     -14.434   2.418 -37.820  1.00  0.00    -0.000 C 
BRANCH  18  19
ATOM     19  C   UNL     1     -15.279   2.674 -39.073  1.00  0.00    -0.003 C 
ATOM     20  C   UNL     1     -16.555   3.437 -38.734  1.00  0.00     0.004 C 
ENDBRANCH  18  19
ENDBRANCH  17  18
ENDBRANCH  16  17
ENDBRANCH  15  16
ENDBRANCH  14  15
ENDBRANCH  13  14
ENDBRANCH   2  13
TORSDOF 15
ENDMDL
MODEL 7
REMARK VINA RESULT:    -5.381      2.551      4.538
REMARK INTER + INTRA:         -12.984
REMARK INTER:                 -10.250
REMARK INTRA:                  -2.735
REMARK UNBOUND:                -2.885
REMARK SMILES CCCCCCCCC=CCCCCCCCC(=O)[O-]
REMARK SMILES IDX 10 1 9 2 11 3 12 4 13 5 14 6 15 7 16 8 17 9 18 10 19 11
REMARK SMILES IDX 20 12 8 13 7 14 6 15 5 16 4 17 3 18 2 19 1 20
REMARK H PARENT
REMARK Flexibility Score: inf
ROOT
ATOM      1  C   UNL     1     -14.092   5.586 -36.969  1.00  0.00    -0.031 C 
ATOM      2  C   UNL     1     -13.461   4.409 -36.857  1.00  0.00    -0.031 C 
ENDROOT
BRANCH   1   3
ATOM      3  C   UNL     1     -14.339   6.442 -35.757  1.00  0.00     0.027 C 
BRANCH   3   4
ATOM      4  C   UNL     1     -15.019   5.666 -34.618  1.00  0.00     0.004 C 
BRANCH   4   5
ATOM      5  C   UNL     1     -14.191   5.597 -33.321  1.00  0.00     0.000 C 
BRANCH   5   6
ATOM      6  C   UNL     1     -13.084   4.533 -33.376  1.00  0.00     0.000 C 
BRANCH   6   7
ATOM      7  C   UNL     1     -13.602   3.172 -32.885  1.00  0.00     0.000 C 
BRANCH   7   8
ATOM      8  C   UNL     1     -13.415   2.057 -33.926  1.00  0.00     0.006 C 
BRANCH   8   9
ATOM      9  C   UNL     1     -12.034   2.092 -34.589  1.00  0.00     0.053 C 
BRANCH   9  10
ATOM     10  C   UNL     1     -11.938   1.040 -35.650  1.00  0.00     0.041 C 
ATOM     11  O   UNL     1     -12.762   0.088 -35.673  1.00  0.00    -0.550 OA
ATOM     12  O   UNL     1     -10.973   1.141 -36.643  1.00  0.00    -0.550 OA
ENDBRANCH   9  10
ENDBRANCH   8   9
ENDBRANCH   7   8
ENDBRANCH   6   7
ENDBRANCH   5   6
ENDBRANCH   4   5
ENDBRANCH   3   4
ENDBRANCH   1   3
BRANCH   2  13
ATOM     13  C   UNL     1     -13.224   3.522 -38.050  1.00  0.00     0.027 C 
BRANCH  13  14
ATOM     14  C   UNL     1     -14.496   2.775 -38.487  1.00  0.00     0.004 C 
BRANCH  14  15
ATOM     15  C   UNL     1     -15.332   2.210 -37.320  1.00  0.00     0.000 C 
BRANCH  15  16
ATOM     16  C   UNL     1     -16.610   3.006 -36.986  1.00  0.00     0.000 C 
BRANCH  16  17
ATOM     17  C   UNL     1     -17.137   2.817 -35.553  1.00  0.00    -0.000 C 
BRANCH  17  18
ATOM     18  C   UNL     1     -16.714   1.475 -34.937  1.00  0.00    -0.000 C 
BRANCH  18  19
ATOM     19  C   UNL     1     -17.016   1.443 -33.434  1.00  0.00    -0.003 C 
ATOM     20  C   UNL     1     -17.641   2.752 -32.967  1.00  0.00     0.004 C 
ENDBRANCH  18  19
ENDBRANCH  17  18
ENDBRANCH  16  17
ENDBRANCH  15  16
ENDBRANCH  14  15
ENDBRANCH  13  14
ENDBRANCH   2  13
TORSDOF 15
ENDMDL
MODEL 8
REMARK VINA RESULT:    -5.354      2.101      5.157
REMARK INTER + INTRA:         -12.935
REMARK INTER:                 -10.687
REMARK INTRA:                  -2.248
REMARK UNBOUND:                -2.885
REMARK SMILES CCCCCCCCC=CCCCCCCCC(=O)[O-]
REMARK SMILES IDX 10 1 9 2 11 3 12 4 13 5 14 6 15 7 16 8 17 9 18 10 19 11
REMARK SMILES IDX 20 12 8 13 7 14 6 15 5 16 4 17 3 18 2 19 1 20
REMARK H PARENT
REMARK Flexibility Score: inf
ROOT
ATOM      1  C   UNL     1     -15.502   2.092 -37.903  1.00  0.00    -0.031 C 
ATOM      2  C   UNL     1     -15.670   2.297 -36.590  1.00  0.00    -0.031 C 
ENDROOT
BRANCH   1   3
ATOM      3  C   UNL     1     -14.600   2.986 -38.710  1.00  0.00     0.027 C 
BRANCH   3   4
ATOM      4  C   UNL     1     -14.483   4.397 -38.113  1.00  0.00     0.004 C 
BRANCH   4   5
ATOM      5  C   UNL     1     -13.095   4.722 -37.531  1.00  0.00     0.000 C 
BRANCH   5   6
ATOM      6  C   UNL     1     -12.090   3.573 -37.708  1.00  0.00     0.000 C 
BRANCH   6   7
ATOM      7  C   UNL     1     -11.851   2.839 -36.380  1.00  0.00     0.000 C 
BRANCH   7   8
ATOM      8  C   UNL     1     -11.416   1.378 -36.581  1.00  0.00     0.006 C 
BRANCH   8   9
ATOM      9  C   UNL     1     -12.558   0.383 -36.344  1.00  0.00     0.053 C 
BRANCH   9  10
ATOM     10  C   UNL     1     -12.903   0.321 -34.889  1.00  0.00     0.041 C 
ATOM     11  O   UNL     1     -13.878  -0.375 -34.499  1.00  0.00    -0.550 OA
ATOM     12  O   UNL     1     -12.116   0.987 -33.959  1.00  0.00    -0.550 OA
ENDBRANCH   9  10
ENDBRANCH   8   9
ENDBRANCH   7   8
ENDBRANCH   6   7
ENDBRANCH   5   6
ENDBRANCH   4   5
ENDBRANCH   3   4
ENDBRANCH   1   3
BRANCH   2  13
ATOM     13  C   UNL     1     -16.587   1.434 -35.765  1.00  0.00     0.027 C 
BRANCH  13  14
ATOM     14  C   UNL     1     -17.226   2.206 -34.597  1.00  0.00     0.004 C 
BRANCH  14  15
ATOM     15  C   UNL     1     -16.895   1.635 -33.203  1.00  0.00     0.000 C 
BRANCH  15  16
ATOM     16  C   UNL     1     -15.667   2.263 -32.513  1.00  0.00     0.000 C 
BRANCH  16  17
ATOM     17  C   UNL     1     -15.075   3.489 -33.229  1.00  0.00    -0.000 C 
BRANCH  17  18
ATOM     18  C   UNL     1     -13.635   3.793 -32.794  1.00  0.00    -0.000 C 
BRANCH  18  19
ATOM     19  C   UNL     1     -13.083   5.014 -33.540  1.00  0.00    -0.003 C 
ATOM     20  C   UNL     1     -14.208   5.868 -34.111  1.00  0.00     0.004 C 
ENDBRANCH  18  19
ENDBRANCH  17  18
ENDBRANCH  16  17
ENDBRANCH  15  16
ENDBRANCH  14  15
ENDBRANCH  13  14
ENDBRANCH   2  13
TORSDOF 15
ENDMDL
MODEL 9
REMARK VINA RESULT:    -5.307      1.367      3.782
REMARK INTER + INTRA:         -12.845
REMARK INTER:                 -10.235
REMARK INTRA:                  -2.610
REMARK UNBOUND:                -2.885
REMARK SMILES CCCCCCCCC=CCCCCCCCC(=O)[O-]
REMARK SMILES IDX 10 1 9 2 11 3 12 4 13 5 14 6 15 7 16 8 17 9 18 10 19 11
REMARK SMILES IDX 20 12 8 13 7 14 6 15 5 16 4 17 3 18 2 19 1 20
REMARK H PARENT
REMARK Flexibility Score: inf
ROOT
ATOM      1  C   UNL     1     -13.611   1.251 -37.740  1.00  0.00    -0.031 C 
ATOM      2  C   UNL     1     -13.899   2.501 -38.127  1.00  0.00    -0.031 C 
ENDROOT
BRANCH   1   3
ATOM      3  C   UNL     1     -12.339   0.953 -36.993  1.00  0.00     0.027 C 
BRANCH   3   4
ATOM      4  C   UNL     1     -12.597   0.256 -35.648  1.00  0.00     0.004 C 
BRANCH   4   5
ATOM      5  C   UNL     1     -12.481   1.185 -34.425  1.00  0.00     0.000 C 
BRANCH   5   6
ATOM      6  C   UNL     1     -11.776   2.512 -34.748  1.00  0.00     0.000 C 
BRANCH   6   7
ATOM      7  C   UNL     1     -12.753   3.694 -34.652  1.00  0.00     0.000 C 
BRANCH   7   8
ATOM      8  C   UNL     1     -12.481   4.589 -33.432  1.00  0.00     0.006 C 
BRANCH   8   9
ATOM      9  C   UNL     1     -13.680   5.470 -33.066  1.00  0.00     0.053 C 
BRANCH   9  10
ATOM     10  C   UNL     1     -13.610   6.776 -33.794  1.00  0.00     0.041 C 
ATOM     11  O   UNL     1     -12.899   7.714 -33.343  1.00  0.00    -0.550 OA
ATOM     12  O   UNL     1     -14.285   6.940 -34.996  1.00  0.00    -0.550 OA
ENDBRANCH   9  10
ENDBRANCH   8   9
ENDBRANCH   7   8
ENDBRANCH   6   7
ENDBRANCH   5   6
ENDBRANCH   4   5
ENDBRANCH   3   4
ENDBRANCH   1   3
BRANCH   2  13
ATOM     13  C   UNL     1     -15.151   2.822 -38.898  1.00  0.00     0.027 C 
BRANCH  13  14
ATOM     14  C   UNL     1     -16.277   3.353 -37.992  1.00  0.00     0.004 C 
BRANCH  14  15
ATOM     15  C   UNL     1     -15.796   3.872 -36.621  1.00  0.00     0.000 C 
BRANCH  15  16
ATOM     16  C   UNL     1     -16.542   3.290 -35.403  1.00  0.00     0.000 C 
BRANCH  16  17
ATOM     17  C   UNL     1     -16.102   1.876 -34.986  1.00  0.00    -0.000 C 
BRANCH  17  18
ATOM     18  C   UNL     1     -16.872   1.350 -33.766  1.00  0.00    -0.000 C 
BRANCH  18  19
ATOM     19  C   UNL     1     -16.617   2.231 -32.537  1.00  0.00    -0.003 C 
ATOM     20  C   UNL     1     -15.138   2.258 -32.173  1.00  0.00     0.004 C 
ENDBRANCH  18  19
ENDBRANCH  17  18
ENDBRANCH  16  17
ENDBRANCH  15  16
ENDBRANCH  14  15
ENDBRANCH  13  14
ENDBRANCH   2  13
TORSDOF 15
ENDMDL
