MODEL 1
REMARK VINA RESULT:    -4.591      0.000      0.000
REMARK INTER + INTRA:          -5.208
REMARK INTER:                  -4.994
REMARK INTRA:                  -0.214
REMARK UNBOUND:                -0.214
REMARK SMILES CC1=CCC[C@]2(C)CC[C@H](C(C)(C)O)C[C@@H]12
REMARK SMILES IDX 11 1 12 2 13 3 10 4 1 5 2 6 3 7 16 8 4 9 6 10 15 11 5 12
REMARK SMILES IDX 7 13 8 14 9 15 14 16
REMARK H PARENT 14 17
REMARK Flexibility Score: inf
ROOT
ATOM      1  C   UNL     1       2.631 -16.344  13.147  1.00  0.00     0.062 C 
ATOM      2  C   UNL     1       2.153 -16.253  14.614  1.00  0.00     0.042 C 
ATOM      3  C   UNL     1       4.158 -16.596  13.131  1.00  0.00     0.042 C 
ENDROOT
BRANCH   1   4
ATOM      4  C   UNL     1       2.240 -15.041  12.360  1.00  0.00     0.021 C 
ATOM      5  C   UNL     1      -0.166 -15.882   8.584  1.00  0.00     0.039 C 
ATOM      6  C   UNL     1       0.489 -14.542   8.834  1.00  0.00    -0.074 C 
ATOM      7  C   UNL     1       0.275 -13.538   7.953  1.00  0.00    -0.028 C 
ATOM      8  C   UNL     1       1.549 -14.404   9.927  1.00  0.00     0.021 C 
ATOM      9  C   UNL     1       0.869 -12.158   8.096  1.00  0.00     0.028 C 
ATOM     10  C   UNL     1       1.762 -12.926  10.375  1.00  0.00    -0.026 C 
ATOM     11  C   UNL     1       1.310 -15.338  11.142  1.00  0.00     0.015 C 
ATOM     12  C   UNL     1       2.030 -12.088   9.099  1.00  0.00     0.011 C 
ATOM     13  C   UNL     1       0.508 -12.365  11.105  1.00  0.00     0.012 C 
ATOM     14  C   UNL     1       3.002 -12.822  11.330  1.00  0.00     0.008 C 
ATOM     15  C   UNL     1       3.448 -14.165  11.945  1.00  0.00     0.007 C 
ENDBRANCH   1   4
BRANCH   1  16
ATOM     16  O   UNL     1       1.973 -17.431  12.534  1.00  0.00    -0.390 OA
ATOM     17  H   UNL     1       2.454 -17.660  11.696  1.00  0.00     0.211 HD
ENDBRANCH   1  16
TORSDOF 2
ENDMDL
MODEL 2
REMARK VINA RESULT:    -4.521      1.705      2.393
REMARK INTER + INTRA:          -5.132
REMARK INTER:                  -4.880
REMARK INTRA:                  -0.252
REMARK UNBOUND:                -0.214
REMARK SMILES CC1=CCC[C@]2(C)CC[C@H](C(C)(C)O)C[C@@H]12
REMARK SMILES IDX 11 1 12 2 13 3 10 4 1 5 2 6 3 7 16 8 4 9 6 10 15 11 5 12
REMARK SMILES IDX 7 13 8 14 9 15 14 16
REMARK H PARENT 14 17
REMARK Flexibility Score: inf
ROOT
ATOM      1  C   UNL     1       2.037 -16.941  13.556  1.00  0.00     0.062 C 
ATOM      2  C   UNL     1       1.151 -16.551  14.761  1.00  0.00     0.042 C 
ATOM      3  C   UNL     1       3.523 -16.892  13.988  1.00  0.00     0.042 C 
ENDROOT
BRANCH   1   4
ATOM      4  C   UNL     1       1.748 -15.997  12.333  1.00  0.00     0.021 C 
ATOM      5  C   UNL     1       5.073 -16.030   9.219  1.00  0.00     0.039 C 
ATOM      6  C   UNL     1       4.008 -14.957   9.242  1.00  0.00    -0.074 C 
ATOM      7  C   UNL     1       3.993 -14.034   8.253  1.00  0.00    -0.028 C 
ATOM      8  C   UNL     1       3.123 -14.787  10.477  1.00  0.00     0.021 C 
ATOM      9  C   UNL     1       2.980 -12.918   8.164  1.00  0.00     0.028 C 
ATOM     10  C   UNL     1       1.810 -14.004  10.174  1.00  0.00    -0.026 C 
ATOM     11  C   UNL     1       2.835 -16.118  11.219  1.00  0.00     0.015 C 
ATOM     12  C   UNL     1       2.210 -12.680   9.472  1.00  0.00     0.011 C 
ATOM     13  C   UNL     1       0.866 -14.815   9.241  1.00  0.00     0.012 C 
ATOM     14  C   UNL     1       1.055 -13.673  11.508  1.00  0.00     0.008 C 
ATOM     15  C   UNL     1       1.500 -14.518  12.719  1.00  0.00     0.007 C 
ENDBRANCH   1   4
BRANCH   1  16
ATOM     16  O   UNL     1       1.706 -18.257  13.172  1.00  0.00    -0.390 OA
ATOM     17  H   UNL     1       2.042 -18.883  13.866  1.00  0.00     0.211 HD
ENDBRANCH   1  16
TORSDOF 2
ENDMDL
MODEL 3
REMARK VINA RESULT:    -4.183      3.973      6.424
REMARK INTER + INTRA:          -4.764
REMARK INTER:                  -4.514
REMARK INTRA:                  -0.250
REMARK UNBOUND:                -0.214
REMARK SMILES CC1=CCC[C@]2(C)CC[C@H](C(C)(C)O)C[C@@H]12
REMARK SMILES IDX 11 1 12 2 13 3 10 4 1 5 2 6 3 7 16 8 4 9 6 10 15 11 5 12
REMARK SMILES IDX 7 13 8 14 9 15 14 16
REMARK H PARENT 14 17
REMARK Flexibility Score: inf
ROOT
ATOM      1  C   UNL     1       3.895 -21.241  14.628  1.00  0.00     0.062 C 
ATOM      2  C   UNL     1       4.288 -22.172  15.799  1.00  0.00     0.042 C 
ATOM      3  C   UNL     1       5.173 -20.571  14.068  1.00  0.00     0.042 C 
ENDROOT
BRANCH   1   4
ATOM      4  C   UNL     1       2.833 -20.184  15.101  1.00  0.00     0.021 C 
ATOM      5  C   UNL     1       2.453 -16.639  12.264  1.00  0.00     0.039 C 
ATOM      6  C   UNL     1       1.895 -16.604  13.669  1.00  0.00    -0.074 C 
ATOM      7  C   UNL     1       1.184 -15.521  14.060  1.00  0.00    -0.028 C 
ATOM      8  C   UNL     1       2.327 -17.659  14.687  1.00  0.00     0.021 C 
ATOM      9  C   UNL     1       0.575 -15.371  15.432  1.00  0.00     0.028 C 
ATOM     10  C   UNL     1       1.338 -17.778  15.887  1.00  0.00    -0.026 C 
ATOM     11  C   UNL     1       2.625 -19.043  14.055  1.00  0.00     0.015 C 
ATOM     12  C   UNL     1       1.140 -16.355  16.468  1.00  0.00     0.011 C 
ATOM     13  C   UNL     1      -0.038 -18.346  15.435  1.00  0.00     0.012 C 
ATOM     14  C   UNL     1       1.940 -18.709  16.996  1.00  0.00     0.008 C 
ATOM     15  C   UNL     1       3.097 -19.610  16.514  1.00  0.00     0.007 C 
ENDBRANCH   1   4
BRANCH   1  16
ATOM     16  O   UNL     1       3.300 -22.028  13.619  1.00  0.00    -0.390 OA
ATOM     17  H   UNL     1       3.381 -21.546  12.754  1.00  0.00     0.211 HD
ENDBRANCH   1  16
TORSDOF 2
ENDMDL
MODEL 4
REMARK VINA RESULT:    -4.160      1.792      2.859
REMARK INTER + INTRA:          -4.738
REMARK INTER:                  -4.475
REMARK INTRA:                  -0.263
REMARK UNBOUND:                -0.214
REMARK SMILES CC1=CCC[C@]2(C)CC[C@H](C(C)(C)O)C[C@@H]12
REMARK SMILES IDX 11 1 12 2 13 3 10 4 1 5 2 6 3 7 16 8 4 9 6 10 15 11 5 12
REMARK SMILES IDX 7 13 8 14 9 15 14 16
REMARK H PARENT 14 17
REMARK Flexibility Score: inf
ROOT
ATOM      1  C   UNL     1       5.204 -16.154  12.824  1.00  0.00     0.062 C 
ATOM      2  C   UNL     1       5.246 -15.204  14.043  1.00  0.00     0.042 C 
ATOM      3  C   UNL     1       6.478 -15.936  11.972  1.00  0.00     0.042 C 
ENDROOT
BRANCH   1   4
ATOM      4  C   UNL     1       3.892 -15.922  11.992  1.00  0.00     0.021 C 
ATOM      5  C   UNL     1       4.542 -13.314   8.313  1.00  0.00     0.039 C 
ATOM      6  C   UNL     1       3.161 -13.600   8.857  1.00  0.00    -0.074 C 
ATOM      7  C   UNL     1       2.085 -13.142   8.177  1.00  0.00    -0.028 C 
ATOM      8  C   UNL     1       3.001 -14.187  10.260  1.00  0.00     0.021 C 
ATOM      9  C   UNL     1       0.659 -13.366   8.616  1.00  0.00     0.028 C 
ATOM     10  C   UNL     1       1.609 -14.855  10.478  1.00  0.00    -0.026 C 
ATOM     11  C   UNL     1       4.158 -15.135  10.669  1.00  0.00     0.015 C 
ATOM     12  C   UNL     1       0.529 -13.817  10.079  1.00  0.00     0.011 C 
ATOM     13  C   UNL     1       1.446 -16.130   9.602  1.00  0.00     0.012 C 
ATOM     14  C   UNL     1       1.422 -15.240  11.987  1.00  0.00     0.008 C 
ATOM     15  C   UNL     1       2.733 -15.289  12.800  1.00  0.00     0.007 C 
ENDBRANCH   1   4
BRANCH   1  16
ATOM     16  O   UNL     1       5.183 -17.482  13.300  1.00  0.00    -0.390 OA
ATOM     17  H   UNL     1       4.448 -17.970  12.843  1.00  0.00     0.211 HD
ENDBRANCH   1  16
TORSDOF 2
ENDMDL
MODEL 5
REMARK VINA RESULT:    -4.148      5.637      8.748
REMARK INTER + INTRA:          -4.725
REMARK INTER:                  -4.461
REMARK INTRA:                  -0.265
REMARK UNBOUND:                -0.214
REMARK SMILES CC1=CCC[C@]2(C)CC[C@H](C(C)(C)O)C[C@@H]12
REMARK SMILES IDX 11 1 12 2 13 3 10 4 1 5 2 6 3 7 16 8 4 9 6 10 15 11 5 12
REMARK SMILES IDX 7 13 8 14 9 15 14 16
REMARK H PARENT 14 17
REMARK Flexibility Score: inf
ROOT
ATOM      1  C   UNL     1       0.397 -18.097  15.666  1.00  0.00     0.062 C 
ATOM      2  C   UNL     1       0.494 -16.647  15.137  1.00  0.00     0.042 C 
ATOM      3  C   UNL     1       0.292 -18.062  17.210  1.00  0.00     0.042 C 
ENDROOT
BRANCH   1   4
ATOM      4  C   UNL     1       1.628 -18.942  15.177  1.00  0.00     0.021 C 
ATOM      5  C   UNL     1       2.852 -22.192  18.127  1.00  0.00     0.039 C 
ATOM      6  C   UNL     1       3.759 -21.751  17.000  1.00  0.00    -0.074 C 
ATOM      7  C   UNL     1       4.927 -22.405  16.810  1.00  0.00    -0.028 C 
ATOM      8  C   UNL     1       3.465 -20.451  16.250  1.00  0.00     0.021 C 
ATOM      9  C   UNL     1       5.912 -22.061  15.720  1.00  0.00     0.028 C 
ATOM     10  C   UNL     1       4.169 -20.386  14.860  1.00  0.00    -0.026 C 
ATOM     11  C   UNL     1       1.952 -20.130  16.138  1.00  0.00     0.015 C 
ATOM     12  C   UNL     1       5.674 -20.682  15.087  1.00  0.00     0.011 C 
ATOM     13  C   UNL     1       3.581 -21.437  13.875  1.00  0.00     0.012 C 
ATOM     14  C   UNL     1       4.012 -18.955  14.239  1.00  0.00     0.008 C 
ATOM     15  C   UNL     1       2.893 -18.103  14.873  1.00  0.00     0.007 C 
ENDBRANCH   1   4
BRANCH   1  16
ATOM     16  O   UNL     1      -0.769 -18.685  15.132  1.00  0.00    -0.390 OA
ATOM     17  H   UNL     1      -1.258 -19.140  15.868  1.00  0.00     0.211 HD
ENDBRANCH   1  16
TORSDOF 2
ENDMDL
MODEL 6
REMARK VINA RESULT:    -4.054      2.215      5.588
REMARK INTER + INTRA:          -4.623
REMARK INTER:                  -4.392
REMARK INTRA:                  -0.231
REMARK UNBOUND:                -0.214
REMARK SMILES CC1=CCC[C@]2(C)CC[C@H](C(C)(C)O)C[C@@H]12
REMARK SMILES IDX 11 1 12 2 13 3 10 4 1 5 2 6 3 7 16 8 4 9 6 10 15 11 5 12
REMARK SMILES IDX 7 13 8 14 9 15 14 16
REMARK H PARENT 14 17
REMARK Flexibility Score: inf
ROOT
ATOM      1  C   UNL     1       2.865 -15.762  10.107  1.00  0.00     0.062 C 
ATOM      2  C   UNL     1       2.841 -14.419   9.342  1.00  0.00     0.042 C 
ATOM      3  C   UNL     1       1.808 -16.711   9.491  1.00  0.00     0.042 C 
ENDROOT
BRANCH   1   4
ATOM      4  C   UNL     1       2.622 -15.525  11.641  1.00  0.00     0.021 C 
ATOM      5  C   UNL     1       2.464 -19.390  14.048  1.00  0.00     0.039 C 
ATOM      6  C   UNL     1       1.968 -18.076  14.609  1.00  0.00    -0.074 C 
ATOM      7  C   UNL     1       1.550 -18.034  15.895  1.00  0.00    -0.028 C 
ATOM      8  C   UNL     1       1.727 -16.891  13.675  1.00  0.00     0.021 C 
ATOM      9  C   UNL     1       1.037 -16.784  16.568  1.00  0.00     0.028 C 
ATOM     10  C   UNL     1       1.691 -15.527  14.429  1.00  0.00    -0.026 C 
ATOM     11  C   UNL     1       2.698 -16.848  12.467  1.00  0.00     0.015 C 
ATOM     12  C   UNL     1       0.667 -15.663  15.585  1.00  0.00     0.011 C 
ATOM     13  C   UNL     1       3.085 -15.164  15.016  1.00  0.00     0.012 C 
ATOM     14  C   UNL     1       1.226 -14.383  13.461  1.00  0.00     0.008 C 
ATOM     15  C   UNL     1       1.329 -14.735  11.962  1.00  0.00     0.007 C 
ENDBRANCH   1   4
BRANCH   1  16
ATOM     16  O   UNL     1       4.147 -16.333   9.957  1.00  0.00    -0.390 OA
ATOM     17  H   UNL     1       4.785 -15.615   9.705  1.00  0.00     0.211 HD
ENDBRANCH   1  16
TORSDOF 2
ENDMDL
MODEL 7
REMARK VINA RESULT:    -4.003     14.300     15.625
REMARK INTER + INTRA:          -4.567
REMARK INTER:                  -4.361
REMARK INTRA:                  -0.206
REMARK UNBOUND:                -0.214
REMARK SMILES CC1=CCC[C@]2(C)CC[C@H](C(C)(C)O)C[C@@H]12
REMARK SMILES IDX 11 1 12 2 13 3 10 4 1 5 2 6 3 7 16 8 4 9 6 10 15 11 5 12
REMARK SMILES IDX 7 13 8 14 9 15 14 16
REMARK H PARENT 14 17
REMARK Flexibility Score: inf
ROOT
ATOM      1  C   UNL     1      -0.071 -28.412  12.201  1.00  0.00     0.062 C 
ATOM      2  C   UNL     1       0.290 -29.093  10.861  1.00  0.00     0.042 C 
ATOM      3  C   UNL     1       1.018 -28.753  13.248  1.00  0.00     0.042 C 
ENDROOT
BRANCH   1   4
ATOM      4  C   UNL     1      -1.503 -28.855  12.674  1.00  0.00     0.021 C 
ATOM      5  C   UNL     1      -4.479 -29.250   9.247  1.00  0.00     0.039 C 
ATOM      6  C   UNL     1      -4.924 -29.190  10.691  1.00  0.00    -0.074 C 
ATOM      7  C   UNL     1      -6.236 -29.350  10.974  1.00  0.00    -0.028 C 
ATOM      8  C   UNL     1      -3.946 -28.726  11.771  1.00  0.00     0.021 C 
ATOM      9  C   UNL     1      -6.801 -29.314  12.373  1.00  0.00     0.028 C 
ATOM     10  C   UNL     1      -4.377 -29.168  13.203  1.00  0.00    -0.026 C 
ATOM     11  C   UNL     1      -2.472 -29.109  11.476  1.00  0.00     0.015 C 
ATOM     12  C   UNL     1      -5.843 -28.707  13.409  1.00  0.00     0.011 C 
ATOM     13  C   UNL     1      -4.296 -30.713  13.370  1.00  0.00     0.012 C 
ATOM     14  C   UNL     1      -3.464 -28.484  14.279  1.00  0.00     0.008 C 
ATOM     15  C   UNL     1      -2.141 -27.916  13.726  1.00  0.00     0.007 C 
ENDBRANCH   1   4
BRANCH   1  16
ATOM     16  O   UNL     1      -0.098 -27.016  11.994  1.00  0.00    -0.390 OA
ATOM     17  H   UNL     1      -0.427 -26.840  11.074  1.00  0.00     0.211 HD
ENDBRANCH   1  16
TORSDOF 2
ENDMDL
MODEL 8
REMARK VINA RESULT:    -4.002     14.192     16.207
REMARK INTER + INTRA:          -4.567
REMARK INTER:                  -4.350
REMARK INTRA:                  -0.217
REMARK UNBOUND:                -0.214
REMARK SMILES CC1=CCC[C@]2(C)CC[C@H](C(C)(C)O)C[C@@H]12
REMARK SMILES IDX 11 1 12 2 13 3 10 4 1 5 2 6 3 7 16 8 4 9 6 10 15 11 5 12
REMARK SMILES IDX 7 13 8 14 9 15 14 16
REMARK H PARENT 14 17
REMARK Flexibility Score: inf
ROOT
ATOM      1  C   UNL     1      -3.229 -29.867  10.477  1.00  0.00     0.062 C 
ATOM      2  C   UNL     1      -4.016 -30.957  11.240  1.00  0.00     0.042 C 
ATOM      3  C   UNL     1      -4.033 -29.453   9.220  1.00  0.00     0.042 C 
ENDROOT
BRANCH   1   4
ATOM      4  C   UNL     1      -1.790 -30.383  10.112  1.00  0.00     0.021 C 
ATOM      5  C   UNL     1       1.354 -27.086  10.135  1.00  0.00     0.039 C 
ATOM      6  C   UNL     1       1.607 -28.430   9.489  1.00  0.00    -0.074 C 
ATOM      7  C   UNL     1       2.836 -28.688   8.985  1.00  0.00    -0.028 C 
ATOM      8  C   UNL     1       0.438 -29.373   9.207  1.00  0.00     0.021 C 
ATOM      9  C   UNL     1       3.211 -29.991   8.320  1.00  0.00     0.028 C 
ATOM     10  C   UNL     1       0.891 -30.850   9.001  1.00  0.00    -0.026 C 
ATOM     11  C   UNL     1      -0.706 -29.268  10.250  1.00  0.00     0.015 C 
ATOM     12  C   UNL     1       2.001 -30.848   7.919  1.00  0.00     0.011 C 
ATOM     13  C   UNL     1       1.455 -31.461  10.316  1.00  0.00     0.012 C 
ATOM     14  C   UNL     1      -0.313 -31.723   8.504  1.00  0.00     0.008 C 
ATOM     15  C   UNL     1      -1.700 -31.089   8.737  1.00  0.00     0.007 C 
ENDBRANCH   1   4
BRANCH   1  16
ATOM     16  O   UNL     1      -3.084 -28.750  11.326  1.00  0.00    -0.390 OA
ATOM     17  H   UNL     1      -3.601 -28.916  12.158  1.00  0.00     0.211 HD
ENDBRANCH   1  16
TORSDOF 2
ENDMDL
MODEL 9
REMARK VINA RESULT:    -3.893      1.682      2.509
REMARK INTER + INTRA:          -4.448
REMARK INTER:                  -4.240
REMARK INTRA:                  -0.207
REMARK UNBOUND:                -0.214
REMARK SMILES CC1=CCC[C@]2(C)CC[C@H](C(C)(C)O)C[C@@H]12
REMARK SMILES IDX 11 1 12 2 13 3 10 4 1 5 2 6 3 7 16 8 4 9 6 10 15 11 5 12
REMARK SMILES IDX 7 13 8 14 9 15 14 16
REMARK H PARENT 14 17
REMARK Flexibility Score: inf
ROOT
ATOM      1  C   UNL     1       1.956 -18.078  14.491  1.00  0.00     0.062 C 
ATOM      2  C   UNL     1       0.556 -18.226  15.130  1.00  0.00     0.042 C 
ATOM      3  C   UNL     1       3.032 -18.347  15.571  1.00  0.00     0.042 C 
ENDROOT
BRANCH   1   4
ATOM      4  C   UNL     1       2.115 -16.656  13.841  1.00  0.00     0.021 C 
ATOM      5  C   UNL     1       1.446 -16.661   9.334  1.00  0.00     0.039 C 
ATOM      6  C   UNL     1       2.107 -15.501  10.045  1.00  0.00    -0.074 C 
ATOM      7  C   UNL     1       2.425 -14.397   9.331  1.00  0.00    -0.028 C 
ATOM      8  C   UNL     1       2.612 -15.672  11.477  1.00  0.00     0.021 C 
ATOM      9  C   UNL     1       3.083 -13.176   9.926  1.00  0.00     0.028 C 
ATOM     10  C   UNL     1       2.814 -14.312  12.212  1.00  0.00    -0.026 C 
ATOM     11  C   UNL     1       1.757 -16.654  12.321  1.00  0.00     0.015 C 
ATOM     12  C   UNL     1       3.708 -13.425  11.307  1.00  0.00     0.011 C 
ATOM     13  C   UNL     1       1.457 -13.592  12.458  1.00  0.00     0.012 C 
ATOM     14  C   UNL     1       3.534 -14.538  13.586  1.00  0.00     0.008 C 
ATOM     15  C   UNL     1       3.491 -15.994  14.097  1.00  0.00     0.007 C 
ENDBRANCH   1   4
BRANCH   1  16
ATOM     16  O   UNL     1       2.077 -19.037  13.463  1.00  0.00    -0.390 OA
ATOM     17  H   UNL     1       1.757 -19.912  13.809  1.00  0.00     0.211 HD
ENDBRANCH   1  16
TORSDOF 2
ENDMDL
