MODEL 1
REMARK VINA RESULT:    -3.179      0.000      0.000
REMARK INTER + INTRA:         -11.902
REMARK INTER:                  -8.384
REMARK INTRA:                  -3.519
REMARK UNBOUND:                -3.519
REMARK SMILES CCCCCCCCCCCCCCCCCCCCCCCCCCCCCC(=O)[O-]
REMARK SMILES IDX 16 1 17 2 18 3 19 4 20 5 21 6 22 7 23 8 24 9 25 10 26 11
REMARK SMILES IDX 27 12 28 13 29 14 30 15 31 16 32 17 15 18 14 19 13 20 12 21
REMARK SMILES IDX 11 22 10 23 9 24 8 25 7 26 6 27 5 28 4 29 3 30 2 31 1 32
REMARK H PARENT
REMARK Flexibility Score: inf
ROOT
ATOM      1  C   UNL     1      20.242  11.008  18.312  1.00  0.00     0.000 C 
ENDROOT
BRANCH   1   2
ATOM      2  C   UNL     1      20.951  11.971  17.341  1.00  0.00     0.000 C 
BRANCH   2   3
ATOM      3  C   UNL     1      21.179  13.366  17.944  1.00  0.00     0.000 C 
BRANCH   3   4
ATOM      4  C   UNL     1      21.199  13.375  19.486  1.00  0.00     0.000 C 
BRANCH   4   5
ATOM      5  C   UNL     1      20.059  14.220  20.078  1.00  0.00     0.000 C 
BRANCH   5   6
ATOM      6  C   UNL     1      19.724  15.457  19.227  1.00  0.00     0.000 C 
BRANCH   6   7
ATOM      7  C   UNL     1      18.655  16.388  19.829  1.00  0.00     0.000 C 
BRANCH   7   8
ATOM      8  C   UNL     1      19.249  17.442  20.780  1.00  0.00     0.000 C 
BRANCH   8   9
ATOM      9  C   UNL     1      20.721  17.761  20.475  1.00  0.00     0.000 C 
BRANCH   9  10
ATOM     10  C   UNL     1      21.038  19.262  20.600  1.00  0.00     0.000 C 
BRANCH  10  11
ATOM     11  C   UNL     1      21.435  19.903  19.257  1.00  0.00     0.000 C 
BRANCH  11  12
ATOM     12  C   UNL     1      22.571  20.940  19.339  1.00  0.00     0.000 C 
BRANCH  12  13
ATOM     13  C   UNL     1      22.119  22.279  19.948  1.00  0.00     0.006 C 
BRANCH  13  14
ATOM     14  C   UNL     1      22.413  23.466  19.020  1.00  0.00     0.053 C 
BRANCH  14  15
ATOM     15  C   UNL     1      21.173  23.948  18.333  1.00  0.00     0.041 C 
ATOM     16  O   UNL     1      20.083  23.334  18.484  1.00  0.00    -0.550 OA
ATOM     17  O   UNL     1      21.229  25.055  17.495  1.00  0.00    -0.550 OA
ENDBRANCH  14  15
ENDBRANCH  13  14
ENDBRANCH  12  13
ENDBRANCH  11  12
ENDBRANCH  10  11
ENDBRANCH   9  10
ENDBRANCH   8   9
ENDBRANCH   7   8
ENDBRANCH   6   7
ENDBRANCH   5   6
ENDBRANCH   4   5
ENDBRANCH   3   4
ENDBRANCH   2   3
ENDBRANCH   1   2
BRANCH   1  18
ATOM     18  C   UNL     1      18.723  10.956  18.078  1.00  0.00     0.000 C 
BRANCH  18  19
ATOM     19  C   UNL     1      18.360  10.451  16.671  1.00  0.00     0.000 C 
BRANCH  19  20
ATOM     20  C   UNL     1      18.322   8.914  16.576  1.00  0.00     0.000 C 
BRANCH  20  21
ATOM     21  C   UNL     1      19.513   8.275  15.835  1.00  0.00     0.000 C 
BRANCH  21  22
ATOM     22  C   UNL     1      19.645   6.766  16.090  1.00  0.00     0.000 C 
BRANCH  22  23
ATOM     23  C   UNL     1      19.286   6.414  17.539  1.00  0.00     0.000 C 
BRANCH  23  24
ATOM     24  C   UNL     1      20.556   6.244  18.385  1.00  0.00    -0.000 C 
BRANCH  24  25
ATOM     25  C   UNL     1      20.892   7.495  19.212  1.00  0.00    -0.000 C 
BRANCH  25  26
ATOM     26  C   UNL     1      22.366   7.914  19.072  1.00  0.00    -0.000 C 
BRANCH  26  27
ATOM     27  C   UNL     1      22.701   8.478  17.680  1.00  0.00    -0.000 C 
BRANCH  27  28
ATOM     28  C   UNL     1      23.794   7.717  16.907  1.00  0.00    -0.000 C 
BRANCH  28  29
ATOM     29  C   UNL     1      24.032   6.297  17.441  1.00  0.00    -0.000 C 
BRANCH  29  30
ATOM     30  C   UNL     1      23.798   5.251  16.341  1.00  0.00    -0.000 C 
BRANCH  30  31
ATOM     31  C   UNL     1      22.958   5.798  15.176  1.00  0.00    -0.003 C 
ATOM     32  C   UNL     1      23.413   5.266  13.817  1.00  0.00     0.004 C 
ENDBRANCH  30  31
ENDBRANCH  29  30
ENDBRANCH  28  29
ENDBRANCH  27  28
ENDBRANCH  26  27
ENDBRANCH  25  26
ENDBRANCH  24  25
ENDBRANCH  23  24
ENDBRANCH  22  23
ENDBRANCH  21  22
ENDBRANCH  20  21
ENDBRANCH  19  20
ENDBRANCH  18  19
ENDBRANCH   1  18
TORSDOF 28
ENDMDL
MODEL 2
REMARK VINA RESULT:    -3.119      4.765     12.936
REMARK INTER + INTRA:         -11.742
REMARK INTER:                  -8.499
REMARK INTRA:                  -3.243
REMARK UNBOUND:                -3.519
REMARK SMILES CCCCCCCCCCCCCCCCCCCCCCCCCCCCCC(=O)[O-]
REMARK SMILES IDX 16 1 17 2 18 3 19 4 20 5 21 6 22 7 23 8 24 9 25 10 26 11
REMARK SMILES IDX 27 12 28 13 29 14 30 15 31 16 32 17 15 18 14 19 13 20 12 21
REMARK SMILES IDX 11 22 10 23 9 24 8 25 7 26 6 27 5 28 4 29 3 30 2 31 1 32
REMARK H PARENT
REMARK Flexibility Score: inf
ROOT
ATOM      1  C   UNL     1      21.481  11.501  19.246  1.00  0.00     0.000 C 
ENDROOT
BRANCH   1   2
ATOM      2  C   UNL     1      20.195  11.190  20.034  1.00  0.00     0.000 C 
BRANCH   2   3
ATOM      3  C   UNL     1      19.605   9.811  19.697  1.00  0.00     0.000 C 
BRANCH   3   4
ATOM      4  C   UNL     1      18.199   9.881  19.066  1.00  0.00     0.000 C 
BRANCH   4   5
ATOM      5  C   UNL     1      18.084  11.006  18.024  1.00  0.00     0.000 C 
BRANCH   5   6
ATOM      6  C   UNL     1      18.567  10.581  16.626  1.00  0.00     0.000 C 
BRANCH   6   7
ATOM      7  C   UNL     1      18.433   9.077  16.325  1.00  0.00     0.000 C 
BRANCH   7   8
ATOM      8  C   UNL     1      19.776   8.418  15.960  1.00  0.00     0.000 C 
BRANCH   8   9
ATOM      9  C   UNL     1      19.842   6.936  16.361  1.00  0.00     0.000 C 
BRANCH   9  10
ATOM     10  C   UNL     1      19.877   6.737  17.886  1.00  0.00     0.000 C 
BRANCH  10  11
ATOM     11  C   UNL     1      21.309   6.610  18.440  1.00  0.00     0.000 C 
BRANCH  11  12
ATOM     12  C   UNL     1      22.291   7.697  17.966  1.00  0.00     0.000 C 
BRANCH  12  13
ATOM     13  C   UNL     1      23.643   7.125  17.505  1.00  0.00     0.006 C 
BRANCH  13  14
ATOM     14  C   UNL     1      23.478   5.819  16.714  1.00  0.00     0.053 C 
BRANCH  14  15
ATOM     15  C   UNL     1      23.825   6.003  15.269  1.00  0.00     0.041 C 
ATOM     16  O   UNL     1      22.954   5.815  14.378  1.00  0.00    -0.550 OA
ATOM     17  O   UNL     1      25.121   6.346  14.904  1.00  0.00    -0.550 OA
ENDBRANCH  14  15
ENDBRANCH  13  14
ENDBRANCH  12  13
ENDBRANCH  11  12
ENDBRANCH  10  11
ENDBRANCH   9  10
ENDBRANCH   8   9
ENDBRANCH   7   8
ENDBRANCH   6   7
ENDBRANCH   5   6
ENDBRANCH   4   5
ENDBRANCH   3   4
ENDBRANCH   2   3
ENDBRANCH   1   2
BRANCH   1  18
ATOM     18  C   UNL     1      21.617  12.998  18.920  1.00  0.00     0.000 C 
BRANCH  18  19
ATOM     19  C   UNL     1      20.326  13.784  19.204  1.00  0.00     0.000 C 
BRANCH  19  20
ATOM     20  C   UNL     1      20.486  14.810  20.343  1.00  0.00     0.000 C 
BRANCH  20  21
ATOM     21  C   UNL     1      19.756  16.149  20.122  1.00  0.00     0.000 C 
BRANCH  21  22
ATOM     22  C   UNL     1      20.489  17.347  20.746  1.00  0.00     0.000 C 
BRANCH  22  23
ATOM     23  C   UNL     1      19.772  18.664  20.429  1.00  0.00     0.000 C 
BRANCH  23  24
ATOM     24  C   UNL     1      20.747  19.847  20.521  1.00  0.00    -0.000 C 
BRANCH  24  25
ATOM     25  C   UNL     1      21.463  20.134  19.192  1.00  0.00    -0.000 C 
BRANCH  25  26
ATOM     26  C   UNL     1      22.701  21.030  19.373  1.00  0.00    -0.000 C 
BRANCH  26  27
ATOM     27  C   UNL     1      22.722  21.761  20.728  1.00  0.00    -0.000 C 
BRANCH  27  28
ATOM     28  C   UNL     1      22.585  23.292  20.650  1.00  0.00    -0.000 C 
BRANCH  28  29
ATOM     29  C   UNL     1      22.720  23.839  19.221  1.00  0.00    -0.000 C 
BRANCH  29  30
ATOM     30  C   UNL     1      21.464  24.622  18.812  1.00  0.00    -0.000 C 
BRANCH  30  31
ATOM     31  C   UNL     1      20.450  23.753  18.049  1.00  0.00    -0.003 C 
ATOM     32  C   UNL     1      19.320  23.241  18.942  1.00  0.00     0.004 C 
ENDBRANCH  30  31
ENDBRANCH  29  30
ENDBRANCH  28  29
ENDBRANCH  27  28
ENDBRANCH  26  27
ENDBRANCH  25  26
ENDBRANCH  24  25
ENDBRANCH  23  24
ENDBRANCH  22  23
ENDBRANCH  21  22
ENDBRANCH  20  21
ENDBRANCH  19  20
ENDBRANCH  18  19
ENDBRANCH   1  18
TORSDOF 28
ENDMDL
MODEL 3
REMARK VINA RESULT:    -3.013      4.786     12.681
REMARK INTER + INTRA:         -11.464
REMARK INTER:                  -8.367
REMARK INTRA:                  -3.097
REMARK UNBOUND:                -3.519
REMARK SMILES CCCCCCCCCCCCCCCCCCCCCCCCCCCCCC(=O)[O-]
REMARK SMILES IDX 16 1 17 2 18 3 19 4 20 5 21 6 22 7 23 8 24 9 25 10 26 11
REMARK SMILES IDX 27 12 28 13 29 14 30 15 31 16 32 17 15 18 14 19 13 20 12 21
REMARK SMILES IDX 11 22 10 23 9 24 8 25 7 26 6 27 5 28 4 29 3 30 2 31 1 32
REMARK H PARENT
REMARK Flexibility Score: inf
ROOT
ATOM      1  C   UNL     1      19.372  11.478  19.476  1.00  0.00     0.000 C 
ENDROOT
BRANCH   1   2
ATOM      2  C   UNL     1      18.572  10.519  18.576  1.00  0.00     0.000 C 
BRANCH   2   3
ATOM      3  C   UNL     1      19.078  10.499  17.124  1.00  0.00     0.000 C 
BRANCH   3   4
ATOM      4  C   UNL     1      19.587   9.116  16.669  1.00  0.00     0.000 C 
BRANCH   4   5
ATOM      5  C   UNL     1      21.121   9.015  16.722  1.00  0.00     0.000 C 
BRANCH   5   6
ATOM      6  C   UNL     1      21.624   8.095  17.849  1.00  0.00     0.000 C 
BRANCH   6   7
ATOM      7  C   UNL     1      22.433   8.804  18.951  1.00  0.00     0.000 C 
BRANCH   7   8
ATOM      8  C   UNL     1      23.056   7.822  19.959  1.00  0.00     0.000 C 
BRANCH   8   9
ATOM      9  C   UNL     1      24.362   8.347  20.576  1.00  0.00     0.000 C 
BRANCH   9  10
ATOM     10  C   UNL     1      25.410   8.720  19.512  1.00  0.00     0.000 C 
BRANCH  10  11
ATOM     11  C   UNL     1      26.570   7.711  19.435  1.00  0.00     0.000 C 
BRANCH  11  12
ATOM     12  C   UNL     1      26.309   6.482  18.543  1.00  0.00     0.000 C 
BRANCH  12  13
ATOM     13  C   UNL     1      25.623   6.840  17.214  1.00  0.00     0.006 C 
BRANCH  13  14
ATOM     14  C   UNL     1      24.391   5.963  16.944  1.00  0.00     0.053 C 
BRANCH  14  15
ATOM     15  C   UNL     1      23.990   6.006  15.501  1.00  0.00     0.041 C 
ATOM     16  O   UNL     1      22.778   6.130  15.183  1.00  0.00    -0.550 OA
ATOM     17  O   UNL     1      24.953   5.871  14.509  1.00  0.00    -0.550 OA
ENDBRANCH  14  15
ENDBRANCH  13  14
ENDBRANCH  12  13
ENDBRANCH  11  12
ENDBRANCH  10  11
ENDBRANCH   9  10
ENDBRANCH   8   9
ENDBRANCH   7   8
ENDBRANCH   6   7
ENDBRANCH   5   6
ENDBRANCH   4   5
ENDBRANCH   3   4
ENDBRANCH   2   3
ENDBRANCH   1   2
BRANCH   1  18
ATOM     18  C   UNL     1      20.580  12.090  18.748  1.00  0.00     0.000 C 
BRANCH  18  19
ATOM     19  C   UNL     1      20.478  13.619  18.616  1.00  0.00     0.000 C 
BRANCH  19  20
ATOM     20  C   UNL     1      19.089  14.163  19.004  1.00  0.00     0.000 C 
BRANCH  20  21
ATOM     21  C   UNL     1      19.063  15.646  19.425  1.00  0.00     0.000 C 
BRANCH  21  22
ATOM     22  C   UNL     1      20.025  15.963  20.580  1.00  0.00     0.000 C 
BRANCH  22  23
ATOM     23  C   UNL     1      20.572  17.391  20.471  1.00  0.00     0.000 C 
BRANCH  23  24
ATOM     24  C   UNL     1      19.478  18.416  20.804  1.00  0.00    -0.000 C 
BRANCH  24  25
ATOM     25  C   UNL     1      19.763  19.805  20.212  1.00  0.00    -0.000 C 
BRANCH  25  26
ATOM     26  C   UNL     1      21.176  20.310  20.555  1.00  0.00    -0.000 C 
BRANCH  26  27
ATOM     27  C   UNL     1      21.932  20.861  19.331  1.00  0.00    -0.000 C 
BRANCH  27  28
ATOM     28  C   UNL     1      22.818  22.089  19.604  1.00  0.00    -0.000 C 
BRANCH  28  29
ATOM     29  C   UNL     1      22.173  23.410  19.157  1.00  0.00    -0.000 C 
BRANCH  29  30
ATOM     30  C   UNL     1      21.029  23.155  18.165  1.00  0.00    -0.000 C 
BRANCH  30  31
ATOM     31  C   UNL     1      19.860  24.137  18.348  1.00  0.00    -0.003 C 
ATOM     32  C   UNL     1      18.609  23.470  18.918  1.00  0.00     0.004 C 
ENDBRANCH  30  31
ENDBRANCH  29  30
ENDBRANCH  28  29
ENDBRANCH  27  28
ENDBRANCH  26  27
ENDBRANCH  25  26
ENDBRANCH  24  25
ENDBRANCH  23  24
ENDBRANCH  22  23
ENDBRANCH  21  22
ENDBRANCH  20  21
ENDBRANCH  19  20
ENDBRANCH  18  19
ENDBRANCH   1  18
TORSDOF 28
ENDMDL
MODEL 4
REMARK VINA RESULT:    -2.987      1.313      2.098
REMARK INTER + INTRA:         -11.395
REMARK INTER:                  -7.898
REMARK INTRA:                  -3.497
REMARK UNBOUND:                -3.519
REMARK SMILES CCCCCCCCCCCCCCCCCCCCCCCCCCCCCC(=O)[O-]
REMARK SMILES IDX 16 1 17 2 18 3 19 4 20 5 21 6 22 7 23 8 24 9 25 10 26 11
REMARK SMILES IDX 27 12 28 13 29 14 30 15 31 16 32 17 15 18 14 19 13 20 12 21
REMARK SMILES IDX 11 22 10 23 9 24 8 25 7 26 6 27 5 28 4 29 3 30 2 31 1 32
REMARK H PARENT
REMARK Flexibility Score: inf
ROOT
ATOM      1  C   UNL     1      18.962  11.985  17.002  1.00  0.00     0.000 C 
ENDROOT
BRANCH   1   2
ATOM      2  C   UNL     1      20.487  11.800  16.899  1.00  0.00     0.000 C 
BRANCH   2   3
ATOM      3  C   UNL     1      21.274  12.977  17.498  1.00  0.00     0.000 C 
BRANCH   3   4
ATOM      4  C   UNL     1      20.481  13.776  18.551  1.00  0.00     0.000 C 
BRANCH   4   5
ATOM      5  C   UNL     1      21.178  13.785  19.922  1.00  0.00     0.000 C 
BRANCH   5   6
ATOM      6  C   UNL     1      20.552  14.789  20.906  1.00  0.00     0.000 C 
BRANCH   6   7
ATOM      7  C   UNL     1      20.058  16.101  20.267  1.00  0.00     0.000 C 
BRANCH   7   8
ATOM      8  C   UNL     1      20.828  17.336  20.768  1.00  0.00     0.000 C 
BRANCH   8   9
ATOM      9  C   UNL     1      20.064  18.649  20.541  1.00  0.00     0.000 C 
BRANCH   9  10
ATOM     10  C   UNL     1      20.984  19.882  20.579  1.00  0.00     0.000 C 
BRANCH  10  11
ATOM     11  C   UNL     1      21.516  20.275  19.188  1.00  0.00     0.000 C 
BRANCH  11  12
ATOM     12  C   UNL     1      22.736  21.215  19.196  1.00  0.00     0.000 C 
BRANCH  12  13
ATOM     13  C   UNL     1      22.350  22.699  19.314  1.00  0.00     0.006 C 
BRANCH  13  14
ATOM     14  C   UNL     1      21.235  23.087  18.332  1.00  0.00     0.053 C 
BRANCH  14  15
ATOM     15  C   UNL     1      20.034  23.625  19.046  1.00  0.00     0.041 C 
ATOM     16  O   UNL     1      19.214  24.366  18.441  1.00  0.00    -0.550 OA
ATOM     17  O   UNL     1      19.839  23.337  20.391  1.00  0.00    -0.550 OA
ENDBRANCH  14  15
ENDBRANCH  13  14
ENDBRANCH  12  13
ENDBRANCH  11  12
ENDBRANCH  10  11
ENDBRANCH   9  10
ENDBRANCH   8   9
ENDBRANCH   7   8
ENDBRANCH   6   7
ENDBRANCH   5   6
ENDBRANCH   4   5
ENDBRANCH   3   4
ENDBRANCH   2   3
ENDBRANCH   1   2
BRANCH   1  18
ATOM     18  C   UNL     1      18.232  10.663  17.295  1.00  0.00     0.000 C 
BRANCH  18  19
ATOM     19  C   UNL     1      18.910   9.455  16.626  1.00  0.00     0.000 C 
BRANCH  19  20
ATOM     20  C   UNL     1      18.606   8.124  17.341  1.00  0.00     0.000 C 
BRANCH  20  21
ATOM     21  C   UNL     1      19.600   7.738  18.453  1.00  0.00     0.000 C 
BRANCH  21  22
ATOM     22  C   UNL     1      19.094   8.080  19.863  1.00  0.00     0.000 C 
BRANCH  22  23
ATOM     23  C   UNL     1      20.204   8.703  20.716  1.00  0.00     0.000 C 
BRANCH  23  24
ATOM     24  C   UNL     1      20.650  10.049  20.125  1.00  0.00    -0.000 C 
BRANCH  24  25
ATOM     25  C   UNL     1      22.161  10.106  19.847  1.00  0.00    -0.000 C 
BRANCH  25  26
ATOM     26  C   UNL     1      22.925   8.950  20.517  1.00  0.00    -0.000 C 
BRANCH  26  27
ATOM     27  C   UNL     1      23.826   8.177  19.537  1.00  0.00    -0.000 C 
BRANCH  27  28
ATOM     28  C   UNL     1      23.085   7.271  18.537  1.00  0.00    -0.000 C 
BRANCH  28  29
ATOM     29  C   UNL     1      23.232   7.733  17.080  1.00  0.00    -0.000 C 
BRANCH  29  30
ATOM     30  C   UNL     1      24.708   7.957  16.721  1.00  0.00    -0.000 C 
BRANCH  30  31
ATOM     31  C   UNL     1      25.321   6.763  15.971  1.00  0.00    -0.003 C 
ATOM     32  C   UNL     1      24.286   5.973  15.170  1.00  0.00     0.004 C 
ENDBRANCH  30  31
ENDBRANCH  29  30
ENDBRANCH  28  29
ENDBRANCH  27  28
ENDBRANCH  26  27
ENDBRANCH  25  26
ENDBRANCH  24  25
ENDBRANCH  23  24
ENDBRANCH  22  23
ENDBRANCH  21  22
ENDBRANCH  20  21
ENDBRANCH  19  20
ENDBRANCH  18  19
ENDBRANCH   1  18
TORSDOF 28
ENDMDL
MODEL 5
REMARK VINA RESULT:    -2.936      1.730      2.238
REMARK INTER + INTRA:         -11.260
REMARK INTER:                  -7.954
REMARK INTRA:                  -3.306
REMARK UNBOUND:                -3.519
REMARK SMILES CCCCCCCCCCCCCCCCCCCCCCCCCCCCCC(=O)[O-]
REMARK SMILES IDX 16 1 17 2 18 3 19 4 20 5 21 6 22 7 23 8 24 9 25 10 26 11
REMARK SMILES IDX 27 12 28 13 29 14 30 15 31 16 32 17 15 18 14 19 13 20 12 21
REMARK SMILES IDX 11 22 10 23 9 24 8 25 7 26 6 27 5 28 4 29 3 30 2 31 1 32
REMARK H PARENT
REMARK Flexibility Score: inf
ROOT
ATOM      1  C   UNL     1      20.787  11.764  17.003  1.00  0.00     0.000 C 
ENDROOT
BRANCH   1   2
ATOM      2  C   UNL     1      21.251  13.123  17.558  1.00  0.00     0.000 C 
BRANCH   2   3
ATOM      3  C   UNL     1      21.743  13.039  19.012  1.00  0.00     0.000 C 
BRANCH   3   4
ATOM      4  C   UNL     1      20.915  13.895  19.992  1.00  0.00     0.000 C 
BRANCH   4   5
ATOM      5  C   UNL     1      19.822  14.707  19.276  1.00  0.00     0.000 C 
BRANCH   5   6
ATOM      6  C   UNL     1      19.376  15.946  20.074  1.00  0.00     0.000 C 
BRANCH   6   7
ATOM      7  C   UNL     1      20.523  16.859  20.545  1.00  0.00     0.000 C 
BRANCH   7   8
ATOM      8  C   UNL     1      20.064  18.305  20.809  1.00  0.00     0.000 C 
BRANCH   8   9
ATOM      9  C   UNL     1      18.598  18.548  20.420  1.00  0.00     0.000 C 
BRANCH   9  10
ATOM     10  C   UNL     1      18.272  20.041  20.246  1.00  0.00     0.000 C 
BRANCH  10  11
ATOM     11  C   UNL     1      19.430  20.837  19.615  1.00  0.00     0.000 C 
BRANCH  11  12
ATOM     12  C   UNL     1      19.266  22.368  19.651  1.00  0.00     0.000 C 
BRANCH  12  13
ATOM     13  C   UNL     1      20.278  23.101  18.753  1.00  0.00     0.006 C 
BRANCH  13  14
ATOM     14  C   UNL     1      21.667  22.448  18.793  1.00  0.00     0.053 C 
BRANCH  14  15
ATOM     15  C   UNL     1      22.494  22.981  19.922  1.00  0.00     0.041 C 
ATOM     16  O   UNL     1      22.862  24.186  19.925  1.00  0.00    -0.550 OA
ATOM     17  O   UNL     1      22.890  22.137  20.952  1.00  0.00    -0.550 OA
ENDBRANCH  14  15
ENDBRANCH  13  14
ENDBRANCH  12  13
ENDBRANCH  11  12
ENDBRANCH  10  11
ENDBRANCH   9  10
ENDBRANCH   8   9
ENDBRANCH   7   8
ENDBRANCH   6   7
ENDBRANCH   5   6
ENDBRANCH   4   5
ENDBRANCH   3   4
ENDBRANCH   2   3
ENDBRANCH   1   2
BRANCH   1  18
ATOM     18  C   UNL     1      19.534  11.237  17.722  1.00  0.00     0.000 C 
BRANCH  18  19
ATOM     19  C   UNL     1      18.416  10.839  16.744  1.00  0.00     0.000 C 
BRANCH  19  20
ATOM     20  C   UNL     1      18.517   9.373  16.280  1.00  0.00     0.000 C 
BRANCH  20  21
ATOM     21  C   UNL     1      19.176   8.413  17.290  1.00  0.00     0.000 C 
BRANCH  21  22
ATOM     22  C   UNL     1      20.499   7.818  16.782  1.00  0.00     0.000 C 
BRANCH  22  23
ATOM     23  C   UNL     1      21.318   7.221  17.933  1.00  0.00     0.000 C 
BRANCH  23  24
ATOM     24  C   UNL     1      21.402   8.209  19.105  1.00  0.00    -0.000 C 
BRANCH  24  25
ATOM     25  C   UNL     1      22.541   9.228  18.945  1.00  0.00    -0.000 C 
BRANCH  25  26
ATOM     26  C   UNL     1      23.530   9.194  20.123  1.00  0.00    -0.000 C 
BRANCH  26  27
ATOM     27  C   UNL     1      24.913   8.641  19.733  1.00  0.00    -0.000 C 
BRANCH  27  28
ATOM     28  C   UNL     1      25.082   7.119  19.893  1.00  0.00    -0.000 C 
BRANCH  28  29
ATOM     29  C   UNL     1      25.242   6.385  18.554  1.00  0.00    -0.000 C 
BRANCH  29  30
ATOM     30  C   UNL     1      25.555   7.372  17.420  1.00  0.00    -0.000 C 
BRANCH  30  31
ATOM     31  C   UNL     1      24.538   7.292  16.270  1.00  0.00    -0.003 C 
ATOM     32  C   UNL     1      24.963   6.321  15.169  1.00  0.00     0.004 C 
ENDBRANCH  30  31
ENDBRANCH  29  30
ENDBRANCH  28  29
ENDBRANCH  27  28
ENDBRANCH  26  27
ENDBRANCH  25  26
ENDBRANCH  24  25
ENDBRANCH  23  24
ENDBRANCH  22  23
ENDBRANCH  21  22
ENDBRANCH  20  21
ENDBRANCH  19  20
ENDBRANCH  18  19
ENDBRANCH   1  18
TORSDOF 28
ENDMDL
MODEL 6
REMARK VINA RESULT:    -2.919      4.470     13.107
REMARK INTER + INTRA:         -11.215
REMARK INTER:                  -8.824
REMARK INTRA:                  -2.391
REMARK UNBOUND:                -3.519
REMARK SMILES CCCCCCCCCCCCCCCCCCCCCCCCCCCCCC(=O)[O-]
REMARK SMILES IDX 16 1 17 2 18 3 19 4 20 5 21 6 22 7 23 8 24 9 25 10 26 11
REMARK SMILES IDX 27 12 28 13 29 14 30 15 31 16 32 17 15 18 14 19 13 20 12 21
REMARK SMILES IDX 11 22 10 23 9 24 8 25 7 26 6 27 5 28 4 29 3 30 2 31 1 32
REMARK H PARENT
REMARK Flexibility Score: inf
ROOT
ATOM      1  C   UNL     1      20.367  12.045  18.727  1.00  0.00     0.000 C 
ENDROOT
BRANCH   1   2
ATOM      2  C   UNL     1      18.926  11.951  19.260  1.00  0.00     0.000 C 
BRANCH   2   3
ATOM      3  C   UNL     1      17.906  11.587  18.169  1.00  0.00     0.000 C 
BRANCH   3   4
ATOM      4  C   UNL     1      18.551  11.282  16.802  1.00  0.00     0.000 C 
BRANCH   4   5
ATOM      5  C   UNL     1      18.424   9.799  16.416  1.00  0.00     0.000 C 
BRANCH   5   6
ATOM      6  C   UNL     1      18.363   8.864  17.637  1.00  0.00     0.000 C 
BRANCH   6   7
ATOM      7  C   UNL     1      19.695   8.178  17.994  1.00  0.00     0.000 C 
BRANCH   7   8
ATOM      8  C   UNL     1      20.612   7.983  16.773  1.00  0.00     0.000 C 
BRANCH   8   9
ATOM      9  C   UNL     1      21.074   6.528  16.599  1.00  0.00     0.000 C 
BRANCH   9  10
ATOM     10  C   UNL     1      22.073   6.360  15.441  1.00  0.00     0.000 C 
BRANCH  10  11
ATOM     11  C   UNL     1      23.364   5.633  15.864  1.00  0.00     0.000 C 
BRANCH  11  12
ATOM     12  C   UNL     1      24.672   6.370  15.519  1.00  0.00     0.000 C 
BRANCH  12  13
ATOM     13  C   UNL     1      25.139   7.320  16.636  1.00  0.00     0.006 C 
BRANCH  13  14
ATOM     14  C   UNL     1      25.540   6.562  17.909  1.00  0.00     0.053 C 
BRANCH  14  15
ATOM     15  C   UNL     1      26.527   7.339  18.725  1.00  0.00     0.041 C 
ATOM     16  O   UNL     1      27.301   6.743  19.521  1.00  0.00    -0.550 OA
ATOM     17  O   UNL     1      26.567   8.724  18.632  1.00  0.00    -0.550 OA
ENDBRANCH  14  15
ENDBRANCH  13  14
ENDBRANCH  12  13
ENDBRANCH  11  12
ENDBRANCH  10  11
ENDBRANCH   9  10
ENDBRANCH   8   9
ENDBRANCH   7   8
ENDBRANCH   6   7
ENDBRANCH   5   6
ENDBRANCH   4   5
ENDBRANCH   3   4
ENDBRANCH   2   3
ENDBRANCH   1   2
BRANCH   1  18
ATOM     18  C   UNL     1      20.885  13.492  18.698  1.00  0.00     0.000 C 
BRANCH  18  19
ATOM     19  C   UNL     1      20.456  14.297  19.937  1.00  0.00     0.000 C 
BRANCH  19  20
ATOM     20  C   UNL     1      19.712  15.598  19.580  1.00  0.00     0.000 C 
BRANCH  20  21
ATOM     21  C   UNL     1      20.117  16.832  20.411  1.00  0.00     0.000 C 
BRANCH  21  22
ATOM     22  C   UNL     1      19.023  17.909  20.466  1.00  0.00     0.000 C 
BRANCH  22  23
ATOM     23  C   UNL     1      19.629  19.310  20.612  1.00  0.00     0.000 C 
BRANCH  23  24
ATOM     24  C   UNL     1      21.105  19.307  20.189  1.00  0.00    -0.000 C 
BRANCH  24  25
ATOM     25  C   UNL     1      21.433  20.405  19.165  1.00  0.00    -0.000 C 
BRANCH  25  26
ATOM     26  C   UNL     1      22.684  21.214  19.552  1.00  0.00    -0.000 C 
BRANCH  26  27
ATOM     27  C   UNL     1      22.357  22.645  20.014  1.00  0.00    -0.000 C 
BRANCH  27  28
ATOM     28  C   UNL     1      22.652  23.752  18.985  1.00  0.00    -0.000 C 
BRANCH  28  29
ATOM     29  C   UNL     1      21.404  24.209  18.215  1.00  0.00    -0.000 C 
BRANCH  29  30
ATOM     30  C   UNL     1      20.258  24.550  19.178  1.00  0.00    -0.000 C 
BRANCH  30  31
ATOM     31  C   UNL     1      18.897  24.034  18.682  1.00  0.00    -0.003 C 
ATOM     32  C   UNL     1      18.533  22.669  19.266  1.00  0.00     0.004 C 
ENDBRANCH  30  31
ENDBRANCH  29  30
ENDBRANCH  28  29
ENDBRANCH  27  28
ENDBRANCH  26  27
ENDBRANCH  25  26
ENDBRANCH  24  25
ENDBRANCH  23  24
ENDBRANCH  22  23
ENDBRANCH  21  22
ENDBRANCH  20  21
ENDBRANCH  19  20
ENDBRANCH  18  19
ENDBRANCH   1  18
TORSDOF 28
ENDMDL
MODEL 7
REMARK VINA RESULT:    -2.785      4.600     12.508
REMARK INTER + INTRA:         -10.863
REMARK INTER:                  -7.442
REMARK INTRA:                  -3.421
REMARK UNBOUND:                -3.519
REMARK SMILES CCCCCCCCCCCCCCCCCCCCCCCCCCCCCC(=O)[O-]
REMARK SMILES IDX 16 1 17 2 18 3 19 4 20 5 21 6 22 7 23 8 24 9 25 10 26 11
REMARK SMILES IDX 27 12 28 13 29 14 30 15 31 16 32 17 15 18 14 19 13 20 12 21
REMARK SMILES IDX 11 22 10 23 9 24 8 25 7 26 6 27 5 28 4 29 3 30 2 31 1 32
REMARK H PARENT
REMARK Flexibility Score: inf
ROOT
ATOM      1  C   UNL     1      20.925  11.919  16.993  1.00  0.00     0.000 C 
ENDROOT
BRANCH   1   2
ATOM      2  C   UNL     1      19.387  11.991  16.968  1.00  0.00     0.000 C 
BRANCH   2   3
ATOM      3  C   UNL     1      18.724  10.606  16.903  1.00  0.00     0.000 C 
BRANCH   3   4
ATOM      4  C   UNL     1      17.876  10.270  18.147  1.00  0.00     0.000 C 
BRANCH   4   5
ATOM      5  C   UNL     1      18.559  10.711  19.453  1.00  0.00     0.000 C 
BRANCH   5   6
ATOM      6  C   UNL     1      18.593   9.600  20.517  1.00  0.00     0.000 C 
BRANCH   6   7
ATOM      7  C   UNL     1      19.946   8.879  20.656  1.00  0.00     0.000 C 
BRANCH   7   8
ATOM      8  C   UNL     1      21.069   9.554  19.847  1.00  0.00     0.000 C 
BRANCH   8   9
ATOM      9  C   UNL     1      21.779   8.586  18.888  1.00  0.00     0.000 C 
BRANCH   9  10
ATOM     10  C   UNL     1      20.792   7.761  18.043  1.00  0.00     0.000 C 
BRANCH  10  11
ATOM     11  C   UNL     1      21.039   7.899  16.529  1.00  0.00     0.000 C 
BRANCH  11  12
ATOM     12  C   UNL     1      21.687   6.673  15.858  1.00  0.00     0.000 C 
BRANCH  12  13
ATOM     13  C   UNL     1      22.596   5.878  16.811  1.00  0.00     0.006 C 
BRANCH  13  14
ATOM     14  C   UNL     1      23.795   5.256  16.082  1.00  0.00     0.053 C 
BRANCH  14  15
ATOM     15  C   UNL     1      24.773   6.300  15.638  1.00  0.00     0.041 C 
ATOM     16  O   UNL     1      25.268   6.256  14.481  1.00  0.00    -0.550 OA
ATOM     17  O   UNL     1      25.165   7.302  16.518  1.00  0.00    -0.550 OA
ENDBRANCH  14  15
ENDBRANCH  13  14
ENDBRANCH  12  13
ENDBRANCH  11  12
ENDBRANCH  10  11
ENDBRANCH   9  10
ENDBRANCH   8   9
ENDBRANCH   7   8
ENDBRANCH   6   7
ENDBRANCH   5   6
ENDBRANCH   4   5
ENDBRANCH   3   4
ENDBRANCH   2   3
ENDBRANCH   1   2
BRANCH   1  18
ATOM     18  C   UNL     1      21.556  13.146  17.670  1.00  0.00     0.000 C 
BRANCH  18  19
ATOM     19  C   UNL     1      21.607  13.014  19.202  1.00  0.00     0.000 C 
BRANCH  19  20
ATOM     20  C   UNL     1      20.555  13.885  19.915  1.00  0.00     0.000 C 
BRANCH  20  21
ATOM     21  C   UNL     1      19.995  15.051  19.077  1.00  0.00     0.000 C 
BRANCH  21  22
ATOM     22  C   UNL     1      19.007  15.935  19.854  1.00  0.00     0.000 C 
BRANCH  22  23
ATOM     23  C   UNL     1      19.737  16.827  20.865  1.00  0.00     0.000 C 
BRANCH  23  24
ATOM     24  C   UNL     1      19.345  18.299  20.669  1.00  0.00    -0.000 C 
BRANCH  24  25
ATOM     25  C   UNL     1      20.518  19.264  20.905  1.00  0.00    -0.000 C 
BRANCH  25  26
ATOM     26  C   UNL     1      20.956  19.983  19.617  1.00  0.00    -0.000 C 
BRANCH  26  27
ATOM     27  C   UNL     1      22.227  20.831  19.803  1.00  0.00    -0.000 C 
BRANCH  27  28
ATOM     28  C   UNL     1      22.271  22.137  18.991  1.00  0.00    -0.000 C 
BRANCH  28  29
ATOM     29  C   UNL     1      22.252  23.396  19.870  1.00  0.00    -0.000 C 
BRANCH  29  30
ATOM     30  C   UNL     1      20.921  23.519  20.627  1.00  0.00    -0.000 C 
BRANCH  30  31
ATOM     31  C   UNL     1      19.842  24.244  19.807  1.00  0.00    -0.003 C 
ATOM     32  C   UNL     1      18.863  23.281  19.133  1.00  0.00     0.004 C 
ENDBRANCH  30  31
ENDBRANCH  29  30
ENDBRANCH  28  29
ENDBRANCH  27  28
ENDBRANCH  26  27
ENDBRANCH  25  26
ENDBRANCH  24  25
ENDBRANCH  23  24
ENDBRANCH  22  23
ENDBRANCH  21  22
ENDBRANCH  20  21
ENDBRANCH  19  20
ENDBRANCH  18  19
ENDBRANCH   1  18
TORSDOF 28
ENDMDL
MODEL 8
REMARK VINA RESULT:    -2.776      4.702     11.761
REMARK INTER + INTRA:         -10.839
REMARK INTER:                  -7.367
REMARK INTRA:                  -3.472
REMARK UNBOUND:                -3.519
REMARK SMILES CCCCCCCCCCCCCCCCCCCCCCCCCCCCCC(=O)[O-]
REMARK SMILES IDX 16 1 17 2 18 3 19 4 20 5 21 6 22 7 23 8 24 9 25 10 26 11
REMARK SMILES IDX 27 12 28 13 29 14 30 15 31 16 32 17 15 18 14 19 13 20 12 21
REMARK SMILES IDX 11 22 10 23 9 24 8 25 7 26 6 27 5 28 4 29 3 30 2 31 1 32
REMARK H PARENT
REMARK Flexibility Score: inf
ROOT
ATOM      1  C   UNL     1      20.646   9.720  16.847  1.00  0.00     0.000 C 
ENDROOT
BRANCH   1   2
ATOM      2  C   UNL     1      19.454   8.896  16.326  1.00  0.00     0.000 C 
BRANCH   2   3
ATOM      3  C   UNL     1      19.777   7.399  16.191  1.00  0.00     0.000 C 
BRANCH   3   4
ATOM      4  C   UNL     1      20.026   6.698  17.541  1.00  0.00     0.000 C 
BRANCH   4   5
ATOM      5  C   UNL     1      18.835   6.849  18.504  1.00  0.00     0.000 C 
BRANCH   5   6
ATOM      6  C   UNL     1      19.246   7.386  19.886  1.00  0.00     0.000 C 
BRANCH   6   7
ATOM      7  C   UNL     1      18.984   8.889  20.100  1.00  0.00     0.000 C 
BRANCH   7   8
ATOM      8  C   UNL     1      20.236   9.652  20.569  1.00  0.00     0.000 C 
BRANCH   8   9
ATOM      9  C   UNL     1      21.436   8.728  20.832  1.00  0.00     0.000 C 
BRANCH   9  10
ATOM     10  C   UNL     1      22.582   8.949  19.829  1.00  0.00     0.000 C 
BRANCH  10  11
ATOM     11  C   UNL     1      23.201   7.631  19.328  1.00  0.00     0.000 C 
BRANCH  11  12
ATOM     12  C   UNL     1      24.729   7.659  19.134  1.00  0.00     0.000 C 
BRANCH  12  13
ATOM     13  C   UNL     1      25.230   6.580  18.159  1.00  0.00     0.006 C 
BRANCH  13  14
ATOM     14  C   UNL     1      25.485   7.144  16.754  1.00  0.00     0.053 C 
BRANCH  14  15
ATOM     15  C   UNL     1      24.561   6.540  15.742  1.00  0.00     0.041 C 
ATOM     16  O   UNL     1      23.332   6.423  15.993  1.00  0.00    -0.550 OA
ATOM     17  O   UNL     1      25.065   6.071  14.535  1.00  0.00    -0.550 OA
ENDBRANCH  14  15
ENDBRANCH  13  14
ENDBRANCH  12  13
ENDBRANCH  11  12
ENDBRANCH  10  11
ENDBRANCH   9  10
ENDBRANCH   8   9
ENDBRANCH   7   8
ENDBRANCH   6   7
ENDBRANCH   5   6
ENDBRANCH   4   5
ENDBRANCH   3   4
ENDBRANCH   2   3
ENDBRANCH   1   2
BRANCH   1  18
ATOM     18  C   UNL     1      20.226  11.127  17.305  1.00  0.00     0.000 C 
BRANCH  18  19
ATOM     19  C   UNL     1      18.748  11.428  17.007  1.00  0.00     0.000 C 
BRANCH  19  20
ATOM     20  C   UNL     1      17.963  11.876  18.255  1.00  0.00     0.000 C 
BRANCH  20  21
ATOM     21  C   UNL     1      18.057  13.380  18.581  1.00  0.00     0.000 C 
BRANCH  21  22
ATOM     22  C   UNL     1      18.941  13.679  19.802  1.00  0.00     0.000 C 
BRANCH  22  23
ATOM     23  C   UNL     1      20.100  14.613  19.433  1.00  0.00     0.000 C 
BRANCH  23  24
ATOM     24  C   UNL     1      20.332  15.650  20.542  1.00  0.00    -0.000 C 
BRANCH  24  25
ATOM     25  C   UNL     1      19.932  17.073  20.121  1.00  0.00    -0.000 C 
BRANCH  25  26
ATOM     26  C   UNL     1      20.835  18.148  20.751  1.00  0.00    -0.000 C 
BRANCH  26  27
ATOM     27  C   UNL     1      20.593  19.553  20.171  1.00  0.00    -0.000 C 
BRANCH  27  28
ATOM     28  C   UNL     1      21.732  20.110  19.298  1.00  0.00    -0.000 C 
BRANCH  28  29
ATOM     29  C   UNL     1      22.634  21.104  20.044  1.00  0.00    -0.000 C 
BRANCH  29  30
ATOM     30  C   UNL     1      22.728  22.436  19.286  1.00  0.00    -0.000 C 
BRANCH  30  31
ATOM     31  C   UNL     1      21.513  23.344  19.536  1.00  0.00    -0.003 C 
ATOM     32  C   UNL     1      20.656  23.543  18.285  1.00  0.00     0.004 C 
ENDBRANCH  30  31
ENDBRANCH  29  30
ENDBRANCH  28  29
ENDBRANCH  27  28
ENDBRANCH  26  27
ENDBRANCH  25  26
ENDBRANCH  24  25
ENDBRANCH  23  24
ENDBRANCH  22  23
ENDBRANCH  21  22
ENDBRANCH  20  21
ENDBRANCH  19  20
ENDBRANCH  18  19
ENDBRANCH   1  18
TORSDOF 28
ENDMDL
MODEL 9
REMARK VINA RESULT:    -2.439      4.298     12.752
REMARK INTER + INTRA:          -9.950
REMARK INTER:                  -6.506
REMARK INTRA:                  -3.444
REMARK UNBOUND:                -3.519
REMARK SMILES CCCCCCCCCCCCCCCCCCCCCCCCCCCCCC(=O)[O-]
REMARK SMILES IDX 16 1 17 2 18 3 19 4 20 5 21 6 22 7 23 8 24 9 25 10 26 11
REMARK SMILES IDX 27 12 28 13 29 14 30 15 31 16 32 17 15 18 14 19 13 20 12 21
REMARK SMILES IDX 11 22 10 23 9 24 8 25 7 26 6 27 5 28 4 29 3 30 2 31 1 32
REMARK H PARENT
REMARK Flexibility Score: inf
ROOT
ATOM      1  C   UNL     1      21.592  13.047  18.138  1.00  0.00     0.000 C 
ENDROOT
BRANCH   1   2
ATOM      2  C   UNL     1      21.266  11.836  17.244  1.00  0.00     0.000 C 
BRANCH   2   3
ATOM      3  C   UNL     1      20.636  10.670  18.023  1.00  0.00     0.000 C 
BRANCH   3   4
ATOM      4  C   UNL     1      21.541   9.425  18.105  1.00  0.00     0.000 C 
BRANCH   4   5
ATOM      5  C   UNL     1      21.593   8.835  19.525  1.00  0.00     0.000 C 
BRANCH   5   6
ATOM      6  C   UNL     1      22.769   7.864  19.729  1.00  0.00     0.000 C 
BRANCH   6   7
ATOM      7  C   UNL     1      24.141   8.408  19.288  1.00  0.00     0.000 C 
BRANCH   7   8
ATOM      8  C   UNL     1      24.846   7.493  18.270  1.00  0.00     0.000 C 
BRANCH   8   9
ATOM      9  C   UNL     1      24.493   7.835  16.814  1.00  0.00     0.000 C 
BRANCH   9  10
ATOM     10  C   UNL     1      23.834   6.658  16.074  1.00  0.00     0.000 C 
BRANCH  10  11
ATOM     11  C   UNL     1      23.516   5.471  17.002  1.00  0.00     0.000 C 
BRANCH  11  12
ATOM     12  C   UNL     1      22.016   5.181  17.201  1.00  0.00     0.000 C 
BRANCH  12  13
ATOM     13  C   UNL     1      21.117   5.989  16.249  1.00  0.00     0.006 C 
BRANCH  13  14
ATOM     14  C   UNL     1      19.864   6.527  16.954  1.00  0.00     0.053 C 
BRANCH  14  15
ATOM     15  C   UNL     1      18.904   7.139  15.981  1.00  0.00     0.041 C 
ATOM     16  O   UNL     1      18.294   6.415  15.150  1.00  0.00    -0.550 OA
ATOM     17  O   UNL     1      18.712   8.515  15.968  1.00  0.00    -0.550 OA
ENDBRANCH  14  15
ENDBRANCH  13  14
ENDBRANCH  12  13
ENDBRANCH  11  12
ENDBRANCH  10  11
ENDBRANCH   9  10
ENDBRANCH   8   9
ENDBRANCH   7   8
ENDBRANCH   6   7
ENDBRANCH   5   6
ENDBRANCH   4   5
ENDBRANCH   3   4
ENDBRANCH   2   3
ENDBRANCH   1   2
BRANCH   1  18
ATOM     18  C   UNL     1      20.551  13.246  19.253  1.00  0.00     0.000 C 
BRANCH  18  19
ATOM     19  C   UNL     1      19.411  14.189  18.833  1.00  0.00     0.000 C 
BRANCH  19  20
ATOM     20  C   UNL     1      18.856  15.020  20.006  1.00  0.00     0.000 C 
BRANCH  20  21
ATOM     21  C   UNL     1      19.878  15.948  20.690  1.00  0.00     0.000 C 
BRANCH  21  22
ATOM     22  C   UNL     1      19.340  17.368  20.929  1.00  0.00     0.000 C 
BRANCH  22  23
ATOM     23  C   UNL     1      20.467  18.406  20.872  1.00  0.00     0.000 C 
BRANCH  23  24
ATOM     24  C   UNL     1      19.915  19.817  21.125  1.00  0.00    -0.000 C 
BRANCH  24  25
ATOM     25  C   UNL     1      18.884  20.251  20.072  1.00  0.00    -0.000 C 
BRANCH  25  26
ATOM     26  C   UNL     1      18.375  21.685  20.305  1.00  0.00    -0.000 C 
BRANCH  26  27
ATOM     27  C   UNL     1      19.489  22.742  20.208  1.00  0.00    -0.000 C 
BRANCH  27  28
ATOM     28  C   UNL     1      19.865  23.172  18.779  1.00  0.00    -0.000 C 
BRANCH  28  29
ATOM     29  C   UNL     1      21.346  22.937  18.447  1.00  0.00    -0.000 C 
BRANCH  29  30
ATOM     30  C   UNL     1      22.141  22.572  19.709  1.00  0.00    -0.000 C 
BRANCH  30  31
ATOM     31  C   UNL     1      22.755  21.165  19.633  1.00  0.00    -0.003 C 
ATOM     32  C   UNL     1      22.369  20.419  18.356  1.00  0.00     0.004 C 
ENDBRANCH  30  31
ENDBRANCH  29  30
ENDBRANCH  28  29
ENDBRANCH  27  28
ENDBRANCH  26  27
ENDBRANCH  25  26
ENDBRANCH  24  25
ENDBRANCH  23  24
ENDBRANCH  22  23
ENDBRANCH  21  22
ENDBRANCH  20  21
ENDBRANCH  19  20
ENDBRANCH  18  19
ENDBRANCH   1  18
TORSDOF 28
ENDMDL
