MODEL 1
REMARK VINA RESULT:    -5.212      0.000      0.000
REMARK INTER + INTRA:          -7.168
REMARK INTER:                  -7.041
REMARK INTRA:                  -0.127
REMARK UNBOUND:                -0.127
REMARK SMILES CCCCCCCC(=O)[O-]
REMARK SMILES IDX 5 1 6 2 7 3 8 4 9 5 10 6 4 7 3 8 2 9 1 10
REMARK H PARENT
REMARK Flexibility Score: inf
ROOT
ATOM      1  C   UNL     1      18.716  26.355   0.008  1.00  0.00     0.000 C 
ENDROOT
BRANCH   1   2
ATOM      2  C   UNL     1      17.288  26.442  -0.579  1.00  0.00     0.006 C 
BRANCH   2   3
ATOM      3  C   UNL     1      17.015  25.407  -1.681  1.00  0.00     0.053 C 
BRANCH   3   4
ATOM      4  C   UNL     1      15.568  25.380  -2.070  1.00  0.00     0.041 C 
ATOM      5  O   UNL     1      14.673  25.338  -1.185  1.00  0.00    -0.550 OA
ATOM      6  O   UNL     1      15.207  25.422  -3.411  1.00  0.00    -0.550 OA
ENDBRANCH   3   4
ENDBRANCH   2   3
ENDBRANCH   1   2
BRANCH   1   7
ATOM      7  C   UNL     1      18.912  25.188   0.994  1.00  0.00     0.000 C 
BRANCH   7   8
ATOM      8  C   UNL     1      19.290  25.609   2.425  1.00  0.00    -0.000 C 
BRANCH   8   9
ATOM      9  C   UNL     1      19.603  24.410   3.332  1.00  0.00    -0.003 C 
ATOM     10  C   UNL     1      21.104  24.133   3.373  1.00  0.00     0.004 C 
ENDBRANCH   8   9
ENDBRANCH   7   8
ENDBRANCH   1   7
TORSDOF 6
ENDMDL
MODEL 2
REMARK VINA RESULT:    -5.157      3.623      5.815
REMARK INTER + INTRA:          -7.093
REMARK INTER:                  -6.902
REMARK INTRA:                  -0.191
REMARK UNBOUND:                -0.127
REMARK SMILES CCCCCCCC(=O)[O-]
REMARK SMILES IDX 5 1 6 2 7 3 8 4 9 5 10 6 4 7 3 8 2 9 1 10
REMARK H PARENT
REMARK Flexibility Score: inf
ROOT
ATOM      1  C   UNL     1      18.813  26.781   0.412  1.00  0.00     0.000 C 
ENDROOT
BRANCH   1   2
ATOM      2  C   UNL     1      18.905  25.461   1.213  1.00  0.00     0.006 C 
BRANCH   2   3
ATOM      3  C   UNL     1      19.231  25.669   2.700  1.00  0.00     0.053 C 
BRANCH   3   4
ATOM      4  C   UNL     1      19.824  24.436   3.314  1.00  0.00     0.041 C 
ATOM      5  O   UNL     1      19.215  23.831   4.235  1.00  0.00    -0.550 OA
ATOM      6  O   UNL     1      21.039  23.945   2.854  1.00  0.00    -0.550 OA
ENDBRANCH   3   4
ENDBRANCH   2   3
ENDBRANCH   1   2
BRANCH   1   7
ATOM      7  C   UNL     1      17.817  26.727  -0.762  1.00  0.00     0.000 C 
BRANCH   7   8
ATOM      8  C   UNL     1      17.157  25.356  -0.986  1.00  0.00    -0.000 C 
BRANCH   8   9
ATOM      9  C   UNL     1      16.110  25.378  -2.108  1.00  0.00    -0.003 C 
ATOM     10  C   UNL     1      14.778  24.808  -1.626  1.00  0.00     0.004 C 
ENDBRANCH   8   9
ENDBRANCH   7   8
ENDBRANCH   1   7
TORSDOF 6
ENDMDL
MODEL 3
REMARK VINA RESULT:    -4.821      1.061      1.160
REMARK INTER + INTRA:          -6.638
REMARK INTER:                  -6.398
REMARK INTRA:                  -0.240
REMARK UNBOUND:                -0.127
REMARK SMILES CCCCCCCC(=O)[O-]
REMARK SMILES IDX 5 1 6 2 7 3 8 4 9 5 10 6 4 7 3 8 2 9 1 10
REMARK H PARENT
REMARK Flexibility Score: inf
ROOT
ATOM      1  C   UNL     1      18.863  26.721  -0.109  1.00  0.00     0.000 C 
ENDROOT
BRANCH   1   2
ATOM      2  C   UNL     1      18.311  25.707  -1.137  1.00  0.00     0.006 C 
BRANCH   2   3
ATOM      3  C   UNL     1      16.889  26.036  -1.618  1.00  0.00     0.053 C 
BRANCH   3   4
ATOM      4  C   UNL     1      15.950  24.888  -1.397  1.00  0.00     0.041 C 
ATOM      5  O   UNL     1      16.299  23.911  -0.684  1.00  0.00    -0.550 OA
ATOM      6  O   UNL     1      14.681  24.908  -1.963  1.00  0.00    -0.550 OA
ENDBRANCH   3   4
ENDBRANCH   2   3
ENDBRANCH   1   2
BRANCH   1   7
ATOM      7  C   UNL     1      18.728  26.258   1.355  1.00  0.00     0.000 C 
BRANCH   7   8
ATOM      8  C   UNL     1      19.378  24.899   1.664  1.00  0.00    -0.000 C 
BRANCH   8   9
ATOM      9  C   UNL     1      19.720  24.731   3.152  1.00  0.00    -0.003 C 
ATOM     10  C   UNL     1      21.094  24.090   3.328  1.00  0.00     0.004 C 
ENDBRANCH   8   9
ENDBRANCH   7   8
ENDBRANCH   1   7
TORSDOF 6
ENDMDL
MODEL 4
REMARK VINA RESULT:    -4.142     11.514     13.211
REMARK INTER + INTRA:          -5.721
REMARK INTER:                  -5.475
REMARK INTRA:                  -0.246
REMARK UNBOUND:                -0.127
REMARK SMILES CCCCCCCC(=O)[O-]
REMARK SMILES IDX 5 1 6 2 7 3 8 4 9 5 10 6 4 7 3 8 2 9 1 10
REMARK H PARENT
REMARK Flexibility Score: inf
ROOT
ATOM      1  C   UNL     1      16.715  23.024  11.361  1.00  0.00     0.000 C 
ENDROOT
BRANCH   1   2
ATOM      2  C   UNL     1      16.023  22.987  12.742  1.00  0.00     0.006 C 
BRANCH   2   3
ATOM      3  C   UNL     1      16.987  23.216  13.917  1.00  0.00     0.053 C 
BRANCH   3   4
ATOM      4  C   UNL     1      16.647  24.462  14.677  1.00  0.00     0.041 C 
ATOM      5  O   UNL     1      16.982  24.579  15.886  1.00  0.00    -0.550 OA
ATOM      6  O   UNL     1      15.978  25.503  14.045  1.00  0.00    -0.550 OA
ENDBRANCH   3   4
ENDBRANCH   2   3
ENDBRANCH   1   2
BRANCH   1   7
ATOM      7  C   UNL     1      17.651  24.233  11.167  1.00  0.00     0.000 C 
BRANCH   7   8
ATOM      8  C   UNL     1      18.795  24.011  10.164  1.00  0.00    -0.000 C 
BRANCH   8   9
ATOM      9  C   UNL     1      20.017  24.894  10.453  1.00  0.00    -0.003 C 
ATOM     10  C   UNL     1      21.196  24.054  10.940  1.00  0.00     0.004 C 
ENDBRANCH   8   9
ENDBRANCH   7   8
ENDBRANCH   1   7
TORSDOF 6
ENDMDL
MODEL 5
REMARK VINA RESULT:    -4.067      2.370      2.534
REMARK INTER + INTRA:          -5.620
REMARK INTER:                  -5.589
REMARK INTRA:                  -0.031
REMARK UNBOUND:                -0.127
REMARK SMILES CCCCCCCC(=O)[O-]
REMARK SMILES IDX 5 1 6 2 7 3 8 4 9 5 10 6 4 7 3 8 2 9 1 10
REMARK H PARENT
REMARK Flexibility Score: inf
ROOT
ATOM      1  C   UNL     1      18.415  26.751   1.147  1.00  0.00     0.000 C 
ENDROOT
BRANCH   1   2
ATOM      2  C   UNL     1      18.629  26.846  -0.382  1.00  0.00     0.006 C 
BRANCH   2   3
ATOM      3  C   UNL     1      17.977  25.694  -1.163  1.00  0.00     0.053 C 
BRANCH   3   4
ATOM      4  C   UNL     1      18.962  24.608  -1.472  1.00  0.00     0.041 C 
ATOM      5  O   UNL     1      19.051  23.599  -0.724  1.00  0.00    -0.550 OA
ATOM      6  O   UNL     1      19.769  24.700  -2.600  1.00  0.00    -0.550 OA
ENDBRANCH   3   4
ENDBRANCH   2   3
ENDBRANCH   1   2
BRANCH   1   7
ATOM      7  C   UNL     1      19.240  25.637   1.821  1.00  0.00     0.000 C 
BRANCH   7   8
ATOM      8  C   UNL     1      19.183  25.632   3.358  1.00  0.00    -0.000 C 
BRANCH   8   9
ATOM      9  C   UNL     1      19.956  24.458   3.976  1.00  0.00    -0.003 C 
ATOM     10  C   UNL     1      21.078  23.994   3.051  1.00  0.00     0.004 C 
ENDBRANCH   8   9
ENDBRANCH   7   8
ENDBRANCH   1   7
TORSDOF 6
ENDMDL
MODEL 6
REMARK VINA RESULT:    -3.787     10.624     11.972
REMARK INTER + INTRA:          -5.242
REMARK INTER:                  -5.120
REMARK INTRA:                  -0.122
REMARK UNBOUND:                -0.127
REMARK SMILES CCCCCCCC(=O)[O-]
REMARK SMILES IDX 5 1 6 2 7 3 8 4 9 5 10 6 4 7 3 8 2 9 1 10
REMARK H PARENT
REMARK Flexibility Score: inf
ROOT
ATOM      1  C   UNL     1      26.103  19.882   5.455  1.00  0.00     0.000 C 
ENDROOT
BRANCH   1   2
ATOM      2  C   UNL     1      24.937  18.868   5.527  1.00  0.00     0.006 C 
BRANCH   2   3
ATOM      3  C   UNL     1      24.742  18.258   6.923  1.00  0.00     0.053 C 
BRANCH   3   4
ATOM      4  C   UNL     1      24.729  19.311   7.990  1.00  0.00     0.041 C 
ATOM      5  O   UNL     1      25.718  19.449   8.757  1.00  0.00    -0.550 OA
ATOM      6  O   UNL     1      23.632  20.153   8.125  1.00  0.00    -0.550 OA
ENDBRANCH   3   4
ENDBRANCH   2   3
ENDBRANCH   1   2
BRANCH   1   7
ATOM      7  C   UNL     1      25.873  21.022   4.445  1.00  0.00     0.000 C 
BRANCH   7   8
ATOM      8  C   UNL     1      26.887  21.075   3.289  1.00  0.00    -0.000 C 
BRANCH   8   9
ATOM      9  C   UNL     1      27.030  22.481   2.690  1.00  0.00    -0.003 C 
ATOM     10  C   UNL     1      27.108  22.421   1.166  1.00  0.00     0.004 C 
ENDBRANCH   8   9
ENDBRANCH   7   8
ENDBRANCH   1   7
TORSDOF 6
ENDMDL
MODEL 7
REMARK VINA RESULT:    -3.699      1.797      2.764
REMARK INTER + INTRA:          -5.123
REMARK INTER:                  -4.901
REMARK INTRA:                  -0.222
REMARK UNBOUND:                -0.127
REMARK SMILES CCCCCCCC(=O)[O-]
REMARK SMILES IDX 5 1 6 2 7 3 8 4 9 5 10 6 4 7 3 8 2 9 1 10
REMARK H PARENT
REMARK Flexibility Score: inf
ROOT
ATOM      1  C   UNL     1      19.594  24.682   1.383  1.00  0.00     0.000 C 
ENDROOT
BRANCH   1   2
ATOM      2  C   UNL     1      18.785  25.999   1.422  1.00  0.00     0.006 C 
BRANCH   2   3
ATOM      3  C   UNL     1      18.653  26.677   0.049  1.00  0.00     0.053 C 
BRANCH   3   4
ATOM      4  C   UNL     1      17.869  25.835  -0.911  1.00  0.00     0.041 C 
ATOM      5  O   UNL     1      18.462  25.142  -1.779  1.00  0.00    -0.550 OA
ATOM      6  O   UNL     1      16.482  25.802  -0.835  1.00  0.00    -0.550 OA
ENDBRANCH   3   4
ENDBRANCH   2   3
ENDBRANCH   1   2
BRANCH   1   7
ATOM      7  C   UNL     1      20.389  24.404   2.674  1.00  0.00     0.000 C 
BRANCH   7   8
ATOM      8  C   UNL     1      19.611  24.652   3.977  1.00  0.00    -0.000 C 
BRANCH   8   9
ATOM      9  C   UNL     1      18.576  23.556   4.268  1.00  0.00    -0.003 C 
ATOM     10  C   UNL     1      17.879  23.801   5.603  1.00  0.00     0.004 C 
ENDBRANCH   8   9
ENDBRANCH   7   8
ENDBRANCH   1   7
TORSDOF 6
ENDMDL
MODEL 8
REMARK VINA RESULT:    -3.459     16.317     17.499
REMARK INTER + INTRA:          -4.799
REMARK INTER:                  -4.224
REMARK INTRA:                  -0.575
REMARK UNBOUND:                -0.127
REMARK SMILES CCCCCCCC(=O)[O-]
REMARK SMILES IDX 5 1 6 2 7 3 8 4 9 5 10 6 4 7 3 8 2 9 1 10
REMARK H PARENT
REMARK Flexibility Score: inf
ROOT
ATOM      1  C   UNL     1      22.701  32.527  14.675  1.00  0.00     0.000 C 
ENDROOT
BRANCH   1   2
ATOM      2  C   UNL     1      24.202  32.756  14.384  1.00  0.00     0.006 C 
BRANCH   2   3
ATOM      3  C   UNL     1      24.506  33.003  12.898  1.00  0.00     0.053 C 
BRANCH   3   4
ATOM      4  C   UNL     1      25.261  34.282  12.693  1.00  0.00     0.041 C 
ATOM      5  O   UNL     1      24.725  35.387  12.971  1.00  0.00    -0.550 OA
ATOM      6  O   UNL     1      26.564  34.252  12.213  1.00  0.00    -0.550 OA
ENDBRANCH   3   4
ENDBRANCH   2   3
ENDBRANCH   1   2
BRANCH   1   7
ATOM      7  C   UNL     1      22.015  33.716  15.373  1.00  0.00     0.000 C 
BRANCH   7   8
ATOM      8  C   UNL     1      21.618  34.872  14.439  1.00  0.00    -0.000 C 
BRANCH   8   9
ATOM      9  C   UNL     1      20.618  34.443  13.356  1.00  0.00    -0.003 C 
ATOM     10  C   UNL     1      21.217  34.609  11.962  1.00  0.00     0.004 C 
ENDBRANCH   8   9
ENDBRANCH   7   8
ENDBRANCH   1   7
TORSDOF 6
ENDMDL
MODEL 9
REMARK VINA RESULT:    -3.391     16.222     17.550
REMARK INTER + INTRA:          -4.707
REMARK INTER:                  -4.059
REMARK INTRA:                  -0.648
REMARK UNBOUND:                -0.127
REMARK SMILES CCCCCCCC(=O)[O-]
REMARK SMILES IDX 5 1 6 2 7 3 8 4 9 5 10 6 4 7 3 8 2 9 1 10
REMARK H PARENT
REMARK Flexibility Score: inf
ROOT
ATOM      1  C   UNL     1      25.246  35.774  12.944  1.00  0.00     0.000 C 
ENDROOT
BRANCH   1   2
ATOM      2  C   UNL     1      23.871  35.459  13.576  1.00  0.00     0.006 C 
BRANCH   2   3
ATOM      3  C   UNL     1      23.222  34.180  13.024  1.00  0.00     0.053 C 
BRANCH   3   4
ATOM      4  C   UNL     1      23.146  33.105  14.066  1.00  0.00     0.041 C 
ATOM      5  O   UNL     1      24.174  32.446  14.374  1.00  0.00    -0.550 OA
ATOM      6  O   UNL     1      21.943  32.844  14.710  1.00  0.00    -0.550 OA
ENDBRANCH   3   4
ENDBRANCH   2   3
ENDBRANCH   1   2
BRANCH   1   7
ATOM      7  C   UNL     1      26.439  35.224  13.750  1.00  0.00     0.000 C 
BRANCH   7   8
ATOM      8  C   UNL     1      27.122  33.991  13.133  1.00  0.00    -0.000 C 
BRANCH   8   9
ATOM      9  C   UNL     1      26.823  33.836  11.634  1.00  0.00    -0.003 C 
ATOM     10  C   UNL     1      26.089  32.527  11.355  1.00  0.00     0.004 C 
ENDBRANCH   8   9
ENDBRANCH   7   8
ENDBRANCH   1   7
TORSDOF 6
ENDMDL
