MODEL 1
REMARK VINA RESULT:    -4.730      0.000      0.000
REMARK INTER + INTRA:          -5.030
REMARK INTER:                  -5.007
REMARK INTRA:                  -0.024
REMARK UNBOUND:                -0.024
REMARK SMILES O=C([O-])c1cccnc1
REMARK SMILES IDX 4 1 5 2 9 3 6 4 8 5 7 6 2 7 1 8 3 9
REMARK H PARENT
REMARK Flexibility Score: inf
ROOT
ATOM      1  C   UNL     1      20.535 -48.071  67.217  1.00  0.00     0.016 A 
ATOM      2  C   UNL     1      21.295 -49.230  66.995  1.00  0.00     0.013 A 
ATOM      3  C   UNL     1      19.572 -48.088  68.242  1.00  0.00     0.120 A 
ATOM      4  C   UNL     1      21.087 -50.365  67.781  1.00  0.00     0.021 A 
ATOM      5  N   UNL     1      19.391 -49.207  68.993  1.00  0.00    -0.264 NA
ATOM      6  C   UNL     1      20.121 -50.334  68.786  1.00  0.00     0.111 A 
ENDROOT
BRANCH   1   7
ATOM      7  C   UNL     1      20.745 -46.861  66.391  1.00  0.00     0.073 C 
ATOM      8  O   UNL     1      21.710 -46.796  65.584  1.00  0.00    -0.545 OA
ATOM      9  O   UNL     1      19.877 -45.781  66.493  1.00  0.00    -0.545 OA
ENDBRANCH   1   7
TORSDOF 1
ENDMDL
MODEL 2
REMARK VINA RESULT:    -4.686      0.929      1.601
REMARK INTER + INTRA:          -4.984
REMARK INTER:                  -4.961
REMARK INTRA:                  -0.023
REMARK UNBOUND:                -0.024
REMARK SMILES O=C([O-])c1cccnc1
REMARK SMILES IDX 4 1 5 2 9 3 6 4 8 5 7 6 2 7 1 8 3 9
REMARK H PARENT
REMARK Flexibility Score: inf
ROOT
ATOM      1  C   UNL     1      20.584 -48.050  67.183  1.00  0.00     0.016 A 
ATOM      2  C   UNL     1      19.640 -48.076  68.221  1.00  0.00     0.013 A 
ATOM      3  C   UNL     1      21.344 -49.207  66.940  1.00  0.00     0.120 A 
ATOM      4  C   UNL     1      19.472 -49.232  68.985  1.00  0.00     0.021 A 
ATOM      5  N   UNL     1      21.160 -50.320  67.699  1.00  0.00    -0.264 NA
ATOM      6  C   UNL     1      20.248 -50.356  68.707  1.00  0.00     0.111 A 
ENDROOT
BRANCH   1   7
ATOM      7  C   UNL     1      20.773 -46.830  66.366  1.00  0.00     0.073 C 
ATOM      8  O   UNL     1      21.748 -46.734  65.575  1.00  0.00    -0.545 OA
ATOM      9  O   UNL     1      19.874 -45.775  66.461  1.00  0.00    -0.545 OA
ENDBRANCH   1   7
TORSDOF 1
ENDMDL
MODEL 3
REMARK VINA RESULT:    -4.487      1.391      2.115
REMARK INTER + INTRA:          -4.773
REMARK INTER:                  -4.751
REMARK INTRA:                  -0.022
REMARK UNBOUND:                -0.024
REMARK SMILES O=C([O-])c1cccnc1
REMARK SMILES IDX 4 1 5 2 9 3 6 4 8 5 7 6 2 7 1 8 3 9
REMARK H PARENT
REMARK Flexibility Score: inf
ROOT
ATOM      1  C   UNL     1      21.056 -49.309  67.453  1.00  0.00     0.016 A 
ATOM      2  C   UNL     1      21.102 -50.636  67.907  1.00  0.00     0.013 A 
ATOM      3  C   UNL     1      20.116 -48.437  68.029  1.00  0.00     0.120 A 
ATOM      4  C   UNL     1      20.227 -51.065  68.907  1.00  0.00     0.021 A 
ATOM      5  N   UNL     1      19.276 -48.880  69.003  1.00  0.00    -0.264 NA
ATOM      6  C   UNL     1      19.312 -50.163  69.449  1.00  0.00     0.111 A 
ENDROOT
BRANCH   1   7
ATOM      7  C   UNL     1      21.977 -48.842  66.393  1.00  0.00     0.073 C 
ATOM      8  O   UNL     1      21.654 -47.885  65.639  1.00  0.00    -0.545 OA
ATOM      9  O   UNL     1      23.212 -49.454  66.215  1.00  0.00    -0.545 OA
ENDBRANCH   1   7
TORSDOF 1
ENDMDL
MODEL 4
REMARK VINA RESULT:    -4.330      7.158      8.174
REMARK INTER + INTRA:          -4.607
REMARK INTER:                  -4.585
REMARK INTRA:                  -0.022
REMARK UNBOUND:                -0.024
REMARK SMILES O=C([O-])c1cccnc1
REMARK SMILES IDX 4 1 5 2 9 3 6 4 8 5 7 6 2 7 1 8 3 9
REMARK H PARENT
REMARK Flexibility Score: inf
ROOT
ATOM      1  C   UNL     1      15.118 -48.724  72.589  1.00  0.00     0.016 A 
ATOM      2  C   UNL     1      14.361 -49.340  73.598  1.00  0.00     0.013 A 
ATOM      3  C   UNL     1      14.440 -48.145  71.503  1.00  0.00     0.120 A 
ATOM      4  C   UNL     1      12.967 -49.367  73.510  1.00  0.00     0.021 A 
ATOM      5  N   UNL     1      13.082 -48.185  71.442  1.00  0.00    -0.264 NA
ATOM      6  C   UNL     1      12.340 -48.778  72.413  1.00  0.00     0.111 A 
ENDROOT
BRANCH   1   7
ATOM      7  C   UNL     1      16.595 -48.689  72.670  1.00  0.00     0.073 C 
ATOM      8  O   UNL     1      17.175 -48.669  73.789  1.00  0.00    -0.545 OA
ATOM      9  O   UNL     1      17.363 -48.680  71.512  1.00  0.00    -0.545 OA
ENDBRANCH   1   7
TORSDOF 1
ENDMDL
MODEL 5
REMARK VINA RESULT:    -4.312      1.395      2.343
REMARK INTER + INTRA:          -4.588
REMARK INTER:                  -4.566
REMARK INTRA:                  -0.022
REMARK UNBOUND:                -0.024
REMARK SMILES O=C([O-])c1cccnc1
REMARK SMILES IDX 4 1 5 2 9 3 6 4 8 5 7 6 2 7 1 8 3 9
REMARK H PARENT
REMARK Flexibility Score: inf
ROOT
ATOM      1  C   UNL     1      20.716 -47.673  67.523  1.00  0.00     0.016 A 
ATOM      2  C   UNL     1      20.568 -46.481  68.248  1.00  0.00     0.013 A 
ATOM      3  C   UNL     1      20.140 -48.847  68.040  1.00  0.00     0.120 A 
ATOM      4  C   UNL     1      19.862 -46.477  69.453  1.00  0.00     0.021 A 
ATOM      5  N   UNL     1      19.458 -48.815  69.216  1.00  0.00    -0.264 NA
ATOM      6  C   UNL     1      19.309 -47.666  69.926  1.00  0.00     0.111 A 
ENDROOT
BRANCH   1   7
ATOM      7  C   UNL     1      21.461 -47.691  66.245  1.00  0.00     0.073 C 
ATOM      8  O   UNL     1      21.934 -48.768  65.794  1.00  0.00    -0.545 OA
ATOM      9  O   UNL     1      21.649 -46.518  65.524  1.00  0.00    -0.545 OA
ENDBRANCH   1   7
TORSDOF 1
ENDMDL
MODEL 6
REMARK VINA RESULT:    -4.260      1.776      2.458
REMARK INTER + INTRA:          -4.533
REMARK INTER:                  -4.511
REMARK INTRA:                  -0.022
REMARK UNBOUND:                -0.024
REMARK SMILES O=C([O-])c1cccnc1
REMARK SMILES IDX 4 1 5 2 9 3 6 4 8 5 7 6 2 7 1 8 3 9
REMARK H PARENT
REMARK Flexibility Score: inf
ROOT
ATOM      1  C   UNL     1      20.728 -47.424  67.537  1.00  0.00     0.016 A 
ATOM      2  C   UNL     1      20.033 -48.524  68.066  1.00  0.00     0.013 A 
ATOM      3  C   UNL     1      20.716 -46.216  68.256  1.00  0.00     0.120 A 
ATOM      4  C   UNL     1      19.351 -48.404  69.278  1.00  0.00     0.021 A 
ATOM      5  N   UNL     1      20.044 -46.127  69.435  1.00  0.00    -0.264 NA
ATOM      6  C   UNL     1      19.368 -47.185  69.955  1.00  0.00     0.111 A 
ENDROOT
BRANCH   1   7
ATOM      7  C   UNL     1      21.454 -47.538  66.253  1.00  0.00     0.073 C 
ATOM      8  O   UNL     1      21.640 -46.523  65.530  1.00  0.00    -0.545 OA
ATOM      9  O   UNL     1      21.943 -48.767  65.828  1.00  0.00    -0.545 OA
ENDBRANCH   1   7
TORSDOF 1
ENDMDL
MODEL 7
REMARK VINA RESULT:    -4.190      7.335      8.363
REMARK INTER + INTRA:          -4.459
REMARK INTER:                  -4.436
REMARK INTRA:                  -0.023
REMARK UNBOUND:                -0.024
REMARK SMILES O=C([O-])c1cccnc1
REMARK SMILES IDX 4 1 5 2 9 3 6 4 8 5 7 6 2 7 1 8 3 9
REMARK H PARENT
REMARK Flexibility Score: inf
ROOT
ATOM      1  C   UNL     1      14.612 -48.681  72.391  1.00  0.00     0.016 A 
ATOM      2  C   UNL     1      13.970 -48.222  71.230  1.00  0.00     0.013 A 
ATOM      3  C   UNL     1      13.822 -49.206  73.429  1.00  0.00     0.120 A 
ATOM      4  C   UNL     1      12.579 -48.290  71.125  1.00  0.00     0.021 A 
ATOM      5  N   UNL     1      12.469 -49.261  73.300  1.00  0.00    -0.264 NA
ATOM      6  C   UNL     1      11.838 -48.819  72.181  1.00  0.00     0.111 A 
ENDROOT
BRANCH   1   7
ATOM      7  C   UNL     1      16.084 -48.614  72.516  1.00  0.00     0.073 C 
ATOM      8  O   UNL     1      16.638 -48.719  73.643  1.00  0.00    -0.545 OA
ATOM      9  O   UNL     1      16.878 -48.434  71.389  1.00  0.00    -0.545 OA
ENDBRANCH   1   7
TORSDOF 1
ENDMDL
MODEL 8
REMARK VINA RESULT:    -4.146      8.037      9.086
REMARK INTER + INTRA:          -4.412
REMARK INTER:                  -4.390
REMARK INTRA:                  -0.023
REMARK UNBOUND:                -0.024
REMARK SMILES O=C([O-])c1cccnc1
REMARK SMILES IDX 4 1 5 2 9 3 6 4 8 5 7 6 2 7 1 8 3 9
REMARK H PARENT
REMARK Flexibility Score: inf
ROOT
ATOM      1  C   UNL     1      12.961 -48.076  72.152  1.00  0.00     0.016 A 
ATOM      2  C   UNL     1      12.918 -48.893  73.292  1.00  0.00     0.013 A 
ATOM      3  C   UNL     1      14.194 -47.898  71.501  1.00  0.00     0.120 A 
ATOM      4  C   UNL     1      14.083 -49.507  73.757  1.00  0.00     0.021 A 
ATOM      5  N   UNL     1      15.313 -48.508  71.975  1.00  0.00    -0.264 NA
ATOM      6  C   UNL     1      15.283 -49.301  73.078  1.00  0.00     0.111 A 
ENDROOT
BRANCH   1   7
ATOM      7  C   UNL     1      11.734 -47.419  71.649  1.00  0.00     0.073 C 
ATOM      8  O   UNL     1      11.688 -46.956  70.478  1.00  0.00    -0.545 OA
ATOM      9  O   UNL     1      10.614 -47.304  72.464  1.00  0.00    -0.545 OA
ENDBRANCH   1   7
TORSDOF 1
ENDMDL
MODEL 9
REMARK VINA RESULT:    -4.055      7.562      8.613
REMARK INTER + INTRA:          -4.316
REMARK INTER:                  -4.297
REMARK INTRA:                  -0.020
REMARK UNBOUND:                -0.024
REMARK SMILES O=C([O-])c1cccnc1
REMARK SMILES IDX 4 1 5 2 9 3 6 4 8 5 7 6 2 7 1 8 3 9
REMARK H PARENT
REMARK Flexibility Score: inf
ROOT
ATOM      1  C   UNL     1      14.162 -48.771  72.672  1.00  0.00     0.016 A 
ATOM      2  C   UNL     1      15.326 -49.199  73.331  1.00  0.00     0.013 A 
ATOM      3  C   UNL     1      14.297 -48.097  71.445  1.00  0.00     0.120 A 
ATOM      4  C   UNL     1      16.580 -48.953  72.767  1.00  0.00     0.021 A 
ATOM      5  N   UNL     1      15.531 -47.872  70.919  1.00  0.00    -0.264 NA
ATOM      6  C   UNL     1      16.663 -48.282  71.548  1.00  0.00     0.111 A 
ENDROOT
BRANCH   1   7
ATOM      7  C   UNL     1      12.828 -49.024  73.259  1.00  0.00     0.073 C 
ATOM      8  O   UNL     1      12.540 -50.155  73.733  1.00  0.00    -0.545 OA
ATOM      9  O   UNL     1      11.873 -48.014  73.295  1.00  0.00    -0.545 OA
ENDBRANCH   1   7
TORSDOF 1
ENDMDL
