MODEL 1
REMARK VINA RESULT:    -2.367      0.000      0.000
REMARK INTER + INTRA:          -6.724
REMARK INTER:                  -5.410
REMARK INTRA:                  -1.314
REMARK UNBOUND:                -1.314
REMARK SMILES CCCCCCCCCCCCCCCCCCCCCCCC(=O)[O-]
REMARK SMILES IDX 13 1 14 2 15 3 16 4 17 5 18 6 19 7 20 8 21 9 22 10 23 11
REMARK SMILES IDX 24 12 25 13 26 14 12 15 11 16 10 17 9 18 8 19 7 20 6 21 5 22
REMARK SMILES IDX 4 23 3 24 2 25 1 26
REMARK H PARENT
REMARK Flexibility Score: inf
ROOT
ATOM      1  C   UNL     1     -10.802  -3.385  -3.449  1.00  0.00     0.000 C 
ENDROOT
BRANCH   1   2
ATOM      2  C   UNL     1     -11.039  -3.544  -4.961  1.00  0.00     0.000 C 
BRANCH   2   3
ATOM      3  C   UNL     1     -10.803  -4.984  -5.448  1.00  0.00     0.000 C 
BRANCH   3   4
ATOM      4  C   UNL     1     -11.099  -5.159  -6.948  1.00  0.00     0.000 C 
BRANCH   4   5
ATOM      5  C   UNL     1     -10.797  -3.888  -7.758  1.00  0.00     0.000 C 
BRANCH   5   6
ATOM      6  C   UNL     1     -10.410  -4.192  -9.215  1.00  0.00     0.000 C 
BRANCH   6   7
ATOM      7  C   UNL     1      -8.902  -4.031  -9.475  1.00  0.00     0.000 C 
BRANCH   7   8
ATOM      8  C   UNL     1      -8.179  -5.370  -9.738  1.00  0.00     0.000 C 
BRANCH   8   9
ATOM      9  C   UNL     1      -8.926  -6.566  -9.120  1.00  0.00     0.000 C 
BRANCH   9  10
ATOM     10  C   UNL     1      -8.324  -7.014  -7.779  1.00  0.00     0.006 C 
BRANCH  10  11
ATOM     11  C   UNL     1      -7.294  -6.018  -7.230  1.00  0.00     0.053 C 
BRANCH  11  12
ATOM     12  C   UNL     1      -6.892  -6.391  -5.838  1.00  0.00     0.041 C 
ATOM     13  O   UNL     1      -5.708  -6.742  -5.594  1.00  0.00    -0.550 OA
ATOM     14  O   UNL     1      -7.817  -6.318  -4.803  1.00  0.00    -0.550 OA
ENDBRANCH  11  12
ENDBRANCH  10  11
ENDBRANCH   9  10
ENDBRANCH   8   9
ENDBRANCH   7   8
ENDBRANCH   6   7
ENDBRANCH   5   6
ENDBRANCH   4   5
ENDBRANCH   3   4
ENDBRANCH   2   3
ENDBRANCH   1   2
BRANCH   1  15
ATOM     15  C   UNL     1      -9.815  -4.426  -2.889  1.00  0.00     0.000 C 
BRANCH  15  16
ATOM     16  C   UNL     1      -9.049  -3.987  -1.626  1.00  0.00     0.000 C 
BRANCH  16  17
ATOM     17  C   UNL     1      -8.308  -2.640  -1.743  1.00  0.00     0.000 C 
BRANCH  17  18
ATOM     18  C   UNL     1      -8.882  -1.501  -0.877  1.00  0.00    -0.000 C 
BRANCH  18  19
ATOM     19  C   UNL     1      -8.025  -0.223  -0.831  1.00  0.00    -0.000 C 
BRANCH  19  20
ATOM     20  C   UNL     1      -8.818   1.095  -0.901  1.00  0.00    -0.000 C 
BRANCH  20  21
ATOM     21  C   UNL     1      -8.054   2.312  -0.339  1.00  0.00    -0.000 C 
BRANCH  21  22
ATOM     22  C   UNL     1      -8.834   3.625  -0.501  1.00  0.00    -0.000 C 
BRANCH  22  23
ATOM     23  C   UNL     1      -8.527   4.594   0.648  1.00  0.00    -0.000 C 
BRANCH  23  24
ATOM     24  C   UNL     1      -8.862   6.039   0.251  1.00  0.00    -0.000 C 
BRANCH  24  25
ATOM     25  C   UNL     1      -9.197   6.177  -1.241  1.00  0.00    -0.003 C 
ATOM     26  C   UNL     1      -9.184   7.629  -1.718  1.00  0.00     0.004 C 
ENDBRANCH  24  25
ENDBRANCH  23  24
ENDBRANCH  22  23
ENDBRANCH  21  22
ENDBRANCH  20  21
ENDBRANCH  19  20
ENDBRANCH  18  19
ENDBRANCH  17  18
ENDBRANCH  16  17
ENDBRANCH  15  16
ENDBRANCH   1  15
TORSDOF 22
ENDMDL
MODEL 2
REMARK VINA RESULT:    -2.259      4.317     10.516
REMARK INTER + INTRA:          -6.479
REMARK INTER:                  -5.333
REMARK INTRA:                  -1.146
REMARK UNBOUND:                -1.314
REMARK SMILES CCCCCCCCCCCCCCCCCCCCCCCC(=O)[O-]
REMARK SMILES IDX 13 1 14 2 15 3 16 4 17 5 18 6 19 7 20 8 21 9 22 10 23 11
REMARK SMILES IDX 24 12 25 13 26 14 12 15 11 16 10 17 9 18 8 19 7 20 6 21 5 22
REMARK SMILES IDX 4 23 3 24 2 25 1 26
REMARK H PARENT
REMARK Flexibility Score: inf
ROOT
ATOM      1  C   UNL     1     -10.878  -4.847  -3.072  1.00  0.00     0.000 C 
ENDROOT
BRANCH   1   2
ATOM      2  C   UNL     1      -9.681  -3.937  -3.397  1.00  0.00     0.000 C 
BRANCH   2   3
ATOM      3  C   UNL     1      -8.787  -3.676  -2.173  1.00  0.00     0.000 C 
BRANCH   3   4
ATOM      4  C   UNL     1      -9.189  -2.403  -1.406  1.00  0.00     0.000 C 
BRANCH   4   5
ATOM      5  C   UNL     1      -8.061  -1.359  -1.370  1.00  0.00     0.000 C 
BRANCH   5   6
ATOM      6  C   UNL     1      -8.383  -0.171  -0.448  1.00  0.00     0.000 C 
BRANCH   6   7
ATOM      7  C   UNL     1      -7.603   1.101  -0.823  1.00  0.00     0.000 C 
BRANCH   7   8
ATOM      8  C   UNL     1      -8.448   2.390  -0.723  1.00  0.00     0.000 C 
BRANCH   8   9
ATOM      9  C   UNL     1      -8.288   3.087   0.640  1.00  0.00     0.000 C 
BRANCH   9  10
ATOM     10  C   UNL     1      -8.551   4.599   0.568  1.00  0.00     0.006 C 
BRANCH  10  11
ATOM     11  C   UNL     1      -9.102   5.041  -0.794  1.00  0.00     0.053 C 
BRANCH  11  12
ATOM     12  C   UNL     1      -9.085   6.532  -0.910  1.00  0.00     0.041 C 
ATOM     13  O   UNL     1      -8.667   7.236   0.047  1.00  0.00    -0.550 OA
ATOM     14  O   UNL     1      -9.500   7.144  -2.086  1.00  0.00    -0.550 OA
ENDBRANCH  11  12
ENDBRANCH  10  11
ENDBRANCH   9  10
ENDBRANCH   8   9
ENDBRANCH   7   8
ENDBRANCH   6   7
ENDBRANCH   5   6
ENDBRANCH   4   5
ENDBRANCH   3   4
ENDBRANCH   2   3
ENDBRANCH   1   2
BRANCH   1  15
ATOM     15  C   UNL     1     -11.114  -5.927  -4.143  1.00  0.00     0.000 C 
BRANCH  15  16
ATOM     16  C   UNL     1     -10.908  -5.461  -5.598  1.00  0.00     0.000 C 
BRANCH  16  17
ATOM     17  C   UNL     1     -10.611  -6.585  -6.611  1.00  0.00     0.000 C 
BRANCH  17  18
ATOM     18  C   UNL     1     -10.170  -6.105  -8.009  1.00  0.00    -0.000 C 
BRANCH  18  19
ATOM     19  C   UNL     1      -8.891  -5.249  -8.029  1.00  0.00    -0.000 C 
BRANCH  19  20
ATOM     20  C   UNL     1      -7.613  -5.981  -7.581  1.00  0.00    -0.000 C 
BRANCH  20  21
ATOM     21  C   UNL     1      -7.364  -5.922  -6.058  1.00  0.00    -0.000 C 
BRANCH  21  22
ATOM     22  C   UNL     1      -5.915  -6.270  -5.684  1.00  0.00    -0.000 C 
BRANCH  22  23
ATOM     23  C   UNL     1      -4.944  -5.191  -6.180  1.00  0.00    -0.000 C 
BRANCH  23  24
ATOM     24  C   UNL     1      -3.511  -5.488  -5.716  1.00  0.00    -0.000 C 
BRANCH  24  25
ATOM     25  C   UNL     1      -2.746  -4.217  -5.318  1.00  0.00    -0.003 C 
ATOM     26  C   UNL     1      -3.574  -2.947  -5.508  1.00  0.00     0.004 C 
ENDBRANCH  24  25
ENDBRANCH  23  24
ENDBRANCH  22  23
ENDBRANCH  21  22
ENDBRANCH  20  21
ENDBRANCH  19  20
ENDBRANCH  18  19
ENDBRANCH  17  18
ENDBRANCH  16  17
ENDBRANCH  15  16
ENDBRANCH   1  15
TORSDOF 22
ENDMDL
MODEL 3
REMARK VINA RESULT:    -1.968      4.155     10.795
REMARK INTER + INTRA:          -5.814
REMARK INTER:                  -4.240
REMARK INTRA:                  -1.574
REMARK UNBOUND:                -1.314
REMARK SMILES CCCCCCCCCCCCCCCCCCCCCCCC(=O)[O-]
REMARK SMILES IDX 13 1 14 2 15 3 16 4 17 5 18 6 19 7 20 8 21 9 22 10 23 11
REMARK SMILES IDX 24 12 25 13 26 14 12 15 11 16 10 17 9 18 8 19 7 20 6 21 5 22
REMARK SMILES IDX 4 23 3 24 2 25 1 26
REMARK H PARENT
REMARK Flexibility Score: inf
ROOT
ATOM      1  C   UNL     1     -10.308  -4.468  -3.596  1.00  0.00     0.000 C 
ENDROOT
BRANCH   1   2
ATOM      2  C   UNL     1     -10.654  -3.939  -2.194  1.00  0.00     0.000 C 
BRANCH   2   3
ATOM      3  C   UNL     1      -9.951  -2.609  -1.874  1.00  0.00     0.000 C 
BRANCH   3   4
ATOM      4  C   UNL     1      -8.462  -2.793  -1.531  1.00  0.00     0.000 C 
BRANCH   4   5
ATOM      5  C   UNL     1      -7.692  -1.462  -1.524  1.00  0.00     0.000 C 
BRANCH   5   6
ATOM      6  C   UNL     1      -8.418  -0.362  -0.733  1.00  0.00     0.000 C 
BRANCH   6   7
ATOM      7  C   UNL     1      -7.675   0.985  -0.768  1.00  0.00     0.000 C 
BRANCH   7   8
ATOM      8  C   UNL     1      -8.600   2.202  -0.549  1.00  0.00     0.000 C 
BRANCH   8   9
ATOM      9  C   UNL     1      -7.996   3.223   0.431  1.00  0.00     0.000 C 
BRANCH   9  10
ATOM     10  C   UNL     1      -8.770   4.551   0.458  1.00  0.00     0.006 C 
BRANCH  10  11
ATOM     11  C   UNL     1      -8.941   5.166  -0.937  1.00  0.00     0.053 C 
BRANCH  11  12
ATOM     12  C   UNL     1      -8.971   6.659  -0.853  1.00  0.00     0.041 C 
ATOM     13  O   UNL     1      -8.876   7.232   0.264  1.00  0.00    -0.550 OA
ATOM     14  O   UNL     1      -9.071   7.420  -2.011  1.00  0.00    -0.550 OA
ENDBRANCH  11  12
ENDBRANCH  10  11
ENDBRANCH   9  10
ENDBRANCH   8   9
ENDBRANCH   7   8
ENDBRANCH   6   7
ENDBRANCH   5   6
ENDBRANCH   4   5
ENDBRANCH   3   4
ENDBRANCH   2   3
ENDBRANCH   1   2
BRANCH   1  15
ATOM     15  C   UNL     1     -11.096  -3.756  -4.712  1.00  0.00     0.000 C 
BRANCH  15  16
ATOM     16  C   UNL     1     -11.118  -4.490  -6.067  1.00  0.00     0.000 C 
BRANCH  16  17
ATOM     17  C   UNL     1     -10.740  -3.625  -7.286  1.00  0.00     0.000 C 
BRANCH  17  18
ATOM     18  C   UNL     1     -10.180  -4.406  -8.493  1.00  0.00    -0.000 C 
BRANCH  18  19
ATOM     19  C   UNL     1      -8.715  -4.858  -8.351  1.00  0.00    -0.000 C 
BRANCH  19  20
ATOM     20  C   UNL     1      -8.470  -6.356  -8.615  1.00  0.00    -0.000 C 
BRANCH  20  21
ATOM     21  C   UNL     1      -9.381  -7.290  -7.789  1.00  0.00    -0.000 C 
BRANCH  21  22
ATOM     22  C   UNL     1      -9.374  -6.947  -6.291  1.00  0.00    -0.000 C 
BRANCH  22  23
ATOM     23  C   UNL     1      -8.083  -7.434  -5.622  1.00  0.00    -0.000 C 
BRANCH  23  24
ATOM     24  C   UNL     1      -7.255  -6.250  -5.100  1.00  0.00    -0.000 C 
BRANCH  24  25
ATOM     25  C   UNL     1      -5.804  -6.281  -5.603  1.00  0.00    -0.003 C 
ATOM     26  C   UNL     1      -5.480  -5.120  -6.543  1.00  0.00     0.004 C 
ENDBRANCH  24  25
ENDBRANCH  23  24
ENDBRANCH  22  23
ENDBRANCH  21  22
ENDBRANCH  20  21
ENDBRANCH  19  20
ENDBRANCH  18  19
ENDBRANCH  17  18
ENDBRANCH  16  17
ENDBRANCH  15  16
ENDBRANCH   1  15
TORSDOF 22
ENDMDL
MODEL 4
REMARK VINA RESULT:    -1.602      1.947      2.738
REMARK INTER + INTRA:          -4.976
REMARK INTER:                  -3.597
REMARK INTRA:                  -1.378
REMARK UNBOUND:                -1.314
REMARK SMILES CCCCCCCCCCCCCCCCCCCCCCCC(=O)[O-]
REMARK SMILES IDX 13 1 14 2 15 3 16 4 17 5 18 6 19 7 20 8 21 9 22 10 23 11
REMARK SMILES IDX 24 12 25 13 26 14 12 15 11 16 10 17 9 18 8 19 7 20 6 21 5 22
REMARK SMILES IDX 4 23 3 24 2 25 1 26
REMARK H PARENT
REMARK Flexibility Score: inf
ROOT
ATOM      1  C   UNL     1     -10.844  -3.601  -3.312  1.00  0.00     0.000 C 
ENDROOT
BRANCH   1   2
ATOM      2  C   UNL     1     -11.115  -4.879  -4.124  1.00  0.00     0.000 C 
BRANCH   2   3
ATOM      3  C   UNL     1     -10.878  -4.684  -5.631  1.00  0.00     0.000 C 
BRANCH   3   4
ATOM      4  C   UNL     1     -10.770  -6.017  -6.393  1.00  0.00     0.000 C 
BRANCH   4   5
ATOM      5  C   UNL     1      -9.825  -5.928  -7.602  1.00  0.00     0.000 C 
BRANCH   5   6
ATOM      6  C   UNL     1      -8.615  -6.868  -7.478  1.00  0.00     0.000 C 
BRANCH   6   7
ATOM      7  C   UNL     1      -8.276  -7.211  -6.018  1.00  0.00     0.000 C 
BRANCH   7   8
ATOM      8  C   UNL     1      -7.251  -6.247  -5.383  1.00  0.00     0.000 C 
BRANCH   8   9
ATOM      9  C   UNL     1      -6.155  -5.826  -6.378  1.00  0.00     0.000 C 
BRANCH   9  10
ATOM     10  C   UNL     1      -4.835  -5.452  -5.685  1.00  0.00     0.006 C 
BRANCH  10  11
ATOM     11  C   UNL     1      -4.201  -4.180  -6.263  1.00  0.00     0.053 C 
BRANCH  11  12
ATOM     12  C   UNL     1      -3.132  -3.665  -5.353  1.00  0.00     0.041 C 
ATOM     13  O   UNL     1      -2.001  -4.219  -5.328  1.00  0.00    -0.550 OA
ATOM     14  O   UNL     1      -3.372  -2.552  -4.556  1.00  0.00    -0.550 OA
ENDBRANCH  11  12
ENDBRANCH  10  11
ENDBRANCH   9  10
ENDBRANCH   8   9
ENDBRANCH   7   8
ENDBRANCH   6   7
ENDBRANCH   5   6
ENDBRANCH   4   5
ENDBRANCH   3   4
ENDBRANCH   2   3
ENDBRANCH   1   2
BRANCH   1  15
ATOM     15  C   UNL     1      -9.342  -3.354  -3.077  1.00  0.00     0.000 C 
BRANCH  15  16
ATOM     16  C   UNL     1      -8.840  -3.684  -1.658  1.00  0.00     0.000 C 
BRANCH  16  17
ATOM     17  C   UNL     1      -7.934  -2.613  -1.017  1.00  0.00     0.000 C 
BRANCH  17  18
ATOM     18  C   UNL     1      -8.194  -1.169  -1.492  1.00  0.00    -0.000 C 
BRANCH  18  19
ATOM     19  C   UNL     1      -7.573  -0.072  -0.607  1.00  0.00    -0.000 C 
BRANCH  19  20
ATOM     20  C   UNL     1      -7.858   1.370  -1.066  1.00  0.00    -0.000 C 
BRANCH  20  21
ATOM     21  C   UNL     1      -8.393   2.285   0.057  1.00  0.00    -0.000 C 
BRANCH  21  22
ATOM     22  C   UNL     1      -8.751   3.691  -0.448  1.00  0.00    -0.000 C 
BRANCH  22  23
ATOM     23  C   UNL     1      -8.776   4.701   0.706  1.00  0.00    -0.000 C 
BRANCH  23  24
ATOM     24  C   UNL     1      -8.683   6.140   0.179  1.00  0.00    -0.000 C 
BRANCH  24  25
ATOM     25  C   UNL     1      -9.085   6.251  -1.299  1.00  0.00    -0.003 C 
ATOM     26  C   UNL     1      -9.243   7.700  -1.761  1.00  0.00     0.004 C 
ENDBRANCH  24  25
ENDBRANCH  23  24
ENDBRANCH  22  23
ENDBRANCH  21  22
ENDBRANCH  20  21
ENDBRANCH  19  20
ENDBRANCH  18  19
ENDBRANCH  17  18
ENDBRANCH  16  17
ENDBRANCH  15  16
ENDBRANCH   1  15
TORSDOF 22
ENDMDL
MODEL 5
REMARK VINA RESULT:    -1.571      1.506      2.332
REMARK INTER + INTRA:          -4.906
REMARK INTER:                  -3.838
REMARK INTRA:                  -1.068
REMARK UNBOUND:                -1.314
REMARK SMILES CCCCCCCCCCCCCCCCCCCCCCCC(=O)[O-]
REMARK SMILES IDX 13 1 14 2 15 3 16 4 17 5 18 6 19 7 20 8 21 9 22 10 23 11
REMARK SMILES IDX 24 12 25 13 26 14 12 15 11 16 10 17 9 18 8 19 7 20 6 21 5 22
REMARK SMILES IDX 4 23 3 24 2 25 1 26
REMARK H PARENT
REMARK Flexibility Score: inf
ROOT
ATOM      1  C   UNL     1     -10.226  -3.148  -1.583  1.00  0.00     0.000 C 
ENDROOT
BRANCH   1   2
ATOM      2  C   UNL     1     -11.113  -2.744  -2.774  1.00  0.00     0.000 C 
BRANCH   2   3
ATOM      3  C   UNL     1     -10.561  -3.247  -4.119  1.00  0.00     0.000 C 
BRANCH   3   4
ATOM      4  C   UNL     1     -10.339  -4.770  -4.136  1.00  0.00     0.000 C 
BRANCH   4   5
ATOM      5  C   UNL     1     -11.125  -5.466  -5.258  1.00  0.00     0.000 C 
BRANCH   5   6
ATOM      6  C   UNL     1     -10.645  -6.905  -5.514  1.00  0.00     0.000 C 
BRANCH   6   7
ATOM      7  C   UNL     1     -10.777  -7.321  -6.989  1.00  0.00     0.000 C 
BRANCH   7   8
ATOM      8  C   UNL     1      -9.649  -6.765  -7.886  1.00  0.00     0.000 C 
BRANCH   8   9
ATOM      9  C   UNL     1      -8.276  -6.813  -7.192  1.00  0.00     0.000 C 
BRANCH   9  10
ATOM     10  C   UNL     1      -7.616  -5.429  -7.085  1.00  0.00     0.006 C 
BRANCH  10  11
ATOM     11  C   UNL     1      -6.133  -5.448  -7.481  1.00  0.00     0.053 C 
BRANCH  11  12
ATOM     12  C   UNL     1      -5.264  -5.428  -6.264  1.00  0.00     0.041 C 
ATOM     13  O   UNL     1      -4.544  -4.425  -6.017  1.00  0.00    -0.550 OA
ATOM     14  O   UNL     1      -5.273  -6.503  -5.383  1.00  0.00    -0.550 OA
ENDBRANCH  11  12
ENDBRANCH  10  11
ENDBRANCH   9  10
ENDBRANCH   8   9
ENDBRANCH   7   8
ENDBRANCH   6   7
ENDBRANCH   5   6
ENDBRANCH   4   5
ENDBRANCH   3   4
ENDBRANCH   2   3
ENDBRANCH   1   2
BRANCH   1  15
ATOM     15  C   UNL     1      -8.747  -3.322  -1.975  1.00  0.00     0.000 C 
BRANCH  15  16
ATOM     16  C   UNL     1      -7.761  -2.398  -1.235  1.00  0.00     0.000 C 
BRANCH  16  17
ATOM     17  C   UNL     1      -8.207  -0.927  -1.114  1.00  0.00     0.000 C 
BRANCH  17  18
ATOM     18  C   UNL     1      -7.075   0.112  -1.246  1.00  0.00    -0.000 C 
BRANCH  18  19
ATOM     19  C   UNL     1      -7.287   1.411  -0.446  1.00  0.00    -0.000 C 
BRANCH  19  20
ATOM     20  C   UNL     1      -8.717   1.979  -0.497  1.00  0.00    -0.000 C 
BRANCH  20  21
ATOM     21  C   UNL     1      -8.774   3.496  -0.781  1.00  0.00    -0.000 C 
BRANCH  21  22
ATOM     22  C   UNL     1      -8.442   4.340   0.459  1.00  0.00    -0.000 C 
BRANCH  22  23
ATOM     23  C   UNL     1      -8.887   5.796   0.268  1.00  0.00    -0.000 C 
BRANCH  23  24
ATOM     24  C   UNL     1      -9.223   6.079  -1.203  1.00  0.00    -0.000 C 
BRANCH  24  25
ATOM     25  C   UNL     1      -9.191   7.578  -1.536  1.00  0.00    -0.003 C 
ATOM     26  C   UNL     1      -8.840   8.444  -0.326  1.00  0.00     0.004 C 
ENDBRANCH  24  25
ENDBRANCH  23  24
ENDBRANCH  22  23
ENDBRANCH  21  22
ENDBRANCH  20  21
ENDBRANCH  19  20
ENDBRANCH  18  19
ENDBRANCH  17  18
ENDBRANCH  16  17
ENDBRANCH  15  16
ENDBRANCH   1  15
TORSDOF 22
ENDMDL
MODEL 6
REMARK VINA RESULT:    -1.402      1.531      2.807
REMARK INTER + INTRA:          -4.520
REMARK INTER:                  -3.875
REMARK INTRA:                  -0.645
REMARK UNBOUND:                -1.314
REMARK SMILES CCCCCCCCCCCCCCCCCCCCCCCC(=O)[O-]
REMARK SMILES IDX 13 1 14 2 15 3 16 4 17 5 18 6 19 7 20 8 21 9 22 10 23 11
REMARK SMILES IDX 24 12 25 13 26 14 12 15 11 16 10 17 9 18 8 19 7 20 6 21 5 22
REMARK SMILES IDX 4 23 3 24 2 25 1 26
REMARK H PARENT
REMARK Flexibility Score: inf
ROOT
ATOM      1  C   UNL     1      -9.557  -3.178  -1.336  1.00  0.00     0.000 C 
ENDROOT
BRANCH   1   2
ATOM      2  C   UNL     1     -10.982  -3.352  -1.891  1.00  0.00     0.000 C 
BRANCH   2   3
ATOM      3  C   UNL     1     -11.015  -3.406  -3.427  1.00  0.00     0.000 C 
BRANCH   3   4
ATOM      4  C   UNL     1     -10.019  -4.427  -4.007  1.00  0.00     0.000 C 
BRANCH   4   5
ATOM      5  C   UNL     1     -10.513  -5.048  -5.323  1.00  0.00     0.000 C 
BRANCH   5   6
ATOM      6  C   UNL     1      -9.802  -6.369  -5.659  1.00  0.00     0.000 C 
BRANCH   6   7
ATOM      7  C   UNL     1     -10.253  -6.961  -7.006  1.00  0.00     0.000 C 
BRANCH   7   8
ATOM      8  C   UNL     1     -11.036  -5.960  -7.883  1.00  0.00     0.000 C 
BRANCH   8   9
ATOM      9  C   UNL     1     -10.916  -6.283  -9.383  1.00  0.00     0.000 C 
BRANCH   9  10
ATOM     10  C   UNL     1      -9.487  -6.096  -9.919  1.00  0.00     0.006 C 
BRANCH  10  11
ATOM     11  C   UNL     1      -8.717  -4.993  -9.181  1.00  0.00     0.053 C 
BRANCH  11  12
ATOM     12  C   UNL     1      -7.315  -5.429  -8.900  1.00  0.00     0.041 C 
ATOM     13  O   UNL     1      -6.988  -5.806  -7.744  1.00  0.00    -0.550 OA
ATOM     14  O   UNL     1      -6.374  -5.450  -9.923  1.00  0.00    -0.550 OA
ENDBRANCH  11  12
ENDBRANCH  10  11
ENDBRANCH   9  10
ENDBRANCH   8   9
ENDBRANCH   7   8
ENDBRANCH   6   7
ENDBRANCH   5   6
ENDBRANCH   4   5
ENDBRANCH   3   4
ENDBRANCH   2   3
ENDBRANCH   1   2
BRANCH   1  15
ATOM     15  C   UNL     1      -9.010  -1.753  -1.537  1.00  0.00     0.000 C 
BRANCH  15  16
ATOM     16  C   UNL     1      -7.589  -1.515  -0.991  1.00  0.00     0.000 C 
BRANCH  16  17
ATOM     17  C   UNL     1      -6.764  -0.456  -1.750  1.00  0.00     0.000 C 
BRANCH  17  18
ATOM     18  C   UNL     1      -6.906   0.986  -1.220  1.00  0.00    -0.000 C 
BRANCH  18  19
ATOM     19  C   UNL     1      -8.211   1.271  -0.453  1.00  0.00    -0.000 C 
BRANCH  19  20
ATOM     20  C   UNL     1      -8.640   2.750  -0.430  1.00  0.00    -0.000 C 
BRANCH  20  21
ATOM     21  C   UNL     1      -8.106   3.534   0.788  1.00  0.00    -0.000 C 
BRANCH  21  22
ATOM     22  C   UNL     1      -8.955   4.773   1.111  1.00  0.00    -0.000 C 
BRANCH  22  23
ATOM     23  C   UNL     1      -8.517   5.975   0.265  1.00  0.00    -0.000 C 
BRANCH  23  24
ATOM     24  C   UNL     1      -8.935   5.796  -1.202  1.00  0.00    -0.000 C 
BRANCH  24  25
ATOM     25  C   UNL     1      -9.308   7.126  -1.873  1.00  0.00    -0.003 C 
ATOM     26  C   UNL     1      -9.036   8.336  -0.979  1.00  0.00     0.004 C 
ENDBRANCH  24  25
ENDBRANCH  23  24
ENDBRANCH  22  23
ENDBRANCH  21  22
ENDBRANCH  20  21
ENDBRANCH  19  20
ENDBRANCH  18  19
ENDBRANCH  17  18
ENDBRANCH  16  17
ENDBRANCH  15  16
ENDBRANCH   1  15
TORSDOF 22
ENDMDL
MODEL 7
REMARK VINA RESULT:    -0.867      3.905      9.490
REMARK INTER + INTRA:          -3.297
REMARK INTER:                  -1.723
REMARK INTRA:                  -1.574
REMARK UNBOUND:                -1.314
REMARK SMILES CCCCCCCCCCCCCCCCCCCCCCCC(=O)[O-]
REMARK SMILES IDX 13 1 14 2 15 3 16 4 17 5 18 6 19 7 20 8 21 9 22 10 23 11
REMARK SMILES IDX 24 12 25 13 26 14 12 15 11 16 10 17 9 18 8 19 7 20 6 21 5 22
REMARK SMILES IDX 4 23 3 24 2 25 1 26
REMARK H PARENT
REMARK Flexibility Score: inf
ROOT
ATOM      1  C   UNL     1     -10.912  -5.700  -4.732  1.00  0.00     0.000 C 
ENDROOT
BRANCH   1   2
ATOM      2  C   UNL     1     -11.105  -4.930  -3.414  1.00  0.00     0.000 C 
BRANCH   2   3
ATOM      3  C   UNL     1     -10.966  -3.409  -3.593  1.00  0.00     0.000 C 
BRANCH   3   4
ATOM      4  C   UNL     1     -10.843  -2.663  -2.252  1.00  0.00     0.000 C 
BRANCH   4   5
ATOM      5  C   UNL     1     -10.040  -3.458  -1.209  1.00  0.00     0.000 C 
BRANCH   5   6
ATOM      6  C   UNL     1      -8.533  -3.159  -1.268  1.00  0.00     0.000 C 
BRANCH   6   7
ATOM      7  C   UNL     1      -8.227  -1.758  -1.825  1.00  0.00     0.000 C 
BRANCH   7   8
ATOM      8  C   UNL     1      -7.728  -0.767  -0.751  1.00  0.00     0.000 C 
BRANCH   8   9
ATOM      9  C   UNL     1      -8.637   0.469  -0.633  1.00  0.00     0.000 C 
BRANCH   9  10
ATOM     10  C   UNL     1      -7.871   1.789  -0.820  1.00  0.00     0.006 C 
BRANCH  10  11
ATOM     11  C   UNL     1      -8.023   2.737   0.377  1.00  0.00     0.053 C 
BRANCH  11  12
ATOM     12  C   UNL     1      -8.678   4.014  -0.043  1.00  0.00     0.041 C 
ATOM     13  O   UNL     1      -9.231   4.099  -1.172  1.00  0.00    -0.550 OA
ATOM     14  O   UNL     1      -8.708   5.100   0.823  1.00  0.00    -0.550 OA
ENDBRANCH  11  12
ENDBRANCH  10  11
ENDBRANCH   9  10
ENDBRANCH   8   9
ENDBRANCH   7   8
ENDBRANCH   6   7
ENDBRANCH   5   6
ENDBRANCH   4   5
ENDBRANCH   3   4
ENDBRANCH   2   3
ENDBRANCH   1   2
BRANCH   1  15
ATOM     15  C   UNL     1     -11.038  -4.797  -5.973  1.00  0.00     0.000 C 
BRANCH  15  16
ATOM     16  C   UNL     1     -10.799  -5.502  -7.322  1.00  0.00     0.000 C 
BRANCH  16  17
ATOM     17  C   UNL     1      -9.733  -4.848  -8.224  1.00  0.00     0.000 C 
BRANCH  17  18
ATOM     18  C   UNL     1      -8.696  -5.821  -8.821  1.00  0.00    -0.000 C 
BRANCH  18  19
ATOM     19  C   UNL     1      -7.410  -5.990  -7.992  1.00  0.00    -0.000 C 
BRANCH  19  20
ATOM     20  C   UNL     1      -7.635  -6.228  -6.487  1.00  0.00    -0.000 C 
BRANCH  20  21
ATOM     21  C   UNL     1      -6.339  -6.174  -5.649  1.00  0.00    -0.000 C 
BRANCH  21  22
ATOM     22  C   UNL     1      -5.090  -5.936  -6.509  1.00  0.00    -0.000 C 
BRANCH  22  23
ATOM     23  C   UNL     1      -3.999  -5.215  -5.708  1.00  0.00    -0.000 C 
BRANCH  23  24
ATOM     24  C   UNL     1      -4.259  -3.702  -5.664  1.00  0.00    -0.000 C 
BRANCH  24  25
ATOM     25  C   UNL     1      -3.001  -2.899  -5.301  1.00  0.00    -0.003 C 
ATOM     26  C   UNL     1      -3.047  -1.463  -5.821  1.00  0.00     0.004 C 
ENDBRANCH  24  25
ENDBRANCH  23  24
ENDBRANCH  22  23
ENDBRANCH  21  22
ENDBRANCH  20  21
ENDBRANCH  19  20
ENDBRANCH  18  19
ENDBRANCH  17  18
ENDBRANCH  16  17
ENDBRANCH  15  16
ENDBRANCH   1  15
TORSDOF 22
ENDMDL
MODEL 8
REMARK VINA RESULT:    -0.807      4.308     11.179
REMARK INTER + INTRA:          -3.158
REMARK INTER:                  -2.292
REMARK INTRA:                  -0.866
REMARK UNBOUND:                -1.314
REMARK SMILES CCCCCCCCCCCCCCCCCCCCCCCC(=O)[O-]
REMARK SMILES IDX 13 1 14 2 15 3 16 4 17 5 18 6 19 7 20 8 21 9 22 10 23 11
REMARK SMILES IDX 24 12 25 13 26 14 12 15 11 16 10 17 9 18 8 19 7 20 6 21 5 22
REMARK SMILES IDX 4 23 3 24 2 25 1 26
REMARK H PARENT
REMARK Flexibility Score: inf
ROOT
ATOM      1  C   UNL     1      -9.854  -2.895  -1.314  1.00  0.00     0.000 C 
ENDROOT
BRANCH   1   2
ATOM      2  C   UNL     1      -8.381  -3.155  -1.671  1.00  0.00     0.000 C 
BRANCH   2   3
ATOM      3  C   UNL     1      -7.795  -2.070  -2.590  1.00  0.00     0.000 C 
BRANCH   3   4
ATOM      4  C   UNL     1      -6.974  -1.020  -1.820  1.00  0.00     0.000 C 
BRANCH   4   5
ATOM      5  C   UNL     1      -7.838  -0.188  -0.859  1.00  0.00     0.000 C 
BRANCH   5   6
ATOM      6  C   UNL     1      -7.542   1.318  -0.949  1.00  0.00     0.000 C 
BRANCH   6   7
ATOM      7  C   UNL     1      -8.164   2.116   0.210  1.00  0.00     0.000 C 
BRANCH   7   8
ATOM      8  C   UNL     1      -8.556   3.558  -0.179  1.00  0.00     0.000 C 
BRANCH   8   9
ATOM      9  C   UNL     1      -8.628   4.492   1.042  1.00  0.00     0.000 C 
BRANCH   9  10
ATOM     10  C   UNL     1      -8.966   5.942   0.662  1.00  0.00     0.006 C 
BRANCH  10  11
ATOM     11  C   UNL     1      -8.987   6.167  -0.855  1.00  0.00     0.053 C 
BRANCH  11  12
ATOM     12  C   UNL     1      -8.981   7.629  -1.170  1.00  0.00     0.041 C 
ATOM     13  O   UNL     1      -8.861   8.475  -0.244  1.00  0.00    -0.550 OA
ATOM     14  O   UNL     1      -9.073   8.059  -2.488  1.00  0.00    -0.550 OA
ENDBRANCH  11  12
ENDBRANCH  10  11
ENDBRANCH   9  10
ENDBRANCH   8   9
ENDBRANCH   7   8
ENDBRANCH   6   7
ENDBRANCH   5   6
ENDBRANCH   4   5
ENDBRANCH   3   4
ENDBRANCH   2   3
ENDBRANCH   1   2
BRANCH   1  15
ATOM     15  C   UNL     1     -10.692  -4.186  -1.264  1.00  0.00     0.000 C 
BRANCH  15  16
ATOM     16  C   UNL     1     -11.121  -4.741  -2.637  1.00  0.00     0.000 C 
BRANCH  16  17
ATOM     17  C   UNL     1     -10.772  -3.847  -3.843  1.00  0.00     0.000 C 
BRANCH  17  18
ATOM     18  C   UNL     1     -10.892  -4.531  -5.220  1.00  0.00    -0.000 C 
BRANCH  18  19
ATOM     19  C   UNL     1      -9.552  -4.904  -5.880  1.00  0.00    -0.000 C 
BRANCH  19  20
ATOM     20  C   UNL     1      -9.319  -6.415  -6.069  1.00  0.00    -0.000 C 
BRANCH  20  21
ATOM     21  C   UNL     1      -8.769  -6.790  -7.462  1.00  0.00    -0.000 C 
BRANCH  21  22
ATOM     22  C   UNL     1      -7.830  -5.717  -8.034  1.00  0.00    -0.000 C 
BRANCH  22  23
ATOM     23  C   UNL     1      -8.283  -5.277  -9.431  1.00  0.00    -0.000 C 
BRANCH  23  24
ATOM     24  C   UNL     1      -9.257  -4.093  -9.344  1.00  0.00    -0.000 C 
BRANCH  24  25
ATOM     25  C   UNL     1     -10.693  -4.483  -9.725  1.00  0.00    -0.003 C 
ATOM     26  C   UNL     1     -10.996  -5.956  -9.456  1.00  0.00     0.004 C 
ENDBRANCH  24  25
ENDBRANCH  23  24
ENDBRANCH  22  23
ENDBRANCH  21  22
ENDBRANCH  20  21
ENDBRANCH  19  20
ENDBRANCH  18  19
ENDBRANCH  17  18
ENDBRANCH  16  17
ENDBRANCH  15  16
ENDBRANCH   1  15
TORSDOF 22
ENDMDL
MODEL 9
REMARK VINA RESULT:    -0.249      3.285      9.536
REMARK INTER + INTRA:          -1.883
REMARK INTER:                  -0.499
REMARK INTRA:                  -1.384
REMARK UNBOUND:                -1.314
REMARK SMILES CCCCCCCCCCCCCCCCCCCCCCCC(=O)[O-]
REMARK SMILES IDX 13 1 14 2 15 3 16 4 17 5 18 6 19 7 20 8 21 9 22 10 23 11
REMARK SMILES IDX 24 12 25 13 26 14 12 15 11 16 10 17 9 18 8 19 7 20 6 21 5 22
REMARK SMILES IDX 4 23 3 24 2 25 1 26
REMARK H PARENT
REMARK Flexibility Score: inf
ROOT
ATOM      1  C   UNL     1     -10.380  -5.733  -5.494  1.00  0.00     0.000 C 
ENDROOT
BRANCH   1   2
ATOM      2  C   UNL     1     -11.004  -5.362  -4.138  1.00  0.00     0.000 C 
BRANCH   2   3
ATOM      3  C   UNL     1     -11.107  -3.841  -3.932  1.00  0.00     0.000 C 
BRANCH   3   4
ATOM      4  C   UNL     1     -10.467  -3.376  -2.611  1.00  0.00     0.000 C 
BRANCH   4   5
ATOM      5  C   UNL     1      -9.329  -4.302  -2.153  1.00  0.00     0.000 C 
BRANCH   5   6
ATOM      6  C   UNL     1      -8.249  -3.560  -1.348  1.00  0.00     0.000 C 
BRANCH   6   7
ATOM      7  C   UNL     1      -8.649  -2.114  -1.010  1.00  0.00     0.000 C 
BRANCH   7   8
ATOM      8  C   UNL     1      -7.582  -1.072  -1.411  1.00  0.00     0.000 C 
BRANCH   8   9
ATOM      9  C   UNL     1      -7.937   0.343  -0.921  1.00  0.00     0.000 C 
BRANCH   9  10
ATOM     10  C   UNL     1      -6.706   1.255  -0.799  1.00  0.00     0.006 C 
BRANCH  10  11
ATOM     11  C   UNL     1      -5.666   0.996  -1.897  1.00  0.00     0.053 C 
BRANCH  11  12
ATOM     12  C   UNL     1      -4.298   0.867  -1.306  1.00  0.00     0.041 C 
ATOM     13  O   UNL     1      -3.807   1.814  -0.635  1.00  0.00    -0.550 OA
ATOM     14  O   UNL     1      -3.578  -0.310  -1.466  1.00  0.00    -0.550 OA
ENDBRANCH  11  12
ENDBRANCH  10  11
ENDBRANCH   9  10
ENDBRANCH   8   9
ENDBRANCH   7   8
ENDBRANCH   6   7
ENDBRANCH   5   6
ENDBRANCH   4   5
ENDBRANCH   3   4
ENDBRANCH   2   3
ENDBRANCH   1   2
BRANCH   1  15
ATOM     15  C   UNL     1     -10.976  -4.928  -6.663  1.00  0.00     0.000 C 
BRANCH  15  16
ATOM     16  C   UNL     1     -11.125  -5.706  -7.985  1.00  0.00     0.000 C 
BRANCH  16  17
ATOM     17  C   UNL     1     -11.032  -4.850  -9.264  1.00  0.00     0.000 C 
BRANCH  17  18
ATOM     18  C   UNL     1      -9.764  -5.078 -10.112  1.00  0.00    -0.000 C 
BRANCH  18  19
ATOM     19  C   UNL     1      -8.490  -4.403  -9.571  1.00  0.00    -0.000 C 
BRANCH  19  20
ATOM     20  C   UNL     1      -7.292  -5.348  -9.363  1.00  0.00    -0.000 C 
BRANCH  20  21
ATOM     21  C   UNL     1      -7.601  -6.549  -8.443  1.00  0.00    -0.000 C 
BRANCH  21  22
ATOM     22  C   UNL     1      -7.838  -6.129  -6.984  1.00  0.00    -0.000 C 
BRANCH  22  23
ATOM     23  C   UNL     1      -7.187  -7.122  -6.013  1.00  0.00    -0.000 C 
BRANCH  23  24
ATOM     24  C   UNL     1      -6.137  -6.424  -5.136  1.00  0.00    -0.000 C 
BRANCH  24  25
ATOM     25  C   UNL     1      -5.263  -5.444  -5.933  1.00  0.00    -0.003 C 
ATOM     26  C   UNL     1      -3.776  -5.788  -5.862  1.00  0.00     0.004 C 
ENDBRANCH  24  25
ENDBRANCH  23  24
ENDBRANCH  22  23
ENDBRANCH  21  22
ENDBRANCH  20  21
ENDBRANCH  19  20
ENDBRANCH  18  19
ENDBRANCH  17  18
ENDBRANCH  16  17
ENDBRANCH  15  16
ENDBRANCH   1  15
TORSDOF 22
ENDMDL
