MODEL 1
REMARK VINA RESULT:    -6.286      0.000      0.000
REMARK INTER + INTRA:          -6.237
REMARK INTER:                  -6.837
REMARK INTRA:                   0.600
REMARK UNBOUND:                 0.600
REMARK SMILES C[C@H]1[C@@H](C)CC[C@]2(C(=O)[O-])CC[C@]3(C)C(=CC[C@@H]4[C@@]5(C)CC[C@@H](O)C(C)(C)[C@H]5CC[C@@]43C)[C@@H]12
REMARK SMILES IDX 7 1 6 2 11 3 33 4 5 5 12 6 15 7 2 8 3 9 13 10 16 11 1 12
REMARK SMILES IDX 4 13 14 14 31 15 17 16 18 17 30 18 32 19 19 20 29 21 28 22
REMARK SMILES IDX 21 23 20 24 25 25 22 26 23 27 26 28 27 29 8 30 9 31 10 32
REMARK SMILES IDX 24 33
REMARK H PARENT 24 34
REMARK Flexibility Score: inf
ROOT
ATOM      1  C   UNL     1      -5.382  91.418 -17.119  1.00  0.00     0.017 C 
ATOM      2  C   UNL     1      -5.508  91.250 -18.659  1.00  0.00     0.014 C 
ATOM      3  C   UNL     1      -5.478  90.020 -16.488  1.00  0.00     0.014 C 
ATOM      4  C   UNL     1      -6.594  92.258 -16.588  1.00  0.00     0.030 C 
ATOM      5  C   UNL     1      -5.610  92.591 -19.392  1.00  0.00     0.004 C 
ATOM      6  C   UNL     1      -5.360  90.071 -14.961  1.00  0.00     0.013 C 
ATOM      7  C   UNL     1      -6.667  92.284 -15.040  1.00  0.00    -0.063 C 
ATOM      8  C   UNL     1      -6.767  93.624 -17.354  1.00  0.00    -0.003 C 
ATOM      9  C   UNL     1      -6.827  93.382 -18.889  1.00  0.00    -0.011 C 
ATOM     10  C   UNL     1      -6.404  91.003 -14.224  1.00  0.00    -0.006 C 
ATOM     11  C   UNL     1      -7.317  93.289 -14.423  1.00  0.00    -0.027 C 
ATOM     12  C   UNL     1      -5.748  94.717 -16.960  1.00  0.00     0.008 C 
ATOM     13  C   UNL     1      -7.007  94.680 -19.694  1.00  0.00     0.008 C 
ATOM     14  C   UNL     1      -7.751  90.217 -14.199  1.00  0.00     0.017 C 
ATOM     15  C   UNL     1      -5.930  91.368 -12.717  1.00  0.00    -0.020 C 
ATOM     16  C   UNL     1      -7.480  93.441 -12.945  1.00  0.00     0.032 C 
ATOM     17  C   UNL     1      -7.006  92.285 -11.998  1.00  0.00     0.006 C 
ATOM     18  C   UNL     1      -4.608  92.188 -12.725  1.00  0.00     0.008 C 
ATOM     19  C   UNL     1      -5.718  90.026 -11.932  1.00  0.00     0.012 C 
ATOM     20  C   UNL     1      -6.626  92.892 -10.551  1.00  0.00    -0.025 C 
ATOM     21  C   UNL     1      -4.166  92.711 -11.350  1.00  0.00     0.005 C 
ATOM     22  C   UNL     1      -5.208  93.600 -10.607  1.00  0.00     0.003 C 
ATOM     23  C   UNL     1      -6.619  91.810  -9.421  1.00  0.00     0.010 C 
ATOM     24  C   UNL     1      -7.776  93.893 -10.174  1.00  0.00     0.012 C 
ATOM     25  C   UNL     1      -4.651  94.096  -9.195  1.00  0.00    -0.006 C 
ATOM     26  C   UNL     1      -6.159  92.327  -8.044  1.00  0.00     0.033 C 
ATOM     27  C   UNL     1      -4.769  92.987  -8.092  1.00  0.00     0.120 C 
ATOM     28  C   UNL     1      -3.159  94.536  -9.295  1.00  0.00     0.014 C 
ATOM     29  C   UNL     1      -5.397  95.378  -8.721  1.00  0.00     0.014 C 
ENDROOT
BRANCH   1  30
ATOM     30  C   UNL     1      -4.008  91.998 -16.788  1.00  0.00     0.048 C 
ATOM     31  O   UNL     1      -3.856  92.792 -15.824  1.00  0.00    -0.550 OA
ATOM     32  O   UNL     1      -2.876  91.501 -17.431  1.00  0.00    -0.550 OA
ENDBRANCH   1  30
BRANCH  27  33
ATOM     33  O   UNL     1      -3.811  91.974  -8.278  1.00  0.00    -0.393 OA
ATOM     34  H   UNL     1      -4.274  91.100  -8.163  1.00  0.00     0.210 HD
ENDBRANCH  27  33
TORSDOF 2
ENDMDL
MODEL 2
REMARK VINA RESULT:    -6.159      8.653     12.065
REMARK INTER + INTRA:          -6.099
REMARK INTER:                  -6.715
REMARK INTRA:                   0.616
REMARK UNBOUND:                 0.600
REMARK SMILES C[C@H]1[C@@H](C)CC[C@]2(C(=O)[O-])CC[C@]3(C)C(=CC[C@@H]4[C@@]5(C)CC[C@@H](O)C(C)(C)[C@H]5CC[C@@]43C)[C@@H]12
REMARK SMILES IDX 7 1 6 2 11 3 33 4 5 5 12 6 15 7 2 8 3 9 13 10 16 11 1 12
REMARK SMILES IDX 4 13 14 14 31 15 17 16 18 17 30 18 32 19 19 20 29 21 28 22
REMARK SMILES IDX 21 23 20 24 25 25 22 26 23 27 26 28 27 29 8 30 9 31 10 32
REMARK SMILES IDX 24 33
REMARK H PARENT 24 34
REMARK Flexibility Score: inf
ROOT
ATOM      1  C   UNL     1      -5.879  85.997  -8.260  1.00  0.00     0.017 C 
ATOM      2  C   UNL     1      -4.352  86.290  -8.262  1.00  0.00     0.014 C 
ATOM      3  C   UNL     1      -6.569  87.120  -7.472  1.00  0.00     0.014 C 
ATOM      4  C   UNL     1      -6.148  84.653  -7.500  1.00  0.00     0.030 C 
ATOM      5  C   UNL     1      -3.533  85.144  -8.863  1.00  0.00     0.004 C 
ATOM      6  C   UNL     1      -8.089  86.930  -7.412  1.00  0.00     0.013 C 
ATOM      7  C   UNL     1      -7.659  84.399  -7.258  1.00  0.00    -0.063 C 
ATOM      8  C   UNL     1      -5.283  83.458  -8.053  1.00  0.00    -0.003 C 
ATOM      9  C   UNL     1      -3.777  83.846  -8.079  1.00  0.00    -0.011 C 
ATOM     10  C   UNL     1      -8.583  85.551  -6.816  1.00  0.00    -0.006 C 
ATOM     11  C   UNL     1      -8.096  83.141  -7.059  1.00  0.00    -0.027 C 
ATOM     12  C   UNL     1      -5.774  82.876  -9.397  1.00  0.00     0.008 C 
ATOM     13  C   UNL     1      -2.875  82.714  -8.599  1.00  0.00     0.008 C 
ATOM     14  C   UNL     1      -8.431  85.664  -5.268  1.00  0.00     0.017 C 
ATOM     15  C   UNL     1     -10.123  85.237  -7.216  1.00  0.00    -0.020 C 
ATOM     16  C   UNL     1      -9.515  82.745  -6.801  1.00  0.00     0.032 C 
ATOM     17  C   UNL     1     -10.596  83.860  -6.587  1.00  0.00     0.006 C 
ATOM     18  C   UNL     1     -10.285  85.081  -8.755  1.00  0.00     0.008 C 
ATOM     19  C   UNL     1     -11.012  86.425  -6.706  1.00  0.00     0.012 C 
ATOM     20  C   UNL     1     -12.046  83.298  -7.019  1.00  0.00    -0.025 C 
ATOM     21  C   UNL     1     -11.680  84.629  -9.213  1.00  0.00     0.005 C 
ATOM     22  C   UNL     1     -12.184  83.290  -8.599  1.00  0.00     0.003 C 
ATOM     23  C   UNL     1     -13.225  84.121  -6.402  1.00  0.00     0.010 C 
ATOM     24  C   UNL     1     -12.165  81.858  -6.403  1.00  0.00     0.012 C 
ATOM     25  C   UNL     1     -13.636  82.907  -9.142  1.00  0.00    -0.006 C 
ATOM     26  C   UNL     1     -14.626  83.682  -6.873  1.00  0.00     0.033 C 
ATOM     27  C   UNL     1     -14.770  83.703  -8.405  1.00  0.00     0.120 C 
ATOM     28  C   UNL     1     -13.760  83.175 -10.672  1.00  0.00     0.014 C 
ATOM     29  C   UNL     1     -13.900  81.380  -8.999  1.00  0.00     0.014 C 
ENDROOT
BRANCH   1  30
ATOM     30  C   UNL     1      -6.398  86.033  -9.697  1.00  0.00     0.048 C 
ATOM     31  O   UNL     1      -7.228  85.182 -10.107  1.00  0.00    -0.550 OA
ATOM     32  O   UNL     1      -6.105  87.127 -10.509  1.00  0.00    -0.550 OA
ENDBRANCH   1  30
BRANCH  27  33
ATOM     33  O   UNL     1     -14.808  85.046  -8.822  1.00  0.00    -0.393 OA
ATOM     34  H   UNL     1     -14.440  85.600  -8.081  1.00  0.00     0.210 HD
ENDBRANCH  27  33
TORSDOF 2
ENDMDL
MODEL 3
REMARK VINA RESULT:    -6.153      4.588      9.158
REMARK INTER + INTRA:          -6.093
REMARK INTER:                  -6.696
REMARK INTRA:                   0.603
REMARK UNBOUND:                 0.600
REMARK SMILES C[C@H]1[C@@H](C)CC[C@]2(C(=O)[O-])CC[C@]3(C)C(=CC[C@@H]4[C@@]5(C)CC[C@@H](O)C(C)(C)[C@H]5CC[C@@]43C)[C@@H]12
REMARK SMILES IDX 7 1 6 2 11 3 33 4 5 5 12 6 15 7 2 8 3 9 13 10 16 11 1 12
REMARK SMILES IDX 4 13 14 14 31 15 17 16 18 17 30 18 32 19 19 20 29 21 28 22
REMARK SMILES IDX 21 23 20 24 25 25 22 26 23 27 26 28 27 29 8 30 9 31 10 32
REMARK SMILES IDX 24 33
REMARK H PARENT 24 34
REMARK Flexibility Score: inf
ROOT
ATOM      1  C   UNL     1      -5.340  86.474  -6.483  1.00  0.00     0.017 C 
ATOM      2  C   UNL     1      -5.117  85.413  -5.368  1.00  0.00     0.014 C 
ATOM      3  C   UNL     1      -6.367  87.490  -5.961  1.00  0.00     0.014 C 
ATOM      4  C   UNL     1      -5.963  85.779  -7.742  1.00  0.00     0.030 C 
ATOM      5  C   UNL     1      -4.248  84.241  -5.836  1.00  0.00     0.004 C 
ATOM      6  C   UNL     1      -6.659  88.590  -6.987  1.00  0.00     0.013 C 
ATOM      7  C   UNL     1      -6.423  86.798  -8.816  1.00  0.00    -0.063 C 
ATOM      8  C   UNL     1      -5.127  84.533  -8.224  1.00  0.00    -0.003 C 
ATOM      9  C   UNL     1      -4.895  83.547  -7.044  1.00  0.00    -0.011 C 
ATOM     10  C   UNL     1      -7.154  88.091  -8.404  1.00  0.00    -0.006 C 
ATOM     11  C   UNL     1      -6.536  86.404 -10.099  1.00  0.00    -0.027 C 
ATOM     12  C   UNL     1      -3.823  84.883  -8.975  1.00  0.00     0.008 C 
ATOM     13  C   UNL     1      -4.093  82.300  -7.453  1.00  0.00     0.008 C 
ATOM     14  C   UNL     1      -8.656  87.707  -8.232  1.00  0.00     0.017 C 
ATOM     15  C   UNL     1      -6.984  89.235  -9.541  1.00  0.00    -0.020 C 
ATOM     16  C   UNL     1      -6.978  87.267 -11.237  1.00  0.00     0.032 C 
ATOM     17  C   UNL     1      -7.509  88.712 -10.944  1.00  0.00     0.006 C 
ATOM     18  C   UNL     1      -5.487  89.600  -9.753  1.00  0.00     0.008 C 
ATOM     19  C   UNL     1      -7.781  90.505  -9.078  1.00  0.00     0.012 C 
ATOM     20  C   UNL     1      -7.262  89.653 -12.233  1.00  0.00    -0.025 C 
ATOM     21  C   UNL     1      -5.220  90.563 -10.921  1.00  0.00     0.005 C 
ATOM     22  C   UNL     1      -5.739  90.089 -12.310  1.00  0.00     0.003 C 
ATOM     23  C   UNL     1      -8.166  90.928 -12.236  1.00  0.00     0.010 C 
ATOM     24  C   UNL     1      -7.705  88.813 -13.485  1.00  0.00     0.012 C 
ATOM     25  C   UNL     1      -5.406  91.154 -13.453  1.00  0.00    -0.006 C 
ATOM     26  C   UNL     1      -7.888  91.905 -13.396  1.00  0.00     0.033 C 
ATOM     27  C   UNL     1      -6.417  92.354 -13.453  1.00  0.00     0.120 C 
ATOM     28  C   UNL     1      -3.964  91.724 -13.296  1.00  0.00     0.014 C 
ATOM     29  C   UNL     1      -5.401  90.483 -14.857  1.00  0.00     0.014 C 
ENDROOT
BRANCH   1  30
ATOM     30  C   UNL     1      -4.028  87.212  -6.743  1.00  0.00     0.048 C 
ATOM     31  O   UNL     1      -3.734  87.624  -7.894  1.00  0.00    -0.550 OA
ATOM     32  O   UNL     1      -3.233  87.607  -5.668  1.00  0.00    -0.550 OA
ENDBRANCH   1  30
BRANCH  27  33
ATOM     33  O   UNL     1      -6.183  93.223 -12.372  1.00  0.00    -0.393 OA
ATOM     34  H   UNL     1      -6.600  94.099 -12.596  1.00  0.00     0.210 HD
ENDBRANCH  27  33
TORSDOF 2
ENDMDL
MODEL 4
REMARK VINA RESULT:    -6.007      1.708      2.065
REMARK INTER + INTRA:          -5.934
REMARK INTER:                  -6.538
REMARK INTRA:                   0.604
REMARK UNBOUND:                 0.600
REMARK SMILES C[C@H]1[C@@H](C)CC[C@]2(C(=O)[O-])CC[C@]3(C)C(=CC[C@@H]4[C@@]5(C)CC[C@@H](O)C(C)(C)[C@H]5CC[C@@]43C)[C@@H]12
REMARK SMILES IDX 7 1 6 2 11 3 33 4 5 5 12 6 15 7 2 8 3 9 13 10 16 11 1 12
REMARK SMILES IDX 4 13 14 14 31 15 17 16 18 17 30 18 32 19 19 20 29 21 28 22
REMARK SMILES IDX 21 23 20 24 25 25 22 26 23 27 26 28 27 29 8 30 9 31 10 32
REMARK SMILES IDX 24 33
REMARK H PARENT 24 34
REMARK Flexibility Score: inf
ROOT
ATOM      1  C   UNL     1      -5.399  91.074 -16.061  1.00  0.00     0.017 C 
ATOM      2  C   UNL     1      -5.309  91.286 -17.598  1.00  0.00     0.014 C 
ATOM      3  C   UNL     1      -5.507  89.563 -15.804  1.00  0.00     0.014 C 
ATOM      4  C   UNL     1      -6.712  91.738 -15.522  1.00  0.00     0.030 C 
ATOM      5  C   UNL     1      -5.380  92.764 -17.995  1.00  0.00     0.004 C 
ATOM      6  C   UNL     1      -5.598  89.241 -14.308  1.00  0.00     0.013 C 
ATOM      7  C   UNL     1      -6.992  91.384 -14.039  1.00  0.00    -0.063 C 
ATOM      8  C   UNL     1      -6.850  93.247 -15.954  1.00  0.00    -0.003 C 
ATOM      9  C   UNL     1      -6.692  93.387 -17.495  1.00  0.00    -0.011 C 
ATOM     10  C   UNL     1      -6.776  89.947 -13.526  1.00  0.00    -0.006 C 
ATOM     11  C   UNL     1      -7.769  92.197 -13.298  1.00  0.00    -0.027 C 
ATOM     12  C   UNL     1      -5.950  94.227 -15.169  1.00  0.00     0.008 C 
ATOM     13  C   UNL     1      -6.829  94.839 -17.983  1.00  0.00     0.008 C 
ATOM     14  C   UNL     1      -8.073  89.156 -13.882  1.00  0.00     0.017 C 
ATOM     15  C   UNL     1      -6.527  89.940 -11.923  1.00  0.00    -0.020 C 
ATOM     16  C   UNL     1      -8.136  91.979 -11.865  1.00  0.00     0.032 C 
ATOM     17  C   UNL     1      -7.735  90.635 -11.165  1.00  0.00     0.006 C 
ATOM     18  C   UNL     1      -5.259  90.759 -11.547  1.00  0.00     0.008 C 
ATOM     19  C   UNL     1      -6.354  88.451 -11.462  1.00  0.00     0.012 C 
ATOM     20  C   UNL     1      -7.583  90.876  -9.576  1.00  0.00    -0.025 C 
ATOM     21  C   UNL     1      -5.033  90.937 -10.038  1.00  0.00     0.005 C 
ATOM     22  C   UNL     1      -6.208  91.600  -9.259  1.00  0.00     0.003 C 
ATOM     23  C   UNL     1      -7.672  89.551  -8.750  1.00  0.00     0.010 C 
ATOM     24  C   UNL     1      -8.823  91.735  -9.137  1.00  0.00     0.012 C 
ATOM     25  C   UNL     1      -5.871  91.745  -7.705  1.00  0.00    -0.006 C 
ATOM     26  C   UNL     1      -7.427  89.723  -7.238  1.00  0.00     0.033 C 
ATOM     27  C   UNL     1      -6.078  90.397  -6.928  1.00  0.00     0.120 C 
ATOM     28  C   UNL     1      -4.403  92.221  -7.483  1.00  0.00     0.014 C 
ATOM     29  C   UNL     1      -6.737  92.859  -7.048  1.00  0.00     0.014 C 
ENDROOT
BRANCH   1  30
ATOM     30  C   UNL     1      -4.113  91.578 -15.409  1.00  0.00     0.048 C 
ATOM     31  O   UNL     1      -4.140  92.182 -14.306  1.00  0.00    -0.550 OA
ATOM     32  O   UNL     1      -2.879  91.203 -15.936  1.00  0.00    -0.550 OA
ENDBRANCH   1  30
BRANCH  27  33
ATOM     33  O   UNL     1      -5.054  89.477  -7.214  1.00  0.00    -0.393 OA
ATOM     34  H   UNL     1      -5.442  88.564  -7.135  1.00  0.00     0.210 HD
ENDBRANCH  27  33
TORSDOF 2
ENDMDL
MODEL 5
REMARK VINA RESULT:    -5.994      8.864     12.198
REMARK INTER + INTRA:          -5.919
REMARK INTER:                  -6.759
REMARK INTRA:                   0.840
REMARK UNBOUND:                 0.600
REMARK SMILES C[C@H]1[C@@H](C)CC[C@]2(C(=O)[O-])CC[C@]3(C)C(=CC[C@@H]4[C@@]5(C)CC[C@@H](O)C(C)(C)[C@H]5CC[C@@]43C)[C@@H]12
REMARK SMILES IDX 7 1 6 2 11 3 33 4 5 5 12 6 15 7 2 8 3 9 13 10 16 11 1 12
REMARK SMILES IDX 4 13 14 14 31 15 17 16 18 17 30 18 32 19 19 20 29 21 28 22
REMARK SMILES IDX 21 23 20 24 25 25 22 26 23 27 26 28 27 29 8 30 9 31 10 32
REMARK SMILES IDX 24 33
REMARK H PARENT 24 34
REMARK Flexibility Score: inf
ROOT
ATOM      1  C   UNL     1      -5.643  85.114  -8.868  1.00  0.00     0.017 C 
ATOM      2  C   UNL     1      -4.113  85.391  -8.888  1.00  0.00     0.014 C 
ATOM      3  C   UNL     1      -6.333  86.254  -9.633  1.00  0.00     0.014 C 
ATOM      4  C   UNL     1      -6.159  85.160  -7.389  1.00  0.00     0.030 C 
ATOM      5  C   UNL     1      -3.327  84.419  -8.002  1.00  0.00     0.004 C 
ATOM      6  C   UNL     1      -7.855  86.076  -9.677  1.00  0.00     0.013 C 
ATOM      7  C   UNL     1      -7.706  85.116  -7.297  1.00  0.00    -0.063 C 
ATOM      8  C   UNL     1      -5.340  84.214  -6.431  1.00  0.00    -0.003 C 
ATOM      9  C   UNL     1      -3.818  84.508  -6.549  1.00  0.00    -0.011 C 
ATOM     10  C   UNL     1      -8.569  85.938  -8.273  1.00  0.00    -0.006 C 
ATOM     11  C   UNL     1      -8.291  84.685  -6.163  1.00  0.00    -0.027 C 
ATOM     12  C   UNL     1      -5.670  82.711  -6.574  1.00  0.00     0.008 C 
ATOM     13  C   UNL     1      -2.962  83.623  -5.627  1.00  0.00     0.008 C 
ATOM     14  C   UNL     1      -8.650  87.378  -7.680  1.00  0.00     0.017 C 
ATOM     15  C   UNL     1     -10.052  85.295  -8.411  1.00  0.00    -0.020 C 
ATOM     16  C   UNL     1      -9.764  84.601  -5.924  1.00  0.00     0.032 C 
ATOM     17  C   UNL     1     -10.750  85.189  -6.991  1.00  0.00     0.006 C 
ATOM     18  C   UNL     1      -9.987  83.843  -8.964  1.00  0.00     0.008 C 
ATOM     19  C   UNL     1     -10.888  86.198  -9.385  1.00  0.00     0.012 C 
ATOM     20  C   UNL     1     -12.164  84.414  -6.908  1.00  0.00    -0.025 C 
ATOM     21  C   UNL     1     -11.332  83.100  -8.981  1.00  0.00     0.005 C 
ATOM     22  C   UNL     1     -12.054  82.994  -7.606  1.00  0.00     0.003 C 
ATOM     23  C   UNL     1     -13.337  85.220  -7.557  1.00  0.00     0.010 C 
ATOM     24  C   UNL     1     -12.519  84.302  -5.381  1.00  0.00     0.012 C 
ATOM     25  C   UNL     1     -13.435  82.201  -7.730  1.00  0.00    -0.006 C 
ATOM     26  C   UNL     1     -14.684  84.470  -7.591  1.00  0.00     0.033 C 
ATOM     27  C   UNL     1     -14.585  83.105  -8.297  1.00  0.00     0.120 C 
ATOM     28  C   UNL     1     -13.292  80.951  -8.650  1.00  0.00     0.014 C 
ATOM     29  C   UNL     1     -13.868  81.616  -6.354  1.00  0.00     0.014 C 
ENDROOT
BRANCH   1  30
ATOM     30  C   UNL     1      -5.926  83.806  -9.604  1.00  0.00     0.048 C 
ATOM     31  O   UNL     1      -5.088  83.319 -10.407  1.00  0.00    -0.550 OA
ATOM     32  O   UNL     1      -7.034  83.039  -9.247  1.00  0.00    -0.550 OA
ENDBRANCH   1  30
BRANCH  27  33
ATOM     33  O   UNL     1     -14.425  83.336  -9.675  1.00  0.00    -0.393 OA
ATOM     34  H   UNL     1     -15.327  83.281 -10.094  1.00  0.00     0.210 HD
ENDBRANCH  27  33
TORSDOF 2
ENDMDL
MODEL 6
REMARK VINA RESULT:    -5.962      5.658      8.398
REMARK INTER + INTRA:          -5.885
REMARK INTER:                  -6.485
REMARK INTRA:                   0.600
REMARK UNBOUND:                 0.600
REMARK SMILES C[C@H]1[C@@H](C)CC[C@]2(C(=O)[O-])CC[C@]3(C)C(=CC[C@@H]4[C@@]5(C)CC[C@@H](O)C(C)(C)[C@H]5CC[C@@]43C)[C@@H]12
REMARK SMILES IDX 7 1 6 2 11 3 33 4 5 5 12 6 15 7 2 8 3 9 13 10 16 11 1 12
REMARK SMILES IDX 4 13 14 14 31 15 17 16 18 17 30 18 32 19 19 20 29 21 28 22
REMARK SMILES IDX 21 23 20 24 25 25 22 26 23 27 26 28 27 29 8 30 9 31 10 32
REMARK SMILES IDX 24 33
REMARK H PARENT 24 34
REMARK Flexibility Score: inf
ROOT
ATOM      1  C   UNL     1      -7.110  90.852 -10.983  1.00  0.00     0.017 C 
ATOM      2  C   UNL     1      -6.632  92.133 -11.722  1.00  0.00     0.014 C 
ATOM      3  C   UNL     1      -6.855  91.057  -9.482  1.00  0.00     0.014 C 
ATOM      4  C   UNL     1      -6.242  89.632 -11.445  1.00  0.00     0.030 C 
ATOM      5  C   UNL     1      -6.665  91.981 -13.246  1.00  0.00     0.004 C 
ATOM      6  C   UNL     1      -7.298  89.846  -8.654  1.00  0.00     0.013 C 
ATOM      7  C   UNL     1      -6.502  88.362 -10.596  1.00  0.00    -0.063 C 
ATOM      8  C   UNL     1      -6.205  89.473 -13.012  1.00  0.00    -0.003 C 
ATOM      9  C   UNL     1      -5.776  90.808 -13.684  1.00  0.00    -0.011 C 
ATOM     10  C   UNL     1      -6.652  88.463  -9.066  1.00  0.00    -0.006 C 
ATOM     11  C   UNL     1      -6.223  87.150 -11.114  1.00  0.00    -0.027 C 
ATOM     12  C   UNL     1      -7.492  88.880 -13.630  1.00  0.00     0.008 C 
ATOM     13  C   UNL     1      -5.709  90.714 -15.217  1.00  0.00     0.008 C 
ATOM     14  C   UNL     1      -5.205  88.464  -8.484  1.00  0.00     0.017 C 
ATOM     15  C   UNL     1      -7.497  87.205  -8.487  1.00  0.00    -0.020 C 
ATOM     16  C   UNL     1      -6.407  85.842 -10.412  1.00  0.00     0.032 C 
ATOM     17  C   UNL     1      -6.814  85.834  -8.899  1.00  0.00     0.006 C 
ATOM     18  C   UNL     1      -8.931  87.165  -9.089  1.00  0.00     0.008 C 
ATOM     19  C   UNL     1      -7.580  87.348  -6.927  1.00  0.00     0.012 C 
ATOM     20  C   UNL     1      -7.608  84.470  -8.558  1.00  0.00    -0.025 C 
ATOM     21  C   UNL     1      -9.751  85.920  -8.717  1.00  0.00     0.005 C 
ATOM     22  C   UNL     1      -9.100  84.555  -9.090  1.00  0.00     0.003 C 
ATOM     23  C   UNL     1      -7.622  84.141  -7.029  1.00  0.00     0.010 C 
ATOM     24  C   UNL     1      -6.800  83.306  -9.236  1.00  0.00     0.012 C 
ATOM     25  C   UNL     1     -10.031  83.328  -8.668  1.00  0.00    -0.006 C 
ATOM     26  C   UNL     1      -8.458  82.903  -6.650  1.00  0.00     0.033 C 
ATOM     27  C   UNL     1      -9.915  82.999  -7.139  1.00  0.00     0.120 C 
ATOM     28  C   UNL     1     -11.528  83.611  -8.999  1.00  0.00     0.014 C 
ATOM     29  C   UNL     1      -9.689  82.057  -9.499  1.00  0.00     0.014 C 
ENDROOT
BRANCH   1  30
ATOM     30  C   UNL     1      -8.614  90.683 -11.193  1.00  0.00     0.048 C 
ATOM     31  O   UNL     1      -9.124  89.541 -11.332  1.00  0.00    -0.550 OA
ATOM     32  O   UNL     1      -9.460  91.779 -11.037  1.00  0.00    -0.550 OA
ENDBRANCH   1  30
BRANCH  27  33
ATOM     33  O   UNL     1     -10.577  83.960  -6.354  1.00  0.00    -0.393 OA
ATOM     34  H   UNL     1      -9.898  84.627  -6.062  1.00  0.00     0.210 HD
ENDBRANCH  27  33
TORSDOF 2
ENDMDL
MODEL 7
REMARK VINA RESULT:    -5.903      4.085      8.010
REMARK INTER + INTRA:          -5.820
REMARK INTER:                  -6.419
REMARK INTRA:                   0.599
REMARK UNBOUND:                 0.600
REMARK SMILES C[C@H]1[C@@H](C)CC[C@]2(C(=O)[O-])CC[C@]3(C)C(=CC[C@@H]4[C@@]5(C)CC[C@@H](O)C(C)(C)[C@H]5CC[C@@]43C)[C@@H]12
REMARK SMILES IDX 7 1 6 2 11 3 33 4 5 5 12 6 15 7 2 8 3 9 13 10 16 11 1 12
REMARK SMILES IDX 4 13 14 14 31 15 17 16 18 17 30 18 32 19 19 20 29 21 28 22
REMARK SMILES IDX 21 23 20 24 25 25 22 26 23 27 26 28 27 29 8 30 9 31 10 32
REMARK SMILES IDX 24 33
REMARK H PARENT 24 34
REMARK Flexibility Score: inf
ROOT
ATOM      1  C   UNL     1      -7.567  86.159  -8.049  1.00  0.00     0.017 C 
ATOM      2  C   UNL     1      -7.811  84.674  -7.662  1.00  0.00     0.014 C 
ATOM      3  C   UNL     1      -8.875  86.926  -7.805  1.00  0.00     0.014 C 
ATOM      4  C   UNL     1      -7.247  86.250  -9.580  1.00  0.00     0.030 C 
ATOM      5  C   UNL     1      -6.633  83.767  -8.032  1.00  0.00     0.004 C 
ATOM      6  C   UNL     1      -8.743  88.413  -8.153  1.00  0.00     0.013 C 
ATOM      7  C   UNL     1      -7.210  87.712 -10.095  1.00  0.00    -0.063 C 
ATOM      8  C   UNL     1      -6.075  85.291 -10.014  1.00  0.00    -0.003 C 
ATOM      9  C   UNL     1      -6.361  83.837  -9.542  1.00  0.00    -0.011 C 
ATOM     10  C   UNL     1      -8.268  88.731  -9.627  1.00  0.00    -0.006 C 
ATOM     11  C   UNL     1      -6.518  88.005 -11.212  1.00  0.00    -0.027 C 
ATOM     12  C   UNL     1      -4.663  85.779  -9.619  1.00  0.00     0.008 C 
ATOM     13  C   UNL     1      -5.257  82.846  -9.945  1.00  0.00     0.008 C 
ATOM     14  C   UNL     1      -9.513  88.519 -10.543  1.00  0.00     0.017 C 
ATOM     15  C   UNL     1      -7.708  90.247  -9.768  1.00  0.00    -0.020 C 
ATOM     16  C   UNL     1      -6.403  89.360 -11.833  1.00  0.00     0.032 C 
ATOM     17  C   UNL     1      -7.260  90.542 -11.261  1.00  0.00     0.006 C 
ATOM     18  C   UNL     1      -6.442  90.463  -8.891  1.00  0.00     0.008 C 
ATOM     19  C   UNL     1      -8.843  91.231  -9.315  1.00  0.00     0.012 C 
ATOM     20  C   UNL     1      -6.515  91.944 -11.556  1.00  0.00    -0.025 C 
ATOM     21  C   UNL     1      -5.752  91.823  -9.082  1.00  0.00     0.005 C 
ATOM     22  C   UNL     1      -5.316  92.153 -10.540  1.00  0.00     0.003 C 
ATOM     23  C   UNL     1      -7.480  93.172 -11.477  1.00  0.00     0.010 C 
ATOM     24  C   UNL     1      -6.028  91.881 -13.048  1.00  0.00     0.012 C 
ATOM     25  C   UNL     1      -4.606  93.581 -10.628  1.00  0.00    -0.006 C 
ATOM     26  C   UNL     1      -6.789  94.539 -11.649  1.00  0.00     0.033 C 
ATOM     27  C   UNL     1      -5.645  94.756 -10.642  1.00  0.00     0.120 C 
ATOM     28  C   UNL     1      -3.626  93.803  -9.437  1.00  0.00     0.014 C 
ATOM     29  C   UNL     1      -3.700  93.676 -11.891  1.00  0.00     0.014 C 
ENDROOT
BRANCH   1  30
ATOM     30  C   UNL     1      -6.492  86.746  -7.135  1.00  0.00     0.048 C 
ATOM     31  O   UNL     1      -5.664  87.589  -7.568  1.00  0.00    -0.550 OA
ATOM     32  O   UNL     1      -6.541  86.499  -5.765  1.00  0.00    -0.550 OA
ENDBRANCH   1  30
BRANCH  27  33
ATOM     33  O   UNL     1      -6.213  94.955  -9.371  1.00  0.00    -0.393 OA
ATOM     34  H   UNL     1      -7.147  95.272  -9.507  1.00  0.00     0.210 HD
ENDBRANCH  27  33
TORSDOF 2
ENDMDL
MODEL 8
REMARK VINA RESULT:    -5.714      4.721      7.086
REMARK INTER + INTRA:          -5.615
REMARK INTER:                  -6.264
REMARK INTRA:                   0.649
REMARK UNBOUND:                 0.600
REMARK SMILES C[C@H]1[C@@H](C)CC[C@]2(C(=O)[O-])CC[C@]3(C)C(=CC[C@@H]4[C@@]5(C)CC[C@@H](O)C(C)(C)[C@H]5CC[C@@]43C)[C@@H]12
REMARK SMILES IDX 7 1 6 2 11 3 33 4 5 5 12 6 15 7 2 8 3 9 13 10 16 11 1 12
REMARK SMILES IDX 4 13 14 14 31 15 17 16 18 17 30 18 32 19 19 20 29 21 28 22
REMARK SMILES IDX 21 23 20 24 25 25 22 26 23 27 26 28 27 29 8 30 9 31 10 32
REMARK SMILES IDX 24 33
REMARK H PARENT 24 34
REMARK Flexibility Score: inf
ROOT
ATOM      1  C   UNL     1      -8.552  90.864 -12.229  1.00  0.00     0.017 C 
ATOM      2  C   UNL     1      -8.978  92.103 -13.066  1.00  0.00     0.014 C 
ATOM      3  C   UNL     1      -9.602  90.662 -11.127  1.00  0.00     0.014 C 
ATOM      4  C   UNL     1      -7.182  91.160 -11.527  1.00  0.00     0.030 C 
ATOM      5  C   UNL     1      -7.915  92.519 -14.087  1.00  0.00     0.004 C 
ATOM      6  C   UNL     1      -9.277  89.455 -10.239  1.00  0.00     0.013 C 
ATOM      7  C   UNL     1      -6.793  90.068 -10.498  1.00  0.00    -0.063 C 
ATOM      8  C   UNL     1      -6.074  91.645 -12.536  1.00  0.00    -0.003 C 
ATOM      9  C   UNL     1      -6.593  92.846 -13.377  1.00  0.00    -0.011 C 
ATOM     10  C   UNL     1      -7.854  89.476  -9.550  1.00  0.00    -0.006 C 
ATOM     11  C   UNL     1      -5.500  89.905 -10.161  1.00  0.00    -0.027 C 
ATOM     12  C   UNL     1      -5.463  90.525 -13.408  1.00  0.00     0.008 C 
ATOM     13  C   UNL     1      -5.551  93.374 -14.376  1.00  0.00     0.008 C 
ATOM     14  C   UNL     1      -7.966  90.462  -8.347  1.00  0.00     0.017 C 
ATOM     15  C   UNL     1      -7.410  88.002  -9.038  1.00  0.00    -0.020 C 
ATOM     16  C   UNL     1      -4.977  88.906  -9.178  1.00  0.00     0.032 C 
ATOM     17  C   UNL     1      -5.990  88.059  -8.333  1.00  0.00     0.006 C 
ATOM     18  C   UNL     1      -7.255  87.015 -10.230  1.00  0.00     0.008 C 
ATOM     19  C   UNL     1      -8.509  87.475  -8.051  1.00  0.00     0.012 C 
ATOM     20  C   UNL     1      -5.306  86.658  -7.912  1.00  0.00    -0.025 C 
ATOM     21  C   UNL     1      -6.685  85.638  -9.855  1.00  0.00     0.005 C 
ATOM     22  C   UNL     1      -5.300  85.658  -9.143  1.00  0.00     0.003 C 
ATOM     23  C   UNL     1      -6.015  85.977  -6.696  1.00  0.00     0.010 C 
ATOM     24  C   UNL     1      -3.855  87.004  -7.419  1.00  0.00     0.012 C 
ATOM     25  C   UNL     1      -4.796  84.182  -8.803  1.00  0.00    -0.006 C 
ATOM     26  C   UNL     1      -5.459  84.587  -6.328  1.00  0.00     0.033 C 
ATOM     27  C   UNL     1      -5.482  83.607  -7.515  1.00  0.00     0.120 C 
ATOM     28  C   UNL     1      -5.067  83.203  -9.985  1.00  0.00     0.014 C 
ATOM     29  C   UNL     1      -3.250  84.148  -8.625  1.00  0.00     0.014 C 
ENDROOT
BRANCH   1  30
ATOM     30  C   UNL     1      -8.556  89.627 -13.126  1.00  0.00     0.048 C 
ATOM     31  O   UNL     1      -7.605  88.804 -13.097  1.00  0.00    -0.550 OA
ATOM     32  O   UNL     1      -9.705  89.298 -13.842  1.00  0.00    -0.550 OA
ENDBRANCH   1  30
BRANCH  27  33
ATOM     33  O   UNL     1      -6.820  83.250  -7.761  1.00  0.00    -0.393 OA
ATOM     34  H   UNL     1      -7.303  84.074  -8.042  1.00  0.00     0.210 HD
ENDBRANCH  27  33
TORSDOF 2
ENDMDL
MODEL 9
REMARK VINA RESULT:    -5.646      8.968     12.071
REMARK INTER + INTRA:          -5.541
REMARK INTER:                  -6.148
REMARK INTRA:                   0.607
REMARK UNBOUND:                 0.600
REMARK SMILES C[C@H]1[C@@H](C)CC[C@]2(C(=O)[O-])CC[C@]3(C)C(=CC[C@@H]4[C@@]5(C)CC[C@@H](O)C(C)(C)[C@H]5CC[C@@]43C)[C@@H]12
REMARK SMILES IDX 7 1 6 2 11 3 33 4 5 5 12 6 15 7 2 8 3 9 13 10 16 11 1 12
REMARK SMILES IDX 4 13 14 14 31 15 17 16 18 17 30 18 32 19 19 20 29 21 28 22
REMARK SMILES IDX 21 23 20 24 25 25 22 26 23 27 26 28 27 29 8 30 9 31 10 32
REMARK SMILES IDX 24 33
REMARK H PARENT 24 34
REMARK Flexibility Score: inf
ROOT
ATOM      1  C   UNL     1     -13.354  83.512  -8.409  1.00  0.00     0.017 C 
ATOM      2  C   UNL     1     -14.869  83.202  -8.245  1.00  0.00     0.014 C 
ATOM      3  C   UNL     1     -12.707  82.313  -9.119  1.00  0.00     0.014 C 
ATOM      4  C   UNL     1     -12.694  83.633  -6.993  1.00  0.00     0.030 C 
ATOM      5  C   UNL     1     -15.594  84.243  -7.388  1.00  0.00     0.004 C 
ATOM      6  C   UNL     1     -11.203  82.518  -9.335  1.00  0.00     0.013 C 
ATOM      7  C   UNL     1     -11.148  83.720  -7.063  1.00  0.00    -0.063 C 
ATOM      8  C   UNL     1     -13.444  84.657  -6.059  1.00  0.00    -0.003 C 
ATOM      9  C   UNL     1     -14.960  84.319  -5.991  1.00  0.00    -0.011 C 
ATOM     10  C   UNL     1     -10.359  82.819  -8.033  1.00  0.00    -0.006 C 
ATOM     11  C   UNL     1     -10.468  84.280  -6.045  1.00  0.00    -0.027 C 
ATOM     12  C   UNL     1     -13.178  86.143  -6.388  1.00  0.00     0.008 C 
ATOM     13  C   UNL     1     -15.749  85.277  -5.083  1.00  0.00     0.008 C 
ATOM     14  C   UNL     1     -10.174  81.451  -7.306  1.00  0.00     0.017 C 
ATOM     15  C   UNL     1      -8.918  83.475  -8.386  1.00  0.00    -0.020 C 
ATOM     16  C   UNL     1      -8.981  84.421  -5.966  1.00  0.00     0.032 C 
ATOM     17  C   UNL     1      -8.087  83.746  -7.062  1.00  0.00     0.006 C 
ATOM     18  C   UNL     1      -9.084  84.860  -9.076  1.00  0.00     0.008 C 
ATOM     19  C   UNL     1      -8.154  82.494  -9.342  1.00  0.00     0.012 C 
ATOM     20  C   UNL     1      -6.697  84.555  -7.203  1.00  0.00    -0.025 C 
ATOM     21  C   UNL     1      -7.772  85.626  -9.305  1.00  0.00     0.005 C 
ATOM     22  C   UNL     1      -6.921  85.891  -8.028  1.00  0.00     0.003 C 
ATOM     23  C   UNL     1      -5.569  83.711  -7.882  1.00  0.00     0.010 C 
ATOM     24  C   UNL     1      -6.197  84.835  -5.740  1.00  0.00     0.012 C 
ATOM     25  C   UNL     1      -5.586  86.696  -8.372  1.00  0.00    -0.006 C 
ATOM     26  C   UNL     1      -4.257  84.482  -8.130  1.00  0.00     0.033 C 
ATOM     27  C   UNL     1      -4.469  85.762  -8.958  1.00  0.00     0.120 C 
ATOM     28  C   UNL     1      -5.859  87.839  -9.396  1.00  0.00     0.014 C 
ATOM     29  C   UNL     1      -5.038  87.432  -7.115  1.00  0.00     0.014 C 
ENDROOT
BRANCH   1  30
ATOM     30  C   UNL     1     -13.187  84.741  -9.300  1.00  0.00     0.048 C 
ATOM     31  O   UNL     1     -12.290  85.592  -9.068  1.00  0.00    -0.550 OA
ATOM     32  O   UNL     1     -13.903  84.832 -10.492  1.00  0.00    -0.550 OA
ENDBRANCH   1  30
BRANCH  27  33
ATOM     33  O   UNL     1      -4.756  85.384 -10.281  1.00  0.00    -0.393 OA
ATOM     34  H   UNL     1      -4.020  84.790 -10.589  1.00  0.00     0.210 HD
ENDBRANCH  27  33
TORSDOF 2
ENDMDL
