MODEL 1
REMARK VINA RESULT:    -7.173      0.000      0.000
REMARK INTER + INTRA:          -7.173
REMARK INTER:                  -7.173
REMARK INTRA:                   0.000
REMARK UNBOUND:                 0.000
REMARK SMILES C=C1CCC[C@@]2(C)CC(=O)C(=C(C)C)C[C@@H]12
REMARK SMILES IDX 13 1 12 2 11 3 15 4 16 5 2 6 1 7 3 8 4 9 5 10 6 11 8 12 9 13
REMARK SMILES IDX 10 14 7 15 14 16
REMARK H PARENT
REMARK Flexibility Score: inf
ROOT
ATOM      1  C   UNL     1      14.170 -14.698 -28.384  1.00  0.00     0.039 C 
ATOM      2  C   UNL     1      13.604 -16.079 -28.151  1.00  0.00    -0.070 C 
ATOM      3  C   UNL     1      13.230 -16.886 -29.187  1.00  0.00    -0.006 C 
ATOM      4  C   UNL     1      12.597 -18.250 -28.938  1.00  0.00     0.047 C 
ATOM      5  C   UNL     1      11.600 -18.680 -30.045  1.00  0.00     0.025 C 
ATOM      6  C   UNL     1      10.226 -18.011 -29.972  1.00  0.00    -0.073 C 
ATOM      7  C   UNL     1       9.912 -17.001 -29.138  1.00  0.00     0.008 C 
ATOM      8  C   UNL     1       9.211 -18.486 -30.980  1.00  0.00     0.031 C 
ATOM      9  C   UNL     1       9.766 -18.289 -32.391  1.00  0.00     0.005 C 
ATOM     10  C   UNL     1      11.146 -18.950 -32.553  1.00  0.00     0.008 C 
ATOM     11  C   UNL     1      12.197 -18.515 -31.481  1.00  0.00    -0.018 C 
ATOM     12  C   UNL     1      12.614 -17.038 -31.703  1.00  0.00     0.088 C 
ATOM     13  C   UNL     1      13.514 -16.539 -30.610  1.00  0.00     0.159 C 
ATOM     14  O   UNL     1      14.513 -15.838 -30.923  1.00  0.00    -0.295 OA
ATOM     15  C   UNL     1      13.437 -19.429 -31.666  1.00  0.00     0.012 C 
ATOM     16  C   UNL     1      13.431 -16.516 -26.714  1.00  0.00     0.039 C 
ENDROOT
TORSDOF 0
ENDMDL
MODEL 2
REMARK VINA RESULT:    -6.568      1.604      1.979
REMARK INTER + INTRA:          -6.568
REMARK INTER:                  -6.568
REMARK INTRA:                   0.000
REMARK UNBOUND:                 0.000
REMARK SMILES C=C1CCC[C@@]2(C)CC(=O)C(=C(C)C)C[C@@H]12
REMARK SMILES IDX 13 1 12 2 11 3 15 4 16 5 2 6 1 7 3 8 4 9 5 10 6 11 8 12 9 13
REMARK SMILES IDX 10 14 7 15 14 16
REMARK H PARENT
REMARK Flexibility Score: inf
ROOT
ATOM      1  C   UNL     1      13.123 -16.811 -26.592  1.00  0.00     0.039 C 
ATOM      2  C   UNL     1      11.968 -17.541 -27.237  1.00  0.00    -0.070 C 
ATOM      3  C   UNL     1      11.935 -17.791 -28.578  1.00  0.00    -0.006 C 
ATOM      4  C   UNL     1      10.734 -18.467 -29.227  1.00  0.00     0.047 C 
ATOM      5  C   UNL     1      10.496 -18.028 -30.695  1.00  0.00     0.025 C 
ATOM      6  C   UNL     1       9.834 -16.658 -30.860  1.00  0.00    -0.073 C 
ATOM      7  C   UNL     1       9.611 -15.792 -29.852  1.00  0.00     0.008 C 
ATOM      8  C   UNL     1       9.506 -16.253 -32.275  1.00  0.00     0.031 C 
ATOM      9  C   UNL     1      10.782 -16.274 -33.117  1.00  0.00     0.005 C 
ATOM     10  C   UNL     1      11.502 -17.631 -33.019  1.00  0.00     0.008 C 
ATOM     11  C   UNL     1      11.799 -18.096 -31.557  1.00  0.00    -0.018 C 
ATOM     12  C   UNL     1      12.892 -17.201 -30.917  1.00  0.00     0.088 C 
ATOM     13  C   UNL     1      13.104 -17.525 -29.467  1.00  0.00     0.159 C 
ATOM     14  O   UNL     1      14.283 -17.579 -29.026  1.00  0.00    -0.295 OA
ATOM     15  C   UNL     1      12.320 -19.555 -31.644  1.00  0.00     0.012 C 
ATOM     16  C   UNL     1      10.825 -17.947 -26.335  1.00  0.00     0.039 C 
ENDROOT
TORSDOF 0
ENDMDL
MODEL 3
REMARK VINA RESULT:    -6.407      1.690      3.131
REMARK INTER + INTRA:          -6.407
REMARK INTER:                  -6.407
REMARK INTRA:                   0.000
REMARK UNBOUND:                 0.000
REMARK SMILES C=C1CCC[C@@]2(C)CC(=O)C(=C(C)C)C[C@@H]12
REMARK SMILES IDX 13 1 12 2 11 3 15 4 16 5 2 6 1 7 3 8 4 9 5 10 6 11 8 12 9 13
REMARK SMILES IDX 10 14 7 15 14 16
REMARK H PARENT
REMARK Flexibility Score: inf
ROOT
ATOM      1  C   UNL     1      14.124 -16.874 -26.536  1.00  0.00     0.039 C 
ATOM      2  C   UNL     1      13.511 -16.065 -27.655  1.00  0.00    -0.070 C 
ATOM      3  C   UNL     1      12.481 -16.548 -28.410  1.00  0.00    -0.006 C 
ATOM      4  C   UNL     1      11.917 -15.751 -29.579  1.00  0.00     0.047 C 
ATOM      5  C   UNL     1      11.357 -16.640 -30.721  1.00  0.00     0.025 C 
ATOM      6  C   UNL     1      12.417 -17.261 -31.634  1.00  0.00    -0.073 C 
ATOM      7  C   UNL     1      13.744 -17.209 -31.409  1.00  0.00     0.008 C 
ATOM      8  C   UNL     1      11.891 -18.050 -32.806  1.00  0.00     0.031 C 
ATOM      9  C   UNL     1      10.981 -19.168 -32.298  1.00  0.00     0.005 C 
ATOM     10  C   UNL     1       9.873 -18.622 -31.381  1.00  0.00     0.008 C 
ATOM     11  C   UNL     1      10.393 -17.752 -30.192  1.00  0.00    -0.018 C 
ATOM     12  C   UNL     1      11.140 -18.638 -29.160  1.00  0.00     0.088 C 
ATOM     13  C   UNL     1      11.777 -17.820 -28.076  1.00  0.00     0.159 C 
ATOM     14  O   UNL     1      11.692 -18.225 -26.885  1.00  0.00    -0.295 OA
ATOM     15  C   UNL     1       9.149 -17.119 -29.515  1.00  0.00     0.012 C 
ATOM     16  C   UNL     1      14.117 -14.708 -27.931  1.00  0.00     0.039 C 
ENDROOT
TORSDOF 0
ENDMDL
MODEL 4
REMARK VINA RESULT:    -6.311      2.068      3.395
REMARK INTER + INTRA:          -6.311
REMARK INTER:                  -6.311
REMARK INTRA:                   0.000
REMARK UNBOUND:                 0.000
REMARK SMILES C=C1CCC[C@@]2(C)CC(=O)C(=C(C)C)C[C@@H]12
REMARK SMILES IDX 13 1 12 2 11 3 15 4 16 5 2 6 1 7 3 8 4 9 5 10 6 11 8 12 9 13
REMARK SMILES IDX 10 14 7 15 14 16
REMARK H PARENT
REMARK Flexibility Score: inf
ROOT
ATOM      1  C   UNL     1      11.105 -17.912 -25.875  1.00  0.00     0.039 C 
ATOM      2  C   UNL     1      11.984 -17.274 -26.925  1.00  0.00    -0.070 C 
ATOM      3  C   UNL     1      11.679 -17.339 -28.254  1.00  0.00    -0.006 C 
ATOM      4  C   UNL     1      12.608 -16.750 -29.309  1.00  0.00     0.047 C 
ATOM      5  C   UNL     1      12.557 -17.500 -30.665  1.00  0.00     0.025 C 
ATOM      6  C   UNL     1      13.328 -18.822 -30.701  1.00  0.00    -0.073 C 
ATOM      7  C   UNL     1      13.880 -19.414 -29.624  1.00  0.00     0.008 C 
ATOM      8  C   UNL     1      13.372 -19.520 -32.037  1.00  0.00     0.031 C 
ATOM      9  C   UNL     1      11.945 -19.783 -32.519  1.00  0.00     0.005 C 
ATOM     10  C   UNL     1      11.105 -18.493 -32.529  1.00  0.00     0.008 C 
ATOM     11  C   UNL     1      11.094 -17.724 -31.169  1.00  0.00    -0.018 C 
ATOM     12  C   UNL     1      10.295 -18.520 -30.104  1.00  0.00     0.088 C 
ATOM     13  C   UNL     1      10.380 -17.884 -28.747  1.00  0.00     0.159 C 
ATOM     14  O   UNL     1       9.335 -17.811 -28.047  1.00  0.00    -0.295 OA
ATOM     15  C   UNL     1      10.391 -16.364 -31.424  1.00  0.00     0.012 C 
ATOM     16  C   UNL     1      13.244 -16.591 -26.442  1.00  0.00     0.039 C 
ENDROOT
TORSDOF 0
ENDMDL
MODEL 5
REMARK VINA RESULT:    -6.283      1.452      4.520
REMARK INTER + INTRA:          -6.283
REMARK INTER:                  -6.283
REMARK INTRA:                   0.000
REMARK UNBOUND:                 0.000
REMARK SMILES C=C1CCC[C@@]2(C)CC(=O)C(=C(C)C)C[C@@H]12
REMARK SMILES IDX 13 1 12 2 11 3 15 4 16 5 2 6 1 7 3 8 4 9 5 10 6 11 8 12 9 13
REMARK SMILES IDX 10 14 7 15 14 16
REMARK H PARENT
REMARK Flexibility Score: inf
ROOT
ATOM      1  C   UNL     1      11.181 -19.127 -32.637  1.00  0.00     0.039 C 
ATOM      2  C   UNL     1      10.797 -17.913 -31.824  1.00  0.00    -0.070 C 
ATOM      3  C   UNL     1      11.646 -17.367 -30.905  1.00  0.00    -0.006 C 
ATOM      4  C   UNL     1      11.221 -16.184 -30.043  1.00  0.00     0.047 C 
ATOM      5  C   UNL     1      11.895 -16.163 -28.646  1.00  0.00     0.025 C 
ATOM      6  C   UNL     1      11.301 -17.139 -27.628  1.00  0.00    -0.073 C 
ATOM      7  C   UNL     1      10.380 -18.079 -27.919  1.00  0.00     0.008 C 
ATOM      8  C   UNL     1      11.878 -17.068 -26.237  1.00  0.00     0.031 C 
ATOM      9  C   UNL     1      13.387 -17.301 -26.301  1.00  0.00     0.005 C 
ATOM     10  C   UNL     1      14.066 -16.343 -27.296  1.00  0.00     0.008 C 
ATOM     11  C   UNL     1      13.445 -16.359 -28.729  1.00  0.00    -0.018 C 
ATOM     12  C   UNL     1      13.761 -17.701 -29.440  1.00  0.00     0.088 C 
ATOM     13  C   UNL     1      13.062 -17.813 -30.763  1.00  0.00     0.159 C 
ATOM     14  O   UNL     1      13.700 -18.277 -31.746  1.00  0.00    -0.295 OA
ATOM     15  C   UNL     1      14.100 -15.196 -29.520  1.00  0.00     0.012 C 
ATOM     16  C   UNL     1       9.411 -17.351 -32.045  1.00  0.00     0.039 C 
ENDROOT
TORSDOF 0
ENDMDL
MODEL 6
REMARK VINA RESULT:    -6.270      2.240      4.908
REMARK INTER + INTRA:          -6.270
REMARK INTER:                  -6.270
REMARK INTRA:                   0.000
REMARK UNBOUND:                 0.000
REMARK SMILES C=C1CCC[C@@]2(C)CC(=O)C(=C(C)C)C[C@@H]12
REMARK SMILES IDX 13 1 12 2 11 3 15 4 16 5 2 6 1 7 3 8 4 9 5 10 6 11 8 12 9 13
REMARK SMILES IDX 10 14 7 15 14 16
REMARK H PARENT
REMARK Flexibility Score: inf
ROOT
ATOM      1  C   UNL     1      10.019 -15.000 -34.006  1.00  0.00     0.039 C 
ATOM      2  C   UNL     1      10.541 -16.328 -33.510  1.00  0.00    -0.070 C 
ATOM      3  C   UNL     1      10.544 -16.649 -32.183  1.00  0.00    -0.006 C 
ATOM      4  C   UNL     1      11.135 -17.963 -31.689  1.00  0.00     0.047 C 
ATOM      5  C   UNL     1      11.734 -17.873 -30.261  1.00  0.00     0.025 C 
ATOM      6  C   UNL     1      13.108 -17.205 -30.178  1.00  0.00    -0.073 C 
ATOM      7  C   UNL     1      13.716 -16.578 -31.205  1.00  0.00     0.008 C 
ATOM      8  C   UNL     1      13.750 -17.193 -28.814  1.00  0.00     0.031 C 
ATOM      9  C   UNL     1      12.818 -16.499 -27.820  1.00  0.00     0.005 C 
ATOM     10  C   UNL     1      11.413 -17.127 -27.831  1.00  0.00     0.008 C 
ATOM     11  C   UNL     1      10.753 -17.202 -29.245  1.00  0.00    -0.018 C 
ATOM     12  C   UNL     1      10.382 -15.781 -29.744  1.00  0.00     0.088 C 
ATOM     13  C   UNL     1       9.876 -15.797 -31.157  1.00  0.00     0.159 C 
ATOM     14  O   UNL     1       8.875 -15.089 -31.448  1.00  0.00    -0.295 OA
ATOM     15  C   UNL     1       9.459 -18.045 -29.096  1.00  0.00     0.012 C 
ATOM     16  C   UNL     1      11.102 -17.275 -34.548  1.00  0.00     0.039 C 
ENDROOT
TORSDOF 0
ENDMDL
MODEL 7
REMARK VINA RESULT:    -6.258      1.797      3.074
REMARK INTER + INTRA:          -6.258
REMARK INTER:                  -6.258
REMARK INTRA:                   0.000
REMARK UNBOUND:                 0.000
REMARK SMILES C=C1CCC[C@@]2(C)CC(=O)C(=C(C)C)C[C@@H]12
REMARK SMILES IDX 13 1 12 2 11 3 15 4 16 5 2 6 1 7 3 8 4 9 5 10 6 11 8 12 9 13
REMARK SMILES IDX 10 14 7 15 14 16
REMARK H PARENT
REMARK Flexibility Score: inf
ROOT
ATOM      1  C   UNL     1      14.137 -17.585 -27.566  1.00  0.00     0.039 C 
ATOM      2  C   UNL     1      13.310 -16.633 -28.397  1.00  0.00    -0.070 C 
ATOM      3  C   UNL     1      12.252 -17.065 -29.144  1.00  0.00    -0.006 C 
ATOM      4  C   UNL     1      11.467 -16.107 -30.031  1.00  0.00     0.047 C 
ATOM      5  C   UNL     1      10.868 -16.782 -31.293  1.00  0.00     0.025 C 
ATOM      6  C   UNL     1      11.867 -17.036 -32.424  1.00  0.00    -0.073 C 
ATOM      7  C   UNL     1      13.199 -16.862 -32.320  1.00  0.00     0.008 C 
ATOM      8  C   UNL     1      11.288 -17.603 -33.695  1.00  0.00     0.031 C 
ATOM      9  C   UNL     1      10.571 -18.917 -33.384  1.00  0.00     0.005 C 
ATOM     10  C   UNL     1       9.532 -18.742 -32.262  1.00  0.00     0.008 C 
ATOM     11  C   UNL     1      10.100 -18.101 -30.955  1.00  0.00    -0.018 C 
ATOM     12  C   UNL     1      11.056 -19.091 -30.240  1.00  0.00     0.088 C 
ATOM     13  C   UNL     1      11.732 -18.461 -29.057  1.00  0.00     0.159 C 
ATOM     14  O   UNL     1      11.838 -19.131 -27.995  1.00  0.00    -0.295 OA
ATOM     15  C   UNL     1       8.888 -17.806 -30.032  1.00  0.00     0.012 C 
ATOM     16  C   UNL     1      13.730 -15.181 -28.398  1.00  0.00     0.039 C 
ENDROOT
TORSDOF 0
ENDMDL
MODEL 8
REMARK VINA RESULT:    -6.022      1.807      2.351
REMARK INTER + INTRA:          -6.022
REMARK INTER:                  -6.022
REMARK INTRA:                   0.000
REMARK UNBOUND:                 0.000
REMARK SMILES C=C1CCC[C@@]2(C)CC(=O)C(=C(C)C)C[C@@H]12
REMARK SMILES IDX 13 1 12 2 11 3 15 4 16 5 2 6 1 7 3 8 4 9 5 10 6 11 8 12 9 13
REMARK SMILES IDX 10 14 7 15 14 16
REMARK H PARENT
REMARK Flexibility Score: inf
ROOT
ATOM      1  C   UNL     1      13.527 -17.165 -27.746  1.00  0.00     0.039 C 
ATOM      2  C   UNL     1      12.139 -17.603 -28.150  1.00  0.00    -0.070 C 
ATOM      3  C   UNL     1      11.754 -17.649 -29.459  1.00  0.00    -0.006 C 
ATOM      4  C   UNL     1      10.331 -18.027 -29.851  1.00  0.00     0.047 C 
ATOM      5  C   UNL     1       9.849 -17.349 -31.160  1.00  0.00     0.025 C 
ATOM      6  C   UNL     1       9.437 -15.882 -31.013  1.00  0.00    -0.073 C 
ATOM      7  C   UNL     1       9.617 -15.146 -29.900  1.00  0.00     0.008 C 
ATOM      8  C   UNL     1       8.875 -15.232 -32.252  1.00  0.00     0.031 C 
ATOM      9  C   UNL     1       9.897 -15.333 -33.386  1.00  0.00     0.005 C 
ATOM     10  C   UNL     1      10.352 -16.786 -33.609  1.00  0.00     0.008 C 
ATOM     11  C   UNL     1      10.884 -17.497 -32.323  1.00  0.00    -0.018 C 
ATOM     12  C   UNL     1      12.242 -16.887 -31.891  1.00  0.00     0.088 C 
ATOM     13  C   UNL     1      12.716 -17.446 -30.581  1.00  0.00     0.159 C 
ATOM     14  O   UNL     1      13.934 -17.747 -30.458  1.00  0.00    -0.295 OA
ATOM     15  C   UNL     1      11.088 -18.992 -32.685  1.00  0.00     0.012 C 
ATOM     16  C   UNL     1      11.178 -17.949 -27.036  1.00  0.00     0.039 C 
ENDROOT
TORSDOF 0
ENDMDL
MODEL 9
REMARK VINA RESULT:    -5.967      2.066      4.878
REMARK INTER + INTRA:          -5.967
REMARK INTER:                  -5.967
REMARK INTRA:                   0.000
REMARK UNBOUND:                 0.000
REMARK SMILES C=C1CCC[C@@]2(C)CC(=O)C(=C(C)C)C[C@@H]12
REMARK SMILES IDX 13 1 12 2 11 3 15 4 16 5 2 6 1 7 3 8 4 9 5 10 6 11 8 12 9 13
REMARK SMILES IDX 10 14 7 15 14 16
REMARK H PARENT
REMARK Flexibility Score: inf
ROOT
ATOM      1  C   UNL     1      10.435 -16.123 -34.445  1.00  0.00     0.039 C 
ATOM      2  C   UNL     1      10.368 -17.481 -33.787  1.00  0.00    -0.070 C 
ATOM      3  C   UNL     1      10.403 -17.624 -32.430  1.00  0.00    -0.006 C 
ATOM      4  C   UNL     1      10.403 -19.002 -31.780  1.00  0.00     0.047 C 
ATOM      5  C   UNL     1      11.163 -19.048 -30.429  1.00  0.00     0.025 C 
ATOM      6  C   UNL     1      12.688 -19.086 -30.547  1.00  0.00    -0.073 C 
ATOM      7  C   UNL     1      13.369 -18.924 -31.698  1.00  0.00     0.008 C 
ATOM      8  C   UNL     1      13.443 -19.228 -29.249  1.00  0.00     0.031 C 
ATOM      9  C   UNL     1      13.062 -18.081 -28.313  1.00  0.00     0.005 C 
ATOM     10  C   UNL     1      11.537 -17.985 -28.127  1.00  0.00     0.008 C 
ATOM     11  C   UNL     1      10.732 -17.896 -29.463  1.00  0.00    -0.018 C 
ATOM     12  C   UNL     1      10.974 -16.526 -30.149  1.00  0.00     0.088 C 
ATOM     13  C   UNL     1      10.331 -16.456 -31.504  1.00  0.00     0.159 C 
ATOM     14  O   UNL     1       9.725 -15.401 -31.831  1.00  0.00    -0.295 OA
ATOM     15  C   UNL     1       9.230 -18.025 -29.095  1.00  0.00     0.012 C 
ATOM     16  C   UNL     1      10.301 -18.683 -34.701  1.00  0.00     0.039 C 
ENDROOT
TORSDOF 0
ENDMDL
