MODEL 1
REMARK VINA RESULT:    13.387      0.000      0.000
REMARK INTER + INTRA:          16.461
REMARK INTER:                  16.909
REMARK INTRA:                  -0.448
REMARK UNBOUND:                -0.448
REMARK SMILES Oc1ccc(CCc2cc(O)cc(O)c2)cc1
REMARK SMILES IDX 6 1 5 2 4 3 3 4 2 5 16 6 17 7 1 8 7 10 8 11 15 12 9 13 13 14
REMARK SMILES IDX 10 15 12 16 14 17 11 19
REMARK H PARENT 1 9 14 18 11 20
REMARK Flexibility Score: inf
ROOT
ATOM      1  C   UNL     1     -15.883   7.518  -4.136  1.00  0.00     0.040 C 
ENDROOT
BRANCH   1   2
ATOM      2  C   UNL     1     -17.237   6.968  -3.776  1.00  0.00    -0.047 A 
ATOM      3  C   UNL     1     -17.367   5.645  -3.325  1.00  0.00     0.007 A 
ATOM      4  C   UNL     1     -18.628   5.125  -3.021  1.00  0.00     0.046 A 
ATOM      5  C   UNL     1     -19.773   5.918  -3.175  1.00  0.00     0.115 A 
ATOM      6  C   UNL     1     -18.388   7.756  -3.941  1.00  0.00     0.007 A 
ATOM      7  C   UNL     1     -19.648   7.234  -3.637  1.00  0.00     0.046 A 
BRANCH   5   8
ATOM      8  O   UNL     1     -21.035   5.412  -2.875  1.00  0.00    -0.508 OA
ATOM      9  H   UNL     1     -21.842   5.627  -3.449  1.00  0.00     0.293 HD
ENDBRANCH   5   8
ENDBRANCH   1   2
BRANCH   1  10
ATOM     10  C   UNL     1     -15.106   7.907  -2.875  1.00  0.00     0.040 C 
BRANCH  10  11
ATOM     11  C   UNL     1     -13.646   7.579  -3.030  1.00  0.00    -0.040 A 
ATOM     12  C   UNL     1     -13.199   6.256  -2.885  1.00  0.00     0.050 A 
ATOM     13  C   UNL     1     -12.728   8.582  -3.379  1.00  0.00     0.050 A 
ATOM     14  C   UNL     1     -11.843   5.944  -3.061  1.00  0.00     0.119 A 
ATOM     15  C   UNL     1     -11.375   8.273  -3.555  1.00  0.00     0.119 A 
ATOM     16  C   UNL     1     -10.935   6.953  -3.393  1.00  0.00     0.092 A 
BRANCH  14  17
ATOM     17  O   UNL     1     -11.391   4.635  -2.911  1.00  0.00    -0.508 OA
ATOM     18  H   UNL     1     -11.874   3.972  -2.315  1.00  0.00     0.293 HD
ENDBRANCH  14  17
BRANCH  15  19
ATOM     19  O   UNL     1     -10.478   9.284  -3.893  1.00  0.00    -0.508 OA
ATOM     20  H   UNL     1     -10.662   9.921  -4.659  1.00  0.00     0.293 HD
ENDBRANCH  15  19
ENDBRANCH  10  11
ENDBRANCH   1  10
TORSDOF 6
ENDMDL
MODEL 2
REMARK VINA RESULT:    13.690      0.128      2.353
REMARK INTER + INTRA:          16.844
REMARK INTER:                  17.285
REMARK INTRA:                  -0.442
REMARK UNBOUND:                -0.448
REMARK SMILES Oc1ccc(CCc2cc(O)cc(O)c2)cc1
REMARK SMILES IDX 6 1 5 2 4 3 3 4 2 5 16 6 17 7 1 8 7 10 8 11 15 12 9 13 13 14
REMARK SMILES IDX 10 15 12 16 14 17 11 19
REMARK H PARENT 1 9 14 18 11 20
REMARK Flexibility Score: inf
ROOT
ATOM      1  C   UNL     1     -16.009   7.536  -4.166  1.00  0.00     0.040 C 
ENDROOT
BRANCH   1   2
ATOM      2  C   UNL     1     -17.366   6.965  -3.854  1.00  0.00    -0.047 A 
ATOM      3  C   UNL     1     -18.519   7.749  -4.015  1.00  0.00     0.007 A 
ATOM      4  C   UNL     1     -19.776   7.229  -3.694  1.00  0.00     0.046 A 
ATOM      5  C   UNL     1     -19.892   5.923  -3.199  1.00  0.00     0.115 A 
ATOM      6  C   UNL     1     -17.486   5.661  -3.345  1.00  0.00     0.007 A 
ATOM      7  C   UNL     1     -18.744   5.142  -3.025  1.00  0.00     0.046 A 
BRANCH   5   8
ATOM      8  O   UNL     1     -21.139   5.393  -2.876  1.00  0.00    -0.508 OA
ATOM      9  H   UNL     1     -21.893   5.981  -2.539  1.00  0.00     0.293 HD
ENDBRANCH   5   8
ENDBRANCH   1   2
BRANCH   1  10
ATOM     10  C   UNL     1     -15.232   7.814  -2.877  1.00  0.00     0.040 C 
BRANCH  10  11
ATOM     11  C   UNL     1     -13.767   7.530  -3.070  1.00  0.00    -0.040 A 
ATOM     12  C   UNL     1     -12.877   8.574  -3.369  1.00  0.00     0.050 A 
ATOM     13  C   UNL     1     -13.269   6.229  -2.897  1.00  0.00     0.050 A 
ATOM     14  C   UNL     1     -11.507   8.316  -3.517  1.00  0.00     0.119 A 
ATOM     15  C   UNL     1     -11.903   5.969  -3.044  1.00  0.00     0.119 A 
ATOM     16  C   UNL     1     -11.024   7.014  -3.357  1.00  0.00     0.092 A 
BRANCH  14  17
ATOM     17  O   UNL     1     -10.619   9.346  -3.819  1.00  0.00    -0.508 OA
ATOM     18  H   UNL     1     -10.905  10.146  -4.373  1.00  0.00     0.293 HD
ENDBRANCH  14  17
BRANCH  15  19
ATOM     19  O   UNL     1     -11.428   4.669  -2.876  1.00  0.00    -0.508 OA
ATOM     20  H   UNL     1     -10.548   4.483  -2.410  1.00  0.00     0.293 HD
ENDBRANCH  15  19
ENDBRANCH  10  11
ENDBRANCH   1  10
TORSDOF 6
ENDMDL
MODEL 3
REMARK VINA RESULT:    15.253     13.666     15.954
REMARK INTER + INTRA:          18.818
REMARK INTER:                  19.328
REMARK INTRA:                  -0.510
REMARK UNBOUND:                -0.448
REMARK SMILES Oc1ccc(CCc2cc(O)cc(O)c2)cc1
REMARK SMILES IDX 6 1 5 2 4 3 3 4 2 5 16 6 17 7 1 8 7 10 8 11 15 12 9 13 13 14
REMARK SMILES IDX 10 15 12 16 14 17 11 19
REMARK H PARENT 1 9 14 18 11 20
REMARK Flexibility Score: inf
ROOT
ATOM      1  C   UNL     1     -13.712  18.638 -11.481  1.00  0.00     0.040 C 
ENDROOT
BRANCH   1   2
ATOM      2  C   UNL     1     -12.859  19.011 -12.664  1.00  0.00    -0.047 A 
ATOM      3  C   UNL     1     -12.027  20.140 -12.608  1.00  0.00     0.007 A 
ATOM      4  C   UNL     1     -11.259  20.505 -13.718  1.00  0.00     0.046 A 
ATOM      5  C   UNL     1     -11.324  19.752 -14.897  1.00  0.00     0.115 A 
ATOM      6  C   UNL     1     -12.931  18.266 -13.852  1.00  0.00     0.007 A 
ATOM      7  C   UNL     1     -12.163  18.633 -14.961  1.00  0.00     0.046 A 
BRANCH   5   8
ATOM      8  O   UNL     1     -10.564  20.105 -16.009  1.00  0.00    -0.508 OA
ATOM      9  H   UNL     1     -10.989  20.250 -16.918  1.00  0.00     0.293 HD
ENDBRANCH   5   8
ENDBRANCH   1   2
BRANCH   1  10
ATOM     10  C   UNL     1     -12.842  18.131 -10.328  1.00  0.00     0.040 C 
BRANCH  10  11
ATOM     11  C   UNL     1     -12.888  19.090  -9.169  1.00  0.00    -0.040 A 
ATOM     12  C   UNL     1     -13.921  19.006  -8.222  1.00  0.00     0.050 A 
ATOM     13  C   UNL     1     -11.867  20.037  -8.994  1.00  0.00     0.050 A 
ATOM     14  C   UNL     1     -13.946  19.878  -7.124  1.00  0.00     0.119 A 
ATOM     15  C   UNL     1     -11.890  20.908  -7.900  1.00  0.00     0.119 A 
ATOM     16  C   UNL     1     -12.933  20.828  -6.967  1.00  0.00     0.092 A 
BRANCH  14  17
ATOM     17  O   UNL     1     -14.971  19.805  -6.184  1.00  0.00    -0.508 OA
ATOM     18  H   UNL     1     -15.161  20.571  -5.546  1.00  0.00     0.293 HD
ENDBRANCH  14  17
BRANCH  15  19
ATOM     19  O   UNL     1     -10.872  21.847  -7.747  1.00  0.00    -0.508 OA
ATOM     20  H   UNL     1     -10.079  21.876  -8.377  1.00  0.00     0.293 HD
ENDBRANCH  15  19
ENDBRANCH  10  11
ENDBRANCH   1  10
TORSDOF 6
ENDMDL
MODEL 4
REMARK VINA RESULT:    15.355     13.632     16.037
REMARK INTER + INTRA:          18.947
REMARK INTER:                  19.468
REMARK INTRA:                  -0.521
REMARK UNBOUND:                -0.448
REMARK SMILES Oc1ccc(CCc2cc(O)cc(O)c2)cc1
REMARK SMILES IDX 6 1 5 2 4 3 3 4 2 5 16 6 17 7 1 8 7 10 8 11 15 12 9 13 13 14
REMARK SMILES IDX 10 15 12 16 14 17 11 19
REMARK H PARENT 1 9 14 18 11 20
REMARK Flexibility Score: inf
ROOT
ATOM      1  C   UNL     1     -13.658  18.625 -11.477  1.00  0.00     0.040 C 
ENDROOT
BRANCH   1   2
ATOM      2  C   UNL     1     -12.807  19.007 -12.657  1.00  0.00    -0.047 A 
ATOM      3  C   UNL     1     -12.000  20.154 -12.607  1.00  0.00     0.007 A 
ATOM      4  C   UNL     1     -11.234  20.527 -13.716  1.00  0.00     0.046 A 
ATOM      5  C   UNL     1     -11.276  19.762 -14.889  1.00  0.00     0.115 A 
ATOM      6  C   UNL     1     -12.855  18.250 -13.840  1.00  0.00     0.007 A 
ATOM      7  C   UNL     1     -12.089  18.624 -14.947  1.00  0.00     0.046 A 
BRANCH   5   8
ATOM      8  O   UNL     1     -10.517  20.122 -16.000  1.00  0.00    -0.508 OA
ATOM      9  H   UNL     1     -10.637  19.662 -16.895  1.00  0.00     0.293 HD
ENDBRANCH   5   8
ENDBRANCH   1   2
BRANCH   1  10
ATOM     10  C   UNL     1     -12.788  18.090 -10.335  1.00  0.00     0.040 C 
BRANCH  10  11
ATOM     11  C   UNL     1     -12.831  19.023  -9.155  1.00  0.00    -0.040 A 
ATOM     12  C   UNL     1     -11.844  20.010  -8.998  1.00  0.00     0.050 A 
ATOM     13  C   UNL     1     -13.888  18.953  -8.235  1.00  0.00     0.050 A 
ATOM     14  C   UNL     1     -11.900  20.901  -7.917  1.00  0.00     0.119 A 
ATOM     15  C   UNL     1     -13.947  19.841  -7.156  1.00  0.00     0.119 A 
ATOM     16  C   UNL     1     -12.950  20.812  -6.997  1.00  0.00     0.092 A 
BRANCH  14  17
ATOM     17  O   UNL     1     -10.921  21.877  -7.750  1.00  0.00    -0.508 OA
ATOM     18  H   UNL     1     -11.036  22.635  -7.086  1.00  0.00     0.293 HD
ENDBRANCH  14  17
BRANCH  15  19
ATOM     19  O   UNL     1     -15.000  19.750  -6.248  1.00  0.00    -0.508 OA
ATOM     20  H   UNL     1     -15.673  18.994  -6.291  1.00  0.00     0.293 HD
ENDBRANCH  15  19
ENDBRANCH  10  11
ENDBRANCH   1  10
TORSDOF 6
ENDMDL
MODEL 5
REMARK VINA RESULT:    15.894     16.848     18.675
REMARK INTER + INTRA:          19.627
REMARK INTER:                  20.117
REMARK INTRA:                  -0.490
REMARK UNBOUND:                -0.448
REMARK SMILES Oc1ccc(CCc2cc(O)cc(O)c2)cc1
REMARK SMILES IDX 6 1 5 2 4 3 3 4 2 5 16 6 17 7 1 8 7 10 8 11 15 12 9 13 13 14
REMARK SMILES IDX 10 15 12 16 14 17 11 19
REMARK H PARENT 1 9 14 18 11 20
REMARK Flexibility Score: inf
ROOT
ATOM      1  C   UNL     1      -6.671   6.140 -18.752  1.00  0.00     0.040 C 
ENDROOT
BRANCH   1   2
ATOM      2  C   UNL     1      -7.141   7.370 -18.025  1.00  0.00    -0.047 A 
ATOM      3  C   UNL     1      -6.944   7.494 -16.641  1.00  0.00     0.007 A 
ATOM      4  C   UNL     1      -7.410   8.623 -15.960  1.00  0.00     0.046 A 
ATOM      5  C   UNL     1      -8.088   9.633 -16.655  1.00  0.00     0.115 A 
ATOM      6  C   UNL     1      -7.832   8.380 -18.715  1.00  0.00     0.007 A 
ATOM      7  C   UNL     1      -8.298   9.508 -18.033  1.00  0.00     0.046 A 
BRANCH   5   8
ATOM      8  O   UNL     1      -8.557  10.763 -15.988  1.00  0.00    -0.508 OA
ATOM      9  H   UNL     1      -8.106  11.109 -15.149  1.00  0.00     0.293 HD
ENDBRANCH   5   8
ENDBRANCH   1   2
BRANCH   1  10
ATOM     10  C   UNL     1      -7.823   5.148 -18.936  1.00  0.00     0.040 C 
BRANCH  10  11
ATOM     11  C   UNL     1      -7.972   4.772 -20.385  1.00  0.00    -0.040 A 
ATOM     12  C   UNL     1      -6.981   4.007 -21.023  1.00  0.00     0.050 A 
ATOM     13  C   UNL     1      -9.127   5.133 -21.096  1.00  0.00     0.050 A 
ATOM     14  C   UNL     1      -7.134   3.628 -22.364  1.00  0.00     0.119 A 
ATOM     15  C   UNL     1      -9.282   4.757 -22.434  1.00  0.00     0.119 A 
ATOM     16  C   UNL     1      -8.282   4.006 -23.067  1.00  0.00     0.092 A 
BRANCH  14  17
ATOM     17  O   UNL     1      -6.153   2.875 -23.005  1.00  0.00    -0.508 OA
ATOM     18  H   UNL     1      -5.715   3.195 -23.861  1.00  0.00     0.293 HD
ENDBRANCH  14  17
BRANCH  15  19
ATOM     19  O   UNL     1     -10.432   5.131 -23.125  1.00  0.00    -0.508 OA
ATOM     20  H   UNL     1     -11.263   4.551 -23.124  1.00  0.00     0.293 HD
ENDBRANCH  15  19
ENDBRANCH  10  11
ENDBRANCH   1  10
TORSDOF 6
ENDMDL
