MODEL 1
REMARK VINA RESULT:    -4.709      0.000      0.000
REMARK INTER + INTRA:         -11.144
REMARK INTER:                  -9.114
REMARK INTRA:                  -2.030
REMARK UNBOUND:                -2.030
REMARK SMILES CCCCCCCCCCCCCCCCCC(=O)[O-]
REMARK SMILES IDX 10 1 11 2 12 3 13 4 14 5 15 6 16 7 17 8 18 9 19 10 20 11
REMARK SMILES IDX 9 12 8 13 7 14 6 15 5 16 4 17 3 18 2 19 1 20
REMARK H PARENT
REMARK Flexibility Score: inf
ROOT
ATOM      1  C   UNL     1     189.163 193.500 193.152  1.00  0.00     0.000 C 
ENDROOT
BRANCH   1   2
ATOM      2  C   UNL     1     189.687 194.390 194.294  1.00  0.00     0.000 C 
BRANCH   2   3
ATOM      3  C   UNL     1     188.950 194.145 195.621  1.00  0.00     0.000 C 
BRANCH   3   4
ATOM      4  C   UNL     1     187.455 194.501 195.539  1.00  0.00     0.000 C 
BRANCH   4   5
ATOM      5  C   UNL     1     187.120 195.813 196.267  1.00  0.00     0.000 C 
BRANCH   5   6
ATOM      6  C   UNL     1     187.199 197.040 195.347  1.00  0.00     0.000 C 
BRANCH   6   7
ATOM      7  C   UNL     1     188.530 197.783 195.536  1.00  0.00     0.006 C 
BRANCH   7   8
ATOM      8  C   UNL     1     189.093 197.615 196.954  1.00  0.00     0.053 C 
BRANCH   8   9
ATOM      9  C   UNL     1     189.852 198.829 197.398  1.00  0.00     0.041 C 
ATOM     10  O   UNL     1     189.248 199.785 197.952  1.00  0.00    -0.550 OA
ATOM     11  O   UNL     1     191.219 198.918 197.168  1.00  0.00    -0.550 OA
ENDBRANCH   8   9
ENDBRANCH   7   8
ENDBRANCH   6   7
ENDBRANCH   5   6
ENDBRANCH   4   5
ENDBRANCH   3   4
ENDBRANCH   2   3
ENDBRANCH   1   2
BRANCH   1  12
ATOM     12  C   UNL     1     189.760 192.084 193.185  1.00  0.00     0.000 C 
BRANCH  12  13
ATOM     13  C   UNL     1     189.982 191.503 191.781  1.00  0.00    -0.000 C 
BRANCH  13  14
ATOM     14  C   UNL     1     190.804 192.463 190.912  1.00  0.00    -0.000 C 
BRANCH  14  15
ATOM     15  C   UNL     1     192.234 192.610 191.453  1.00  0.00    -0.000 C 
BRANCH  15  16
ATOM     16  C   UNL     1     192.883 193.950 191.045  1.00  0.00    -0.000 C 
BRANCH  16  17
ATOM     17  C   UNL     1     192.359 195.160 191.841  1.00  0.00    -0.000 C 
BRANCH  17  18
ATOM     18  C   UNL     1     191.443 196.112 191.050  1.00  0.00    -0.000 C 
BRANCH  18  19
ATOM     19  C   UNL     1     191.317 197.528 191.641  1.00  0.00    -0.003 C 
ATOM     20  C   UNL     1     191.374 197.543 193.168  1.00  0.00     0.004 C 
ENDBRANCH  18  19
ENDBRANCH  17  18
ENDBRANCH  16  17
ENDBRANCH  15  16
ENDBRANCH  14  15
ENDBRANCH  13  14
ENDBRANCH  12  13
ENDBRANCH   1  12
TORSDOF 16
ENDMDL
MODEL 2
REMARK VINA RESULT:    -4.698      4.344      6.533
REMARK INTER + INTRA:         -11.122
REMARK INTER:                  -8.698
REMARK INTRA:                  -2.423
REMARK UNBOUND:                -2.030
REMARK SMILES CCCCCCCCCCCCCCCCCC(=O)[O-]
REMARK SMILES IDX 10 1 11 2 12 3 13 4 14 5 15 6 16 7 17 8 18 9 19 10 20 11
REMARK SMILES IDX 9 12 8 13 7 14 6 15 5 16 4 17 3 18 2 19 1 20
REMARK H PARENT
REMARK Flexibility Score: inf
ROOT
ATOM      1  C   UNL     1     186.662 196.006 196.342  1.00  0.00     0.000 C 
ENDROOT
BRANCH   1   2
ATOM      2  C   UNL     1     186.202 196.000 194.873  1.00  0.00     0.000 C 
BRANCH   2   3
ATOM      3  C   UNL     1     184.773 195.459 194.701  1.00  0.00     0.000 C 
BRANCH   3   4
ATOM      4  C   UNL     1     184.595 194.671 193.391  1.00  0.00     0.000 C 
BRANCH   4   5
ATOM      5  C   UNL     1     185.486 193.421 193.328  1.00  0.00     0.000 C 
BRANCH   5   6
ATOM      6  C   UNL     1     186.548 193.503 192.221  1.00  0.00     0.000 C 
BRANCH   6   7
ATOM      7  C   UNL     1     187.260 192.154 192.043  1.00  0.00     0.006 C 
BRANCH   7   8
ATOM      8  C   UNL     1     187.845 191.986 190.634  1.00  0.00     0.053 C 
BRANCH   8   9
ATOM      9  C   UNL     1     186.854 191.379 189.689  1.00  0.00     0.041 C 
ATOM     10  O   UNL     1     186.261 190.311 189.994  1.00  0.00    -0.550 OA
ATOM     11  O   UNL     1     186.613 191.973 188.457  1.00  0.00    -0.550 OA
ENDBRANCH   8   9
ENDBRANCH   7   8
ENDBRANCH   6   7
ENDBRANCH   5   6
ENDBRANCH   4   5
ENDBRANCH   3   4
ENDBRANCH   2   3
ENDBRANCH   1   2
BRANCH   1  12
ATOM     12  C   UNL     1     187.992 195.265 196.547  1.00  0.00     0.000 C 
BRANCH  12  13
ATOM     13  C   UNL     1     188.175 194.097 195.566  1.00  0.00    -0.000 C 
BRANCH  13  14
ATOM     14  C   UNL     1     189.564 194.139 194.916  1.00  0.00    -0.000 C 
BRANCH  14  15
ATOM     15  C   UNL     1     189.593 195.128 193.741  1.00  0.00    -0.000 C 
BRANCH  15  16
ATOM     16  C   UNL     1     190.835 194.938 192.843  1.00  0.00    -0.000 C 
BRANCH  16  17
ATOM     17  C   UNL     1     190.659 193.853 191.764  1.00  0.00    -0.000 C 
BRANCH  17  18
ATOM     18  C   UNL     1     191.838 192.871 191.631  1.00  0.00    -0.000 C 
BRANCH  18  19
ATOM     19  C   UNL     1     191.445 191.383 191.655  1.00  0.00    -0.003 C 
ATOM     20  C   UNL     1     190.788 190.962 192.969  1.00  0.00     0.004 C 
ENDBRANCH  18  19
ENDBRANCH  17  18
ENDBRANCH  16  17
ENDBRANCH  15  16
ENDBRANCH  14  15
ENDBRANCH  13  14
ENDBRANCH  12  13
ENDBRANCH   1  12
TORSDOF 16
ENDMDL
MODEL 3
REMARK VINA RESULT:    -4.627      1.442      3.288
REMARK INTER + INTRA:         -10.985
REMARK INTER:                  -8.964
REMARK INTRA:                  -2.021
REMARK UNBOUND:                -2.030
REMARK SMILES CCCCCCCCCCCCCCCCCC(=O)[O-]
REMARK SMILES IDX 10 1 11 2 12 3 13 4 14 5 15 6 16 7 17 8 18 9 19 10 20 11
REMARK SMILES IDX 9 12 8 13 7 14 6 15 5 16 4 17 3 18 2 19 1 20
REMARK H PARENT
REMARK Flexibility Score: inf
ROOT
ATOM      1  C   UNL     1     190.379 195.794 193.340  1.00  0.00     0.000 C 
ENDROOT
BRANCH   1   2
ATOM      2  C   UNL     1     189.976 194.483 194.038  1.00  0.00     0.000 C 
BRANCH   2   3
ATOM      3  C   UNL     1     188.464 194.213 193.965  1.00  0.00     0.000 C 
BRANCH   3   4
ATOM      4  C   UNL     1     187.647 195.201 194.815  1.00  0.00     0.000 C 
BRANCH   4   5
ATOM      5  C   UNL     1     188.154 195.296 196.263  1.00  0.00     0.000 C 
BRANCH   5   6
ATOM      6  C   UNL     1     188.566 196.722 196.656  1.00  0.00     0.000 C 
BRANCH   6   7
ATOM      7  C   UNL     1     189.787 196.703 197.588  1.00  0.00     0.006 C 
BRANCH   7   8
ATOM      8  C   UNL     1     190.638 197.973 197.458  1.00  0.00     0.053 C 
BRANCH   8   9
ATOM      9  C   UNL     1     190.121 199.080 198.327  1.00  0.00     0.041 C 
ATOM     10  O   UNL     1     189.281 199.900 197.873  1.00  0.00    -0.550 OA
ATOM     11  O   UNL     1     190.593 199.224 199.625  1.00  0.00    -0.550 OA
ENDBRANCH   8   9
ENDBRANCH   7   8
ENDBRANCH   6   7
ENDBRANCH   5   6
ENDBRANCH   4   5
ENDBRANCH   3   4
ENDBRANCH   2   3
ENDBRANCH   1   2
BRANCH   1  12
ATOM     12  C   UNL     1     191.638 195.638 192.474  1.00  0.00     0.000 C 
BRANCH  12  13
ATOM     13  C   UNL     1     191.390 194.793 191.216  1.00  0.00    -0.000 C 
BRANCH  13  14
ATOM     14  C   UNL     1     192.510 193.764 191.015  1.00  0.00    -0.000 C 
BRANCH  14  15
ATOM     15  C   UNL     1     192.260 192.506 191.859  1.00  0.00    -0.000 C 
BRANCH  15  16
ATOM     16  C   UNL     1     191.244 191.547 191.200  1.00  0.00    -0.000 C 
BRANCH  16  17
ATOM     17  C   UNL     1     190.030 191.223 192.092  1.00  0.00    -0.000 C 
BRANCH  17  18
ATOM     18  C   UNL     1     188.658 191.452 191.432  1.00  0.00    -0.000 C 
BRANCH  18  19
ATOM     19  C   UNL     1     188.623 192.583 190.389  1.00  0.00    -0.003 C 
ATOM     20  C   UNL     1     187.534 192.387 189.334  1.00  0.00     0.004 C 
ENDBRANCH  18  19
ENDBRANCH  17  18
ENDBRANCH  16  17
ENDBRANCH  15  16
ENDBRANCH  14  15
ENDBRANCH  13  14
ENDBRANCH  12  13
ENDBRANCH   1  12
TORSDOF 16
ENDMDL
MODEL 4
REMARK VINA RESULT:    -4.617      5.642      7.794
REMARK INTER + INTRA:         -10.965
REMARK INTER:                  -8.333
REMARK INTRA:                  -2.632
REMARK UNBOUND:                -2.030
REMARK SMILES CCCCCCCCCCCCCCCCCC(=O)[O-]
REMARK SMILES IDX 10 1 11 2 12 3 13 4 14 5 15 6 16 7 17 8 18 9 19 10 20 11
REMARK SMILES IDX 9 12 8 13 7 14 6 15 5 16 4 17 3 18 2 19 1 20
REMARK H PARENT
REMARK Flexibility Score: inf
ROOT
ATOM      1  C   UNL     1     188.017 191.741 192.620  1.00  0.00     0.000 C 
ENDROOT
BRANCH   1   2
ATOM      2  C   UNL     1     187.598 192.546 191.375  1.00  0.00     0.000 C 
BRANCH   2   3
ATOM      3  C   UNL     1     187.926 191.818 190.061  1.00  0.00     0.000 C 
BRANCH   3   4
ATOM      4  C   UNL     1     186.686 191.171 189.420  1.00  0.00     0.000 C 
BRANCH   4   5
ATOM      5  C   UNL     1     186.472 189.720 189.881  1.00  0.00     0.000 C 
BRANCH   5   6
ATOM      6  C   UNL     1     185.309 189.578 190.874  1.00  0.00     0.000 C 
BRANCH   6   7
ATOM      7  C   UNL     1     185.746 188.797 192.122  1.00  0.00     0.006 C 
BRANCH   7   8
ATOM      8  C   UNL     1     186.923 187.856 191.836  1.00  0.00     0.053 C 
BRANCH   8   9
ATOM      9  C   UNL     1     186.480 186.429 191.721  1.00  0.00     0.041 C 
ATOM     10  O   UNL     1     186.816 185.589 192.596  1.00  0.00    -0.550 OA
ATOM     11  O   UNL     1     185.725 186.021 190.629  1.00  0.00    -0.550 OA
ENDBRANCH   8   9
ENDBRANCH   7   8
ENDBRANCH   6   7
ENDBRANCH   5   6
ENDBRANCH   4   5
ENDBRANCH   3   4
ENDBRANCH   2   3
ENDBRANCH   1   2
BRANCH   1  12
ATOM     12  C   UNL     1     189.166 190.764 192.331  1.00  0.00     0.000 C 
BRANCH  12  13
ATOM     13  C   UNL     1     190.532 191.310 192.773  1.00  0.00    -0.000 C 
BRANCH  13  14
ATOM     14  C   UNL     1     191.494 191.415 191.583  1.00  0.00    -0.000 C 
BRANCH  14  15
ATOM     15  C   UNL     1     192.063 192.836 191.457  1.00  0.00    -0.000 C 
BRANCH  15  16
ATOM     16  C   UNL     1     190.960 193.917 191.494  1.00  0.00    -0.000 C 
BRANCH  16  17
ATOM     17  C   UNL     1     191.417 195.246 192.124  1.00  0.00    -0.000 C 
BRANCH  17  18
ATOM     18  C   UNL     1     190.553 195.741 193.299  1.00  0.00    -0.000 C 
BRANCH  18  19
ATOM     19  C   UNL     1     189.839 194.629 194.089  1.00  0.00    -0.003 C 
ATOM     20  C   UNL     1     188.403 194.993 194.463  1.00  0.00     0.004 C 
ENDBRANCH  18  19
ENDBRANCH  17  18
ENDBRANCH  16  17
ENDBRANCH  15  16
ENDBRANCH  14  15
ENDBRANCH  13  14
ENDBRANCH  12  13
ENDBRANCH   1  12
TORSDOF 16
ENDMDL
MODEL 5
REMARK VINA RESULT:    -4.584      3.655      6.717
REMARK INTER + INTRA:         -10.901
REMARK INTER:                  -8.467
REMARK INTRA:                  -2.434
REMARK UNBOUND:                -2.030
REMARK SMILES CCCCCCCCCCCCCCCCCC(=O)[O-]
REMARK SMILES IDX 10 1 11 2 12 3 13 4 14 5 15 6 16 7 17 8 18 9 19 10 20 11
REMARK SMILES IDX 9 12 8 13 7 14 6 15 5 16 4 17 3 18 2 19 1 20
REMARK H PARENT
REMARK Flexibility Score: inf
ROOT
ATOM      1  C   UNL     1     191.405 195.183 191.425  1.00  0.00     0.000 C 
ENDROOT
BRANCH   1   2
ATOM      2  C   UNL     1     192.729 194.452 191.135  1.00  0.00     0.000 C 
BRANCH   2   3
ATOM      3  C   UNL     1     192.713 192.989 191.608  1.00  0.00     0.000 C 
BRANCH   3   4
ATOM      4  C   UNL     1     191.468 192.226 191.125  1.00  0.00     0.000 C 
BRANCH   4   5
ATOM      5  C   UNL     1     190.968 191.200 192.155  1.00  0.00     0.000 C 
BRANCH   5   6
ATOM      6  C   UNL     1     189.435 191.145 192.242  1.00  0.00     0.000 C 
BRANCH   6   7
ATOM      7  C   UNL     1     188.792 192.040 191.172  1.00  0.00     0.006 C 
BRANCH   7   8
ATOM      8  C   UNL     1     187.381 192.496 191.565  1.00  0.00     0.053 C 
BRANCH   8   9
ATOM      9  C   UNL     1     186.550 191.357 192.074  1.00  0.00     0.041 C 
ATOM     10  O   UNL     1     186.208 191.315 193.285  1.00  0.00    -0.550 OA
ATOM     11  O   UNL     1     186.184 190.326 191.219  1.00  0.00    -0.550 OA
ENDBRANCH   8   9
ENDBRANCH   7   8
ENDBRANCH   6   7
ENDBRANCH   5   6
ENDBRANCH   4   5
ENDBRANCH   3   4
ENDBRANCH   2   3
ENDBRANCH   1   2
BRANCH   1  12
ATOM     12  C   UNL     1     191.503 196.123 192.636  1.00  0.00     0.000 C 
BRANCH  12  13
ATOM     13  C   UNL     1     190.333 195.949 193.616  1.00  0.00    -0.000 C 
BRANCH  13  14
ATOM     14  C   UNL     1     189.963 194.469 193.771  1.00  0.00    -0.000 C 
BRANCH  14  15
ATOM     15  C   UNL     1     189.036 194.256 194.978  1.00  0.00    -0.000 C 
BRANCH  15  16
ATOM     16  C   UNL     1     187.545 194.420 194.611  1.00  0.00    -0.000 C 
BRANCH  16  17
ATOM     17  C   UNL     1     186.911 195.713 195.157  1.00  0.00    -0.000 C 
BRANCH  17  18
ATOM     18  C   UNL     1     187.587 196.290 196.414  1.00  0.00    -0.000 C 
BRANCH  18  19
ATOM     19  C   UNL     1     188.273 197.653 196.213  1.00  0.00    -0.003 C 
ATOM     20  C   UNL     1     189.617 197.757 196.933  1.00  0.00     0.004 C 
ENDBRANCH  18  19
ENDBRANCH  17  18
ENDBRANCH  16  17
ENDBRANCH  15  16
ENDBRANCH  14  15
ENDBRANCH  13  14
ENDBRANCH  12  13
ENDBRANCH   1  12
TORSDOF 16
ENDMDL
MODEL 6
REMARK VINA RESULT:    -4.578      2.418      5.929
REMARK INTER + INTRA:         -10.889
REMARK INTER:                  -8.420
REMARK INTRA:                  -2.469
REMARK UNBOUND:                -2.030
REMARK SMILES CCCCCCCCCCCCCCCCCC(=O)[O-]
REMARK SMILES IDX 10 1 11 2 12 3 13 4 14 5 15 6 16 7 17 8 18 9 19 10 20 11
REMARK SMILES IDX 9 12 8 13 7 14 6 15 5 16 4 17 3 18 2 19 1 20
REMARK H PARENT
REMARK Flexibility Score: inf
ROOT
ATOM      1  C   UNL     1     186.533 192.180 193.264  1.00  0.00     0.000 C 
ENDROOT
BRANCH   1   2
ATOM      2  C   UNL     1     187.529 191.256 192.539  1.00  0.00     0.000 C 
BRANCH   2   3
ATOM      3  C   UNL     1     188.535 192.032 191.673  1.00  0.00     0.000 C 
BRANCH   3   4
ATOM      4  C   UNL     1     189.903 192.190 192.358  1.00  0.00     0.000 C 
BRANCH   4   5
ATOM      5  C   UNL     1     191.076 192.042 191.376  1.00  0.00     0.000 C 
BRANCH   5   6
ATOM      6  C   UNL     1     191.951 193.303 191.301  1.00  0.00     0.000 C 
BRANCH   6   7
ATOM      7  C   UNL     1     191.129 194.560 191.625  1.00  0.00     0.006 C 
BRANCH   7   8
ATOM      8  C   UNL     1     192.012 195.730 192.080  1.00  0.00     0.053 C 
BRANCH   8   9
ATOM      9  C   UNL     1     191.388 197.054 191.760  1.00  0.00     0.041 C 
ATOM     10  O   UNL     1     191.219 197.401 190.562  1.00  0.00    -0.550 OA
ATOM     11  O   UNL     1     191.025 197.919 192.785  1.00  0.00    -0.550 OA
ENDBRANCH   8   9
ENDBRANCH   7   8
ENDBRANCH   6   7
ENDBRANCH   5   6
ENDBRANCH   4   5
ENDBRANCH   3   4
ENDBRANCH   2   3
ENDBRANCH   1   2
BRANCH   1  12
ATOM     12  C   UNL     1     186.431 193.567 192.610  1.00  0.00     0.000 C 
BRANCH  12  13
ATOM     13  C   UNL     1     185.533 194.529 193.402  1.00  0.00    -0.000 C 
BRANCH  13  14
ATOM     14  C   UNL     1     185.348 194.046 194.846  1.00  0.00    -0.000 C 
BRANCH  14  15
ATOM     15  C   UNL     1     185.477 195.211 195.838  1.00  0.00    -0.000 C 
BRANCH  15  16
ATOM     16  C   UNL     1     186.235 196.415 195.237  1.00  0.00    -0.000 C 
BRANCH  16  17
ATOM     17  C   UNL     1     187.537 196.763 195.984  1.00  0.00    -0.000 C 
BRANCH  17  18
ATOM     18  C   UNL     1     188.817 196.688 195.132  1.00  0.00    -0.000 C 
BRANCH  18  19
ATOM     19  C   UNL     1     189.078 195.320 194.476  1.00  0.00    -0.003 C 
ATOM     20  C   UNL     1     189.228 194.190 195.493  1.00  0.00     0.004 C 
ENDBRANCH  18  19
ENDBRANCH  17  18
ENDBRANCH  16  17
ENDBRANCH  15  16
ENDBRANCH  14  15
ENDBRANCH  13  14
ENDBRANCH  12  13
ENDBRANCH   1  12
TORSDOF 16
ENDMDL
MODEL 7
REMARK VINA RESULT:    -4.574      3.510      7.994
REMARK INTER + INTRA:         -10.882
REMARK INTER:                  -8.983
REMARK INTRA:                  -1.900
REMARK UNBOUND:                -2.030
REMARK SMILES CCCCCCCCCCCCCCCCCC(=O)[O-]
REMARK SMILES IDX 10 1 11 2 12 3 13 4 14 5 15 6 16 7 17 8 18 9 19 10 20 11
REMARK SMILES IDX 9 12 8 13 7 14 6 15 5 16 4 17 3 18 2 19 1 20
REMARK H PARENT
REMARK Flexibility Score: inf
ROOT
ATOM      1  C   UNL     1     193.736 199.491 195.532  1.00  0.00     0.000 C 
ENDROOT
BRANCH   1   2
ATOM      2  C   UNL     1     192.957 198.892 194.345  1.00  0.00     0.000 C 
BRANCH   2   3
ATOM      3  C   UNL     1     193.357 199.516 192.999  1.00  0.00     0.000 C 
BRANCH   3   4
ATOM      4  C   UNL     1     192.293 199.299 191.909  1.00  0.00     0.000 C 
BRANCH   4   5
ATOM      5  C   UNL     1     191.318 198.161 192.254  1.00  0.00     0.000 C 
BRANCH   5   6
ATOM      6  C   UNL     1     191.467 196.950 191.322  1.00  0.00     0.000 C 
BRANCH   6   7
ATOM      7  C   UNL     1     191.881 195.699 192.111  1.00  0.00     0.006 C 
BRANCH   7   8
ATOM      8  C   UNL     1     192.177 194.504 191.194  1.00  0.00     0.053 C 
BRANCH   8   9
ATOM      9  C   UNL     1     191.337 193.313 191.544  1.00  0.00     0.041 C 
ATOM     10  O   UNL     1     191.858 192.169 191.610  1.00  0.00    -0.550 OA
ATOM     11  O   UNL     1     189.973 193.463 191.762  1.00  0.00    -0.550 OA
ENDBRANCH   8   9
ENDBRANCH   7   8
ENDBRANCH   6   7
ENDBRANCH   5   6
ENDBRANCH   4   5
ENDBRANCH   3   4
ENDBRANCH   2   3
ENDBRANCH   1   2
BRANCH   1  12
ATOM     12  C   UNL     1     193.744 201.027 195.516  1.00  0.00     0.000 C 
BRANCH  12  13
ATOM     13  C   UNL     1     193.459 201.634 196.898  1.00  0.00    -0.000 C 
BRANCH  13  14
ATOM     14  C   UNL     1     191.950 201.756 197.143  1.00  0.00    -0.000 C 
BRANCH  14  15
ATOM     15  C   UNL     1     191.497 200.814 198.268  1.00  0.00    -0.000 C 
BRANCH  15  16
ATOM     16  C   UNL     1     190.334 199.895 197.833  1.00  0.00    -0.000 C 
BRANCH  16  17
ATOM     17  C   UNL     1     190.760 198.437 197.575  1.00  0.00    -0.000 C 
BRANCH  17  18
ATOM     18  C   UNL     1     189.657 197.528 197.003  1.00  0.00    -0.000 C 
BRANCH  18  19
ATOM     19  C   UNL     1     189.508 197.576 195.472  1.00  0.00    -0.003 C 
ATOM     20  C   UNL     1     189.421 196.189 194.837  1.00  0.00     0.004 C 
ENDBRANCH  18  19
ENDBRANCH  17  18
ENDBRANCH  16  17
ENDBRANCH  15  16
ENDBRANCH  14  15
ENDBRANCH  13  14
ENDBRANCH  12  13
ENDBRANCH   1  12
TORSDOF 16
ENDMDL
MODEL 8
REMARK VINA RESULT:    -4.564      2.118      5.487
REMARK INTER + INTRA:         -10.863
REMARK INTER:                  -9.073
REMARK INTRA:                  -1.789
REMARK UNBOUND:                -2.030
REMARK SMILES CCCCCCCCCCCCCCCCCC(=O)[O-]
REMARK SMILES IDX 10 1 11 2 12 3 13 4 14 5 15 6 16 7 17 8 18 9 19 10 20 11
REMARK SMILES IDX 9 12 8 13 7 14 6 15 5 16 4 17 3 18 2 19 1 20
REMARK H PARENT
REMARK Flexibility Score: inf
ROOT
ATOM      1  C   UNL     1     190.113 192.434 192.412  1.00  0.00     0.000 C 
ENDROOT
BRANCH   1   2
ATOM      2  C   UNL     1     190.709 193.005 191.113  1.00  0.00     0.000 C 
BRANCH   2   3
ATOM      3  C   UNL     1     192.246 193.029 191.127  1.00  0.00     0.000 C 
BRANCH   3   4
ATOM      4  C   UNL     1     192.813 194.459 191.165  1.00  0.00     0.000 C 
BRANCH   4   5
ATOM      5  C   UNL     1     191.716 195.526 191.308  1.00  0.00     0.000 C 
BRANCH   5   6
ATOM      6  C   UNL     1     191.824 196.316 192.621  1.00  0.00     0.000 C 
BRANCH   6   7
ATOM      7  C   UNL     1     191.109 197.671 192.507  1.00  0.00     0.006 C 
BRANCH   7   8
ATOM      8  C   UNL     1     191.665 198.528 191.361  1.00  0.00     0.053 C 
BRANCH   8   9
ATOM      9  C   UNL     1     192.616 199.573 191.860  1.00  0.00     0.041 C 
ATOM     10  O   UNL     1     193.252 199.390 192.931  1.00  0.00    -0.550 OA
ATOM     11  O   UNL     1     192.773 200.762 191.160  1.00  0.00    -0.550 OA
ENDBRANCH   8   9
ENDBRANCH   7   8
ENDBRANCH   6   7
ENDBRANCH   5   6
ENDBRANCH   4   5
ENDBRANCH   3   4
ENDBRANCH   2   3
ENDBRANCH   1   2
BRANCH   1  12
ATOM     12  C   UNL     1     188.583 192.566 192.468  1.00  0.00     0.000 C 
BRANCH  12  13
ATOM     13  C   UNL     1     188.107 193.439 193.639  1.00  0.00    -0.000 C 
BRANCH  13  14
ATOM     14  C   UNL     1     189.228 194.368 194.122  1.00  0.00    -0.000 C 
BRANCH  14  15
ATOM     15  C   UNL     1     189.583 194.086 195.590  1.00  0.00    -0.000 C 
BRANCH  15  16
ATOM     16  C   UNL     1     189.128 195.220 196.534  1.00  0.00    -0.000 C 
BRANCH  16  17
ATOM     17  C   UNL     1     189.000 196.589 195.841  1.00  0.00    -0.000 C 
BRANCH  17  18
ATOM     18  C   UNL     1     187.604 197.233 195.923  1.00  0.00    -0.000 C 
BRANCH  18  19
ATOM     19  C   UNL     1     186.473 196.410 195.278  1.00  0.00    -0.003 C 
ATOM     20  C   UNL     1     185.684 195.584 196.293  1.00  0.00     0.004 C 
ENDBRANCH  18  19
ENDBRANCH  17  18
ENDBRANCH  16  17
ENDBRANCH  15  16
ENDBRANCH  14  15
ENDBRANCH  13  14
ENDBRANCH  12  13
ENDBRANCH   1  12
TORSDOF 16
ENDMDL
MODEL 9
REMARK VINA RESULT:    -4.562      1.930      5.803
REMARK INTER + INTRA:         -10.859
REMARK INTER:                  -9.132
REMARK INTRA:                  -1.727
REMARK UNBOUND:                -2.030
REMARK SMILES CCCCCCCCCCCCCCCCCC(=O)[O-]
REMARK SMILES IDX 10 1 11 2 12 3 13 4 14 5 15 6 16 7 17 8 18 9 19 10 20 11
REMARK SMILES IDX 9 12 8 13 7 14 6 15 5 16 4 17 3 18 2 19 1 20
REMARK H PARENT
REMARK Flexibility Score: inf
ROOT
ATOM      1  C   UNL     1     188.216 192.847 192.082  1.00  0.00     0.000 C 
ENDROOT
BRANCH   1   2
ATOM      2  C   UNL     1     189.144 191.737 191.557  1.00  0.00     0.000 C 
BRANCH   2   3
ATOM      3  C   UNL     1     190.229 191.343 192.572  1.00  0.00     0.000 C 
BRANCH   3   4
ATOM      4  C   UNL     1     191.651 191.490 192.002  1.00  0.00     0.000 C 
BRANCH   4   5
ATOM      5  C   UNL     1     191.743 192.575 190.917  1.00  0.00     0.000 C 
BRANCH   5   6
ATOM      6  C   UNL     1     192.320 193.897 191.447  1.00  0.00     0.000 C 
BRANCH   6   7
ATOM      7  C   UNL     1     191.267 195.014 191.397  1.00  0.00     0.006 C 
BRANCH   7   8
ATOM      8  C   UNL     1     191.337 195.936 192.622  1.00  0.00     0.053 C 
BRANCH   8   9
ATOM      9  C   UNL     1     191.583 197.362 192.231  1.00  0.00     0.041 C 
ATOM     10  O   UNL     1     191.235 197.775 191.095  1.00  0.00    -0.550 OA
ATOM     11  O   UNL     1     192.229 198.223 193.110  1.00  0.00    -0.550 OA
ENDBRANCH   8   9
ENDBRANCH   7   8
ENDBRANCH   6   7
ENDBRANCH   5   6
ENDBRANCH   4   5
ENDBRANCH   3   4
ENDBRANCH   2   3
ENDBRANCH   1   2
BRANCH   1  12
ATOM     12  C   UNL     1     188.724 193.472 193.390  1.00  0.00     0.000 C 
BRANCH  12  13
ATOM     13  C   UNL     1     187.634 194.261 194.131  1.00  0.00    -0.000 C 
BRANCH  13  14
ATOM     14  C   UNL     1     188.059 194.566 195.573  1.00  0.00    -0.000 C 
BRANCH  14  15
ATOM     15  C   UNL     1     187.154 195.635 196.201  1.00  0.00    -0.000 C 
BRANCH  15  16
ATOM     16  C   UNL     1     187.706 197.064 196.002  1.00  0.00    -0.000 C 
BRANCH  16  17
ATOM     17  C   UNL     1     189.241 197.151 196.082  1.00  0.00    -0.000 C 
BRANCH  17  18
ATOM     18  C   UNL     1     189.824 197.097 197.507  1.00  0.00    -0.000 C 
BRANCH  18  19
ATOM     19  C   UNL     1     190.466 198.409 197.993  1.00  0.00    -0.003 C 
ATOM     20  C   UNL     1     189.528 199.610 197.878  1.00  0.00     0.004 C 
ENDBRANCH  18  19
ENDBRANCH  17  18
ENDBRANCH  16  17
ENDBRANCH  15  16
ENDBRANCH  14  15
ENDBRANCH  13  14
ENDBRANCH  12  13
ENDBRANCH   1  12
TORSDOF 16
ENDMDL
