MODEL 1
REMARK VINA RESULT:    -5.308      0.000      0.000
REMARK INTER + INTRA:          -8.523
REMARK INTER:                  -8.100
REMARK INTRA:                  -0.423
REMARK UNBOUND:                -0.423
REMARK SMILES CCCCCCCCCCC(=O)[O-]
REMARK SMILES IDX 7 1 8 2 9 3 10 4 11 5 12 6 13 7 6 8 5 9 4 10 3 11 2 12 1 13
REMARK H PARENT
REMARK Flexibility Score: inf
ROOT
ATOM      1  C   UNL     1     104.567 312.117 195.784  1.00  0.00     0.000 C 
ENDROOT
BRANCH   1   2
ATOM      2  C   UNL     1     104.197 311.441 197.113  1.00  0.00     0.000 C 
BRANCH   2   3
ATOM      3  C   UNL     1     103.747 312.447 198.183  1.00  0.00     0.006 C 
BRANCH   3   4
ATOM      4  C   UNL     1     103.251 311.766 199.464  1.00  0.00     0.053 C 
BRANCH   4   5
ATOM      5  C   UNL     1     104.113 312.148 200.626  1.00  0.00     0.041 C 
ATOM      6  O   UNL     1     104.897 313.129 200.537  1.00  0.00    -0.550 OA
ATOM      7  O   UNL     1     104.086 311.392 201.790  1.00  0.00    -0.550 OA
ENDBRANCH   4   5
ENDBRANCH   3   4
ENDBRANCH   2   3
ENDBRANCH   1   2
BRANCH   1   8
ATOM      8  C   UNL     1     103.474 311.893 194.731  1.00  0.00     0.000 C 
BRANCH   8   9
ATOM      9  C   UNL     1     104.077 311.414 193.405  1.00  0.00    -0.000 C 
BRANCH   9  10
ATOM     10  C   UNL     1     105.434 312.085 193.144  1.00  0.00    -0.000 C 
BRANCH  10  11
ATOM     11  C   UNL     1     105.363 313.183 192.068  1.00  0.00    -0.000 C 
BRANCH  11  12
ATOM     12  C   UNL     1     104.023 313.268 191.317  1.00  0.00    -0.003 C 
ATOM     13  C   UNL     1     104.021 314.326 190.214  1.00  0.00     0.004 C 
ENDBRANCH  11  12
ENDBRANCH  10  11
ENDBRANCH   9  10
ENDBRANCH   8   9
ENDBRANCH   1   8
TORSDOF 9
ENDMDL
MODEL 2
REMARK VINA RESULT:    -5.302      5.342      8.101
REMARK INTER + INTRA:          -8.514
REMARK INTER:                  -7.975
REMARK INTRA:                  -0.539
REMARK UNBOUND:                -0.423
REMARK SMILES CCCCCCCCCCC(=O)[O-]
REMARK SMILES IDX 7 1 8 2 9 3 10 4 11 5 12 6 13 7 6 8 5 9 4 10 3 11 2 12 1 13
REMARK H PARENT
REMARK Flexibility Score: inf
ROOT
ATOM      1  C   UNL     1     104.046 312.708 192.122  1.00  0.00     0.000 C 
ENDROOT
BRANCH   1   2
ATOM      2  C   UNL     1     105.351 313.470 191.842  1.00  0.00     0.000 C 
BRANCH   2   3
ATOM      3  C   UNL     1     105.218 314.461 190.675  1.00  0.00     0.006 C 
BRANCH   3   4
ATOM      4  C   UNL     1     103.838 314.407 190.008  1.00  0.00     0.053 C 
BRANCH   4   5
ATOM      5  C   UNL     1     103.842 315.197 188.737  1.00  0.00     0.041 C 
ATOM      6  O   UNL     1     102.819 315.223 188.004  1.00  0.00    -0.550 OA
ATOM      7  O   UNL     1     104.991 315.866 188.339  1.00  0.00    -0.550 OA
ENDBRANCH   4   5
ENDBRANCH   3   4
ENDBRANCH   2   3
ENDBRANCH   1   2
BRANCH   1   8
ATOM      8  C   UNL     1     104.279 311.573 193.127  1.00  0.00     0.000 C 
BRANCH   8   9
ATOM      9  C   UNL     1     105.741 311.537 193.589  1.00  0.00    -0.000 C 
BRANCH   9  10
ATOM     10  C   UNL     1     105.832 311.537 195.122  1.00  0.00    -0.000 C 
BRANCH  10  11
ATOM     11  C   UNL     1     104.667 312.287 195.793  1.00  0.00    -0.000 C 
BRANCH  11  12
ATOM     12  C   UNL     1     103.906 311.479 196.859  1.00  0.00    -0.003 C 
ATOM     13  C   UNL     1     103.843 312.186 198.212  1.00  0.00     0.004 C 
ENDBRANCH  11  12
ENDBRANCH  10  11
ENDBRANCH   9  10
ENDBRANCH   8   9
ENDBRANCH   1   8
TORSDOF 9
ENDMDL
MODEL 3
REMARK VINA RESULT:    -5.265      0.786      1.664
REMARK INTER + INTRA:          -8.458
REMARK INTER:                  -8.051
REMARK INTRA:                  -0.407
REMARK UNBOUND:                -0.423
REMARK SMILES CCCCCCCCCCC(=O)[O-]
REMARK SMILES IDX 7 1 8 2 9 3 10 4 11 5 12 6 13 7 6 8 5 9 4 10 3 11 2 12 1 13
REMARK H PARENT
REMARK Flexibility Score: inf
ROOT
ATOM      1  C   UNL     1     103.428 311.846 194.671  1.00  0.00     0.000 C 
ENDROOT
BRANCH   1   2
ATOM      2  C   UNL     1     104.575 311.981 195.684  1.00  0.00     0.000 C 
BRANCH   2   3
ATOM      3  C   UNL     1     104.173 311.526 197.096  1.00  0.00     0.006 C 
BRANCH   3   4
ATOM      4  C   UNL     1     103.799 312.699 198.011  1.00  0.00     0.053 C 
BRANCH   4   5
ATOM      5  C   UNL     1     103.739 312.249 199.437  1.00  0.00     0.041 C 
ATOM      6  O   UNL     1     102.848 311.442 199.810  1.00  0.00    -0.550 OA
ATOM      7  O   UNL     1     104.637 312.760 200.365  1.00  0.00    -0.550 OA
ENDBRANCH   4   5
ENDBRANCH   3   4
ENDBRANCH   2   3
ENDBRANCH   1   2
BRANCH   1   8
ATOM      8  C   UNL     1     103.958 311.416 193.297  1.00  0.00     0.000 C 
BRANCH   8   9
ATOM      9  C   UNL     1     105.416 311.851 193.108  1.00  0.00    -0.000 C 
BRANCH   9  10
ATOM     10  C   UNL     1     105.508 313.076 192.186  1.00  0.00    -0.000 C 
BRANCH  10  11
ATOM     11  C   UNL     1     104.190 313.372 191.448  1.00  0.00    -0.000 C 
BRANCH  11  12
ATOM     12  C   UNL     1     104.229 314.599 190.520  1.00  0.00    -0.003 C 
ATOM     13  C   UNL     1     103.388 314.420 189.257  1.00  0.00     0.004 C 
ENDBRANCH  11  12
ENDBRANCH  10  11
ENDBRANCH   9  10
ENDBRANCH   8   9
ENDBRANCH   1   8
TORSDOF 9
ENDMDL
MODEL 4
REMARK VINA RESULT:    -5.259     20.336     21.065
REMARK INTER + INTRA:          -8.449
REMARK INTER:                  -7.970
REMARK INTRA:                  -0.479
REMARK UNBOUND:                -0.423
REMARK SMILES CCCCCCCCCCC(=O)[O-]
REMARK SMILES IDX 7 1 8 2 9 3 10 4 11 5 12 6 13 7 6 8 5 9 4 10 3 11 2 12 1 13
REMARK H PARENT
REMARK Flexibility Score: inf
ROOT
ATOM      1  C   UNL     1      86.620 326.496 196.252  1.00  0.00     0.000 C 
ENDROOT
BRANCH   1   2
ATOM      2  C   UNL     1      87.884 325.775 196.744  1.00  0.00     0.000 C 
BRANCH   2   3
ATOM      3  C   UNL     1      88.503 326.444 197.981  1.00  0.00     0.006 C 
BRANCH   3   4
ATOM      4  C   UNL     1      89.154 325.436 198.936  1.00  0.00     0.053 C 
BRANCH   4   5
ATOM      5  C   UNL     1      89.259 326.013 200.312  1.00  0.00     0.041 C 
ATOM      6  O   UNL     1      90.331 326.552 200.694  1.00  0.00    -0.550 OA
ATOM      7  O   UNL     1      88.188 325.913 201.191  1.00  0.00    -0.550 OA
ENDBRANCH   4   5
ENDBRANCH   3   4
ENDBRANCH   2   3
ENDBRANCH   1   2
BRANCH   1   8
ATOM      8  C   UNL     1      86.534 326.468 194.721  1.00  0.00     0.000 C 
BRANCH   8   9
ATOM      9  C   UNL     1      87.931 326.498 194.090  1.00  0.00    -0.000 C 
BRANCH   9  10
ATOM     10  C   UNL     1      88.105 325.348 193.087  1.00  0.00    -0.000 C 
BRANCH  10  11
ATOM     11  C   UNL     1      86.782 324.633 192.758  1.00  0.00    -0.000 C 
BRANCH  11  12
ATOM     12  C   UNL     1      86.888 323.535 191.685  1.00  0.00    -0.003 C 
ATOM     13  C   UNL     1      88.058 323.748 190.726  1.00  0.00     0.004 C 
ENDBRANCH  11  12
ENDBRANCH  10  11
ENDBRANCH   9  10
ENDBRANCH   8   9
ENDBRANCH   1   8
TORSDOF 9
ENDMDL
MODEL 5
REMARK VINA RESULT:    -5.240     20.308     21.816
REMARK INTER + INTRA:          -8.419
REMARK INTER:                  -7.939
REMARK INTRA:                  -0.481
REMARK UNBOUND:                -0.423
REMARK SMILES CCCCCCCCCCC(=O)[O-]
REMARK SMILES IDX 7 1 8 2 9 3 10 4 11 5 12 6 13 7 6 8 5 9 4 10 3 11 2 12 1 13
REMARK H PARENT
REMARK Flexibility Score: inf
ROOT
ATOM      1  C   UNL     1      88.111 325.554 192.850  1.00  0.00     0.000 C 
ENDROOT
BRANCH   1   2
ATOM      2  C   UNL     1      88.071 324.073 193.257  1.00  0.00     0.000 C 
BRANCH   2   3
ATOM      3  C   UNL     1      88.113 323.126 192.048  1.00  0.00     0.006 C 
BRANCH   3   4
ATOM      4  C   UNL     1      88.097 323.875 190.710  1.00  0.00     0.053 C 
BRANCH   4   5
ATOM      5  C   UNL     1      88.323 322.923 189.577  1.00  0.00     0.041 C 
ATOM      6  O   UNL     1      87.368 322.595 188.825  1.00  0.00    -0.550 OA
ATOM      7  O   UNL     1      89.578 322.361 189.382  1.00  0.00    -0.550 OA
ENDBRANCH   4   5
ENDBRANCH   3   4
ENDBRANCH   2   3
ENDBRANCH   1   2
BRANCH   1   8
ATOM      8  C   UNL     1      88.136 326.463 194.085  1.00  0.00     0.000 C 
BRANCH   8   9
ATOM      9  C   UNL     1      86.714 326.781 194.564  1.00  0.00    -0.000 C 
BRANCH   9  10
ATOM     10  C   UNL     1      86.517 326.347 196.023  1.00  0.00    -0.000 C 
BRANCH  10  11
ATOM     11  C   UNL     1      87.774 325.703 196.633  1.00  0.00    -0.000 C 
BRANCH  11  12
ATOM     12  C   UNL     1      88.549 326.599 197.616  1.00  0.00    -0.003 C 
ATOM     13  C   UNL     1      88.922 325.881 198.913  1.00  0.00     0.004 C 
ENDBRANCH  11  12
ENDBRANCH  10  11
ENDBRANCH   9  10
ENDBRANCH   8   9
ENDBRANCH   1   8
TORSDOF 9
ENDMDL
MODEL 6
REMARK VINA RESULT:    -5.192     20.382     20.973
REMARK INTER + INTRA:          -8.347
REMARK INTER:                  -8.144
REMARK INTRA:                  -0.203
REMARK UNBOUND:                -0.423
REMARK SMILES CCCCCCCCCCC(=O)[O-]
REMARK SMILES IDX 7 1 8 2 9 3 10 4 11 5 12 6 13 7 6 8 5 9 4 10 3 11 2 12 1 13
REMARK H PARENT
REMARK Flexibility Score: inf
ROOT
ATOM      1  C   UNL     1      88.801 326.751 197.723  1.00  0.00     0.000 C 
ENDROOT
BRANCH   1   2
ATOM      2  C   UNL     1      88.819 325.815 198.941  1.00  0.00     0.000 C 
BRANCH   2   3
ATOM      3  C   UNL     1      89.495 326.450 200.165  1.00  0.00     0.006 C 
BRANCH   3   4
ATOM      4  C   UNL     1      88.782 326.107 201.479  1.00  0.00     0.053 C 
BRANCH   4   5
ATOM      5  C   UNL     1      89.657 326.433 202.648  1.00  0.00     0.041 C 
ATOM      6  O   UNL     1      89.241 326.248 203.822  1.00  0.00    -0.550 OA
ATOM      7  O   UNL     1      90.914 326.986 202.443  1.00  0.00    -0.550 OA
ENDBRANCH   4   5
ENDBRANCH   3   4
ENDBRANCH   2   3
ENDBRANCH   1   2
BRANCH   1   8
ATOM      8  C   UNL     1      88.512 325.970 196.435  1.00  0.00     0.000 C 
BRANCH   8   9
ATOM      9  C   UNL     1      87.032 326.077 196.046  1.00  0.00    -0.000 C 
BRANCH   9  10
ATOM     10  C   UNL     1      86.879 326.591 194.607  1.00  0.00    -0.000 C 
BRANCH  10  11
ATOM     11  C   UNL     1      88.043 326.171 193.692  1.00  0.00    -0.000 C 
BRANCH  11  12
ATOM     12  C   UNL     1      88.035 324.690 193.272  1.00  0.00    -0.003 C 
ATOM     13  C   UNL     1      87.912 324.498 191.761  1.00  0.00     0.004 C 
ENDBRANCH  11  12
ENDBRANCH  10  11
ENDBRANCH   9  10
ENDBRANCH   8   9
ENDBRANCH   1   8
TORSDOF 9
ENDMDL
MODEL 7
REMARK VINA RESULT:    -5.132     19.938     20.866
REMARK INTER + INTRA:          -8.255
REMARK INTER:                  -7.600
REMARK INTRA:                  -0.655
REMARK UNBOUND:                -0.423
REMARK SMILES CCCCCCCCCCC(=O)[O-]
REMARK SMILES IDX 7 1 8 2 9 3 10 4 11 5 12 6 13 7 6 8 5 9 4 10 3 11 2 12 1 13
REMARK H PARENT
REMARK Flexibility Score: inf
ROOT
ATOM      1  C   UNL     1      88.111 326.154 193.727  1.00  0.00     0.000 C 
ENDROOT
BRANCH   1   2
ATOM      2  C   UNL     1      86.757 326.521 194.353  1.00  0.00     0.000 C 
BRANCH   2   3
ATOM      3  C   UNL     1      86.668 326.133 195.837  1.00  0.00     0.006 C 
BRANCH   3   4
ATOM      4  C   UNL     1      87.994 326.336 196.582  1.00  0.00     0.053 C 
BRANCH   4   5
ATOM      5  C   UNL     1      88.436 325.056 197.218  1.00  0.00     0.041 C 
ATOM      6  O   UNL     1      88.083 323.951 196.730  1.00  0.00    -0.550 OA
ATOM      7  O   UNL     1      89.199 325.084 198.378  1.00  0.00    -0.550 OA
ENDBRANCH   4   5
ENDBRANCH   3   4
ENDBRANCH   2   3
ENDBRANCH   1   2
BRANCH   1   8
ATOM      8  C   UNL     1      88.122 324.693 193.259  1.00  0.00     0.000 C 
BRANCH   8   9
ATOM      9  C   UNL     1      86.755 324.285 192.695  1.00  0.00    -0.000 C 
BRANCH   9  10
ATOM     10  C   UNL     1      86.910 323.562 191.349  1.00  0.00    -0.000 C 
BRANCH  10  11
ATOM     11  C   UNL     1      88.221 323.918 190.624  1.00  0.00    -0.000 C 
BRANCH  11  12
ATOM     12  C   UNL     1      88.435 323.196 189.282  1.00  0.00    -0.003 C 
ATOM     13  C   UNL     1      87.218 322.385 188.838  1.00  0.00     0.004 C 
ENDBRANCH  11  12
ENDBRANCH  10  11
ENDBRANCH   9  10
ENDBRANCH   8   9
ENDBRANCH   1   8
TORSDOF 9
ENDMDL
MODEL 8
REMARK VINA RESULT:    -5.115      2.320      3.616
REMARK INTER + INTRA:          -8.228
REMARK INTER:                  -7.618
REMARK INTRA:                  -0.610
REMARK UNBOUND:                -0.423
REMARK SMILES CCCCCCCCCCC(=O)[O-]
REMARK SMILES IDX 7 1 8 2 9 3 10 4 11 5 12 6 13 7 6 8 5 9 4 10 3 11 2 12 1 13
REMARK H PARENT
REMARK Flexibility Score: inf
ROOT
ATOM      1  C   UNL     1     104.219 311.636 192.954  1.00  0.00     0.000 C 
ENDROOT
BRANCH   1   2
ATOM      2  C   UNL     1     105.646 311.440 193.490  1.00  0.00     0.000 C 
BRANCH   2   3
ATOM      3  C   UNL     1     105.773 311.802 194.977  1.00  0.00     0.006 C 
BRANCH   3   4
ATOM      4  C   UNL     1     104.420 311.818 195.700  1.00  0.00     0.053 C 
BRANCH   4   5
ATOM      5  C   UNL     1     104.211 313.131 196.387  1.00  0.00     0.041 C 
ATOM      6  O   UNL     1     104.341 314.208 195.748  1.00  0.00    -0.550 OA
ATOM      7  O   UNL     1     103.919 313.166 197.744  1.00  0.00    -0.550 OA
ENDBRANCH   4   5
ENDBRANCH   3   4
ENDBRANCH   2   3
ENDBRANCH   1   2
BRANCH   1   8
ATOM      8  C   UNL     1     104.037 313.047 192.381  1.00  0.00     0.000 C 
BRANCH   8   9
ATOM      9  C   UNL     1     105.370 313.614 191.878  1.00  0.00    -0.000 C 
BRANCH   9  10
ATOM     10  C   UNL     1     105.179 314.377 190.559  1.00  0.00    -0.000 C 
BRANCH  10  11
ATOM     11  C   UNL     1     103.778 314.185 189.952  1.00  0.00    -0.000 C 
BRANCH  11  12
ATOM     12  C   UNL     1     103.279 315.359 189.091  1.00  0.00    -0.003 C 
ATOM     13  C   UNL     1     104.082 315.540 187.804  1.00  0.00     0.004 C 
ENDBRANCH  11  12
ENDBRANCH  10  11
ENDBRANCH   9  10
ENDBRANCH   8   9
ENDBRANCH   1   8
TORSDOF 9
ENDMDL
MODEL 9
REMARK VINA RESULT:    -5.108      1.619      2.685
REMARK INTER + INTRA:          -8.219
REMARK INTER:                  -7.180
REMARK INTRA:                  -1.039
REMARK UNBOUND:                -0.423
REMARK SMILES CCCCCCCCCCC(=O)[O-]
REMARK SMILES IDX 7 1 8 2 9 3 10 4 11 5 12 6 13 7 6 8 5 9 4 10 3 11 2 12 1 13
REMARK H PARENT
REMARK Flexibility Score: inf
ROOT
ATOM      1  C   UNL     1     104.088 311.416 193.440  1.00  0.00     0.000 C 
ENDROOT
BRANCH   1   2
ATOM      2  C   UNL     1     103.456 311.778 194.793  1.00  0.00     0.000 C 
BRANCH   2   3
ATOM      3  C   UNL     1     104.497 311.907 195.916  1.00  0.00     0.006 C 
BRANCH   3   4
ATOM      4  C   UNL     1     103.957 311.453 197.278  1.00  0.00     0.053 C 
BRANCH   4   5
ATOM      5  C   UNL     1     103.857 312.616 198.214  1.00  0.00     0.041 C 
ATOM      6  O   UNL     1     103.718 313.783 197.762  1.00  0.00    -0.550 OA
ATOM      7  O   UNL     1     103.965 312.416 199.584  1.00  0.00    -0.550 OA
ENDBRANCH   4   5
ENDBRANCH   3   4
ENDBRANCH   2   3
ENDBRANCH   1   2
BRANCH   1   8
ATOM      8  C   UNL     1     105.525 311.943 193.347  1.00  0.00     0.000 C 
BRANCH   8   9
ATOM      9  C   UNL     1     105.689 312.886 192.148  1.00  0.00    -0.000 C 
BRANCH   9  10
ATOM     10  C   UNL     1     104.323 313.352 191.625  1.00  0.00    -0.000 C 
BRANCH  10  11
ATOM     11  C   UNL     1     104.041 314.835 191.922  1.00  0.00    -0.000 C 
BRANCH  11  12
ATOM     12  C   UNL     1     103.408 315.112 193.297  1.00  0.00    -0.003 C 
ATOM     13  C   UNL     1     104.444 315.393 194.386  1.00  0.00     0.004 C 
ENDBRANCH  11  12
ENDBRANCH  10  11
ENDBRANCH   9  10
ENDBRANCH   8   9
ENDBRANCH   1   8
TORSDOF 9
ENDMDL
