MODEL 1
REMARK VINA RESULT:    -3.742      0.000      0.000
REMARK INTER + INTRA:          -4.819
REMARK INTER:                  -4.617
REMARK INTRA:                  -0.202
REMARK UNBOUND:                -0.202
REMARK SMILES CCCCCC(=O)[O-]
REMARK SMILES IDX 4 1 5 2 6 3 7 4 8 5 3 6 2 7 1 8
REMARK H PARENT
REMARK Flexibility Score: inf
ROOT
ATOM      1  C   UNL     1     117.395 165.393 121.195  1.00  0.00     0.006 C 
ENDROOT
BRANCH   1   2
ATOM      2  C   UNL     1     116.120 165.406 122.045  1.00  0.00     0.053 C 
BRANCH   2   3
ATOM      3  C   UNL     1     115.499 166.766 122.035  1.00  0.00     0.041 C 
ATOM      4  O   UNL     1     114.619 167.056 121.183  1.00  0.00    -0.550 OA
ATOM      5  O   UNL     1     115.856 167.700 123.000  1.00  0.00    -0.550 OA
ENDBRANCH   2   3
ENDBRANCH   1   2
BRANCH   1   6
ATOM      6  C   UNL     1     117.136 164.753 119.826  1.00  0.00     0.000 C 
BRANCH   6   7
ATOM      7  C   UNL     1     116.977 165.823 118.740  1.00  0.00    -0.003 C 
ATOM      8  C   UNL     1     115.794 165.513 117.828  1.00  0.00     0.004 C 
ENDBRANCH   6   7
ENDBRANCH   1   6
TORSDOF 4
ENDMDL
MODEL 2
REMARK VINA RESULT:    -3.439      2.383      3.667
REMARK INTER + INTRA:          -4.446
REMARK INTER:                  -4.225
REMARK INTRA:                  -0.220
REMARK UNBOUND:                -0.202
REMARK SMILES CCCCCC(=O)[O-]
REMARK SMILES IDX 4 1 5 2 6 3 7 4 8 5 3 6 2 7 1 8
REMARK H PARENT
REMARK Flexibility Score: inf
ROOT
ATOM      1  C   UNL     1     117.536 166.010 122.222  1.00  0.00     0.006 C 
ENDROOT
BRANCH   1   2
ATOM      2  C   UNL     1     118.332 165.115 121.266  1.00  0.00     0.053 C 
BRANCH   2   3
ATOM      3  C   UNL     1     117.517 164.788 120.055  1.00  0.00     0.041 C 
ATOM      4  O   UNL     1     117.162 165.700 119.264  1.00  0.00    -0.550 OA
ATOM      5  O   UNL     1     117.191 163.467 119.774  1.00  0.00    -0.550 OA
ENDBRANCH   2   3
ENDBRANCH   1   2
BRANCH   1   6
ATOM      6  C   UNL     1     116.175 165.387 122.553  1.00  0.00     0.000 C 
BRANCH   6   7
ATOM      7  C   UNL     1     115.118 166.471 122.796  1.00  0.00    -0.003 C 
ATOM      8  C   UNL     1     114.785 167.216 121.507  1.00  0.00     0.004 C 
ENDBRANCH   6   7
ENDBRANCH   1   6
TORSDOF 4
ENDMDL
MODEL 3
REMARK VINA RESULT:    -3.407     12.880     13.687
REMARK INTER + INTRA:          -4.406
REMARK INTER:                  -4.265
REMARK INTRA:                  -0.141
REMARK UNBOUND:                -0.202
REMARK SMILES CCCCCC(=O)[O-]
REMARK SMILES IDX 4 1 5 2 6 3 7 4 8 5 3 6 2 7 1 8
REMARK H PARENT
REMARK Flexibility Score: inf
ROOT
ATOM      1  C   UNL     1     116.628 177.923 125.602  1.00  0.00     0.006 C 
ENDROOT
BRANCH   1   2
ATOM      2  C   UNL     1     118.087 177.469 125.501  1.00  0.00     0.053 C 
BRANCH   2   3
ATOM      3  C   UNL     1     118.925 178.537 124.873  1.00  0.00     0.041 C 
ATOM      4  O   UNL     1     119.494 178.330 123.769  1.00  0.00    -0.550 OA
ATOM      5  O   UNL     1     119.039 179.779 125.483  1.00  0.00    -0.550 OA
ENDBRANCH   2   3
ENDBRANCH   1   2
BRANCH   1   6
ATOM      6  C   UNL     1     116.090 178.356 124.233  1.00  0.00     0.000 C 
BRANCH   6   7
ATOM      7  C   UNL     1     115.005 179.429 124.383  1.00  0.00    -0.003 C 
ATOM      8  C   UNL     1     114.316 179.332 125.741  1.00  0.00     0.004 C 
ENDBRANCH   6   7
ENDBRANCH   1   6
TORSDOF 4
ENDMDL
MODEL 4
REMARK VINA RESULT:    -3.407     13.299     14.104
REMARK INTER + INTRA:          -4.406
REMARK INTER:                  -4.231
REMARK INTRA:                  -0.175
REMARK UNBOUND:                -0.202
REMARK SMILES CCCCCC(=O)[O-]
REMARK SMILES IDX 4 1 5 2 6 3 7 4 8 5 3 6 2 7 1 8
REMARK H PARENT
REMARK Flexibility Score: inf
ROOT
ATOM      1  C   UNL     1     118.052 178.276 124.759  1.00  0.00     0.006 C 
ENDROOT
BRANCH   1   2
ATOM      2  C   UNL     1     116.747 178.620 124.034  1.00  0.00     0.053 C 
BRANCH   2   3
ATOM      3  C   UNL     1     115.926 179.564 124.854  1.00  0.00     0.041 C 
ATOM      4  O   UNL     1     116.448 180.603 125.337  1.00  0.00    -0.550 OA
ATOM      5  O   UNL     1     114.571 179.322 125.043  1.00  0.00    -0.550 OA
ENDBRANCH   2   3
ENDBRANCH   1   2
BRANCH   1   6
ATOM      6  C   UNL     1     119.253 178.395 123.814  1.00  0.00     0.000 C 
BRANCH   6   7
ATOM      7  C   UNL     1     120.454 179.026 124.529  1.00  0.00    -0.003 C 
ATOM      8  C   UNL     1     120.009 180.123 125.491  1.00  0.00     0.004 C 
ENDBRANCH   6   7
ENDBRANCH   1   6
TORSDOF 4
ENDMDL
MODEL 5
REMARK VINA RESULT:    -3.400      2.692      4.057
REMARK INTER + INTRA:          -4.397
REMARK INTER:                  -4.297
REMARK INTRA:                  -0.100
REMARK UNBOUND:                -0.202
REMARK SMILES CCCCCC(=O)[O-]
REMARK SMILES IDX 4 1 5 2 6 3 7 4 8 5 3 6 2 7 1 8
REMARK H PARENT
REMARK Flexibility Score: inf
ROOT
ATOM      1  C   UNL     1     116.917 165.356 120.170  1.00  0.00     0.006 C 
ENDROOT
BRANCH   1   2
ATOM      2  C   UNL     1     115.882 166.211 119.431  1.00  0.00     0.053 C 
BRANCH   2   3
ATOM      3  C   UNL     1     116.064 166.088 117.951  1.00  0.00     0.041 C 
ATOM      4  O   UNL     1     115.622 165.081 117.339  1.00  0.00    -0.550 OA
ATOM      5  O   UNL     1     116.680 167.111 117.240  1.00  0.00    -0.550 OA
ENDBRANCH   2   3
ENDBRANCH   1   2
BRANCH   1   6
ATOM      6  C   UNL     1     116.824 165.570 121.686  1.00  0.00     0.000 C 
BRANCH   6   7
ATOM      7  C   UNL     1     115.457 166.145 122.077  1.00  0.00    -0.003 C 
ATOM      8  C   UNL     1     115.230 166.051 123.583  1.00  0.00     0.004 C 
ENDBRANCH   6   7
ENDBRANCH   1   6
TORSDOF 4
ENDMDL
MODEL 6
REMARK VINA RESULT:    -3.378     14.305     14.992
REMARK INTER + INTRA:          -4.370
REMARK INTER:                  -4.234
REMARK INTRA:                  -0.136
REMARK UNBOUND:                -0.202
REMARK SMILES CCCCCC(=O)[O-]
REMARK SMILES IDX 4 1 5 2 6 3 7 4 8 5 3 6 2 7 1 8
REMARK H PARENT
REMARK Flexibility Score: inf
ROOT
ATOM      1  C   UNL     1     123.573 178.030 120.774  1.00  0.00     0.006 C 
ENDROOT
BRANCH   1   2
ATOM      2  C   UNL     1     124.205 177.162 119.681  1.00  0.00     0.053 C 
BRANCH   2   3
ATOM      3  C   UNL     1     125.023 178.002 118.753  1.00  0.00     0.041 C 
ATOM      4  O   UNL     1     124.610 178.249 117.590  1.00  0.00    -0.550 OA
ATOM      5  O   UNL     1     126.222 178.553 119.189  1.00  0.00    -0.550 OA
ENDBRANCH   2   3
ENDBRANCH   1   2
BRANCH   1   6
ATOM      6  C   UNL     1     123.707 177.367 122.150  1.00  0.00     0.000 C 
BRANCH   6   7
ATOM      7  C   UNL     1     125.181 177.149 122.513  1.00  0.00    -0.003 C 
ATOM      8  C   UNL     1     125.395 177.232 124.022  1.00  0.00     0.004 C 
ENDBRANCH   6   7
ENDBRANCH   1   6
TORSDOF 4
ENDMDL
MODEL 7
REMARK VINA RESULT:    -3.357     13.926     15.176
REMARK INTER + INTRA:          -4.344
REMARK INTER:                  -4.213
REMARK INTRA:                  -0.131
REMARK UNBOUND:                -0.202
REMARK SMILES CCCCCC(=O)[O-]
REMARK SMILES IDX 4 1 5 2 6 3 7 4 8 5 3 6 2 7 1 8
REMARK H PARENT
REMARK Flexibility Score: inf
ROOT
ATOM      1  C   UNL     1     121.103 179.248 126.244  1.00  0.00     0.006 C 
ENDROOT
BRANCH   1   2
ATOM      2  C   UNL     1     119.871 179.988 125.714  1.00  0.00     0.053 C 
BRANCH   2   3
ATOM      3  C   UNL     1     118.904 179.024 125.103  1.00  0.00     0.041 C 
ATOM      4  O   UNL     1     119.317 178.099 124.356  1.00  0.00    -0.550 OA
ATOM      5  O   UNL     1     117.550 179.118 125.397  1.00  0.00    -0.550 OA
ENDBRANCH   2   3
ENDBRANCH   1   2
BRANCH   1   6
ATOM      6  C   UNL     1     120.910 178.838 127.709  1.00  0.00     0.000 C 
BRANCH   6   7
ATOM      7  C   UNL     1     122.247 178.840 128.461  1.00  0.00    -0.003 C 
ATOM      8  C   UNL     1     123.399 179.228 127.538  1.00  0.00     0.004 C 
ENDBRANCH   6   7
ENDBRANCH   1   6
TORSDOF 4
ENDMDL
MODEL 8
REMARK VINA RESULT:    -3.279     14.860     15.580
REMARK INTER + INTRA:          -4.248
REMARK INTER:                  -4.070
REMARK INTRA:                  -0.178
REMARK UNBOUND:                -0.202
REMARK SMILES CCCCCC(=O)[O-]
REMARK SMILES IDX 4 1 5 2 6 3 7 4 8 5 3 6 2 7 1 8
REMARK H PARENT
REMARK Flexibility Score: inf
ROOT
ATOM      1  C   UNL     1     124.917 178.399 119.437  1.00  0.00     0.006 C 
ENDROOT
BRANCH   1   2
ATOM      2  C   UNL     1     125.674 177.696 118.306  1.00  0.00     0.053 C 
BRANCH   2   3
ATOM      3  C   UNL     1     127.131 177.602 118.631  1.00  0.00     0.041 C 
ATOM      4  O   UNL     1     127.610 178.258 119.594  1.00  0.00    -0.550 OA
ATOM      5  O   UNL     1     127.952 176.752 117.901  1.00  0.00    -0.550 OA
ENDBRANCH   2   3
ENDBRANCH   1   2
BRANCH   1   6
ATOM      6  C   UNL     1     123.747 177.541 119.932  1.00  0.00     0.000 C 
BRANCH   6   7
ATOM      7  C   UNL     1     123.664 177.556 121.463  1.00  0.00    -0.003 C 
ATOM      8  C   UNL     1     125.043 177.376 122.092  1.00  0.00     0.004 C 
ENDBRANCH   6   7
ENDBRANCH   1   6
TORSDOF 4
ENDMDL
MODEL 9
REMARK VINA RESULT:    -3.268     13.756     14.966
REMARK INTER + INTRA:          -4.234
REMARK INTER:                  -4.021
REMARK INTRA:                  -0.213
REMARK UNBOUND:                -0.202
REMARK SMILES CCCCCC(=O)[O-]
REMARK SMILES IDX 4 1 5 2 6 3 7 4 8 5 3 6 2 7 1 8
REMARK H PARENT
REMARK Flexibility Score: inf
ROOT
ATOM      1  C   UNL     1     122.163 177.617 125.772  1.00  0.00     0.006 C 
ENDROOT
BRANCH   1   2
ATOM      2  C   UNL     1     121.657 178.124 124.418  1.00  0.00     0.053 C 
BRANCH   2   3
ATOM      3  C   UNL     1     120.360 178.850 124.583  1.00  0.00     0.041 C 
ATOM      4  O   UNL     1     120.298 179.886 125.296  1.00  0.00    -0.550 OA
ATOM      5  O   UNL     1     119.228 178.410 123.909  1.00  0.00    -0.550 OA
ENDBRANCH   2   3
ENDBRANCH   1   2
BRANCH   1   6
ATOM      6  C   UNL     1     123.550 178.188 126.091  1.00  0.00     0.000 C 
BRANCH   6   7
ATOM      7  C   UNL     1     123.477 179.200 127.240  1.00  0.00    -0.003 C 
ATOM      8  C   UNL     1     122.440 178.782 128.278  1.00  0.00     0.004 C 
ENDBRANCH   6   7
ENDBRANCH   1   6
TORSDOF 4
ENDMDL
