MODEL 1
REMARK VINA RESULT:     2.696      0.000      0.000
REMARK INTER + INTRA:           3.009
REMARK INTER:                   3.642
REMARK INTRA:                  -0.633
REMARK UNBOUND:                -0.633
REMARK SMILES CC[C@H](CC[C@@H](C)[C@@H]1CC[C@@H]2[C@H]3CC(=O)C4=CC(=O)CC[C@@]4(C)[C@H]3CC[C@]21C)C(C)C
REMARK SMILES IDX 4 1 3 2 2 3 1 4 29 5 30 6 31 7 5 8 6 9 7 10 8 11 9 12 27 13
REMARK SMILES IDX 10 14 11 15 26 16 28 17 12 18 25 19 24 20 13 21 22 22 14 23
REMARK SMILES IDX 16 24 21 25 23 26 15 27 17 28 20 29 18 30 19 31
REMARK H PARENT
REMARK Flexibility Score: inf
ROOT
ATOM      1  C   UNL     1     -12.223 -12.524  36.709  1.00  0.00     0.004 C 
ENDROOT
BRANCH   1   2
ATOM      2  C   UNL     1     -10.794 -12.643  36.090  1.00  0.00    -0.009 C 
BRANCH   2   3
ATOM      3  C   UNL     1      -9.978 -11.351  36.381  1.00  0.00     0.000 C 
ATOM      4  C   UNL     1      -9.971 -10.336  35.231  1.00  0.00     0.004 C 
ENDBRANCH   2   3
BRANCH   2   5
ATOM      5  C   UNL     1     -10.046 -13.950  36.539  1.00  0.00    -0.014 C 
ATOM      6  C   UNL     1     -10.763 -14.662  37.700  1.00  0.00     0.007 C 
ATOM      7  C   UNL     1      -9.875 -14.952  35.380  1.00  0.00     0.007 C 
ENDBRANCH   2   5
ENDBRANCH   1   2
BRANCH   1   8
ATOM      8  C   UNL     1     -13.357 -12.955  35.740  1.00  0.00     0.004 C 
BRANCH   8   9
ATOM      9  C   UNL     1     -13.055 -14.249  34.926  1.00  0.00    -0.011 C 
ATOM     10  C   UNL     1     -13.614 -15.484  35.673  1.00  0.00     0.008 C 
BRANCH   9  11
ATOM     11  C   UNL     1     -13.556 -14.066  33.446  1.00  0.00    -0.002 C 
ATOM     12  C   UNL     1     -15.056 -13.727  33.236  1.00  0.00     0.005 C 
ATOM     13  C   UNL     1     -13.257 -15.181  32.399  1.00  0.00    -0.026 C 
ATOM     14  C   UNL     1     -15.401 -14.197  31.807  1.00  0.00     0.005 C 
ATOM     15  C   UNL     1     -14.062 -14.637  31.215  1.00  0.00    -0.001 C 
ATOM     16  C   UNL     1     -11.754 -15.274  31.967  1.00  0.00     0.007 C 
ATOM     17  C   UNL     1     -13.799 -16.560  32.887  1.00  0.00     0.012 C 
ATOM     18  C   UNL     1     -14.073 -15.541  29.943  1.00  0.00     0.004 C 
ATOM     19  C   UNL     1     -11.539 -15.504  30.435  1.00  0.00     0.005 C 
ATOM     20  C   UNL     1     -12.700 -16.317  29.783  1.00  0.00     0.003 C 
ATOM     21  C   UNL     1     -14.403 -14.628  28.739  1.00  0.00     0.085 C 
ATOM     22  C   UNL     1     -12.450 -16.947  28.339  1.00  0.00    -0.000 C 
ATOM     23  C   UNL     1     -14.176 -15.284  27.427  1.00  0.00     0.159 C 
ATOM     24  C   UNL     1     -12.941 -16.045  27.212  1.00  0.00     0.005 C 
ATOM     25  C   UNL     1     -10.941 -17.285  28.113  1.00  0.00     0.020 C 
ATOM     26  C   UNL     1     -13.276 -18.261  28.240  1.00  0.00     0.017 C 
ATOM     27  O   UNL     1     -14.999 -15.107  26.486  1.00  0.00    -0.295 OA
ATOM     28  C   UNL     1     -12.391 -16.082  25.985  1.00  0.00     0.055 C 
ATOM     29  C   UNL     1     -10.648 -17.839  26.712  1.00  0.00     0.081 C 
ATOM     30  C   UNL     1     -11.241 -16.947  25.668  1.00  0.00     0.156 C 
ATOM     31  O   UNL     1     -10.782 -16.972  24.493  1.00  0.00    -0.295 OA
ENDBRANCH   9  11
ENDBRANCH   8   9
ENDBRANCH   1   8
TORSDOF 6
ENDMDL
MODEL 2
REMARK VINA RESULT:     3.553      0.583      1.681
REMARK INTER + INTRA:           4.166
REMARK INTER:                   4.252
REMARK INTRA:                  -0.086
REMARK UNBOUND:                -0.633
REMARK SMILES CC[C@H](CC[C@@H](C)[C@@H]1CC[C@@H]2[C@H]3CC(=O)C4=CC(=O)CC[C@@]4(C)[C@H]3CC[C@]21C)C(C)C
REMARK SMILES IDX 4 1 3 2 2 3 1 4 29 5 30 6 31 7 5 8 6 9 7 10 8 11 9 12 27 13
REMARK SMILES IDX 10 14 11 15 26 16 28 17 12 18 25 19 24 20 13 21 22 22 14 23
REMARK SMILES IDX 16 24 21 25 23 26 15 27 17 28 20 29 18 30 19 31
REMARK H PARENT
REMARK Flexibility Score: inf
ROOT
ATOM      1  C   UNL     1     -12.068 -13.362  37.234  1.00  0.00     0.004 C 
ENDROOT
BRANCH   1   2
ATOM      2  C   UNL     1     -10.518 -13.455  37.064  1.00  0.00    -0.009 C 
BRANCH   2   3
ATOM      3  C   UNL     1     -10.114 -14.894  36.637  1.00  0.00     0.000 C 
ATOM      4  C   UNL     1     -10.343 -15.961  37.715  1.00  0.00     0.004 C 
ENDBRANCH   2   3
BRANCH   2   5
ATOM      5  C   UNL     1      -9.949 -12.350  36.101  1.00  0.00    -0.014 C 
ATOM      6  C   UNL     1      -9.875 -12.830  34.641  1.00  0.00     0.007 C 
ATOM      7  C   UNL     1     -10.778 -11.052  36.149  1.00  0.00     0.007 C 
ENDBRANCH   2   5
ENDBRANCH   1   2
BRANCH   1   8
ATOM      8  C   UNL     1     -12.837 -13.266  35.888  1.00  0.00     0.004 C 
BRANCH   8   9
ATOM      9  C   UNL     1     -12.894 -14.597  35.080  1.00  0.00    -0.011 C 
ATOM     10  C   UNL     1     -13.705 -15.656  35.865  1.00  0.00     0.008 C 
BRANCH   9  11
ATOM     11  C   UNL     1     -13.397 -14.303  33.618  1.00  0.00    -0.002 C 
ATOM     12  C   UNL     1     -14.881 -13.882  33.445  1.00  0.00     0.005 C 
ATOM     13  C   UNL     1     -13.158 -15.365  32.504  1.00  0.00    -0.026 C 
ATOM     14  C   UNL     1     -15.258 -14.249  31.994  1.00  0.00     0.005 C 
ATOM     15  C   UNL     1     -13.946 -14.713  31.363  1.00  0.00    -0.001 C 
ATOM     16  C   UNL     1     -11.665 -15.500  32.051  1.00  0.00     0.007 C 
ATOM     17  C   UNL     1     -13.761 -16.744  32.914  1.00  0.00     0.012 C 
ATOM     18  C   UNL     1     -14.009 -15.537  30.039  1.00  0.00     0.004 C 
ATOM     19  C   UNL     1     -11.472 -15.648  30.506  1.00  0.00     0.005 C 
ATOM     20  C   UNL     1     -12.675 -16.365  29.819  1.00  0.00     0.003 C 
ATOM     21  C   UNL     1     -14.304 -14.539  28.895  1.00  0.00     0.085 C 
ATOM     22  C   UNL     1     -12.466 -16.918  28.337  1.00  0.00    -0.000 C 
ATOM     23  C   UNL     1     -14.118 -15.124  27.544  1.00  0.00     0.159 C 
ATOM     24  C   UNL     1     -12.922 -15.927  27.272  1.00  0.00     0.005 C 
ATOM     25  C   UNL     1     -10.975 -17.311  28.076  1.00  0.00     0.020 C 
ATOM     26  C   UNL     1     -13.352 -18.184  28.168  1.00  0.00     0.017 C 
ATOM     27  O   UNL     1     -14.939 -14.853  26.624  1.00  0.00    -0.295 OA
ATOM     28  C   UNL     1     -12.383 -15.915  26.039  1.00  0.00     0.055 C 
ATOM     29  C   UNL     1     -10.719 -17.792  26.641  1.00  0.00     0.081 C 
ATOM     30  C   UNL     1     -11.278 -16.812  25.658  1.00  0.00     0.156 C 
ATOM     31  O   UNL     1     -10.829 -16.788  24.479  1.00  0.00    -0.295 OA
ENDBRANCH   9  11
ENDBRANCH   8   9
ENDBRANCH   1   8
TORSDOF 6
ENDMDL
MODEL 3
REMARK VINA RESULT:     5.366      3.205      8.102
REMARK INTER + INTRA:           6.616
REMARK INTER:                   7.745
REMARK INTRA:                  -1.129
REMARK UNBOUND:                -0.633
REMARK SMILES CC[C@H](CC[C@@H](C)[C@@H]1CC[C@@H]2[C@H]3CC(=O)C4=CC(=O)CC[C@@]4(C)[C@H]3CC[C@]21C)C(C)C
REMARK SMILES IDX 4 1 3 2 2 3 1 4 29 5 30 6 31 7 5 8 6 9 7 10 8 11 9 12 27 13
REMARK SMILES IDX 10 14 11 15 26 16 28 17 12 18 25 19 24 20 13 21 22 22 14 23
REMARK SMILES IDX 16 24 21 25 23 26 15 27 17 28 20 29 18 30 19 31
REMARK H PARENT
REMARK Flexibility Score: inf
ROOT
ATOM      1  C   UNL     1     -11.075 -18.810  29.616  1.00  0.00     0.004 C 
ENDROOT
BRANCH   1   2
ATOM      2  C   UNL     1     -12.613 -19.079  29.595  1.00  0.00    -0.009 C 
BRANCH   2   3
ATOM      3  C   UNL     1     -12.954 -20.139  28.508  1.00  0.00     0.000 C 
ATOM      4  C   UNL     1     -14.457 -20.334  28.266  1.00  0.00     0.004 C 
ENDBRANCH   2   3
BRANCH   2   5
ATOM      5  C   UNL     1     -13.182 -19.454  31.011  1.00  0.00    -0.014 C 
ATOM      6  C   UNL     1     -12.092 -19.997  31.953  1.00  0.00     0.007 C 
ATOM      7  C   UNL     1     -13.871 -18.259  31.698  1.00  0.00     0.007 C 
ENDBRANCH   2   5
ENDBRANCH   1   2
BRANCH   1   8
ATOM      8  C   UNL     1     -10.523 -18.251  28.277  1.00  0.00     0.004 C 
BRANCH   8   9
ATOM      9  C   UNL     1     -11.006 -16.810  27.931  1.00  0.00    -0.011 C 
ATOM     10  C   UNL     1     -11.610 -16.786  26.506  1.00  0.00     0.008 C 
BRANCH   9  11
ATOM     11  C   UNL     1     -11.948 -16.283  29.076  1.00  0.00    -0.002 C 
ATOM     12  C   UNL     1     -13.116 -15.347  28.667  1.00  0.00     0.005 C 
ATOM     13  C   UNL     1     -11.315 -15.597  30.324  1.00  0.00    -0.026 C 
ATOM     14  C   UNL     1     -13.462 -14.526  29.926  1.00  0.00     0.005 C 
ATOM     15  C   UNL     1     -12.592 -15.130  31.029  1.00  0.00    -0.001 C 
ATOM     16  C   UNL     1     -10.557 -16.576  31.284  1.00  0.00     0.007 C 
ATOM     17  C   UNL     1     -10.413 -14.397  29.899  1.00  0.00     0.012 C 
ATOM     18  C   UNL     1     -12.372 -14.307  32.336  1.00  0.00     0.004 C 
ATOM     19  C   UNL     1     -10.806 -16.306  32.804  1.00  0.00     0.005 C 
ATOM     20  C   UNL     1     -11.078 -14.801  33.108  1.00  0.00     0.003 C 
ATOM     21  C   UNL     1     -13.666 -14.428  33.174  1.00  0.00     0.085 C 
ATOM     22  C   UNL     1     -10.977 -14.316  34.625  1.00  0.00    -0.000 C 
ATOM     23  C   UNL     1     -13.512 -13.934  34.565  1.00  0.00     0.159 C 
ATOM     24  C   UNL     1     -12.326 -14.324  35.334  1.00  0.00     0.005 C 
ATOM     25  C   UNL     1      -9.958 -15.180  35.437  1.00  0.00     0.020 C 
ATOM     26  C   UNL     1     -10.489 -12.839  34.625  1.00  0.00     0.017 C 
ATOM     27  O   UNL     1     -14.438 -13.262  35.099  1.00  0.00    -0.295 OA
ATOM     28  C   UNL     1     -12.425 -14.484  36.667  1.00  0.00     0.055 C 
ATOM     29  C   UNL     1      -9.875 -14.785  36.918  1.00  0.00     0.081 C 
ATOM     30  C   UNL     1     -11.245 -14.725  37.516  1.00  0.00     0.156 C 
ATOM     31  O   UNL     1     -11.384 -14.834  38.765  1.00  0.00    -0.295 OA
ENDBRANCH   9  11
ENDBRANCH   8   9
ENDBRANCH   1   8
TORSDOF 6
ENDMDL
