MODEL 1
REMARK VINA RESULT:    -4.576      0.000      0.000
REMARK INTER + INTRA:          -8.992
REMARK INTER:                  -8.321
REMARK INTRA:                  -0.670
REMARK UNBOUND:                -0.670
REMARK SMILES CCCCCCCCCCCCCCCC(=O)[O-]
REMARK SMILES IDX 9 1 10 2 11 3 12 4 13 5 14 6 15 7 16 8 17 9 18 10 8 11 7 12
REMARK SMILES IDX 6 13 5 14 4 15 3 16 2 17 1 18
REMARK H PARENT
REMARK Flexibility Score: inf
ROOT
ATOM      1  C   UNL     1     -30.003 -18.304  13.866  1.00  0.00     0.000 C 
ENDROOT
BRANCH   1   2
ATOM      2  C   UNL     1     -30.848 -19.572  14.062  1.00  0.00     0.000 C 
BRANCH   2   3
ATOM      3  C   UNL     1     -30.903 -20.448  12.802  1.00  0.00     0.000 C 
BRANCH   3   4
ATOM      4  C   UNL     1     -30.781 -21.950  13.116  1.00  0.00     0.000 C 
BRANCH   4   5
ATOM      5  C   UNL     1     -30.967 -22.246  14.620  1.00  0.00     0.000 C 
BRANCH   5   6
ATOM      6  C   UNL     1     -31.123 -23.743  14.938  1.00  0.00     0.006 C 
BRANCH   6   7
ATOM      7  C   UNL     1     -30.134 -24.232  16.002  1.00  0.00     0.053 C 
BRANCH   7   8
ATOM      8  C   UNL     1     -30.236 -25.717  16.166  1.00  0.00     0.041 C 
ATOM      9  O   UNL     1     -29.955 -26.253  17.270  1.00  0.00    -0.550 OA
ATOM     10  O   UNL     1     -30.689 -26.503  15.114  1.00  0.00    -0.550 OA
ENDBRANCH   7   8
ENDBRANCH   6   7
ENDBRANCH   5   6
ENDBRANCH   4   5
ENDBRANCH   3   4
ENDBRANCH   2   3
ENDBRANCH   1   2
BRANCH   1  11
ATOM     11  C   UNL     1     -30.897 -17.066  13.711  1.00  0.00     0.000 C 
BRANCH  11  12
ATOM     12  C   UNL     1     -30.340 -16.118  12.638  1.00  0.00    -0.000 C 
BRANCH  12  13
ATOM     13  C   UNL     1     -30.919 -14.698  12.746  1.00  0.00    -0.000 C 
BRANCH  13  14
ATOM     14  C   UNL     1     -30.803 -14.118  14.164  1.00  0.00    -0.000 C 
BRANCH  14  15
ATOM     15  C   UNL     1     -30.976 -12.594  14.149  1.00  0.00    -0.000 C 
BRANCH  15  16
ATOM     16  C   UNL     1     -30.873 -12.043  12.719  1.00  0.00    -0.000 C 
BRANCH  16  17
ATOM     17  C   UNL     1     -29.714 -11.048  12.550  1.00  0.00    -0.003 C 
ATOM     18  C   UNL     1     -29.017 -11.177  11.196  1.00  0.00     0.004 C 
ENDBRANCH  16  17
ENDBRANCH  15  16
ENDBRANCH  14  15
ENDBRANCH  13  14
ENDBRANCH  12  13
ENDBRANCH  11  12
ENDBRANCH   1  11
TORSDOF 14
ENDMDL
MODEL 2
REMARK VINA RESULT:    -4.039      5.620     11.324
REMARK INTER + INTRA:          -8.016
REMARK INTER:                  -7.630
REMARK INTRA:                  -0.386
REMARK UNBOUND:                -0.670
REMARK SMILES CCCCCCCCCCCCCCCC(=O)[O-]
REMARK SMILES IDX 9 1 10 2 11 3 12 4 13 5 14 6 15 7 16 8 17 9 18 10 8 11 7 12
REMARK SMILES IDX 6 13 5 14 4 15 3 16 2 17 1 18
REMARK H PARENT
REMARK Flexibility Score: inf
ROOT
ATOM      1  C   UNL     1     -30.165 -18.889  13.695  1.00  0.00     0.000 C 
ENDROOT
BRANCH   1   2
ATOM      2  C   UNL     1     -30.919 -17.701  14.312  1.00  0.00     0.000 C 
BRANCH   2   3
ATOM      3  C   UNL     1     -30.921 -16.464  13.401  1.00  0.00     0.000 C 
BRANCH   3   4
ATOM      4  C   UNL     1     -30.129 -15.287  13.996  1.00  0.00     0.000 C 
BRANCH   4   5
ATOM      5  C   UNL     1     -30.920 -13.963  13.935  1.00  0.00     0.000 C 
BRANCH   5   6
ATOM      6  C   UNL     1     -30.568 -13.090  12.718  1.00  0.00     0.006 C 
BRANCH   6   7
ATOM      7  C   UNL     1     -31.107 -11.660  12.834  1.00  0.00     0.053 C 
BRANCH   7   8
ATOM      8  C   UNL     1     -30.144 -10.689  12.226  1.00  0.00     0.041 C 
ATOM      9  O   UNL     1     -28.983 -11.060  11.911  1.00  0.00    -0.550 OA
ATOM     10  O   UNL     1     -30.546  -9.386  11.961  1.00  0.00    -0.550 OA
ENDBRANCH   7   8
ENDBRANCH   6   7
ENDBRANCH   5   6
ENDBRANCH   4   5
ENDBRANCH   3   4
ENDBRANCH   2   3
ENDBRANCH   1   2
BRANCH   1  11
ATOM     11  C   UNL     1     -31.109 -20.075  13.457  1.00  0.00     0.000 C 
BRANCH  11  12
ATOM     12  C   UNL     1     -31.032 -21.079  14.618  1.00  0.00    -0.000 C 
BRANCH  12  13
ATOM     13  C   UNL     1     -30.696 -22.503  14.147  1.00  0.00    -0.000 C 
BRANCH  13  14
ATOM     14  C   UNL     1     -31.112 -23.576  15.164  1.00  0.00    -0.000 C 
BRANCH  14  15
ATOM     15  C   UNL     1     -29.976 -24.580  15.398  1.00  0.00    -0.000 C 
BRANCH  15  16
ATOM     16  C   UNL     1     -30.145 -25.297  16.746  1.00  0.00    -0.000 C 
BRANCH  16  17
ATOM     17  C   UNL     1     -30.077 -26.826  16.615  1.00  0.00    -0.003 C 
ATOM     18  C   UNL     1     -31.015 -27.369  15.537  1.00  0.00     0.004 C 
ENDBRANCH  16  17
ENDBRANCH  15  16
ENDBRANCH  14  15
ENDBRANCH  13  14
ENDBRANCH  12  13
ENDBRANCH  11  12
ENDBRANCH   1  11
TORSDOF 14
ENDMDL
MODEL 3
REMARK VINA RESULT:    -3.812      4.912     11.136
REMARK INTER + INTRA:          -7.603
REMARK INTER:                  -7.187
REMARK INTRA:                  -0.416
REMARK UNBOUND:                -0.670
REMARK SMILES CCCCCCCCCCCCCCCC(=O)[O-]
REMARK SMILES IDX 9 1 10 2 11 3 12 4 13 5 14 6 15 7 16 8 17 9 18 10 8 11 7 12
REMARK SMILES IDX 6 13 5 14 4 15 3 16 2 17 1 18
REMARK H PARENT
REMARK Flexibility Score: inf
ROOT
ATOM      1  C   UNL     1     -31.124 -21.881  13.761  1.00  0.00     0.000 C 
ENDROOT
BRANCH   1   2
ATOM      2  C   UNL     1     -30.310 -20.646  13.348  1.00  0.00     0.000 C 
BRANCH   2   3
ATOM      3  C   UNL     1     -31.118 -19.343  13.444  1.00  0.00     0.000 C 
BRANCH   3   4
ATOM      4  C   UNL     1     -30.262 -18.143  13.883  1.00  0.00     0.000 C 
BRANCH   4   5
ATOM      5  C   UNL     1     -31.002 -16.801  13.695  1.00  0.00     0.000 C 
BRANCH   5   6
ATOM      6  C   UNL     1     -30.060 -15.601  13.501  1.00  0.00     0.006 C 
BRANCH   6   7
ATOM      7  C   UNL     1     -30.761 -14.386  12.884  1.00  0.00     0.053 C 
BRANCH   7   8
ATOM      8  C   UNL     1     -30.757 -13.237  13.843  1.00  0.00     0.041 C 
ATOM      9  O   UNL     1     -30.826 -13.446  15.083  1.00  0.00    -0.550 OA
ATOM     10  O   UNL     1     -30.626 -11.937  13.370  1.00  0.00    -0.550 OA
ENDBRANCH   7   8
ENDBRANCH   6   7
ENDBRANCH   5   6
ENDBRANCH   4   5
ENDBRANCH   3   4
ENDBRANCH   2   3
ENDBRANCH   1   2
BRANCH   1  11
ATOM     11  C   UNL     1     -30.206 -23.001  14.266  1.00  0.00     0.000 C 
BRANCH  11  12
ATOM     12  C   UNL     1     -31.015 -24.094  14.982  1.00  0.00    -0.000 C 
BRANCH  12  13
ATOM     13  C   UNL     1     -30.208 -24.803  16.081  1.00  0.00    -0.000 C 
BRANCH  13  14
ATOM     14  C   UNL     1     -30.088 -26.316  15.845  1.00  0.00    -0.000 C 
BRANCH  14  15
ATOM     15  C   UNL     1     -29.534 -27.024  17.087  1.00  0.00    -0.000 C 
BRANCH  15  16
ATOM     16  C   UNL     1     -30.349 -26.659  18.337  1.00  0.00    -0.000 C 
BRANCH  16  17
ATOM     17  C   UNL     1     -29.565 -26.881  19.640  1.00  0.00    -0.003 C 
ATOM     18  C   UNL     1     -29.969 -25.907  20.745  1.00  0.00     0.004 C 
ENDBRANCH  16  17
ENDBRANCH  15  16
ENDBRANCH  14  15
ENDBRANCH  13  14
ENDBRANCH  12  13
ENDBRANCH  11  12
ENDBRANCH   1  11
TORSDOF 14
ENDMDL
MODEL 4
REMARK VINA RESULT:    -3.693     18.051     20.034
REMARK INTER + INTRA:          -7.386
REMARK INTER:                  -5.964
REMARK INTRA:                  -1.423
REMARK UNBOUND:                -0.670
REMARK SMILES CCCCCCCCCCCCCCCC(=O)[O-]
REMARK SMILES IDX 9 1 10 2 11 3 12 4 13 5 14 6 15 7 16 8 17 9 18 10 8 11 7 12
REMARK SMILES IDX 6 13 5 14 4 15 3 16 2 17 1 18
REMARK H PARENT
REMARK Flexibility Score: inf
ROOT
ATOM      1  C   UNL     1     -14.665 -22.540  23.505  1.00  0.00     0.000 C 
ENDROOT
BRANCH   1   2
ATOM      2  C   UNL     1     -13.984 -22.068  22.211  1.00  0.00     0.000 C 
BRANCH   2   3
ATOM      3  C   UNL     1     -13.231 -23.198  21.492  1.00  0.00     0.000 C 
BRANCH   3   4
ATOM      4  C   UNL     1     -12.509 -22.716  20.221  1.00  0.00     0.000 C 
BRANCH   4   5
ATOM      5  C   UNL     1     -13.345 -21.685  19.433  1.00  0.00     0.000 C 
BRANCH   5   6
ATOM      6  C   UNL     1     -12.550 -20.435  19.019  1.00  0.00     0.006 C 
BRANCH   6   7
ATOM      7  C   UNL     1     -13.253 -19.127  19.399  1.00  0.00     0.053 C 
BRANCH   7   8
ATOM      8  C   UNL     1     -12.578 -18.494  20.575  1.00  0.00     0.041 C 
ATOM      9  O   UNL     1     -13.003 -18.707  21.741  1.00  0.00    -0.550 OA
ATOM     10  O   UNL     1     -11.448 -17.707  20.387  1.00  0.00    -0.550 OA
ENDBRANCH   7   8
ENDBRANCH   6   7
ENDBRANCH   5   6
ENDBRANCH   4   5
ENDBRANCH   3   4
ENDBRANCH   2   3
ENDBRANCH   1   2
BRANCH   1  11
ATOM     11  C   UNL     1     -14.721 -24.072  23.569  1.00  0.00     0.000 C 
BRANCH  11  12
ATOM     12  C   UNL     1     -15.989 -24.544  24.297  1.00  0.00    -0.000 C 
BRANCH  12  13
ATOM     13  C   UNL     1     -17.196 -23.629  24.036  1.00  0.00    -0.000 C 
BRANCH  13  14
ATOM     14  C   UNL     1     -18.468 -24.107  24.752  1.00  0.00    -0.000 C 
BRANCH  14  15
ATOM     15  C   UNL     1     -18.544 -23.540  26.175  1.00  0.00    -0.000 C 
BRANCH  15  16
ATOM     16  C   UNL     1     -18.032 -22.093  26.218  1.00  0.00    -0.000 C 
BRANCH  16  17
ATOM     17  C   UNL     1     -17.113 -21.827  27.420  1.00  0.00    -0.003 C 
ATOM     18  C   UNL     1     -15.630 -21.882  27.054  1.00  0.00     0.004 C 
ENDBRANCH  16  17
ENDBRANCH  15  16
ENDBRANCH  14  15
ENDBRANCH  13  14
ENDBRANCH  12  13
ENDBRANCH  11  12
ENDBRANCH   1  11
TORSDOF 14
ENDMDL
MODEL 5
REMARK VINA RESULT:    -3.693     18.066     19.227
REMARK INTER + INTRA:          -7.386
REMARK INTER:                  -5.582
REMARK INTRA:                  -1.803
REMARK UNBOUND:                -0.670
REMARK SMILES CCCCCCCCCCCCCCCC(=O)[O-]
REMARK SMILES IDX 9 1 10 2 11 3 12 4 13 5 14 6 15 7 16 8 17 9 18 10 8 11 7 12
REMARK SMILES IDX 6 13 5 14 4 15 3 16 2 17 1 18
REMARK H PARENT
REMARK Flexibility Score: inf
ROOT
ATOM      1  C   UNL     1     -13.120 -22.392  19.836  1.00  0.00     0.000 C 
ENDROOT
BRANCH   1   2
ATOM      2  C   UNL     1     -11.941 -22.073  20.768  1.00  0.00     0.000 C 
BRANCH   2   3
ATOM      3  C   UNL     1     -12.379 -21.847  22.223  1.00  0.00     0.000 C 
BRANCH   3   4
ATOM      4  C   UNL     1     -13.897 -21.636  22.361  1.00  0.00     0.000 C 
BRANCH   4   5
ATOM      5  C   UNL     1     -14.438 -22.162  23.708  1.00  0.00     0.000 C 
BRANCH   5   6
ATOM      6  C   UNL     1     -15.385 -23.366  23.563  1.00  0.00     0.006 C 
BRANCH   6   7
ATOM      7  C   UNL     1     -16.847 -23.013  23.859  1.00  0.00     0.053 C 
BRANCH   7   8
ATOM      8  C   UNL     1     -17.096 -23.018  25.335  1.00  0.00     0.041 C 
ATOM      9  O   UNL     1     -16.560 -23.892  26.066  1.00  0.00    -0.550 OA
ATOM     10  O   UNL     1     -17.881 -22.026  25.910  1.00  0.00    -0.550 OA
ENDBRANCH   7   8
ENDBRANCH   6   7
ENDBRANCH   5   6
ENDBRANCH   4   5
ENDBRANCH   3   4
ENDBRANCH   2   3
ENDBRANCH   1   2
BRANCH   1  11
ATOM     11  C   UNL     1     -13.242 -21.341  18.725  1.00  0.00     0.000 C 
BRANCH  11  12
ATOM     12  C   UNL     1     -11.868 -21.028  18.113  1.00  0.00    -0.000 C 
BRANCH  12  13
ATOM     13  C   UNL     1     -11.602 -19.518  18.000  1.00  0.00    -0.000 C 
BRANCH  13  14
ATOM     14  C   UNL     1     -12.555 -18.682  18.867  1.00  0.00    -0.000 C 
BRANCH  14  15
ATOM     15  C   UNL     1     -11.772 -17.789  19.839  1.00  0.00    -0.000 C 
BRANCH  15  16
ATOM     16  C   UNL     1     -11.698 -18.429  21.233  1.00  0.00    -0.000 C 
BRANCH  16  17
ATOM     17  C   UNL     1     -12.863 -18.005  22.142  1.00  0.00    -0.003 C 
ATOM     18  C   UNL     1     -12.578 -18.254  23.622  1.00  0.00     0.004 C 
ENDBRANCH  16  17
ENDBRANCH  15  16
ENDBRANCH  14  15
ENDBRANCH  13  14
ENDBRANCH  12  13
ENDBRANCH  11  12
ENDBRANCH   1  11
TORSDOF 14
ENDMDL
MODEL 6
REMARK VINA RESULT:    -3.690     18.253     19.500
REMARK INTER + INTRA:          -7.380
REMARK INTER:                  -5.331
REMARK INTRA:                  -2.049
REMARK UNBOUND:                -0.670
REMARK SMILES CCCCCCCCCCCCCCCC(=O)[O-]
REMARK SMILES IDX 9 1 10 2 11 3 12 4 13 5 14 6 15 7 16 8 17 9 18 10 8 11 7 12
REMARK SMILES IDX 6 13 5 14 4 15 3 16 2 17 1 18
REMARK H PARENT
REMARK Flexibility Score: inf
ROOT
ATOM      1  C   UNL     1     -13.386 -21.391  18.751  1.00  0.00     0.000 C 
ENDROOT
BRANCH   1   2
ATOM      2  C   UNL     1     -13.027 -22.542  19.702  1.00  0.00     0.000 C 
BRANCH   2   3
ATOM      3  C   UNL     1     -13.445 -22.264  21.154  1.00  0.00     0.000 C 
BRANCH   3   4
ATOM      4  C   UNL     1     -12.906 -23.315  22.140  1.00  0.00     0.000 C 
BRANCH   4   5
ATOM      5  C   UNL     1     -13.841 -23.509  23.353  1.00  0.00     0.000 C 
BRANCH   5   6
ATOM      6  C   UNL     1     -15.129 -22.671  23.277  1.00  0.00     0.006 C 
BRANCH   6   7
ATOM      7  C   UNL     1     -16.273 -23.259  24.111  1.00  0.00     0.053 C 
BRANCH   7   8
ATOM      8  C   UNL     1     -16.493 -22.442  25.345  1.00  0.00     0.041 C 
ATOM      9  O   UNL     1     -15.510 -22.038  26.021  1.00  0.00    -0.550 OA
ATOM     10  O   UNL     1     -17.782 -22.085  25.722  1.00  0.00    -0.550 OA
ENDBRANCH   7   8
ENDBRANCH   6   7
ENDBRANCH   5   6
ENDBRANCH   4   5
ENDBRANCH   3   4
ENDBRANCH   2   3
ENDBRANCH   1   2
BRANCH   1  11
ATOM     11  C   UNL     1     -12.129 -20.814  18.088  1.00  0.00     0.000 C 
BRANCH  11  12
ATOM     12  C   UNL     1     -11.883 -19.368  18.544  1.00  0.00    -0.000 C 
BRANCH  12  13
ATOM     13  C   UNL     1     -13.033 -18.815  19.402  1.00  0.00    -0.000 C 
BRANCH  13  14
ATOM     14  C   UNL     1     -12.570 -18.371  20.798  1.00  0.00    -0.000 C 
BRANCH  14  15
ATOM     15  C   UNL     1     -11.302 -19.123  21.221  1.00  0.00    -0.000 C 
BRANCH  15  16
ATOM     16  C   UNL     1     -11.369 -19.524  22.702  1.00  0.00    -0.000 C 
BRANCH  16  17
ATOM     17  C   UNL     1     -12.782 -19.386  23.289  1.00  0.00    -0.003 C 
ATOM     18  C   UNL     1     -12.898 -19.974  24.694  1.00  0.00     0.004 C 
ENDBRANCH  16  17
ENDBRANCH  15  16
ENDBRANCH  14  15
ENDBRANCH  13  14
ENDBRANCH  12  13
ENDBRANCH  11  12
ENDBRANCH   1  11
TORSDOF 14
ENDMDL
MODEL 7
REMARK VINA RESULT:    -3.667     17.706     18.850
REMARK INTER + INTRA:          -7.338
REMARK INTER:                  -5.823
REMARK INTRA:                  -1.516
REMARK UNBOUND:                -0.670
REMARK SMILES CCCCCCCCCCCCCCCC(=O)[O-]
REMARK SMILES IDX 9 1 10 2 11 3 12 4 13 5 14 6 15 7 16 8 17 9 18 10 8 11 7 12
REMARK SMILES IDX 6 13 5 14 4 15 3 16 2 17 1 18
REMARK H PARENT
REMARK Flexibility Score: inf
ROOT
ATOM      1  C   UNL     1     -12.417 -22.159  21.993  1.00  0.00     0.000 C 
ENDROOT
BRANCH   1   2
ATOM      2  C   UNL     1     -13.792 -21.676  22.478  1.00  0.00     0.000 C 
BRANCH   2   3
ATOM      3  C   UNL     1     -13.825 -21.401  23.989  1.00  0.00     0.000 C 
BRANCH   3   4
ATOM      4  C   UNL     1     -14.897 -22.227  24.720  1.00  0.00     0.000 C 
BRANCH   4   5
ATOM      5  C   UNL     1     -15.499 -23.327  23.820  1.00  0.00     0.000 C 
BRANCH   5   6
ATOM      6  C   UNL     1     -17.020 -23.202  23.629  1.00  0.00     0.006 C 
BRANCH   6   7
ATOM      7  C   UNL     1     -17.798 -24.355  24.271  1.00  0.00     0.053 C 
BRANCH   7   8
ATOM      8  C   UNL     1     -18.481 -23.892  25.520  1.00  0.00     0.041 C 
ATOM      9  O   UNL     1     -18.329 -22.709  25.924  1.00  0.00    -0.550 OA
ATOM     10  O   UNL     1     -19.325 -24.752  26.211  1.00  0.00    -0.550 OA
ENDBRANCH   7   8
ENDBRANCH   6   7
ENDBRANCH   5   6
ENDBRANCH   4   5
ENDBRANCH   3   4
ENDBRANCH   2   3
ENDBRANCH   1   2
BRANCH   1  11
ATOM     11  C   UNL     1     -12.468 -22.569  20.515  1.00  0.00     0.000 C 
BRANCH  11  12
ATOM     12  C   UNL     1     -13.505 -21.732  19.750  1.00  0.00    -0.000 C 
BRANCH  12  13
ATOM     13  C   UNL     1     -13.007 -21.300  18.361  1.00  0.00    -0.000 C 
BRANCH  13  14
ATOM     14  C   UNL     1     -11.560 -20.784  18.384  1.00  0.00    -0.000 C 
BRANCH  14  15
ATOM     15  C   UNL     1     -11.483 -19.340  17.873  1.00  0.00    -0.000 C 
BRANCH  15  16
ATOM     16  C   UNL     1     -12.404 -18.419  18.686  1.00  0.00    -0.000 C 
BRANCH  16  17
ATOM     17  C   UNL     1     -11.817 -18.057  20.059  1.00  0.00    -0.003 C 
ATOM     18  C   UNL     1     -12.789 -18.323  21.207  1.00  0.00     0.004 C 
ENDBRANCH  16  17
ENDBRANCH  15  16
ENDBRANCH  14  15
ENDBRANCH  13  14
ENDBRANCH  12  13
ENDBRANCH  11  12
ENDBRANCH   1  11
TORSDOF 14
ENDMDL
MODEL 8
REMARK VINA RESULT:    -3.666     17.948     19.801
REMARK INTER + INTRA:          -7.337
REMARK INTER:                  -5.187
REMARK INTRA:                  -2.149
REMARK UNBOUND:                -0.670
REMARK SMILES CCCCCCCCCCCCCCCC(=O)[O-]
REMARK SMILES IDX 9 1 10 2 11 3 12 4 13 5 14 6 15 7 16 8 17 9 18 10 8 11 7 12
REMARK SMILES IDX 6 13 5 14 4 15 3 16 2 17 1 18
REMARK H PARENT
REMARK Flexibility Score: inf
ROOT
ATOM      1  C   UNL     1     -17.816 -24.671  24.498  1.00  0.00     0.000 C 
ENDROOT
BRANCH   1   2
ATOM      2  C   UNL     1     -17.477 -23.484  23.585  1.00  0.00     0.000 C 
BRANCH   2   3
ATOM      3  C   UNL     1     -16.008 -23.051  23.695  1.00  0.00     0.000 C 
BRANCH   3   4
ATOM      4  C   UNL     1     -15.063 -24.227  23.999  1.00  0.00     0.000 C 
BRANCH   4   5
ATOM      5  C   UNL     1     -13.853 -24.264  23.041  1.00  0.00     0.000 C 
BRANCH   5   6
ATOM      6  C   UNL     1     -13.650 -22.959  22.254  1.00  0.00     0.006 C 
BRANCH   6   7
ATOM      7  C   UNL     1     -13.069 -23.190  20.855  1.00  0.00     0.053 C 
BRANCH   7   8
ATOM      8  C   UNL     1     -13.145 -21.935  20.043  1.00  0.00     0.041 C 
ATOM      9  O   UNL     1     -12.811 -20.831  20.550  1.00  0.00    -0.550 OA
ATOM     10  O   UNL     1     -13.538 -21.991  18.712  1.00  0.00    -0.550 OA
ENDBRANCH   7   8
ENDBRANCH   6   7
ENDBRANCH   5   6
ENDBRANCH   4   5
ENDBRANCH   3   4
ENDBRANCH   2   3
ENDBRANCH   1   2
BRANCH   1  11
ATOM     11  C   UNL     1     -18.955 -24.316  25.462  1.00  0.00     0.000 C 
BRANCH  11  12
ATOM     12  C   UNL     1     -18.402 -23.792  26.796  1.00  0.00    -0.000 C 
BRANCH  12  13
ATOM     13  C   UNL     1     -18.376 -22.256  26.862  1.00  0.00    -0.000 C 
BRANCH  13  14
ATOM     14  C   UNL     1     -16.982 -21.701  27.191  1.00  0.00    -0.000 C 
BRANCH  14  15
ATOM     15  C   UNL     1     -15.992 -22.837  27.480  1.00  0.00    -0.000 C 
BRANCH  15  16
ATOM     16  C   UNL     1     -14.549 -22.394  27.198  1.00  0.00    -0.000 C 
BRANCH  16  17
ATOM     17  C   UNL     1     -14.477 -21.045  26.466  1.00  0.00    -0.003 C 
ATOM     18  C   UNL     1     -13.383 -21.009  25.400  1.00  0.00     0.004 C 
ENDBRANCH  16  17
ENDBRANCH  15  16
ENDBRANCH  14  15
ENDBRANCH  13  14
ENDBRANCH  12  13
ENDBRANCH  11  12
ENDBRANCH   1  11
TORSDOF 14
ENDMDL
MODEL 9
REMARK VINA RESULT:    -3.653     18.226     19.829
REMARK INTER + INTRA:          -7.312
REMARK INTER:                  -5.121
REMARK INTRA:                  -2.192
REMARK UNBOUND:                -0.670
REMARK SMILES CCCCCCCCCCCCCCCC(=O)[O-]
REMARK SMILES IDX 9 1 10 2 11 3 12 4 13 5 14 6 15 7 16 8 17 9 18 10 8 11 7 12
REMARK SMILES IDX 6 13 5 14 4 15 3 16 2 17 1 18
REMARK H PARENT
REMARK Flexibility Score: inf
ROOT
ATOM      1  C   UNL     1     -12.754 -18.186  20.755  1.00  0.00     0.000 C 
ENDROOT
BRANCH   1   2
ATOM      2  C   UNL     1     -12.262 -18.574  22.158  1.00  0.00     0.000 C 
BRANCH   2   3
ATOM      3  C   UNL     1     -11.468 -19.889  22.165  1.00  0.00     0.000 C 
BRANCH   3   4
ATOM      4  C   UNL     1     -12.000 -20.899  23.197  1.00  0.00     0.000 C 
BRANCH   4   5
ATOM      5  C   UNL     1     -13.530 -21.079  23.098  1.00  0.00     0.000 C 
BRANCH   5   6
ATOM      6  C   UNL     1     -14.082 -22.174  24.026  1.00  0.00     0.006 C 
BRANCH   6   7
ATOM      7  C   UNL     1     -15.086 -23.098  23.328  1.00  0.00     0.053 C 
BRANCH   7   8
ATOM      8  C   UNL     1     -16.422 -23.020  23.998  1.00  0.00     0.041 C 
ATOM      9  O   UNL     1     -17.400 -23.667  23.539  1.00  0.00    -0.550 OA
ATOM     10  O   UNL     1     -16.575 -22.272  25.158  1.00  0.00    -0.550 OA
ENDBRANCH   7   8
ENDBRANCH   6   7
ENDBRANCH   5   6
ENDBRANCH   4   5
ENDBRANCH   3   4
ENDBRANCH   2   3
ENDBRANCH   1   2
BRANCH   1  11
ATOM     11  C   UNL     1     -11.583 -18.099  19.767  1.00  0.00     0.000 C 
BRANCH  11  12
ATOM     12  C   UNL     1     -12.060 -18.344  18.328  1.00  0.00    -0.000 C 
BRANCH  12  13
ATOM     13  C   UNL     1     -11.315 -19.505  17.648  1.00  0.00    -0.000 C 
BRANCH  13  14
ATOM     14  C   UNL     1     -11.489 -20.837  18.392  1.00  0.00    -0.000 C 
BRANCH  14  15
ATOM     15  C   UNL     1     -12.968 -21.235  18.467  1.00  0.00    -0.000 C 
BRANCH  15  16
ATOM     16  C   UNL     1     -13.231 -22.151  19.671  1.00  0.00    -0.000 C 
BRANCH  16  17
ATOM     17  C   UNL     1     -11.992 -22.965  20.076  1.00  0.00    -0.003 C 
ATOM     18  C   UNL     1     -12.329 -24.127  21.009  1.00  0.00     0.004 C 
ENDBRANCH  16  17
ENDBRANCH  15  16
ENDBRANCH  14  15
ENDBRANCH  13  14
ENDBRANCH  12  13
ENDBRANCH  11  12
ENDBRANCH   1  11
TORSDOF 14
ENDMDL
