MODEL 1
REMARK VINA RESULT:    -5.074      0.000      0.000
REMARK INTER + INTRA:         -10.036
REMARK INTER:                  -8.930
REMARK INTRA:                  -1.107
REMARK UNBOUND:                -1.107
REMARK SMILES CCCCCCCCCCCCCCC(=O)[O-]
REMARK SMILES IDX 9 1 10 2 11 3 12 4 13 5 14 6 15 7 16 8 17 9 8 10 7 11 6 12
REMARK SMILES IDX 5 13 4 14 3 15 2 16 1 17
REMARK H PARENT
REMARK Flexibility Score: inf
ROOT
ATOM      1  C   UNL     1     -21.651 -24.026  40.149  1.00  0.00     0.000 C 
ENDROOT
BRANCH   1   2
ATOM      2  C   UNL     1     -20.504 -24.961  39.729  1.00  0.00     0.000 C 
BRANCH   2   3
ATOM      3  C   UNL     1     -20.922 -26.441  39.699  1.00  0.00     0.000 C 
BRANCH   3   4
ATOM      4  C   UNL     1     -21.085 -26.982  38.270  1.00  0.00     0.000 C 
BRANCH   4   5
ATOM      5  C   UNL     1     -22.137 -28.101  38.178  1.00  0.00     0.006 C 
BRANCH   5   6
ATOM      6  C   UNL     1     -22.637 -28.542  39.560  1.00  0.00     0.053 C 
BRANCH   6   7
ATOM      7  C   UNL     1     -23.996 -29.167  39.487  1.00  0.00     0.041 C 
ATOM      8  O   UNL     1     -24.565 -29.319  38.373  1.00  0.00    -0.550 OA
ATOM      9  O   UNL     1     -24.624 -29.608  40.645  1.00  0.00    -0.550 OA
ENDBRANCH   6   7
ENDBRANCH   5   6
ENDBRANCH   4   5
ENDBRANCH   3   4
ENDBRANCH   2   3
ENDBRANCH   1   2
BRANCH   1  10
ATOM     10  C   UNL     1     -22.323 -24.432  41.478  1.00  0.00     0.000 C 
BRANCH  10  11
ATOM     11  C   UNL     1     -23.840 -24.622  41.328  1.00  0.00    -0.000 C 
BRANCH  11  12
ATOM     12  C   UNL     1     -24.240 -26.080  41.579  1.00  0.00    -0.000 C 
BRANCH  12  13
ATOM     13  C   UNL     1     -25.546 -26.163  42.378  1.00  0.00    -0.000 C 
BRANCH  13  14
ATOM     14  C   UNL     1     -26.624 -25.257  41.765  1.00  0.00    -0.000 C 
BRANCH  14  15
ATOM     15  C   UNL     1     -27.593 -24.684  42.816  1.00  0.00    -0.000 C 
BRANCH  15  16
ATOM     16  C   UNL     1     -29.084 -24.815  42.460  1.00  0.00    -0.003 C 
ATOM     17  C   UNL     1     -29.677 -26.168  42.852  1.00  0.00     0.004 C 
ENDBRANCH  15  16
ENDBRANCH  14  15
ENDBRANCH  13  14
ENDBRANCH  12  13
ENDBRANCH  11  12
ENDBRANCH  10  11
ENDBRANCH   1  10
TORSDOF 13
ENDMDL
MODEL 2
REMARK VINA RESULT:    -5.070      1.117      2.204
REMARK INTER + INTRA:         -10.031
REMARK INTER:                  -8.498
REMARK INTRA:                  -1.533
REMARK UNBOUND:                -1.107
REMARK SMILES CCCCCCCCCCCCCCC(=O)[O-]
REMARK SMILES IDX 9 1 10 2 11 3 12 4 13 5 14 6 15 7 16 8 17 9 8 10 7 11 6 12
REMARK SMILES IDX 5 13 4 14 3 15 2 16 1 17
REMARK H PARENT
REMARK Flexibility Score: inf
ROOT
ATOM      1  C   UNL     1     -20.667 -24.705  40.321  1.00  0.00     0.000 C 
ENDROOT
BRANCH   1   2
ATOM      2  C   UNL     1     -20.624 -26.192  39.930  1.00  0.00     0.000 C 
BRANCH   2   3
ATOM      3  C   UNL     1     -21.043 -26.439  38.471  1.00  0.00     0.000 C 
BRANCH   3   4
ATOM      4  C   UNL     1     -21.717 -27.805  38.271  1.00  0.00     0.000 C 
BRANCH   4   5
ATOM      5  C   UNL     1     -22.444 -28.297  39.534  1.00  0.00     0.006 C 
BRANCH   5   6
ATOM      6  C   UNL     1     -23.701 -29.110  39.200  1.00  0.00     0.053 C 
BRANCH   6   7
ATOM      7  C   UNL     1     -24.587 -29.282  40.396  1.00  0.00     0.041 C 
ATOM      8  O   UNL     1     -24.085 -29.494  41.531  1.00  0.00    -0.550 OA
ATOM      9  O   UNL     1     -25.966 -29.180  40.262  1.00  0.00    -0.550 OA
ENDBRANCH   6   7
ENDBRANCH   5   6
ENDBRANCH   4   5
ENDBRANCH   3   4
ENDBRANCH   2   3
ENDBRANCH   1   2
BRANCH   1  10
ATOM     10  C   UNL     1     -21.198 -23.787  39.199  1.00  0.00     0.000 C 
BRANCH  10  11
ATOM     11  C   UNL     1     -22.523 -23.109  39.579  1.00  0.00    -0.000 C 
BRANCH  11  12
ATOM     12  C   UNL     1     -22.867 -23.361  41.052  1.00  0.00    -0.000 C 
BRANCH  12  13
ATOM     13  C   UNL     1     -24.209 -24.090  41.187  1.00  0.00    -0.000 C 
BRANCH  13  14
ATOM     14  C   UNL     1     -23.999 -25.561  41.572  1.00  0.00    -0.000 C 
BRANCH  14  15
ATOM     15  C   UNL     1     -25.278 -26.227  42.114  1.00  0.00    -0.000 C 
BRANCH  15  16
ATOM     16  C   UNL     1     -26.592 -25.565  41.663  1.00  0.00    -0.003 C 
ATOM     17  C   UNL     1     -27.446 -25.074  42.831  1.00  0.00     0.004 C 
ENDBRANCH  15  16
ENDBRANCH  14  15
ENDBRANCH  13  14
ENDBRANCH  12  13
ENDBRANCH  11  12
ENDBRANCH  10  11
ENDBRANCH   1  10
TORSDOF 13
ENDMDL
MODEL 3
REMARK VINA RESULT:    -4.995      2.856      6.800
REMARK INTER + INTRA:          -9.897
REMARK INTER:                  -8.441
REMARK INTRA:                  -1.456
REMARK UNBOUND:                -1.107
REMARK SMILES CCCCCCCCCCCCCCC(=O)[O-]
REMARK SMILES IDX 9 1 10 2 11 3 12 4 13 5 14 6 15 7 16 8 17 9 8 10 7 11 6 12
REMARK SMILES IDX 5 13 4 14 3 15 2 16 1 17
REMARK H PARENT
REMARK Flexibility Score: inf
ROOT
ATOM      1  C   UNL     1     -24.695 -26.467  42.491  1.00  0.00     0.000 C 
ENDROOT
BRANCH   1   2
ATOM      2  C   UNL     1     -25.126 -25.396  41.475  1.00  0.00     0.000 C 
BRANCH   2   3
ATOM      3  C   UNL     1     -26.512 -24.804  41.785  1.00  0.00     0.000 C 
BRANCH   3   4
ATOM      4  C   UNL     1     -27.235 -25.550  42.918  1.00  0.00     0.000 C 
BRANCH   4   5
ATOM      5  C   UNL     1     -28.483 -26.303  42.427  1.00  0.00     0.006 C 
BRANCH   5   6
ATOM      6  C   UNL     1     -29.784 -25.612  42.857  1.00  0.00     0.053 C 
BRANCH   6   7
ATOM      7  C   UNL     1     -30.977 -26.187  42.158  1.00  0.00     0.041 C 
ATOM      8  O   UNL     1     -31.213 -27.423  42.219  1.00  0.00    -0.550 OA
ATOM      9  O   UNL     1     -31.846 -25.355  41.463  1.00  0.00    -0.550 OA
ENDBRANCH   6   7
ENDBRANCH   5   6
ENDBRANCH   4   5
ENDBRANCH   3   4
ENDBRANCH   2   3
ENDBRANCH   1   2
BRANCH   1  10
ATOM     10  C   UNL     1     -24.500 -27.866  41.868  1.00  0.00     0.000 C 
BRANCH  10  11
ATOM     11  C   UNL     1     -25.278 -28.032  40.555  1.00  0.00    -0.000 C 
BRANCH  11  12
ATOM     12  C   UNL     1     -24.498 -28.894  39.557  1.00  0.00    -0.000 C 
BRANCH  12  13
ATOM     13  C   UNL     1     -22.988 -28.799  39.808  1.00  0.00    -0.000 C 
BRANCH  13  14
ATOM     14  C   UNL     1     -22.248 -28.346  38.541  1.00  0.00    -0.000 C 
BRANCH  14  15
ATOM     15  C   UNL     1     -21.382 -27.092  38.768  1.00  0.00    -0.000 C 
BRANCH  15  16
ATOM     16  C   UNL     1     -21.412 -26.539  40.203  1.00  0.00    -0.003 C 
ATOM     17  C   UNL     1     -21.143 -25.036  40.272  1.00  0.00     0.004 C 
ENDBRANCH  15  16
ENDBRANCH  14  15
ENDBRANCH  13  14
ENDBRANCH  12  13
ENDBRANCH  11  12
ENDBRANCH  10  11
ENDBRANCH   1  10
TORSDOF 13
ENDMDL
MODEL 4
REMARK VINA RESULT:    -4.974      2.928      7.156
REMARK INTER + INTRA:          -9.861
REMARK INTER:                  -8.471
REMARK INTRA:                  -1.390
REMARK UNBOUND:                -1.107
REMARK SMILES CCCCCCCCCCCCCCC(=O)[O-]
REMARK SMILES IDX 9 1 10 2 11 3 12 4 13 5 14 6 15 7 16 8 17 9 8 10 7 11 6 12
REMARK SMILES IDX 5 13 4 14 3 15 2 16 1 17
REMARK H PARENT
REMARK Flexibility Score: inf
ROOT
ATOM      1  C   UNL     1     -23.687 -28.918  39.646  1.00  0.00     0.000 C 
ENDROOT
BRANCH   1   2
ATOM      2  C   UNL     1     -24.185 -29.186  41.077  1.00  0.00     0.000 C 
BRANCH   2   3
ATOM      3  C   UNL     1     -24.203 -27.919  41.949  1.00  0.00     0.000 C 
BRANCH   3   4
ATOM      4  C   UNL     1     -25.429 -27.032  41.680  1.00  0.00     0.000 C 
BRANCH   4   5
ATOM      5  C   UNL     1     -25.059 -25.548  41.511  1.00  0.00     0.006 C 
BRANCH   5   6
ATOM      6  C   UNL     1     -23.546 -25.341  41.362  1.00  0.00     0.053 C 
BRANCH   6   7
ATOM      7  C   UNL     1     -23.196 -23.894  41.197  1.00  0.00     0.041 C 
ATOM      8  O   UNL     1     -24.027 -23.095  40.688  1.00  0.00    -0.550 OA
ATOM      9  O   UNL     1     -21.964 -23.421  41.631  1.00  0.00    -0.550 OA
ENDBRANCH   6   7
ENDBRANCH   5   6
ENDBRANCH   4   5
ENDBRANCH   3   4
ENDBRANCH   2   3
ENDBRANCH   1   2
BRANCH   1  10
ATOM     10  C   UNL     1     -22.266 -28.318  39.589  1.00  0.00     0.000 C 
BRANCH  10  11
ATOM     11  C   UNL     1     -21.842 -27.963  38.156  1.00  0.00    -0.000 C 
BRANCH  11  12
ATOM     12  C   UNL     1     -20.994 -26.685  38.133  1.00  0.00    -0.000 C 
BRANCH  12  13
ATOM     13  C   UNL     1     -20.473 -26.345  39.534  1.00  0.00    -0.000 C 
BRANCH  13  14
ATOM     14  C   UNL     1     -19.516 -25.145  39.488  1.00  0.00    -0.000 C 
BRANCH  14  15
ATOM     15  C   UNL     1     -18.034 -25.562  39.432  1.00  0.00    -0.000 C 
BRANCH  15  16
ATOM     16  C   UNL     1     -17.461 -25.721  38.013  1.00  0.00    -0.003 C 
ATOM     17  C   UNL     1     -17.276 -27.180  37.601  1.00  0.00     0.004 C 
ENDBRANCH  15  16
ENDBRANCH  14  15
ENDBRANCH  13  14
ENDBRANCH  12  13
ENDBRANCH  11  12
ENDBRANCH  10  11
ENDBRANCH   1  10
TORSDOF 13
ENDMDL
MODEL 5
REMARK VINA RESULT:    -4.939      2.354      4.473
REMARK INTER + INTRA:          -9.800
REMARK INTER:                  -8.478
REMARK INTRA:                  -1.321
REMARK UNBOUND:                -1.107
REMARK SMILES CCCCCCCCCCCCCCC(=O)[O-]
REMARK SMILES IDX 9 1 10 2 11 3 12 4 13 5 14 6 15 7 16 8 17 9 8 10 7 11 6 12
REMARK SMILES IDX 5 13 4 14 3 15 2 16 1 17
REMARK H PARENT
REMARK Flexibility Score: inf
ROOT
ATOM      1  C   UNL     1     -21.061 -26.975  38.297  1.00  0.00     0.000 C 
ENDROOT
BRANCH   1   2
ATOM      2  C   UNL     1     -22.083 -28.105  38.084  1.00  0.00     0.000 C 
BRANCH   2   3
ATOM      3  C   UNL     1     -22.613 -28.686  39.406  1.00  0.00     0.000 C 
BRANCH   3   4
ATOM      4  C   UNL     1     -24.046 -29.228  39.283  1.00  0.00     0.000 C 
BRANCH   4   5
ATOM      5  C   UNL     1     -24.781 -29.267  40.633  1.00  0.00     0.006 C 
BRANCH   5   6
ATOM      6  C   UNL     1     -24.190 -28.277  41.644  1.00  0.00     0.053 C 
BRANCH   6   7
ATOM      7  C   UNL     1     -25.102 -27.112  41.882  1.00  0.00     0.041 C 
ATOM      8  O   UNL     1     -24.943 -26.378  42.892  1.00  0.00    -0.550 OA
ATOM      9  O   UNL     1     -26.110 -26.820  40.971  1.00  0.00    -0.550 OA
ENDBRANCH   6   7
ENDBRANCH   5   6
ENDBRANCH   4   5
ENDBRANCH   3   4
ENDBRANCH   2   3
ENDBRANCH   1   2
BRANCH   1  10
ATOM     10  C   UNL     1     -20.893 -26.564  39.775  1.00  0.00     0.000 C 
BRANCH  10  11
ATOM     11  C   UNL     1     -20.204 -25.199  39.925  1.00  0.00    -0.000 C 
BRANCH  11  12
ATOM     12  C   UNL     1     -21.233 -24.083  40.139  1.00  0.00    -0.000 C 
BRANCH  12  13
ATOM     13  C   UNL     1     -22.531 -24.638  40.737  1.00  0.00    -0.000 C 
BRANCH  13  14
ATOM     14  C   UNL     1     -23.448 -23.501  41.210  1.00  0.00    -0.000 C 
BRANCH  14  15
ATOM     15  C   UNL     1     -23.841 -22.536  40.076  1.00  0.00    -0.000 C 
BRANCH  15  16
ATOM     16  C   UNL     1     -23.801 -21.045  40.453  1.00  0.00    -0.003 C 
ATOM     17  C   UNL     1     -22.821 -20.740  41.585  1.00  0.00     0.004 C 
ENDBRANCH  15  16
ENDBRANCH  14  15
ENDBRANCH  13  14
ENDBRANCH  12  13
ENDBRANCH  11  12
ENDBRANCH  10  11
ENDBRANCH   1  10
TORSDOF 13
ENDMDL
MODEL 6
REMARK VINA RESULT:    -4.915      2.666      4.301
REMARK INTER + INTRA:          -9.757
REMARK INTER:                  -8.531
REMARK INTRA:                  -1.226
REMARK UNBOUND:                -1.107
REMARK SMILES CCCCCCCCCCCCCCC(=O)[O-]
REMARK SMILES IDX 9 1 10 2 11 3 12 4 13 5 14 6 15 7 16 8 17 9 8 10 7 11 6 12
REMARK SMILES IDX 5 13 4 14 3 15 2 16 1 17
REMARK H PARENT
REMARK Flexibility Score: inf
ROOT
ATOM      1  C   UNL     1     -22.231 -28.123  38.192  1.00  0.00     0.000 C 
ENDROOT
BRANCH   1   2
ATOM      2  C   UNL     1     -21.194 -27.015  38.445  1.00  0.00     0.000 C 
BRANCH   2   3
ATOM      3  C   UNL     1     -21.222 -26.491  39.890  1.00  0.00     0.000 C 
BRANCH   3   4
ATOM      4  C   UNL     1     -20.480 -25.154  40.051  1.00  0.00     0.000 C 
BRANCH   4   5
ATOM      5  C   UNL     1     -21.319 -24.096  40.786  1.00  0.00     0.006 C 
BRANCH   5   6
ATOM      6  C   UNL     1     -22.528 -23.638  39.960  1.00  0.00     0.053 C 
BRANCH   6   7
ATOM      7  C   UNL     1     -23.500 -22.850  40.784  1.00  0.00     0.041 C 
ATOM      8  O   UNL     1     -24.711 -23.190  40.833  1.00  0.00    -0.550 OA
ATOM      9  O   UNL     1     -23.062 -21.757  41.521  1.00  0.00    -0.550 OA
ENDBRANCH   6   7
ENDBRANCH   5   6
ENDBRANCH   4   5
ENDBRANCH   3   4
ENDBRANCH   2   3
ENDBRANCH   1   2
BRANCH   1  10
ATOM     10  C   UNL     1     -22.837 -28.709  39.485  1.00  0.00     0.000 C 
BRANCH  10  11
ATOM     11  C   UNL     1     -24.291 -29.166  39.292  1.00  0.00    -0.000 C 
BRANCH  11  12
ATOM     12  C   UNL     1     -25.236 -28.410  40.233  1.00  0.00    -0.000 C 
BRANCH  12  13
ATOM     13  C   UNL     1     -24.473 -27.827  41.428  1.00  0.00    -0.000 C 
BRANCH  13  14
ATOM     14  C   UNL     1     -25.113 -26.514  41.901  1.00  0.00    -0.000 C 
BRANCH  14  15
ATOM     15  C   UNL     1     -26.601 -26.401  41.521  1.00  0.00    -0.000 C 
BRANCH  15  16
ATOM     16  C   UNL     1     -27.496 -25.764  42.598  1.00  0.00    -0.003 C 
ATOM     17  C   UNL     1     -27.503 -24.237  42.544  1.00  0.00     0.004 C 
ENDBRANCH  15  16
ENDBRANCH  14  15
ENDBRANCH  13  14
ENDBRANCH  12  13
ENDBRANCH  11  12
ENDBRANCH  10  11
ENDBRANCH   1  10
TORSDOF 13
ENDMDL
MODEL 7
REMARK VINA RESULT:    -4.898      3.818      5.382
REMARK INTER + INTRA:          -9.728
REMARK INTER:                  -8.639
REMARK INTRA:                  -1.089
REMARK UNBOUND:                -1.107
REMARK SMILES CCCCCCCCCCCCCCC(=O)[O-]
REMARK SMILES IDX 9 1 10 2 11 3 12 4 13 5 14 6 15 7 16 8 17 9 8 10 7 11 6 12
REMARK SMILES IDX 5 13 4 14 3 15 2 16 1 17
REMARK H PARENT
REMARK Flexibility Score: inf
ROOT
ATOM      1  C   UNL     1     -21.499 -27.086  39.255  1.00  0.00     0.000 C 
ENDROOT
BRANCH   1   2
ATOM      2  C   UNL     1     -20.228 -26.500  38.619  1.00  0.00     0.000 C 
BRANCH   2   3
ATOM      3  C   UNL     1     -19.495 -25.516  39.547  1.00  0.00     0.000 C 
BRANCH   3   4
ATOM      4  C   UNL     1     -17.998 -25.396  39.219  1.00  0.00     0.000 C 
BRANCH   4   5
ATOM      5  C   UNL     1     -17.443 -26.649  38.520  1.00  0.00     0.006 C 
BRANCH   5   6
ATOM      6  C   UNL     1     -16.957 -26.350  37.095  1.00  0.00     0.053 C 
BRANCH   6   7
ATOM      7  C   UNL     1     -16.211 -27.509  36.507  1.00  0.00     0.041 C 
ATOM      8  O   UNL     1     -15.531 -27.358  35.458  1.00  0.00    -0.550 OA
ATOM      9  O   UNL     1     -16.244 -28.749  37.134  1.00  0.00    -0.550 OA
ENDBRANCH   6   7
ENDBRANCH   5   6
ENDBRANCH   4   5
ENDBRANCH   3   4
ENDBRANCH   2   3
ENDBRANCH   1   2
BRANCH   1  10
ATOM     10  C   UNL     1     -22.187 -28.160  38.386  1.00  0.00     0.000 C 
BRANCH  10  11
ATOM     11  C   UNL     1     -23.341 -28.855  39.123  1.00  0.00    -0.000 C 
BRANCH  11  12
ATOM     12  C   UNL     1     -22.970 -29.139  40.583  1.00  0.00    -0.000 C 
BRANCH  12  13
ATOM     13  C   UNL     1     -24.152 -28.856  41.517  1.00  0.00    -0.000 C 
BRANCH  13  14
ATOM     14  C   UNL     1     -25.307 -28.189  40.756  1.00  0.00    -0.000 C 
BRANCH  14  15
ATOM     15  C   UNL     1     -25.841 -26.928  41.462  1.00  0.00    -0.000 C 
BRANCH  15  16
ATOM     16  C   UNL     1     -24.799 -26.168  42.302  1.00  0.00    -0.003 C 
ATOM     17  C   UNL     1     -23.927 -25.231  41.468  1.00  0.00     0.004 C 
ENDBRANCH  15  16
ENDBRANCH  14  15
ENDBRANCH  13  14
ENDBRANCH  12  13
ENDBRANCH  11  12
ENDBRANCH  10  11
ENDBRANCH   1  10
TORSDOF 13
ENDMDL
MODEL 8
REMARK VINA RESULT:    -4.891      3.743      6.794
REMARK INTER + INTRA:          -9.714
REMARK INTER:                  -8.358
REMARK INTRA:                  -1.356
REMARK UNBOUND:                -1.107
REMARK SMILES CCCCCCCCCCCCCCC(=O)[O-]
REMARK SMILES IDX 9 1 10 2 11 3 12 4 13 5 14 6 15 7 16 8 17 9 8 10 7 11 6 12
REMARK SMILES IDX 5 13 4 14 3 15 2 16 1 17
REMARK H PARENT
REMARK Flexibility Score: inf
ROOT
ATOM      1  C   UNL     1     -24.891 -26.635  42.122  1.00  0.00     0.000 C 
ENDROOT
BRANCH   1   2
ATOM      2  C   UNL     1     -24.788 -25.215  41.540  1.00  0.00     0.000 C 
BRANCH   2   3
ATOM      3  C   UNL     1     -23.342 -24.811  41.206  1.00  0.00     0.000 C 
BRANCH   3   4
ATOM      4  C   UNL     1     -23.211 -23.323  40.844  1.00  0.00     0.000 C 
BRANCH   4   5
ATOM      5  C   UNL     1     -21.802 -22.956  40.348  1.00  0.00     0.006 C 
BRANCH   5   6
ATOM      6  C   UNL     1     -21.742 -22.820  38.821  1.00  0.00     0.053 C 
BRANCH   6   7
ATOM      7  C   UNL     1     -20.885 -21.665  38.399  1.00  0.00     0.041 C 
ATOM      8  O   UNL     1     -19.937 -21.279  39.132  1.00  0.00    -0.550 OA
ATOM      9  O   UNL     1     -21.116 -21.034  37.183  1.00  0.00    -0.550 OA
ENDBRANCH   6   7
ENDBRANCH   5   6
ENDBRANCH   4   5
ENDBRANCH   3   4
ENDBRANCH   2   3
ENDBRANCH   1   2
BRANCH   1  10
ATOM     10  C   UNL     1     -25.452 -27.672  41.126  1.00  0.00     0.000 C 
BRANCH  10  11
ATOM     11  C   UNL     1     -24.581 -28.934  41.047  1.00  0.00    -0.000 C 
BRANCH  11  12
ATOM     12  C   UNL     1     -23.909 -29.055  39.675  1.00  0.00    -0.000 C 
BRANCH  12  13
ATOM     13  C   UNL     1     -22.544 -28.357  39.666  1.00  0.00    -0.000 C 
BRANCH  13  14
ATOM     14  C   UNL     1     -22.049 -28.134  38.230  1.00  0.00    -0.000 C 
BRANCH  14  15
ATOM     15  C   UNL     1     -21.032 -26.983  38.118  1.00  0.00    -0.000 C 
BRANCH  15  16
ATOM     16  C   UNL     1     -20.603 -26.368  39.461  1.00  0.00    -0.003 C 
ATOM     17  C   UNL     1     -19.272 -25.621  39.379  1.00  0.00     0.004 C 
ENDBRANCH  15  16
ENDBRANCH  14  15
ENDBRANCH  13  14
ENDBRANCH  12  13
ENDBRANCH  11  12
ENDBRANCH  10  11
ENDBRANCH   1  10
TORSDOF 13
ENDMDL
MODEL 9
REMARK VINA RESULT:    -4.878      3.239      5.215
REMARK INTER + INTRA:          -9.692
REMARK INTER:                  -8.301
REMARK INTRA:                  -1.391
REMARK UNBOUND:                -1.107
REMARK SMILES CCCCCCCCCCCCCCC(=O)[O-]
REMARK SMILES IDX 9 1 10 2 11 3 12 4 13 5 14 6 15 7 16 8 17 9 8 10 7 11 6 12
REMARK SMILES IDX 5 13 4 14 3 15 2 16 1 17
REMARK H PARENT
REMARK Flexibility Score: inf
ROOT
ATOM      1  C   UNL     1     -21.105 -26.551  39.984  1.00  0.00     0.000 C 
ENDROOT
BRANCH   1   2
ATOM      2  C   UNL     1     -20.547 -25.120  40.064  1.00  0.00     0.000 C 
BRANCH   2   3
ATOM      3  C   UNL     1     -21.645 -24.046  39.986  1.00  0.00     0.000 C 
BRANCH   3   4
ATOM      4  C   UNL     1     -22.617 -24.105  41.176  1.00  0.00     0.000 C 
BRANCH   4   5
ATOM      5  C   UNL     1     -23.985 -23.482  40.853  1.00  0.00     0.006 C 
BRANCH   5   6
ATOM      6  C   UNL     1     -23.956 -21.950  40.921  1.00  0.00     0.053 C 
BRANCH   6   7
ATOM      7  C   UNL     1     -25.213 -21.344  40.374  1.00  0.00     0.041 C 
ATOM      8  O   UNL     1     -26.306 -21.960  40.469  1.00  0.00    -0.550 OA
ATOM      9  O   UNL     1     -25.181 -20.086  39.785  1.00  0.00    -0.550 OA
ENDBRANCH   6   7
ENDBRANCH   5   6
ENDBRANCH   4   5
ENDBRANCH   3   4
ENDBRANCH   2   3
ENDBRANCH   1   2
BRANCH   1  10
ATOM     10  C   UNL     1     -21.164 -27.112  38.548  1.00  0.00     0.000 C 
BRANCH  10  11
ATOM     11  C   UNL     1     -22.284 -28.148  38.373  1.00  0.00    -0.000 C 
BRANCH  11  12
ATOM     12  C   UNL     1     -22.635 -28.812  39.709  1.00  0.00    -0.000 C 
BRANCH  12  13
ATOM     13  C   UNL     1     -24.076 -29.335  39.704  1.00  0.00    -0.000 C 
BRANCH  13  14
ATOM     14  C   UNL     1     -25.045 -28.281  40.258  1.00  0.00    -0.000 C 
BRANCH  14  15
ATOM     15  C   UNL     1     -24.461 -27.495  41.447  1.00  0.00    -0.000 C 
BRANCH  15  16
ATOM     16  C   UNL     1     -25.453 -26.549  42.145  1.00  0.00    -0.003 C 
ATOM     17  C   UNL     1     -26.736 -26.328  41.344  1.00  0.00     0.004 C 
ENDBRANCH  15  16
ENDBRANCH  14  15
ENDBRANCH  13  14
ENDBRANCH  12  13
ENDBRANCH  11  12
ENDBRANCH  10  11
ENDBRANCH   1  10
TORSDOF 13
ENDMDL
