MODEL 1
REMARK VINA RESULT:    -3.106      0.000      0.000
REMARK INTER + INTRA:          -3.893
REMARK INTER:                  -3.832
REMARK INTRA:                  -0.061
REMARK UNBOUND:                -0.061
REMARK SMILES CCCCCC(=O)[O-]
REMARK SMILES IDX 4 1 5 2 6 3 7 4 8 5 3 6 2 7 1 8
REMARK H PARENT
REMARK Flexibility Score: inf
ROOT
ATOM      1  C   UNL     1      25.455 -16.414  26.318  1.00  0.00     0.006 C 
ENDROOT
BRANCH   1   2
ATOM      2  C   UNL     1      24.782 -15.048  26.486  1.00  0.00     0.053 C 
BRANCH   2   3
ATOM      3  C   UNL     1      23.303 -15.208  26.649  1.00  0.00     0.041 C 
ATOM      4  O   UNL     1      22.674 -14.481  27.461  1.00  0.00    -0.550 OA
ATOM      5  O   UNL     1      22.612 -16.125  25.866  1.00  0.00    -0.550 OA
ENDBRANCH   2   3
ENDBRANCH   1   2
BRANCH   1   6
ATOM      6  C   UNL     1      26.580 -16.348  25.276  1.00  0.00     0.000 C 
BRANCH   6   7
ATOM      7  C   UNL     1      26.858 -17.710  24.620  1.00  0.00    -0.003 C 
ATOM      8  C   UNL     1      28.151 -18.354  25.121  1.00  0.00     0.004 C 
ENDBRANCH   6   7
ENDBRANCH   1   6
TORSDOF 4
ENDMDL
MODEL 2
REMARK VINA RESULT:    -3.085      1.058      1.385
REMARK INTER + INTRA:          -3.867
REMARK INTER:                  -3.769
REMARK INTRA:                  -0.098
REMARK UNBOUND:                -0.061
REMARK SMILES CCCCCC(=O)[O-]
REMARK SMILES IDX 4 1 5 2 6 3 7 4 8 5 3 6 2 7 1 8
REMARK H PARENT
REMARK Flexibility Score: inf
ROOT
ATOM      1  C   UNL     1      25.883 -16.337  26.569  1.00  0.00     0.006 C 
ENDROOT
BRANCH   1   2
ATOM      2  C   UNL     1      24.362 -16.240  26.406  1.00  0.00     0.053 C 
BRANCH   2   3
ATOM      3  C   UNL     1      23.917 -14.813  26.478  1.00  0.00     0.041 C 
ATOM      4  O   UNL     1      22.743 -14.499  26.147  1.00  0.00    -0.550 OA
ATOM      5  O   UNL     1      24.782 -13.838  26.959  1.00  0.00    -0.550 OA
ENDBRANCH   2   3
ENDBRANCH   1   2
BRANCH   1   6
ATOM      6  C   UNL     1      26.583 -16.322  25.203  1.00  0.00     0.000 C 
BRANCH   6   7
ATOM      7  C   UNL     1      26.922 -17.733  24.697  1.00  0.00    -0.003 C 
ATOM      8  C   UNL     1      28.192 -18.299  25.333  1.00  0.00     0.004 C 
ENDBRANCH   6   7
ENDBRANCH   1   6
TORSDOF 4
ENDMDL
MODEL 3
REMARK VINA RESULT:    -3.085      1.779      2.674
REMARK INTER + INTRA:          -3.867
REMARK INTER:                  -3.742
REMARK INTRA:                  -0.125
REMARK UNBOUND:                -0.061
REMARK SMILES CCCCCC(=O)[O-]
REMARK SMILES IDX 4 1 5 2 6 3 7 4 8 5 3 6 2 7 1 8
REMARK H PARENT
REMARK Flexibility Score: inf
ROOT
ATOM      1  C   UNL     1      26.490 -17.879  24.860  1.00  0.00     0.006 C 
ENDROOT
BRANCH   1   2
ATOM      2  C   UNL     1      26.646 -16.401  25.232  1.00  0.00     0.053 C 
BRANCH   2   3
ATOM      3  C   UNL     1      25.666 -16.023  26.299  1.00  0.00     0.041 C 
ATOM      4  O   UNL     1      25.325 -16.864  27.172  1.00  0.00    -0.550 OA
ATOM      5  O   UNL     1      25.168 -14.727  26.358  1.00  0.00    -0.550 OA
ENDBRANCH   2   3
ENDBRANCH   1   2
BRANCH   1   6
ATOM      6  C   UNL     1      27.846 -18.498  24.492  1.00  0.00     0.000 C 
BRANCH   6   7
ATOM      7  C   UNL     1      28.901 -18.306  25.592  1.00  0.00    -0.003 C 
ATOM      8  C   UNL     1      30.306 -18.704  25.138  1.00  0.00     0.004 C 
ENDBRANCH   6   7
ENDBRANCH   1   6
TORSDOF 4
ENDMDL
MODEL 4
REMARK VINA RESULT:    -3.084      4.760      6.126
REMARK INTER + INTRA:          -3.865
REMARK INTER:                  -3.759
REMARK INTRA:                  -0.107
REMARK UNBOUND:                -0.061
REMARK SMILES CCCCCC(=O)[O-]
REMARK SMILES IDX 4 1 5 2 6 3 7 4 8 5 3 6 2 7 1 8
REMARK H PARENT
REMARK Flexibility Score: inf
ROOT
ATOM      1  C   UNL     1      27.988 -18.564  24.475  1.00  0.00     0.006 C 
ENDROOT
BRANCH   1   2
ATOM      2  C   UNL     1      28.919 -18.354  25.674  1.00  0.00     0.053 C 
BRANCH   2   3
ATOM      3  C   UNL     1      30.265 -18.948  25.403  1.00  0.00     0.041 C 
ATOM      4  O   UNL     1      30.893 -18.643  24.355  1.00  0.00    -0.550 OA
ATOM      5  O   UNL     1      30.849 -19.801  26.332  1.00  0.00    -0.550 OA
ENDBRANCH   2   3
ENDBRANCH   1   2
BRANCH   1   6
ATOM      6  C   UNL     1      26.614 -17.928  24.729  1.00  0.00     0.000 C 
BRANCH   6   7
ATOM      7  C   UNL     1      26.715 -16.459  25.169  1.00  0.00    -0.003 C 
ATOM      8  C   UNL     1      25.707 -16.099  26.260  1.00  0.00     0.004 C 
ENDBRANCH   6   7
ENDBRANCH   1   6
TORSDOF 4
ENDMDL
MODEL 5
REMARK VINA RESULT:    -3.059      3.277      5.012
REMARK INTER + INTRA:          -3.836
REMARK INTER:                  -3.751
REMARK INTRA:                  -0.085
REMARK UNBOUND:                -0.061
REMARK SMILES CCCCCC(=O)[O-]
REMARK SMILES IDX 4 1 5 2 6 3 7 4 8 5 3 6 2 7 1 8
REMARK H PARENT
REMARK Flexibility Score: inf
ROOT
ATOM      1  C   UNL     1      26.574 -16.219  25.268  1.00  0.00     0.006 C 
ENDROOT
BRANCH   1   2
ATOM      2  C   UNL     1      26.581 -17.621  24.649  1.00  0.00     0.053 C 
BRANCH   2   3
ATOM      3  C   UNL     1      27.849 -18.338  24.990  1.00  0.00     0.041 C 
ATOM      4  O   UNL     1      28.267 -18.354  26.178  1.00  0.00    -0.550 OA
ATOM      5  O   UNL     1      28.543 -19.031  24.006  1.00  0.00    -0.550 OA
ENDBRANCH   2   3
ENDBRANCH   1   2
BRANCH   1   6
ATOM      6  C   UNL     1      25.480 -16.097  26.338  1.00  0.00     0.000 C 
BRANCH   6   7
ATOM      7  C   UNL     1      24.955 -14.660  26.484  1.00  0.00    -0.003 C 
ATOM      8  C   UNL     1      23.428 -14.586  26.482  1.00  0.00     0.004 C 
ENDBRANCH   6   7
ENDBRANCH   1   6
TORSDOF 4
ENDMDL
MODEL 6
REMARK VINA RESULT:    -2.967     20.052     20.750
REMARK INTER + INTRA:          -3.721
REMARK INTER:                  -3.582
REMARK INTRA:                  -0.139
REMARK UNBOUND:                -0.061
REMARK SMILES CCCCCC(=O)[O-]
REMARK SMILES IDX 4 1 5 2 6 3 7 4 8 5 3 6 2 7 1 8
REMARK H PARENT
REMARK Flexibility Score: inf
ROOT
ATOM      1  C   UNL     1      16.476  -1.822  15.560  1.00  0.00     0.006 C 
ENDROOT
BRANCH   1   2
ATOM      2  C   UNL     1      15.046  -1.426  15.941  1.00  0.00     0.053 C 
BRANCH   2   3
ATOM      3  C   UNL     1      14.101  -1.737  14.824  1.00  0.00     0.041 C 
ATOM      4  O   UNL     1      13.179  -2.578  14.991  1.00  0.00    -0.550 OA
ATOM      5  O   UNL     1      14.207  -1.062  13.614  1.00  0.00    -0.550 OA
ENDBRANCH   2   3
ENDBRANCH   1   2
BRANCH   1   6
ATOM      6  C   UNL     1      17.276  -0.601  15.084  1.00  0.00     0.000 C 
BRANCH   6   7
ATOM      7  C   UNL     1      18.056  -0.874  13.788  1.00  0.00    -0.003 C 
ATOM      8  C   UNL     1      18.326  -2.362  13.564  1.00  0.00     0.004 C 
ENDBRANCH   6   7
ENDBRANCH   1   6
TORSDOF 4
ENDMDL
MODEL 7
REMARK VINA RESULT:    -2.965      1.552      2.161
REMARK INTER + INTRA:          -3.718
REMARK INTER:                  -3.532
REMARK INTRA:                  -0.187
REMARK UNBOUND:                -0.061
REMARK SMILES CCCCCC(=O)[O-]
REMARK SMILES IDX 4 1 5 2 6 3 7 4 8 5 3 6 2 7 1 8
REMARK H PARENT
REMARK Flexibility Score: inf
ROOT
ATOM      1  C   UNL     1      23.287 -17.328  26.113  1.00  0.00     0.006 C 
ENDROOT
BRANCH   1   2
ATOM      2  C   UNL     1      22.681 -16.232  26.997  1.00  0.00     0.053 C 
BRANCH   2   3
ATOM      3  C   UNL     1      22.904 -14.884  26.387  1.00  0.00     0.041 C 
ATOM      4  O   UNL     1      22.111 -14.446  25.513  1.00  0.00    -0.550 OA
ATOM      5  O   UNL     1      23.958 -14.090  26.821  1.00  0.00    -0.550 OA
ENDBRANCH   2   3
ENDBRANCH   1   2
BRANCH   1   6
ATOM      6  C   UNL     1      24.753 -17.588  26.489  1.00  0.00     0.000 C 
BRANCH   6   7
ATOM      7  C   UNL     1      25.684 -17.587  25.267  1.00  0.00    -0.003 C 
ATOM      8  C   UNL     1      26.621 -16.380  25.238  1.00  0.00     0.004 C 
ENDBRANCH   6   7
ENDBRANCH   1   6
TORSDOF 4
ENDMDL
MODEL 8
REMARK VINA RESULT:    -2.961     14.760     15.826
REMARK INTER + INTRA:          -3.714
REMARK INTER:                  -3.604
REMARK INTRA:                  -0.110
REMARK UNBOUND:                -0.061
REMARK SMILES CCCCCC(=O)[O-]
REMARK SMILES IDX 4 1 5 2 6 3 7 4 8 5 3 6 2 7 1 8
REMARK H PARENT
REMARK Flexibility Score: inf
ROOT
ATOM      1  C   UNL     1      15.030  -4.909  21.079  1.00  0.00     0.006 C 
ENDROOT
BRANCH   1   2
ATOM      2  C   UNL     1      16.109  -5.909  20.651  1.00  0.00     0.053 C 
BRANCH   2   3
ATOM      3  C   UNL     1      17.255  -5.199  20.002  1.00  0.00     0.041 C 
ATOM      4  O   UNL     1      17.280  -3.941  19.964  1.00  0.00    -0.550 OA
ATOM      5  O   UNL     1      18.320  -5.925  19.484  1.00  0.00    -0.550 OA
ENDBRANCH   2   3
ENDBRANCH   1   2
BRANCH   1   6
ATOM      6  C   UNL     1      13.626  -5.487  20.857  1.00  0.00     0.000 C 
BRANCH   6   7
ATOM      7  C   UNL     1      13.250  -6.547  21.905  1.00  0.00    -0.003 C 
ATOM      8  C   UNL     1      13.209  -5.984  23.326  1.00  0.00     0.004 C 
ENDBRANCH   6   7
ENDBRANCH   1   6
TORSDOF 4
ENDMDL
MODEL 9
REMARK VINA RESULT:    -2.923      2.484      4.277
REMARK INTER + INTRA:          -3.668
REMARK INTER:                  -3.485
REMARK INTRA:                  -0.182
REMARK UNBOUND:                -0.061
REMARK SMILES CCCCCC(=O)[O-]
REMARK SMILES IDX 4 1 5 2 6 3 7 4 8 5 3 6 2 7 1 8
REMARK H PARENT
REMARK Flexibility Score: inf
ROOT
ATOM      1  C   UNL     1      25.164 -16.101  26.771  1.00  0.00     0.006 C 
ENDROOT
BRANCH   1   2
ATOM      2  C   UNL     1      26.199 -16.158  25.643  1.00  0.00     0.053 C 
BRANCH   2   3
ATOM      3  C   UNL     1      26.261 -17.534  25.058  1.00  0.00     0.041 C 
ATOM      4  O   UNL     1      27.013 -17.772  24.077  1.00  0.00    -0.550 OA
ATOM      5  O   UNL     1      25.526 -18.567  25.628  1.00  0.00    -0.550 OA
ENDBRANCH   2   3
ENDBRANCH   1   2
BRANCH   1   6
ATOM      6  C   UNL     1      24.060 -15.082  26.452  1.00  0.00     0.000 C 
BRANCH   6   7
ATOM      7  C   UNL     1      22.650 -15.679  26.582  1.00  0.00    -0.003 C 
ATOM      8  C   UNL     1      22.467 -16.948  25.750  1.00  0.00     0.004 C 
ENDBRANCH   6   7
ENDBRANCH   1   6
TORSDOF 4
ENDMDL
