MODEL 1
REMARK VINA RESULT:    -4.096      0.000      0.000
REMARK INTER + INTRA:          -5.624
REMARK INTER:                  -5.533
REMARK INTRA:                  -0.091
REMARK UNBOUND:                -0.091
REMARK SMILES [NH3+]CCCC[C@@H]([NH3+])C(=O)[O-]
REMARK SMILES IDX 4 1 3 2 2 3 1 4 5 8 6 9 7 10 8 14 9 15 10 16
REMARK H PARENT 1 5 1 6 1 7 7 11 7 12 7 13
REMARK Flexibility Score: inf
ROOT
ATOM      1  C   UNL     1      -2.207   3.709 -23.097  1.00  0.00     0.012 C 
ENDROOT
BRANCH   1   2
ATOM      2  C   UNL     1      -1.956   4.739 -24.210  1.00  0.00     0.061 C 
BRANCH   2   3
ATOM      3  C   UNL     1      -0.650   5.524 -24.002  1.00  0.00     0.258 C 
BRANCH   3   4
ATOM      4  N   UNL     1      -0.695   6.357 -22.798  1.00  0.00    -0.358 N 
ATOM      5  H   UNL     1      -0.266   7.286 -23.011  1.00  0.00     0.344 HD
ATOM      6  H   UNL     1      -0.148   5.911 -22.027  1.00  0.00     0.344 HD
ATOM      7  H   UNL     1      -1.684   6.507 -22.494  1.00  0.00     0.344 HD
ENDBRANCH   3   4
ENDBRANCH   2   3
ENDBRANCH   1   2
BRANCH   1   8
ATOM      8  C   UNL     1      -3.661   3.719 -22.590  1.00  0.00     0.072 C 
BRANCH   8   9
ATOM      9  C   UNL     1      -3.999   2.575 -21.605  1.00  0.00     0.227 C 
BRANCH   9  10
ATOM     10  N   UNL     1      -3.574   2.933 -20.247  1.00  0.00    -0.350 N 
ATOM     11  H   UNL     1      -3.202   3.911 -20.237  1.00  0.00     0.345 HD
ATOM     12  H   UNL     1      -2.832   2.280 -19.905  1.00  0.00     0.345 HD
ATOM     13  H   UNL     1      -4.393   2.889 -19.596  1.00  0.00     0.345 HD
ENDBRANCH   9  10
BRANCH   9  14
ATOM     14  C   UNL     1      -5.473   2.263 -21.617  1.00  0.00     0.099 C 
ATOM     15  O   UNL     1      -5.922   1.308 -20.930  1.00  0.00    -0.544 OA
ATOM     16  O   UNL     1      -6.343   3.021 -22.390  1.00  0.00    -0.544 OA
ENDBRANCH   9  14
ENDBRANCH   8   9
ENDBRANCH   1   8
TORSDOF 7
ENDMDL
MODEL 2
REMARK VINA RESULT:    -4.028      8.982      9.693
REMARK INTER + INTRA:          -5.532
REMARK INTER:                  -5.440
REMARK INTRA:                  -0.092
REMARK UNBOUND:                -0.091
REMARK SMILES [NH3+]CCCC[C@@H]([NH3+])C(=O)[O-]
REMARK SMILES IDX 4 1 3 2 2 3 1 4 5 8 6 9 7 10 8 14 9 15 10 16
REMARK H PARENT 1 5 1 6 1 7 7 11 7 12 7 13
REMARK Flexibility Score: inf
ROOT
ATOM      1  C   UNL     1       3.251  -3.792 -22.411  1.00  0.00     0.012 C 
ENDROOT
BRANCH   1   2
ATOM      2  C   UNL     1       4.246  -4.655 -21.618  1.00  0.00     0.061 C 
BRANCH   2   3
ATOM      3  C   UNL     1       4.736  -5.873 -22.418  1.00  0.00     0.258 C 
BRANCH   3   4
ATOM      4  N   UNL     1       3.654  -6.508 -23.173  1.00  0.00    -0.358 N 
ATOM      5  H   UNL     1       3.600  -6.071 -24.122  1.00  0.00     0.344 HD
ATOM      6  H   UNL     1       2.739  -6.360 -22.690  1.00  0.00     0.344 HD
ATOM      7  H   UNL     1       3.837  -7.531 -23.285  1.00  0.00     0.344 HD
ENDBRANCH   3   4
ENDBRANCH   2   3
ENDBRANCH   1   2
BRANCH   1   8
ATOM      8  C   UNL     1       2.901  -2.474 -21.696  1.00  0.00     0.072 C 
BRANCH   8   9
ATOM      9  C   UNL     1       1.519  -1.891 -22.079  1.00  0.00     0.227 C 
BRANCH   9  10
ATOM     10  N   UNL     1       0.588  -2.008 -20.951  1.00  0.00    -0.350 N 
ATOM     11  H   UNL     1       0.005  -2.870 -21.060  1.00  0.00     0.345 HD
ATOM     12  H   UNL     1      -0.040  -1.173 -20.900  1.00  0.00     0.345 HD
ATOM     13  H   UNL     1       1.124  -2.088 -20.056  1.00  0.00     0.345 HD
ENDBRANCH   9  10
BRANCH   9  14
ATOM     14  C   UNL     1       1.635  -0.449 -22.502  1.00  0.00     0.099 C 
ATOM     15  O   UNL     1       0.630   0.308 -22.444  1.00  0.00    -0.544 OA
ATOM     16  O   UNL     1       2.845   0.051 -22.965  1.00  0.00    -0.544 OA
ENDBRANCH   9  14
ENDBRANCH   8   9
ENDBRANCH   1   8
TORSDOF 7
ENDMDL
MODEL 3
REMARK VINA RESULT:    -3.920      1.995      2.456
REMARK INTER + INTRA:          -5.386
REMARK INTER:                  -5.248
REMARK INTRA:                  -0.138
REMARK UNBOUND:                -0.091
REMARK SMILES [NH3+]CCCC[C@@H]([NH3+])C(=O)[O-]
REMARK SMILES IDX 4 1 3 2 2 3 1 4 5 8 6 9 7 10 8 14 9 15 10 16
REMARK H PARENT 1 5 1 6 1 7 7 11 7 12 7 13
REMARK Flexibility Score: inf
ROOT
ATOM      1  C   UNL     1      -1.843   3.323 -22.791  1.00  0.00     0.012 C 
ENDROOT
BRANCH   1   2
ATOM      2  C   UNL     1      -1.501   2.443 -24.005  1.00  0.00     0.061 C 
BRANCH   2   3
ATOM      3  C   UNL     1      -0.631   1.232 -23.628  1.00  0.00     0.258 C 
BRANCH   3   4
ATOM      4  N   UNL     1      -1.226   0.442 -22.548  1.00  0.00    -0.358 N 
ATOM      5  H   UNL     1      -1.661   1.090 -21.852  1.00  0.00     0.344 HD
ATOM      6  H   UNL     1      -0.491  -0.118 -22.060  1.00  0.00     0.344 HD
ATOM      7  H   UNL     1      -1.967  -0.192 -22.924  1.00  0.00     0.344 HD
ENDBRANCH   3   4
ENDBRANCH   2   3
ENDBRANCH   1   2
BRANCH   1   8
ATOM      8  C   UNL     1      -3.359   3.473 -22.570  1.00  0.00     0.072 C 
BRANCH   8   9
ATOM      9  C   UNL     1      -3.949   2.489 -21.531  1.00  0.00     0.227 C 
BRANCH   9  10
ATOM     10  N   UNL     1      -3.585   2.907 -20.172  1.00  0.00    -0.350 N 
ATOM     11  H   UNL     1      -3.345   3.925 -20.166  1.00  0.00     0.345 HD
ATOM     12  H   UNL     1      -2.764   2.359 -19.823  1.00  0.00     0.345 HD
ATOM     13  H   UNL     1      -4.395   2.758 -19.526  1.00  0.00     0.345 HD
ENDBRANCH   9  10
BRANCH   9  14
ATOM     14  C   UNL     1      -5.448   2.401 -21.656  1.00  0.00     0.099 C 
ATOM     15  O   UNL     1      -6.060   1.390 -21.219  1.00  0.00    -0.544 OA
ATOM     16  O   UNL     1      -6.163   3.428 -22.259  1.00  0.00    -0.544 OA
ENDBRANCH   9  14
ENDBRANCH   8   9
ENDBRANCH   1   8
TORSDOF 7
ENDMDL
MODEL 4
REMARK VINA RESULT:    -3.854      3.118      3.517
REMARK INTER + INTRA:          -5.296
REMARK INTER:                  -5.071
REMARK INTRA:                  -0.226
REMARK UNBOUND:                -0.091
REMARK SMILES [NH3+]CCCC[C@@H]([NH3+])C(=O)[O-]
REMARK SMILES IDX 4 1 3 2 2 3 1 4 5 8 6 9 7 10 8 14 9 15 10 16
REMARK H PARENT 1 5 1 6 1 7 7 11 7 12 7 13
REMARK Flexibility Score: inf
ROOT
ATOM      1  C   UNL     1      -2.279   5.225 -24.532  1.00  0.00     0.012 C 
ENDROOT
BRANCH   1   2
ATOM      2  C   UNL     1      -0.844   5.546 -24.981  1.00  0.00     0.061 C 
BRANCH   2   3
ATOM      3  C   UNL     1      -0.180   6.622 -24.106  1.00  0.00     0.258 C 
BRANCH   3   4
ATOM      4  N   UNL     1      -0.609   6.536 -22.708  1.00  0.00    -0.358 N 
ATOM      5  H   UNL     1      -1.284   5.745 -22.607  1.00  0.00     0.344 HD
ATOM      6  H   UNL     1      -1.090   7.418 -22.421  1.00  0.00     0.344 HD
ATOM      7  H   UNL     1       0.211   6.358 -22.085  1.00  0.00     0.344 HD
ENDBRANCH   3   4
ENDBRANCH   2   3
ENDBRANCH   1   2
BRANCH   1   8
ATOM      8  C   UNL     1      -2.520   3.717 -24.330  1.00  0.00     0.072 C 
BRANCH   8   9
ATOM      9  C   UNL     1      -1.649   3.078 -23.223  1.00  0.00     0.227 C 
BRANCH   9  10
ATOM     10  N   UNL     1      -2.417   2.957 -21.979  1.00  0.00    -0.350 N 
ATOM     11  H   UNL     1      -2.122   2.096 -21.462  1.00  0.00     0.345 HD
ATOM     12  H   UNL     1      -3.442   2.903 -22.179  1.00  0.00     0.345 HD
ATOM     13  H   UNL     1      -2.231   3.785 -21.366  1.00  0.00     0.345 HD
ENDBRANCH   9  10
BRANCH   9  14
ATOM     14  C   UNL     1      -1.140   1.724 -23.645  1.00  0.00     0.099 C 
ATOM     15  O   UNL     1      -0.756   1.535 -24.830  1.00  0.00    -0.544 OA
ATOM     16  O   UNL     1      -1.098   0.675 -22.735  1.00  0.00    -0.544 OA
ENDBRANCH   9  14
ENDBRANCH   8   9
ENDBRANCH   1   8
TORSDOF 7
ENDMDL
MODEL 5
REMARK VINA RESULT:    -3.743      8.428      9.186
REMARK INTER + INTRA:          -5.147
REMARK INTER:                  -5.043
REMARK INTRA:                  -0.104
REMARK UNBOUND:                -0.091
REMARK SMILES [NH3+]CCCC[C@@H]([NH3+])C(=O)[O-]
REMARK SMILES IDX 4 1 3 2 2 3 1 4 5 8 6 9 7 10 8 14 9 15 10 16
REMARK H PARENT 1 5 1 6 1 7 7 11 7 12 7 13
REMARK Flexibility Score: inf
ROOT
ATOM      1  C   UNL     1       2.437  -2.642 -22.045  1.00  0.00     0.012 C 
ENDROOT
BRANCH   1   2
ATOM      2  C   UNL     1       3.796  -3.277 -21.706  1.00  0.00     0.061 C 
BRANCH   2   3
ATOM      3  C   UNL     1       3.849  -4.774 -22.052  1.00  0.00     0.258 C 
BRANCH   3   4
ATOM      4  N   UNL     1       4.615  -5.540 -21.067  1.00  0.00    -0.358 N 
ATOM      5  H   UNL     1       3.997  -5.761 -20.253  1.00  0.00     0.344 HD
ATOM      6  H   UNL     1       5.427  -4.979 -20.722  1.00  0.00     0.344 HD
ATOM      7  H   UNL     1       4.953  -6.437 -21.484  1.00  0.00     0.344 HD
ENDBRANCH   3   4
ENDBRANCH   2   3
ENDBRANCH   1   2
BRANCH   1   8
ATOM      8  C   UNL     1       2.425  -1.115 -21.849  1.00  0.00     0.072 C 
BRANCH   8   9
ATOM      9  C   UNL     1       1.525  -0.353 -22.851  1.00  0.00     0.227 C 
BRANCH   9  10
ATOM     10  N   UNL     1       0.680   0.614 -22.141  1.00  0.00    -0.350 N 
ATOM     11  H   UNL     1       0.315   1.328 -22.813  1.00  0.00     0.345 HD
ATOM     12  H   UNL     1       1.221   1.097 -21.387  1.00  0.00     0.345 HD
ATOM     13  H   UNL     1      -0.139   0.122 -21.713  1.00  0.00     0.345 HD
ENDBRANCH   9  10
BRANCH   9  14
ATOM     14  C   UNL     1       2.350   0.355 -23.894  1.00  0.00     0.099 C 
ATOM     15  O   UNL     1       3.607   0.342 -23.821  1.00  0.00    -0.544 OA
ATOM     16  O   UNL     1       1.731   1.034 -24.935  1.00  0.00    -0.544 OA
ENDBRANCH   9  14
ENDBRANCH   8   9
ENDBRANCH   1   8
TORSDOF 7
ENDMDL
MODEL 6
REMARK VINA RESULT:    -3.656      4.954      5.883
REMARK INTER + INTRA:          -5.029
REMARK INTER:                  -4.918
REMARK INTRA:                  -0.111
REMARK UNBOUND:                -0.091
REMARK SMILES [NH3+]CCCC[C@@H]([NH3+])C(=O)[O-]
REMARK SMILES IDX 4 1 3 2 2 3 1 4 5 8 6 9 7 10 8 14 9 15 10 16
REMARK H PARENT 1 5 1 6 1 7 7 11 7 12 7 13
REMARK Flexibility Score: inf
ROOT
ATOM      1  C   UNL     1       0.819   0.318 -22.502  1.00  0.00     0.012 C 
ENDROOT
BRANCH   1   2
ATOM      2  C   UNL     1       2.038  -0.588 -22.742  1.00  0.00     0.061 C 
BRANCH   2   3
ATOM      3  C   UNL     1       1.936  -1.925 -21.990  1.00  0.00     0.258 C 
BRANCH   3   4
ATOM      4  N   UNL     1       0.778  -1.966 -21.094  1.00  0.00    -0.358 N 
ATOM      5  H   UNL     1      -0.094  -1.861 -21.661  1.00  0.00     0.344 HD
ATOM      6  H   UNL     1       0.821  -1.178 -20.408  1.00  0.00     0.344 HD
ATOM      7  H   UNL     1       0.740  -2.879 -20.587  1.00  0.00     0.344 HD
ENDBRANCH   3   4
ENDBRANCH   2   3
ENDBRANCH   1   2
BRANCH   1   8
ATOM      8  C   UNL     1       0.323   1.006 -23.787  1.00  0.00     0.072 C 
BRANCH   8   9
ATOM      9  C   UNL     1      -1.151   1.472 -23.731  1.00  0.00     0.227 C 
BRANCH   9  10
ATOM     10  N   UNL     1      -1.788   0.995 -22.498  1.00  0.00    -0.350 N 
ATOM     11  H   UNL     1      -1.140   0.348 -21.991  1.00  0.00     0.345 HD
ATOM     12  H   UNL     1      -2.679   0.490 -22.711  1.00  0.00     0.345 HD
ATOM     13  H   UNL     1      -1.996   1.805 -21.870  1.00  0.00     0.345 HD
ENDBRANCH   9  10
BRANCH   9  14
ATOM     14  C   UNL     1      -1.251   2.973 -23.812  1.00  0.00     0.099 C 
ATOM     15  O   UNL     1      -1.822   3.619 -22.894  1.00  0.00    -0.544 OA
ATOM     16  O   UNL     1      -0.721   3.653 -24.901  1.00  0.00    -0.544 OA
ENDBRANCH   9  14
ENDBRANCH   8   9
ENDBRANCH   1   8
TORSDOF 7
ENDMDL
MODEL 7
REMARK VINA RESULT:    -3.649      2.785      4.559
REMARK INTER + INTRA:          -5.019
REMARK INTER:                  -4.705
REMARK INTRA:                  -0.314
REMARK UNBOUND:                -0.091
REMARK SMILES [NH3+]CCCC[C@@H]([NH3+])C(=O)[O-]
REMARK SMILES IDX 4 1 3 2 2 3 1 4 5 8 6 9 7 10 8 14 9 15 10 16
REMARK H PARENT 1 5 1 6 1 7 7 11 7 12 7 13
REMARK Flexibility Score: inf
ROOT
ATOM      1  C   UNL     1      -6.258   2.582 -22.231  1.00  0.00     0.012 C 
ENDROOT
BRANCH   1   2
ATOM      2  C   UNL     1      -5.589   1.782 -21.101  1.00  0.00     0.061 C 
BRANCH   2   3
ATOM      3  C   UNL     1      -5.079   2.683 -19.964  1.00  0.00     0.258 C 
BRANCH   3   4
ATOM      4  N   UNL     1      -3.630   2.881 -20.025  1.00  0.00    -0.358 N 
ATOM      5  H   UNL     1      -3.378   3.732 -19.472  1.00  0.00     0.344 HD
ATOM      6  H   UNL     1      -3.324   3.029 -21.014  1.00  0.00     0.344 HD
ATOM      7  H   UNL     1      -3.131   2.057 -19.617  1.00  0.00     0.344 HD
ENDBRANCH   3   4
ENDBRANCH   2   3
ENDBRANCH   1   2
BRANCH   1   8
ATOM      8  C   UNL     1      -5.877   4.074 -22.213  1.00  0.00     0.072 C 
BRANCH   8   9
ATOM      9  C   UNL     1      -5.355   4.612 -23.567  1.00  0.00     0.227 C 
BRANCH   9  10
ATOM     10  N   UNL     1      -5.467   6.074 -23.610  1.00  0.00    -0.350 N 
ATOM     11  H   UNL     1      -6.032   6.362 -24.442  1.00  0.00     0.345 HD
ATOM     12  H   UNL     1      -4.522   6.518 -23.666  1.00  0.00     0.345 HD
ATOM     13  H   UNL     1      -5.955   6.418 -22.750  1.00  0.00     0.345 HD
ENDBRANCH   9  10
BRANCH   9  14
ATOM     14  C   UNL     1      -3.924   4.201 -23.800  1.00  0.00     0.099 C 
ATOM     15  O   UNL     1      -3.216   3.803 -22.837  1.00  0.00    -0.544 OA
ATOM     16  O   UNL     1      -3.374   4.265 -25.074  1.00  0.00    -0.544 OA
ENDBRANCH   9  14
ENDBRANCH   8   9
ENDBRANCH   1   8
TORSDOF 7
ENDMDL
MODEL 8
REMARK VINA RESULT:    -3.619      2.863      3.885
REMARK INTER + INTRA:          -4.979
REMARK INTER:                  -4.460
REMARK INTRA:                  -0.519
REMARK UNBOUND:                -0.091
REMARK SMILES [NH3+]CCCC[C@@H]([NH3+])C(=O)[O-]
REMARK SMILES IDX 4 1 3 2 2 3 1 4 5 8 6 9 7 10 8 14 9 15 10 16
REMARK H PARENT 1 5 1 6 1 7 7 11 7 12 7 13
REMARK Flexibility Score: inf
ROOT
ATOM      1  C   UNL     1      -6.724   3.741 -22.491  1.00  0.00     0.012 C 
ENDROOT
BRANCH   1   2
ATOM      2  C   UNL     1      -6.678   5.120 -21.814  1.00  0.00     0.061 C 
BRANCH   2   3
ATOM      3  C   UNL     1      -6.621   6.273 -22.830  1.00  0.00     0.258 C 
BRANCH   3   4
ATOM      4  N   UNL     1      -5.409   6.224 -23.650  1.00  0.00    -0.358 N 
ATOM      5  H   UNL     1      -4.588   6.029 -23.032  1.00  0.00     0.344 HD
ATOM      6  H   UNL     1      -5.253   7.143 -24.124  1.00  0.00     0.344 HD
ATOM      7  H   UNL     1      -5.480   5.463 -24.363  1.00  0.00     0.344 HD
ENDBRANCH   3   4
ENDBRANCH   2   3
ENDBRANCH   1   2
BRANCH   1   8
ATOM      8  C   UNL     1      -5.677   2.763 -21.925  1.00  0.00     0.072 C 
BRANCH   8   9
ATOM      9  C   UNL     1      -4.357   3.434 -21.478  1.00  0.00     0.227 C 
BRANCH   9  10
ATOM     10  N   UNL     1      -3.864   2.813 -20.243  1.00  0.00    -0.350 N 
ATOM     11  H   UNL     1      -3.237   3.480 -19.736  1.00  0.00     0.345 HD
ATOM     12  H   UNL     1      -3.334   1.936 -20.454  1.00  0.00     0.345 HD
ATOM     13  H   UNL     1      -4.670   2.583 -19.616  1.00  0.00     0.345 HD
ENDBRANCH   9  10
BRANCH   9  14
ATOM     14  C   UNL     1      -3.307   3.339 -22.555  1.00  0.00     0.099 C 
ATOM     15  O   UNL     1      -2.283   2.628 -22.377  1.00  0.00    -0.544 OA
ATOM     16  O   UNL     1      -3.456   4.041 -23.744  1.00  0.00    -0.544 OA
ENDBRANCH   9  14
ENDBRANCH   8   9
ENDBRANCH   1   8
TORSDOF 7
ENDMDL
MODEL 9
REMARK VINA RESULT:    -3.573      2.910      4.960
REMARK INTER + INTRA:          -4.916
REMARK INTER:                  -4.826
REMARK INTRA:                  -0.090
REMARK UNBOUND:                -0.091
REMARK SMILES [NH3+]CCCC[C@@H]([NH3+])C(=O)[O-]
REMARK SMILES IDX 4 1 3 2 2 3 1 4 5 8 6 9 7 10 8 14 9 15 10 16
REMARK H PARENT 1 5 1 6 1 7 7 11 7 12 7 13
REMARK Flexibility Score: inf
ROOT
ATOM      1  C   UNL     1      -4.628   3.466 -22.116  1.00  0.00     0.012 C 
ENDROOT
BRANCH   1   2
ATOM      2  C   UNL     1      -5.448   2.994 -20.904  1.00  0.00     0.061 C 
BRANCH   2   3
ATOM      3  C   UNL     1      -4.567   2.410 -19.788  1.00  0.00     0.258 C 
BRANCH   3   4
ATOM      4  N   UNL     1      -5.171   2.577 -18.465  1.00  0.00    -0.358 N 
ATOM      5  H   UNL     1      -5.747   3.449 -18.462  1.00  0.00     0.344 HD
ATOM      6  H   UNL     1      -4.428   2.670 -17.735  1.00  0.00     0.344 HD
ATOM      7  H   UNL     1      -5.791   1.765 -18.241  1.00  0.00     0.344 HD
ENDBRANCH   3   4
ENDBRANCH   2   3
ENDBRANCH   1   2
BRANCH   1   8
ATOM      8  C   UNL     1      -3.191   2.913 -22.117  1.00  0.00     0.072 C 
BRANCH   8   9
ATOM      9  C   UNL     1      -2.329   3.386 -23.311  1.00  0.00     0.227 C 
BRANCH   9  10
ATOM     10  N   UNL     1      -1.613   4.619 -22.965  1.00  0.00    -0.350 N 
ATOM     11  H   UNL     1      -0.718   4.673 -23.503  1.00  0.00     0.345 HD
ATOM     12  H   UNL     1      -1.401   4.650 -21.941  1.00  0.00     0.345 HD
ATOM     13  H   UNL     1      -2.197   5.450 -23.218  1.00  0.00     0.345 HD
ENDBRANCH   9  10
BRANCH   9  14
ATOM     14  C   UNL     1      -1.346   2.322 -23.728  1.00  0.00     0.099 C 
ATOM     15  O   UNL     1      -0.658   2.473 -24.772  1.00  0.00    -0.544 OA
ATOM     16  O   UNL     1      -1.199   1.168 -22.970  1.00  0.00    -0.544 OA
ENDBRANCH   9  14
ENDBRANCH   8   9
ENDBRANCH   1   8
TORSDOF 7
ENDMDL
