MODEL 1
REMARK VINA RESULT:    -5.542      0.000      0.000
REMARK INTER + INTRA:          -6.789
REMARK INTER:                  -6.513
REMARK INTRA:                  -0.276
REMARK UNBOUND:                -0.276
REMARK SMILES O=c1cc(-c2ccc(O)c(O)c2)oc2cc(O)cc(O)c12
REMARK SMILES IDX 4 1 3 2 2 3 1 4 21 5 19 6 18 7 16 8 15 9 14 10 13 11 5 12
REMARK SMILES IDX 6 13 7 14 8 15 12 16 10 17 9 18 11 20 20 22 17 24
REMARK H PARENT 9 19 11 21 20 23 17 25
REMARK Flexibility Score: inf
ROOT
ATOM      1  C   UNL     1     -14.352 -23.178 175.128  1.00  0.00     0.138 A 
ATOM      2  C   UNL     1     -14.950 -24.423 174.894  1.00  0.00     0.100 A 
ATOM      3  C   UNL     1     -15.101 -25.325 175.948  1.00  0.00     0.197 A 
ATOM      4  O   UNL     1     -15.592 -26.456 175.694  1.00  0.00    -0.289 OA
ATOM      5  C   UNL     1     -14.684 -24.961 177.252  1.00  0.00     0.107 A 
ATOM      6  C   UNL     1     -14.820 -25.785 178.409  1.00  0.00     0.134 A 
ATOM      7  C   UNL     1     -14.279 -25.357 179.628  1.00  0.00     0.093 A 
ATOM      8  C   UNL     1     -13.661 -24.113 179.745  1.00  0.00     0.123 A 
ATOM      9  C   UNL     1     -13.568 -23.278 178.631  1.00  0.00     0.094 A 
ATOM     10  C   UNL     1     -14.065 -23.691 177.393  1.00  0.00     0.146 A 
ATOM     11  O   UNL     1     -13.940 -22.873 176.354  1.00  0.00    -0.456 OA
ENDROOT
BRANCH   1  12
ATOM     12  C   UNL     1     -14.169 -22.179 174.044  1.00  0.00     0.021 A 
ATOM     13  C   UNL     1     -13.375 -22.505 172.932  1.00  0.00     0.016 A 
ATOM     14  C   UNL     1     -13.193 -21.586 171.897  1.00  0.00     0.051 A 
ATOM     15  C   UNL     1     -13.805 -20.329 171.941  1.00  0.00     0.157 A 
ATOM     16  C   UNL     1     -14.798 -20.921 174.082  1.00  0.00     0.062 A 
ATOM     17  C   UNL     1     -14.623 -19.994 173.045  1.00  0.00     0.158 A 
BRANCH  15  18
ATOM     18  O   UNL     1     -13.579 -19.456 170.876  1.00  0.00    -0.504 OA
ATOM     19  H   UNL     1     -12.760 -18.871 170.789  1.00  0.00     0.293 HD
ENDBRANCH  15  18
BRANCH  17  20
ATOM     20  O   UNL     1     -15.280 -18.766 173.152  1.00  0.00    -0.504 OA
ATOM     21  H   UNL     1     -16.284 -18.662 173.161  1.00  0.00     0.293 HD
ENDBRANCH  17  20
ENDBRANCH   1  12
BRANCH   6  22
ATOM     22  O   UNL     1     -15.490 -27.012 178.423  1.00  0.00    -0.507 OA
ATOM     23  H   UNL     1     -15.092 -27.888 178.724  1.00  0.00     0.293 HD
ENDBRANCH   6  22
BRANCH   8  24
ATOM     24  O   UNL     1     -13.149 -23.713 180.977  1.00  0.00    -0.508 OA
ATOM     25  H   UNL     1     -12.904 -22.748 181.162  1.00  0.00     0.293 HD
ENDBRANCH   8  24
TORSDOF 5
ENDMDL
MODEL 2
REMARK VINA RESULT:    -5.419      1.033      1.174
REMARK INTER + INTRA:          -6.645
REMARK INTER:                  -6.329
REMARK INTRA:                  -0.317
REMARK UNBOUND:                -0.276
REMARK SMILES O=c1cc(-c2ccc(O)c(O)c2)oc2cc(O)cc(O)c12
REMARK SMILES IDX 4 1 3 2 2 3 1 4 21 5 19 6 18 7 16 8 15 9 14 10 13 11 5 12
REMARK SMILES IDX 6 13 7 14 8 15 12 16 10 17 9 18 11 20 20 22 17 24
REMARK H PARENT 9 19 11 21 20 23 17 25
REMARK Flexibility Score: inf
ROOT
ATOM      1  C   UNL     1     -14.461 -22.523 175.534  1.00  0.00     0.138 A 
ATOM      2  C   UNL     1     -14.975 -23.780 175.192  1.00  0.00     0.100 A 
ATOM      3  C   UNL     1     -14.915 -24.825 176.115  1.00  0.00     0.197 A 
ATOM      4  O   UNL     1     -15.334 -25.957 175.759  1.00  0.00    -0.289 OA
ATOM      5  C   UNL     1     -14.370 -24.597 177.402  1.00  0.00     0.107 A 
ATOM      6  C   UNL     1     -14.287 -25.576 178.437  1.00  0.00     0.134 A 
ATOM      7  C   UNL     1     -13.636 -25.261 179.636  1.00  0.00     0.093 A 
ATOM      8  C   UNL     1     -13.117 -23.986 179.861  1.00  0.00     0.123 A 
ATOM      9  C   UNL     1     -13.237 -23.005 178.875  1.00  0.00     0.094 A 
ATOM     10  C   UNL     1     -13.849 -23.299 177.655  1.00  0.00     0.146 A 
ATOM     11  O   UNL     1     -13.926 -22.343 176.737  1.00  0.00    -0.456 OA
ENDROOT
BRANCH   1  12
ATOM     12  C   UNL     1     -14.503 -21.375 174.591  1.00  0.00     0.021 A 
ATOM     13  C   UNL     1     -14.888 -21.591 173.259  1.00  0.00     0.016 A 
ATOM     14  C   UNL     1     -14.941 -20.529 172.355  1.00  0.00     0.051 A 
ATOM     15  C   UNL     1     -14.623 -19.229 172.760  1.00  0.00     0.157 A 
ATOM     16  C   UNL     1     -14.198 -20.065 175.005  1.00  0.00     0.062 A 
ATOM     17  C   UNL     1     -14.253 -18.993 174.105  1.00  0.00     0.158 A 
BRANCH  15  18
ATOM     18  O   UNL     1     -14.693 -18.212 171.806  1.00  0.00    -0.504 OA
ATOM     19  H   UNL     1     -14.554 -17.233 172.013  1.00  0.00     0.293 HD
ENDBRANCH  15  18
BRANCH  17  20
ATOM     20  O   UNL     1     -13.938 -17.721 174.588  1.00  0.00    -0.504 OA
ATOM     21  H   UNL     1     -14.545 -16.918 174.501  1.00  0.00     0.293 HD
ENDBRANCH  17  20
ENDBRANCH   1  12
BRANCH   6  22
ATOM     22  O   UNL     1     -14.842 -26.857 178.350  1.00  0.00    -0.507 OA
ATOM     23  H   UNL     1     -14.512 -27.668 178.849  1.00  0.00     0.293 HD
ENDBRANCH   6  22
BRANCH   8  24
ATOM     24  O   UNL     1     -12.490 -23.703 181.072  1.00  0.00    -0.508 OA
ATOM     25  H   UNL     1     -12.993 -23.280 181.843  1.00  0.00     0.293 HD
ENDBRANCH   8  24
TORSDOF 5
ENDMDL
MODEL 3
REMARK VINA RESULT:    -5.278      2.160      7.502
REMARK INTER + INTRA:          -6.479
REMARK INTER:                  -6.178
REMARK INTRA:                  -0.301
REMARK UNBOUND:                -0.276
REMARK SMILES O=c1cc(-c2ccc(O)c(O)c2)oc2cc(O)cc(O)c12
REMARK SMILES IDX 4 1 3 2 2 3 1 4 21 5 19 6 18 7 16 8 15 9 14 10 13 11 5 12
REMARK SMILES IDX 6 13 7 14 8 15 12 16 10 17 9 18 11 20 20 22 17 24
REMARK H PARENT 9 19 11 21 20 23 17 25
REMARK Flexibility Score: inf
ROOT
ATOM      1  C   UNL     1     -13.366 -23.016 178.040  1.00  0.00     0.138 A 
ATOM      2  C   UNL     1     -12.531 -21.975 178.466  1.00  0.00     0.100 A 
ATOM      3  C   UNL     1     -12.249 -20.917 177.600  1.00  0.00     0.197 A 
ATOM      4  O   UNL     1     -11.452 -20.026 177.993  1.00  0.00    -0.289 OA
ATOM      5  C   UNL     1     -12.838 -20.885 176.313  1.00  0.00     0.107 A 
ATOM      6  C   UNL     1     -12.650 -19.841 175.357  1.00  0.00     0.134 A 
ATOM      7  C   UNL     1     -13.205 -19.968 174.078  1.00  0.00     0.093 A 
ATOM      8  C   UNL     1     -13.988 -21.071 173.739  1.00  0.00     0.123 A 
ATOM      9  C   UNL     1     -14.220 -22.074 174.681  1.00  0.00     0.094 A 
ATOM     10  C   UNL     1     -13.651 -21.993 175.954  1.00  0.00     0.146 A 
ATOM     11  O   UNL     1     -13.881 -22.978 176.816  1.00  0.00    -0.456 OA
ENDROOT
BRANCH   1  12
ATOM     12  C   UNL     1     -13.702 -24.163 178.921  1.00  0.00     0.021 A 
ATOM     13  C   UNL     1     -12.739 -24.646 179.821  1.00  0.00     0.016 A 
ATOM     14  C   UNL     1     -13.033 -25.719 180.665  1.00  0.00     0.051 A 
ATOM     15  C   UNL     1     -14.292 -26.326 180.638  1.00  0.00     0.157 A 
ATOM     16  C   UNL     1     -14.975 -24.762 178.905  1.00  0.00     0.062 A 
ATOM     17  C   UNL     1     -15.279 -25.837 179.750  1.00  0.00     0.158 A 
BRANCH  15  18
ATOM     18  O   UNL     1     -14.519 -27.397 181.505  1.00  0.00    -0.504 OA
ATOM     19  H   UNL     1     -13.843 -28.122 181.696  1.00  0.00     0.293 HD
ENDBRANCH  15  18
BRANCH  17  20
ATOM     20  O   UNL     1     -16.563 -26.380 179.678  1.00  0.00    -0.504 OA
ATOM     21  H   UNL     1     -16.782 -27.255 179.224  1.00  0.00     0.293 HD
ENDBRANCH  17  20
ENDBRANCH   1  12
BRANCH   6  22
ATOM     22  O   UNL     1     -11.953 -18.658 175.617  1.00  0.00    -0.507 OA
ATOM     23  H   UNL     1     -10.985 -18.491 175.390  1.00  0.00     0.293 HD
ENDBRANCH   6  22
BRANCH   8  24
ATOM     24  O   UNL     1     -14.538 -21.157 172.461  1.00  0.00    -0.508 OA
ATOM     25  H   UNL     1     -14.754 -20.328 171.920  1.00  0.00     0.293 HD
ENDBRANCH   8  24
TORSDOF 5
ENDMDL
MODEL 4
REMARK VINA RESULT:    -5.248      3.367      4.431
REMARK INTER + INTRA:          -6.444
REMARK INTER:                  -6.130
REMARK INTRA:                  -0.314
REMARK UNBOUND:                -0.276
REMARK SMILES O=c1cc(-c2ccc(O)c(O)c2)oc2cc(O)cc(O)c12
REMARK SMILES IDX 4 1 3 2 2 3 1 4 21 5 19 6 18 7 16 8 15 9 14 10 13 11 5 12
REMARK SMILES IDX 6 13 7 14 8 15 12 16 10 17 9 18 11 20 20 22 17 24
REMARK H PARENT 9 19 11 21 20 23 17 25
REMARK Flexibility Score: inf
ROOT
ATOM      1  C   UNL     1     -12.529 -21.999 178.696  1.00  0.00     0.138 A 
ATOM      2  C   UNL     1     -11.499 -22.422 179.546  1.00  0.00     0.100 A 
ATOM      3  C   UNL     1     -11.643 -23.607 180.269  1.00  0.00     0.197 A 
ATOM      4  O   UNL     1     -10.724 -23.931 181.066  1.00  0.00    -0.289 OA
ATOM      5  C   UNL     1     -12.810 -24.393 180.108  1.00  0.00     0.107 A 
ATOM      6  C   UNL     1     -13.052 -25.636 180.766  1.00  0.00     0.134 A 
ATOM      7  C   UNL     1     -14.288 -26.274 180.604  1.00  0.00     0.093 A 
ATOM      8  C   UNL     1     -15.268 -25.744 179.765  1.00  0.00     0.123 A 
ATOM      9  C   UNL     1     -15.023 -24.555 179.077  1.00  0.00     0.094 A 
ATOM     10  C   UNL     1     -13.814 -23.877 179.245  1.00  0.00     0.146 A 
ATOM     11  O   UNL     1     -13.628 -22.738 178.587  1.00  0.00    -0.456 OA
ENDROOT
BRANCH   1  12
ATOM     12  C   UNL     1     -12.427 -20.748 177.901  1.00  0.00     0.021 A 
ATOM     13  C   UNL     1     -11.170 -20.152 177.712  1.00  0.00     0.016 A 
ATOM     14  C   UNL     1     -11.047 -18.980 176.964  1.00  0.00     0.051 A 
ATOM     15  C   UNL     1     -12.169 -18.383 176.380  1.00  0.00     0.157 A 
ATOM     16  C   UNL     1     -13.554 -20.158 177.301  1.00  0.00     0.062 A 
ATOM     17  C   UNL     1     -13.439 -18.984 176.545  1.00  0.00     0.158 A 
BRANCH  15  18
ATOM     18  O   UNL     1     -11.977 -17.210 175.648  1.00  0.00    -0.504 OA
ATOM     19  H   UNL     1     -12.729 -16.635 175.296  1.00  0.00     0.293 HD
ENDBRANCH  15  18
BRANCH  17  20
ATOM     20  O   UNL     1     -14.601 -18.457 175.979  1.00  0.00    -0.504 OA
ATOM     21  H   UNL     1     -14.622 -17.630 175.400  1.00  0.00     0.293 HD
ENDBRANCH  17  20
ENDBRANCH   1  12
BRANCH   6  22
ATOM     22  O   UNL     1     -12.112 -26.296 181.564  1.00  0.00    -0.507 OA
ATOM     23  H   UNL     1     -12.243 -27.202 181.986  1.00  0.00     0.293 HD
ENDBRANCH   6  22
BRANCH   8  24
ATOM     24  O   UNL     1     -16.480 -26.414 179.616  1.00  0.00    -0.508 OA
ATOM     25  H   UNL     1     -16.579 -27.393 179.857  1.00  0.00     0.293 HD
ENDBRANCH   8  24
TORSDOF 5
ENDMDL
MODEL 5
REMARK VINA RESULT:    -5.246      3.069      7.348
REMARK INTER + INTRA:          -6.441
REMARK INTER:                  -6.150
REMARK INTRA:                  -0.291
REMARK UNBOUND:                -0.276
REMARK SMILES O=c1cc(-c2ccc(O)c(O)c2)oc2cc(O)cc(O)c12
REMARK SMILES IDX 4 1 3 2 2 3 1 4 21 5 19 6 18 7 16 8 15 9 14 10 13 11 5 12
REMARK SMILES IDX 6 13 7 14 8 15 12 16 10 17 9 18 11 20 20 22 17 24
REMARK H PARENT 9 19 11 21 20 23 17 25
REMARK Flexibility Score: inf
ROOT
ATOM      1  C   UNL     1     -13.011 -22.064 177.913  1.00  0.00     0.138 A 
ATOM      2  C   UNL     1     -11.804 -21.741 178.548  1.00  0.00     0.100 A 
ATOM      3  C   UNL     1     -11.139 -20.563 178.207  1.00  0.00     0.197 A 
ATOM      4  O   UNL     1     -10.030 -20.328 178.755  1.00  0.00    -0.289 OA
ATOM      5  C   UNL     1     -11.705 -19.685 177.251  1.00  0.00     0.107 A 
ATOM      6  C   UNL     1     -11.134 -18.440 176.849  1.00  0.00     0.134 A 
ATOM      7  C   UNL     1     -11.736 -17.704 175.821  1.00  0.00     0.093 A 
ATOM      8  C   UNL     1     -12.918 -18.138 175.221  1.00  0.00     0.123 A 
ATOM      9  C   UNL     1     -13.512 -19.329 175.640  1.00  0.00     0.094 A 
ATOM     10  C   UNL     1     -12.917 -20.103 176.639  1.00  0.00     0.146 A 
ATOM     11  O   UNL     1     -13.505 -21.239 176.996  1.00  0.00    -0.456 OA
ENDROOT
BRANCH   1  12
ATOM     12  C   UNL     1     -13.762 -23.303 178.240  1.00  0.00     0.021 A 
ATOM     13  C   UNL     1     -13.990 -23.637 179.584  1.00  0.00     0.016 A 
ATOM     14  C   UNL     1     -14.700 -24.792 179.917  1.00  0.00     0.051 A 
ATOM     15  C   UNL     1     -15.206 -25.633 178.921  1.00  0.00     0.157 A 
ATOM     16  C   UNL     1     -14.285 -24.139 177.236  1.00  0.00     0.062 A 
ATOM     17  C   UNL     1     -15.001 -25.298 177.562  1.00  0.00     0.158 A 
BRANCH  15  18
ATOM     18  O   UNL     1     -15.903 -26.774 179.321  1.00  0.00    -0.504 OA
ATOM     19  H   UNL     1     -16.771 -27.080 178.907  1.00  0.00     0.293 HD
ENDBRANCH  15  18
BRANCH  17  20
ATOM     20  O   UNL     1     -15.491 -26.078 176.512  1.00  0.00    -0.504 OA
ATOM     21  H   UNL     1     -15.260 -25.926 175.540  1.00  0.00     0.293 HD
ENDBRANCH  17  20
ENDBRANCH   1  12
BRANCH   6  22
ATOM     22  O   UNL     1     -10.000 -17.873 177.437  1.00  0.00    -0.507 OA
ATOM     23  H   UNL     1      -9.067 -17.912 177.056  1.00  0.00     0.293 HD
ENDBRANCH   6  22
BRANCH   8  24
ATOM     24  O   UNL     1     -13.497 -17.373 174.211  1.00  0.00    -0.508 OA
ATOM     25  H   UNL     1     -13.480 -17.670 173.243  1.00  0.00     0.293 HD
ENDBRANCH   8  24
TORSDOF 5
ENDMDL
MODEL 6
REMARK VINA RESULT:    -5.176      2.648      4.068
REMARK INTER + INTRA:          -6.360
REMARK INTER:                  -6.089
REMARK INTRA:                  -0.272
REMARK UNBOUND:                -0.276
REMARK SMILES O=c1cc(-c2ccc(O)c(O)c2)oc2cc(O)cc(O)c12
REMARK SMILES IDX 4 1 3 2 2 3 1 4 21 5 19 6 18 7 16 8 15 9 14 10 13 11 5 12
REMARK SMILES IDX 6 13 7 14 8 15 12 16 10 17 9 18 11 20 20 22 17 24
REMARK H PARENT 9 19 11 21 20 23 17 25
REMARK Flexibility Score: inf
ROOT
ATOM      1  C   UNL     1     -13.367 -21.670 177.402  1.00  0.00     0.138 A 
ATOM      2  C   UNL     1     -13.207 -22.119 178.719  1.00  0.00     0.100 A 
ATOM      3  C   UNL     1     -13.568 -23.426 179.051  1.00  0.00     0.197 A 
ATOM      4  O   UNL     1     -13.463 -23.782 180.254  1.00  0.00    -0.289 OA
ATOM      5  C   UNL     1     -14.056 -24.298 178.048  1.00  0.00     0.107 A 
ATOM      6  C   UNL     1     -14.423 -25.661 178.262  1.00  0.00     0.134 A 
ATOM      7  C   UNL     1     -14.987 -26.397 177.213  1.00  0.00     0.093 A 
ATOM      8  C   UNL     1     -15.145 -25.840 175.945  1.00  0.00     0.123 A 
ATOM      9  C   UNL     1     -14.744 -24.524 175.711  1.00  0.00     0.094 A 
ATOM     10  C   UNL     1     -14.210 -23.752 176.746  1.00  0.00     0.146 A 
ATOM     11  O   UNL     1     -13.857 -22.498 176.486  1.00  0.00    -0.456 OA
ENDROOT
BRANCH   1  12
ATOM     12  C   UNL     1     -12.997 -20.291 176.992  1.00  0.00     0.021 A 
ATOM     13  C   UNL     1     -11.646 -19.910 176.995  1.00  0.00     0.016 A 
ATOM     14  C   UNL     1     -11.271 -18.622 176.608  1.00  0.00     0.051 A 
ATOM     15  C   UNL     1     -12.231 -17.690 176.201  1.00  0.00     0.157 A 
ATOM     16  C   UNL     1     -13.962 -19.359 176.567  1.00  0.00     0.062 A 
ATOM     17  C   UNL     1     -13.594 -18.066 176.174  1.00  0.00     0.158 A 
BRANCH  15  18
ATOM     18  O   UNL     1     -11.790 -16.419 175.831  1.00  0.00    -0.504 OA
ATOM     19  H   UNL     1     -11.106 -15.886 176.347  1.00  0.00     0.293 HD
ENDBRANCH  15  18
BRANCH  17  20
ATOM     20  O   UNL     1     -14.607 -17.197 175.764  1.00  0.00    -0.504 OA
ATOM     21  H   UNL     1     -14.745 -16.271 176.144  1.00  0.00     0.293 HD
ENDBRANCH  17  20
ENDBRANCH   1  12
BRANCH   6  22
ATOM     22  O   UNL     1     -14.234 -26.343 179.468  1.00  0.00    -0.507 OA
ATOM     23  H   UNL     1     -13.339 -26.542 179.889  1.00  0.00     0.293 HD
ENDBRANCH   6  22
BRANCH   8  24
ATOM     24  O   UNL     1     -15.696 -26.607 174.921  1.00  0.00    -0.508 OA
ATOM     25  H   UNL     1     -15.181 -27.365 174.490  1.00  0.00     0.293 HD
ENDBRANCH   8  24
TORSDOF 5
ENDMDL
MODEL 7
REMARK VINA RESULT:    -5.149      1.540      3.030
REMARK INTER + INTRA:          -6.328
REMARK INTER:                  -6.031
REMARK INTRA:                  -0.297
REMARK UNBOUND:                -0.276
REMARK SMILES O=c1cc(-c2ccc(O)c(O)c2)oc2cc(O)cc(O)c12
REMARK SMILES IDX 4 1 3 2 2 3 1 4 21 5 19 6 18 7 16 8 15 9 14 10 13 11 5 12
REMARK SMILES IDX 6 13 7 14 8 15 12 16 10 17 9 18 11 20 20 22 17 24
REMARK H PARENT 9 19 11 21 20 23 17 25
REMARK Flexibility Score: inf
ROOT
ATOM      1  C   UNL     1     -13.860 -21.585 175.721  1.00  0.00     0.138 A 
ATOM      2  C   UNL     1     -13.218 -21.147 176.886  1.00  0.00     0.100 A 
ATOM      3  C   UNL     1     -13.027 -22.036 177.945  1.00  0.00     0.197 A 
ATOM      4  O   UNL     1     -12.496 -21.598 178.999  1.00  0.00    -0.289 OA
ATOM      5  C   UNL     1     -13.449 -23.382 177.819  1.00  0.00     0.107 A 
ATOM      6  C   UNL     1     -13.277 -24.386 178.819  1.00  0.00     0.134 A 
ATOM      7  C   UNL     1     -13.826 -25.659 178.620  1.00  0.00     0.093 A 
ATOM      8  C   UNL     1     -14.489 -25.981 177.437  1.00  0.00     0.123 A 
ATOM      9  C   UNL     1     -14.620 -25.022 176.432  1.00  0.00     0.094 A 
ATOM     10  C   UNL     1     -14.114 -23.733 176.614  1.00  0.00     0.146 A 
ATOM     11  O   UNL     1     -14.276 -22.844 175.640  1.00  0.00    -0.456 OA
ENDROOT
BRANCH   1  12
ATOM     12  C   UNL     1     -14.086 -20.682 174.563  1.00  0.00     0.021 A 
ATOM     13  C   UNL     1     -14.754 -21.170 173.429  1.00  0.00     0.016 A 
ATOM     14  C   UNL     1     -14.985 -20.340 172.330  1.00  0.00     0.051 A 
ATOM     15  C   UNL     1     -14.566 -19.006 172.342  1.00  0.00     0.157 A 
ATOM     16  C   UNL     1     -13.679 -19.335 174.583  1.00  0.00     0.062 A 
ATOM     17  C   UNL     1     -13.910 -18.495 173.486  1.00  0.00     0.158 A 
BRANCH  15  18
ATOM     18  O   UNL     1     -14.824 -18.231 171.209  1.00  0.00    -0.504 OA
ATOM     19  H   UNL     1     -14.671 -17.234 171.160  1.00  0.00     0.293 HD
ENDBRANCH  15  18
BRANCH  17  20
ATOM     20  O   UNL     1     -13.478 -17.170 173.578  1.00  0.00    -0.504 OA
ATOM     21  H   UNL     1     -12.585 -16.843 173.239  1.00  0.00     0.293 HD
ENDBRANCH  17  20
ENDBRANCH   1  12
BRANCH   6  22
ATOM     22  O   UNL     1     -12.561 -24.196 180.005  1.00  0.00    -0.507 OA
ATOM     23  H   UNL     1     -11.884 -24.840 180.384  1.00  0.00     0.293 HD
ENDBRANCH   6  22
BRANCH   8  24
ATOM     24  O   UNL     1     -15.009 -27.263 177.267  1.00  0.00    -0.508 OA
ATOM     25  H   UNL     1     -15.316 -27.819 178.056  1.00  0.00     0.293 HD
ENDBRANCH   8  24
TORSDOF 5
ENDMDL
MODEL 8
REMARK VINA RESULT:    -5.138      2.201      3.754
REMARK INTER + INTRA:          -6.315
REMARK INTER:                  -6.046
REMARK INTRA:                  -0.269
REMARK UNBOUND:                -0.276
REMARK SMILES O=c1cc(-c2ccc(O)c(O)c2)oc2cc(O)cc(O)c12
REMARK SMILES IDX 4 1 3 2 2 3 1 4 21 5 19 6 18 7 16 8 15 9 14 10 13 11 5 12
REMARK SMILES IDX 6 13 7 14 8 15 12 16 10 17 9 18 11 20 20 22 17 24
REMARK H PARENT 9 19 11 21 20 23 17 25
REMARK Flexibility Score: inf
ROOT
ATOM      1  C   UNL     1     -13.119 -21.775 177.704  1.00  0.00     0.138 A 
ATOM      2  C   UNL     1     -11.964 -21.531 178.457  1.00  0.00     0.100 A 
ATOM      3  C   UNL     1     -11.627 -22.391 179.503  1.00  0.00     0.197 A 
ATOM      4  O   UNL     1     -10.614 -22.114 180.196  1.00  0.00    -0.289 OA
ATOM      5  C   UNL     1     -12.434 -23.524 179.771  1.00  0.00     0.107 A 
ATOM      6  C   UNL     1     -12.170 -24.489 180.789  1.00  0.00     0.134 A 
ATOM      7  C   UNL     1     -13.095 -25.514 181.024  1.00  0.00     0.093 A 
ATOM      8  C   UNL     1     -14.242 -25.643 180.242  1.00  0.00     0.123 A 
ATOM      9  C   UNL     1     -14.484 -24.735 179.211  1.00  0.00     0.094 A 
ATOM     10  C   UNL     1     -13.599 -23.681 178.974  1.00  0.00     0.146 A 
ATOM     11  O   UNL     1     -13.876 -22.827 177.995  1.00  0.00    -0.456 OA
ENDROOT
BRANCH   1  12
ATOM     12  C   UNL     1     -13.522 -20.894 176.578  1.00  0.00     0.021 A 
ATOM     13  C   UNL     1     -13.571 -21.417 175.276  1.00  0.00     0.016 A 
ATOM     14  C   UNL     1     -13.954 -20.612 174.202  1.00  0.00     0.051 A 
ATOM     15  C   UNL     1     -14.306 -19.273 174.402  1.00  0.00     0.157 A 
ATOM     16  C   UNL     1     -13.892 -19.552 176.783  1.00  0.00     0.062 A 
ATOM     17  C   UNL     1     -14.280 -18.738 175.710  1.00  0.00     0.158 A 
BRANCH  15  18
ATOM     18  O   UNL     1     -14.674 -18.522 173.285  1.00  0.00    -0.504 OA
ATOM     19  H   UNL     1     -14.100 -17.799 172.875  1.00  0.00     0.293 HD
ENDBRANCH  15  18
BRANCH  17  20
ATOM     20  O   UNL     1     -14.633 -17.416 175.991  1.00  0.00    -0.504 OA
ATOM     21  H   UNL     1     -14.121 -16.816 176.621  1.00  0.00     0.293 HD
ENDBRANCH  17  20
ENDBRANCH   1  12
BRANCH   6  22
ATOM     22  O   UNL     1     -11.015 -24.502 181.576  1.00  0.00    -0.507 OA
ATOM     23  H   UNL     1     -10.553 -25.331 181.916  1.00  0.00     0.293 HD
ENDBRANCH   6  22
BRANCH   8  24
ATOM     24  O   UNL     1     -15.132 -26.685 180.494  1.00  0.00    -0.508 OA
ATOM     25  H   UNL     1     -14.889 -27.453 181.108  1.00  0.00     0.293 HD
ENDBRANCH   8  24
TORSDOF 5
ENDMDL
MODEL 9
REMARK VINA RESULT:    -5.115      2.323      7.374
REMARK INTER + INTRA:          -6.288
REMARK INTER:                  -5.988
REMARK INTRA:                  -0.301
REMARK UNBOUND:                -0.276
REMARK SMILES O=c1cc(-c2ccc(O)c(O)c2)oc2cc(O)cc(O)c12
REMARK SMILES IDX 4 1 3 2 2 3 1 4 21 5 19 6 18 7 16 8 15 9 14 10 13 11 5 12
REMARK SMILES IDX 6 13 7 14 8 15 12 16 10 17 9 18 11 20 20 22 17 24
REMARK H PARENT 9 19 11 21 20 23 17 25
REMARK Flexibility Score: inf
ROOT
ATOM      1  C   UNL     1     -13.414 -22.168 177.346  1.00  0.00     0.138 A 
ATOM      2  C   UNL     1     -12.359 -21.438 177.908  1.00  0.00     0.100 A 
ATOM      3  C   UNL     1     -11.970 -20.229 177.328  1.00  0.00     0.197 A 
ATOM      4  O   UNL     1     -10.983 -19.624 177.823  1.00  0.00    -0.289 OA
ATOM      5  C   UNL     1     -12.669 -19.732 176.201  1.00  0.00     0.107 A 
ATOM      6  C   UNL     1     -12.384 -18.496 175.546  1.00  0.00     0.134 A 
ATOM      7  C   UNL     1     -13.079 -18.156 174.379  1.00  0.00     0.093 A 
ATOM      8  C   UNL     1     -14.087 -18.979 173.876  1.00  0.00     0.123 A 
ATOM      9  C   UNL     1     -14.408 -20.165 174.536  1.00  0.00     0.094 A 
ATOM     10  C   UNL     1     -13.709 -20.549 175.682  1.00  0.00     0.146 A 
ATOM     11  O   UNL     1     -14.033 -21.695 176.270  1.00  0.00    -0.456 OA
ENDROOT
BRANCH   1  12
ATOM     12  C   UNL     1     -13.871 -23.458 177.925  1.00  0.00     0.021 A 
ATOM     13  C   UNL     1     -13.881 -23.623 179.319  1.00  0.00     0.016 A 
ATOM     14  C   UNL     1     -14.312 -24.823 179.887  1.00  0.00     0.051 A 
ATOM     15  C   UNL     1     -14.752 -25.878 179.082  1.00  0.00     0.157 A 
ATOM     16  C   UNL     1     -14.329 -24.513 177.114  1.00  0.00     0.062 A 
ATOM     17  C   UNL     1     -14.766 -25.719 177.676  1.00  0.00     0.158 A 
BRANCH  15  18
ATOM     18  O   UNL     1     -15.166 -27.052 179.713  1.00  0.00    -0.504 OA
ATOM     19  H   UNL     1     -15.461 -27.102 180.677  1.00  0.00     0.293 HD
ENDBRANCH  15  18
BRANCH  17  20
ATOM     20  O   UNL     1     -15.207 -26.720 176.809  1.00  0.00    -0.504 OA
ATOM     21  H   UNL     1     -15.552 -27.619 177.113  1.00  0.00     0.293 HD
ENDBRANCH  17  20
ENDBRANCH   1  12
BRANCH   6  22
ATOM     22  O   UNL     1     -11.453 -17.561 176.009  1.00  0.00    -0.507 OA
ATOM     23  H   UNL     1     -11.679 -16.647 176.372  1.00  0.00     0.293 HD
ENDBRANCH   6  22
BRANCH   8  24
ATOM     24  O   UNL     1     -14.768 -18.602 172.721  1.00  0.00    -0.508 OA
ATOM     25  H   UNL     1     -15.756 -18.376 172.737  1.00  0.00     0.293 HD
ENDBRANCH   8  24
TORSDOF 5
ENDMDL
