MODEL 1
REMARK VINA RESULT:    -2.961      0.000      0.000
REMARK INTER + INTRA:          -5.773
REMARK INTER:                  -4.519
REMARK INTRA:                  -1.254
REMARK UNBOUND:                -1.254
REMARK SMILES CCCCCCCCCCC(=O)[O-]
REMARK SMILES IDX 7 1 8 2 9 3 10 4 11 5 12 6 13 7 6 8 5 9 4 10 3 11 2 12 1 13
REMARK H PARENT
REMARK Flexibility Score: inf
ROOT
ATOM      1  C   UNL     1     -34.935  -5.398 -29.689  1.00  0.00     0.000 C 
ENDROOT
BRANCH   1   2
ATOM      2  C   UNL     1     -35.438  -6.248 -30.870  1.00  0.00     0.000 C 
BRANCH   2   3
ATOM      3  C   UNL     1     -34.337  -7.163 -31.445  1.00  0.00     0.006 C 
BRANCH   3   4
ATOM      4  C   UNL     1     -33.231  -7.505 -30.433  1.00  0.00     0.053 C 
BRANCH   4   5
ATOM      5  C   UNL     1     -32.882  -8.960 -30.443  1.00  0.00     0.041 C 
ATOM      6  O   UNL     1     -33.156  -9.671 -31.444  1.00  0.00    -0.550 OA
ATOM      7  O   UNL     1     -32.274  -9.535 -29.334  1.00  0.00    -0.550 OA
ENDBRANCH   4   5
ENDBRANCH   3   4
ENDBRANCH   2   3
ENDBRANCH   1   2
BRANCH   1   8
ATOM      8  C   UNL     1     -34.740  -3.921 -30.065  1.00  0.00     0.000 C 
BRANCH   8   9
ATOM      9  C   UNL     1     -33.348  -3.391 -29.692  1.00  0.00    -0.000 C 
BRANCH   9  10
ATOM     10  C   UNL     1     -32.289  -3.879 -30.689  1.00  0.00    -0.000 C 
BRANCH  10  11
ATOM     11  C   UNL     1     -32.471  -3.205 -32.058  1.00  0.00    -0.000 C 
BRANCH  11  12
ATOM     12  C   UNL     1     -32.684  -4.221 -33.191  1.00  0.00    -0.003 C 
ATOM     13  C   UNL     1     -34.136  -4.283 -33.664  1.00  0.00     0.004 C 
ENDBRANCH  11  12
ENDBRANCH  10  11
ENDBRANCH   9  10
ENDBRANCH   8   9
ENDBRANCH   1   8
TORSDOF 9
ENDMDL
MODEL 2
REMARK VINA RESULT:    -2.819     13.121     14.704
REMARK INTER + INTRA:          -5.556
REMARK INTER:                  -5.080
REMARK INTRA:                  -0.476
REMARK UNBOUND:                -1.254
REMARK SMILES CCCCCCCCCCC(=O)[O-]
REMARK SMILES IDX 7 1 8 2 9 3 10 4 11 5 12 6 13 7 6 8 5 9 4 10 3 11 2 12 1 13
REMARK H PARENT
REMARK Flexibility Score: inf
ROOT
ATOM      1  C   UNL     1     -26.298   4.770 -33.013  1.00  0.00     0.000 C 
ENDROOT
BRANCH   1   2
ATOM      2  C   UNL     1     -27.116   4.683 -34.314  1.00  0.00     0.000 C 
BRANCH   2   3
ATOM      3  C   UNL     1     -26.459   5.460 -35.474  1.00  0.00     0.006 C 
BRANCH   3   4
ATOM      4  C   UNL     1     -26.221   4.605 -36.730  1.00  0.00     0.053 C 
BRANCH   4   5
ATOM      5  C   UNL     1     -27.473   4.394 -37.520  1.00  0.00     0.041 C 
ATOM      6  O   UNL     1     -27.833   3.232 -37.841  1.00  0.00    -0.550 OA
ATOM      7  O   UNL     1     -28.232   5.486 -37.922  1.00  0.00    -0.550 OA
ENDBRANCH   4   5
ENDBRANCH   3   4
ENDBRANCH   2   3
ENDBRANCH   1   2
BRANCH   1   8
ATOM      8  C   UNL     1     -24.845   5.208 -33.256  1.00  0.00     0.000 C 
BRANCH   8   9
ATOM      9  C   UNL     1     -24.058   5.406 -31.953  1.00  0.00    -0.000 C 
BRANCH   9  10
ATOM     10  C   UNL     1     -24.961   5.963 -30.844  1.00  0.00    -0.000 C 
BRANCH  10  11
ATOM     11  C   UNL     1     -24.135   6.705 -29.784  1.00  0.00    -0.000 C 
BRANCH  11  12
ATOM     12  C   UNL     1     -24.807   8.006 -29.316  1.00  0.00    -0.003 C 
ATOM     13  C   UNL     1     -26.329   7.891 -29.235  1.00  0.00     0.004 C 
ENDBRANCH  11  12
ENDBRANCH  10  11
ENDBRANCH   9  10
ENDBRANCH   8   9
ENDBRANCH   1   8
TORSDOF 9
ENDMDL
MODEL 3
REMARK VINA RESULT:    -2.805     13.352     13.988
REMARK INTER + INTRA:          -5.535
REMARK INTER:                  -4.437
REMARK INTRA:                  -1.097
REMARK UNBOUND:                -1.254
REMARK SMILES CCCCCCCCCCC(=O)[O-]
REMARK SMILES IDX 7 1 8 2 9 3 10 4 11 5 12 6 13 7 6 8 5 9 4 10 3 11 2 12 1 13
REMARK H PARENT
REMARK Flexibility Score: inf
ROOT
ATOM      1  C   UNL     1     -24.507   5.339 -33.028  1.00  0.00     0.000 C 
ENDROOT
BRANCH   1   2
ATOM      2  C   UNL     1     -23.422   4.321 -33.421  1.00  0.00     0.000 C 
BRANCH   2   3
ATOM      3  C   UNL     1     -23.769   2.888 -32.966  1.00  0.00     0.006 C 
BRANCH   3   4
ATOM      4  C   UNL     1     -22.725   1.840 -33.387  1.00  0.00     0.053 C 
BRANCH   4   5
ATOM      5  C   UNL     1     -21.680   1.627 -32.338  1.00  0.00     0.041 C 
ATOM      6  O   UNL     1     -21.943   1.844 -31.126  1.00  0.00    -0.550 OA
ATOM      7  O   UNL     1     -20.406   1.209 -32.702  1.00  0.00    -0.550 OA
ENDBRANCH   4   5
ENDBRANCH   3   4
ENDBRANCH   2   3
ENDBRANCH   1   2
BRANCH   1   8
ATOM      8  C   UNL     1     -25.916   4.893 -33.449  1.00  0.00     0.000 C 
BRANCH   8   9
ATOM      9  C   UNL     1     -26.362   5.512 -34.781  1.00  0.00    -0.000 C 
BRANCH   9  10
ATOM     10  C   UNL     1     -26.944   4.444 -35.717  1.00  0.00    -0.000 C 
BRANCH  10  11
ATOM     11  C   UNL     1     -25.952   4.096 -36.837  1.00  0.00    -0.000 C 
BRANCH  11  12
ATOM     12  C   UNL     1     -25.076   2.881 -36.492  1.00  0.00    -0.003 C 
ATOM     13  C   UNL     1     -23.608   3.084 -36.869  1.00  0.00     0.004 C 
ENDBRANCH  11  12
ENDBRANCH  10  11
ENDBRANCH   9  10
ENDBRANCH   8   9
ENDBRANCH   1   8
TORSDOF 9
ENDMDL
MODEL 4
REMARK VINA RESULT:    -2.799     10.502     12.664
REMARK INTER + INTRA:          -5.526
REMARK INTER:                  -4.402
REMARK INTRA:                  -1.124
REMARK UNBOUND:                -1.254
REMARK SMILES CCCCCCCCCCC(=O)[O-]
REMARK SMILES IDX 7 1 8 2 9 3 10 4 11 5 12 6 13 7 6 8 5 9 4 10 3 11 2 12 1 13
REMARK H PARENT
REMARK Flexibility Score: inf
ROOT
ATOM      1  C   UNL     1     -29.602   1.421 -39.892  1.00  0.00     0.000 C 
ENDROOT
BRANCH   1   2
ATOM      2  C   UNL     1     -30.014   2.904 -39.869  1.00  0.00     0.000 C 
BRANCH   2   3
ATOM      3  C   UNL     1     -29.651   3.594 -38.537  1.00  0.00     0.006 C 
BRANCH   3   4
ATOM      4  C   UNL     1     -28.524   4.631 -38.670  1.00  0.00     0.053 C 
BRANCH   4   5
ATOM      5  C   UNL     1     -27.515   4.519 -37.572  1.00  0.00     0.041 C 
ATOM      6  O   UNL     1     -27.080   3.391 -37.222  1.00  0.00    -0.550 OA
ATOM      7  O   UNL     1     -27.073   5.661 -36.916  1.00  0.00    -0.550 OA
ENDBRANCH   4   5
ENDBRANCH   3   4
ENDBRANCH   2   3
ENDBRANCH   1   2
BRANCH   1   8
ATOM      8  C   UNL     1     -29.252   0.883 -38.496  1.00  0.00     0.000 C 
BRANCH   8   9
ATOM      9  C   UNL     1     -29.997  -0.416 -38.155  1.00  0.00    -0.000 C 
BRANCH   9  10
ATOM     10  C   UNL     1     -31.252  -0.574 -39.025  1.00  0.00    -0.000 C 
BRANCH  10  11
ATOM     11  C   UNL     1     -32.509  -0.132 -38.262  1.00  0.00    -0.000 C 
BRANCH  11  12
ATOM     12  C   UNL     1     -33.156   1.123 -38.869  1.00  0.00    -0.003 C 
ATOM     13  C   UNL     1     -33.173   2.307 -37.902  1.00  0.00     0.004 C 
ENDBRANCH  11  12
ENDBRANCH  10  11
ENDBRANCH   9  10
ENDBRANCH   8   9
ENDBRANCH   1   8
TORSDOF 9
ENDMDL
MODEL 5
REMARK VINA RESULT:    -2.797      4.251      5.649
REMARK INTER + INTRA:          -5.523
REMARK INTER:                  -5.046
REMARK INTRA:                  -0.476
REMARK UNBOUND:                -1.254
REMARK SMILES CCCCCCCCCCC(=O)[O-]
REMARK SMILES IDX 7 1 8 2 9 3 10 4 11 5 12 6 13 7 6 8 5 9 4 10 3 11 2 12 1 13
REMARK H PARENT
REMARK Flexibility Score: inf
ROOT
ATOM      1  C   UNL     1     -32.800  -1.587 -34.098  1.00  0.00     0.000 C 
ENDROOT
BRANCH   1   2
ATOM      2  C   UNL     1     -33.784  -2.558 -33.420  1.00  0.00     0.000 C 
BRANCH   2   3
ATOM      3  C   UNL     1     -33.343  -4.030 -33.556  1.00  0.00     0.006 C 
BRANCH   3   4
ATOM      4  C   UNL     1     -34.512  -5.028 -33.512  1.00  0.00     0.053 C 
BRANCH   4   5
ATOM      5  C   UNL     1     -34.644  -5.690 -32.177  1.00  0.00     0.041 C 
ATOM      6  O   UNL     1     -35.677  -6.351 -31.896  1.00  0.00    -0.550 OA
ATOM      7  O   UNL     1     -33.633  -5.557 -31.233  1.00  0.00    -0.550 OA
ENDBRANCH   4   5
ENDBRANCH   3   4
ENDBRANCH   2   3
ENDBRANCH   1   2
BRANCH   1   8
ATOM      8  C   UNL     1     -31.440  -2.237 -34.398  1.00  0.00     0.000 C 
BRANCH   8   9
ATOM      9  C   UNL     1     -30.809  -1.720 -35.700  1.00  0.00    -0.000 C 
BRANCH   9  10
ATOM     10  C   UNL     1     -31.433  -0.383 -36.120  1.00  0.00    -0.000 C 
BRANCH  10  11
ATOM     11  C   UNL     1     -31.599  -0.309 -37.645  1.00  0.00    -0.000 C 
BRANCH  11  12
ATOM     12  C   UNL     1     -33.004   0.152 -38.064  1.00  0.00    -0.003 C 
ATOM     13  C   UNL     1     -32.977   1.360 -39.000  1.00  0.00     0.004 C 
ENDBRANCH  11  12
ENDBRANCH  10  11
ENDBRANCH   9  10
ENDBRANCH   8   9
ENDBRANCH   1   8
TORSDOF 9
ENDMDL
MODEL 6
REMARK VINA RESULT:    -2.789     10.655     12.927
REMARK INTER + INTRA:          -5.510
REMARK INTER:                  -4.637
REMARK INTRA:                  -0.873
REMARK UNBOUND:                -1.254
REMARK SMILES CCCCCCCCCCC(=O)[O-]
REMARK SMILES IDX 7 1 8 2 9 3 10 4 11 5 12 6 13 7 6 8 5 9 4 10 3 11 2 12 1 13
REMARK H PARENT
REMARK Flexibility Score: inf
ROOT
ATOM      1  C   UNL     1     -30.706   3.452 -37.934  1.00  0.00     0.000 C 
ENDROOT
BRANCH   1   2
ATOM      2  C   UNL     1     -29.276   2.955 -37.652  1.00  0.00     0.000 C 
BRANCH   2   3
ATOM      3  C   UNL     1     -28.211   3.771 -38.415  1.00  0.00     0.006 C 
BRANCH   3   4
ATOM      4  C   UNL     1     -27.882   5.121 -37.756  1.00  0.00     0.053 C 
BRANCH   4   5
ATOM      5  C   UNL     1     -26.774   5.011 -36.758  1.00  0.00     0.041 C 
ATOM      6  O   UNL     1     -26.691   5.832 -35.808  1.00  0.00    -0.550 OA
ATOM      7  O   UNL     1     -25.815   4.014 -36.891  1.00  0.00    -0.550 OA
ENDBRANCH   4   5
ENDBRANCH   3   4
ENDBRANCH   2   3
ENDBRANCH   1   2
BRANCH   1   8
ATOM      8  C   UNL     1     -31.104   3.300 -39.410  1.00  0.00     0.000 C 
BRANCH   8   9
ATOM      9  C   UNL     1     -32.546   2.801 -39.588  1.00  0.00    -0.000 C 
BRANCH   9  10
ATOM     10  C   UNL     1     -33.016   2.025 -38.351  1.00  0.00    -0.000 C 
BRANCH  10  11
ATOM     11  C   UNL     1     -33.079   0.518 -38.639  1.00  0.00    -0.000 C 
BRANCH  11  12
ATOM     12  C   UNL     1     -31.859  -0.239 -38.089  1.00  0.00    -0.003 C 
ATOM     13  C   UNL     1     -30.857  -0.616 -39.179  1.00  0.00     0.004 C 
ENDBRANCH  11  12
ENDBRANCH  10  11
ENDBRANCH   9  10
ENDBRANCH   8   9
ENDBRANCH   1   8
TORSDOF 9
ENDMDL
MODEL 7
REMARK VINA RESULT:    -2.762     13.136     14.509
REMARK INTER + INTRA:          -5.468
REMARK INTER:                  -4.370
REMARK INTRA:                  -1.098
REMARK UNBOUND:                -1.254
REMARK SMILES CCCCCCCCCCC(=O)[O-]
REMARK SMILES IDX 7 1 8 2 9 3 10 4 11 5 12 6 13 7 6 8 5 9 4 10 3 11 2 12 1 13
REMARK H PARENT
REMARK Flexibility Score: inf
ROOT
ATOM      1  C   UNL     1     -24.011   2.834 -33.768  1.00  0.00     0.000 C 
ENDROOT
BRANCH   1   2
ATOM      2  C   UNL     1     -23.395   4.244 -33.789  1.00  0.00     0.000 C 
BRANCH   2   3
ATOM      3  C   UNL     1     -24.168   5.236 -32.896  1.00  0.00     0.006 C 
BRANCH   3   4
ATOM      4  C   UNL     1     -24.328   4.759 -31.443  1.00  0.00     0.053 C 
BRANCH   4   5
ATOM      5  C   UNL     1     -24.656   5.881 -30.509  1.00  0.00     0.041 C 
ATOM      6  O   UNL     1     -23.752   6.661 -30.111  1.00  0.00    -0.550 OA
ATOM      7  O   UNL     1     -25.959   6.051 -30.058  1.00  0.00    -0.550 OA
ENDBRANCH   4   5
ENDBRANCH   3   4
ENDBRANCH   2   3
ENDBRANCH   1   2
BRANCH   1   8
ATOM      8  C   UNL     1     -23.971   2.150 -35.144  1.00  0.00     0.000 C 
BRANCH   8   9
ATOM      9  C   UNL     1     -24.264   3.121 -36.297  1.00  0.00    -0.000 C 
BRANCH   9  10
ATOM     10  C   UNL     1     -25.768   3.182 -36.596  1.00  0.00    -0.000 C 
BRANCH  10  11
ATOM     11  C   UNL     1     -26.222   4.630 -36.835  1.00  0.00    -0.000 C 
BRANCH  11  12
ATOM     12  C   UNL     1     -26.700   5.319 -35.547  1.00  0.00    -0.003 C 
ATOM     13  C   UNL     1     -27.360   4.349 -34.567  1.00  0.00     0.004 C 
ENDBRANCH  11  12
ENDBRANCH  10  11
ENDBRANCH   9  10
ENDBRANCH   8   9
ENDBRANCH   1   8
TORSDOF 9
ENDMDL
MODEL 8
REMARK VINA RESULT:    -2.737     13.877     15.217
REMARK INTER + INTRA:          -5.431
REMARK INTER:                  -4.428
REMARK INTRA:                  -1.003
REMARK UNBOUND:                -1.254
REMARK SMILES CCCCCCCCCCC(=O)[O-]
REMARK SMILES IDX 7 1 8 2 9 3 10 4 11 5 12 6 13 7 6 8 5 9 4 10 3 11 2 12 1 13
REMARK H PARENT
REMARK Flexibility Score: inf
ROOT
ATOM      1  C   UNL     1     -25.030   3.943 -27.958  1.00  0.00     0.000 C 
ENDROOT
BRANCH   1   2
ATOM      2  C   UNL     1     -24.136   4.000 -29.210  1.00  0.00     0.000 C 
BRANCH   2   3
ATOM      3  C   UNL     1     -24.790   4.789 -30.364  1.00  0.00     0.006 C 
BRANCH   3   4
ATOM      4  C   UNL     1     -23.779   5.329 -31.389  1.00  0.00     0.053 C 
BRANCH   4   5
ATOM      5  C   UNL     1     -24.192   5.046 -32.798  1.00  0.00     0.041 C 
ATOM      6  O   UNL     1     -25.365   5.299 -33.179  1.00  0.00    -0.550 OA
ATOM      7  O   UNL     1     -23.287   4.479 -33.687  1.00  0.00    -0.550 OA
ENDBRANCH   4   5
ENDBRANCH   3   4
ENDBRANCH   2   3
ENDBRANCH   1   2
BRANCH   1   8
ATOM      8  C   UNL     1     -24.299   4.402 -26.688  1.00  0.00     0.000 C 
BRANCH   8   9
ATOM      9  C   UNL     1     -24.728   5.804 -26.228  1.00  0.00    -0.000 C 
BRANCH   9  10
ATOM     10  C   UNL     1     -23.814   6.882 -26.827  1.00  0.00    -0.000 C 
BRANCH  10  11
ATOM     11  C   UNL     1     -24.626   8.111 -27.260  1.00  0.00    -0.000 C 
BRANCH  11  12
ATOM     12  C   UNL     1     -24.918   8.124 -28.769  1.00  0.00    -0.003 C 
ATOM     13  C   UNL     1     -26.375   7.793 -29.092  1.00  0.00     0.004 C 
ENDBRANCH  11  12
ENDBRANCH  10  11
ENDBRANCH   9  10
ENDBRANCH   8   9
ENDBRANCH   1   8
TORSDOF 9
ENDMDL
MODEL 9
REMARK VINA RESULT:    -2.637      9.385     11.070
REMARK INTER + INTRA:          -5.279
REMARK INTER:                  -4.058
REMARK INTRA:                  -1.221
REMARK UNBOUND:                -1.254
REMARK SMILES CCCCCCCCCCC(=O)[O-]
REMARK SMILES IDX 7 1 8 2 9 3 10 4 11 5 12 6 13 7 6 8 5 9 4 10 3 11 2 12 1 13
REMARK H PARENT
REMARK Flexibility Score: inf
ROOT
ATOM      1  C   UNL     1     -31.905   0.531 -37.538  1.00  0.00     0.000 C 
ENDROOT
BRANCH   1   2
ATOM      2  C   UNL     1     -31.068  -0.733 -37.804  1.00  0.00     0.000 C 
BRANCH   2   3
ATOM      3  C   UNL     1     -30.670  -0.871 -39.289  1.00  0.00     0.006 C 
BRANCH   3   4
ATOM      4  C   UNL     1     -29.184  -0.578 -39.556  1.00  0.00     0.053 C 
BRANCH   4   5
ATOM      5  C   UNL     1     -28.382  -1.827 -39.738  1.00  0.00     0.041 C 
ATOM      6  O   UNL     1     -27.186  -1.763 -40.125  1.00  0.00    -0.550 OA
ATOM      7  O   UNL     1     -28.964  -3.067 -39.504  1.00  0.00    -0.550 OA
ENDBRANCH   4   5
ENDBRANCH   3   4
ENDBRANCH   2   3
ENDBRANCH   1   2
BRANCH   1   8
ATOM      8  C   UNL     1     -32.959   0.783 -38.627  1.00  0.00     0.000 C 
BRANCH   8   9
ATOM      9  C   UNL     1     -32.749   2.116 -39.360  1.00  0.00    -0.000 C 
BRANCH   9  10
ATOM     10  C   UNL     1     -31.539   2.870 -38.793  1.00  0.00    -0.000 C 
BRANCH  10  11
ATOM     11  C   UNL     1     -30.423   2.988 -39.842  1.00  0.00    -0.000 C 
BRANCH  11  12
ATOM     12  C   UNL     1     -29.072   3.383 -39.225  1.00  0.00    -0.003 C 
ATOM     13  C   UNL     1     -28.845   2.758 -37.849  1.00  0.00     0.004 C 
ENDBRANCH  11  12
ENDBRANCH  10  11
ENDBRANCH   9  10
ENDBRANCH   8   9
ENDBRANCH   1   8
TORSDOF 9
ENDMDL
