MODEL 1
REMARK VINA RESULT:    -7.465      0.000      0.000
REMARK INTER + INTRA:          -9.131
REMARK INTER:                  -8.993
REMARK INTRA:                  -0.138
REMARK UNBOUND:                -0.138
REMARK SMILES O=c1c(O)c(-c2ccc(O)cc2O)oc2cc(O)cc(O)c12
REMARK SMILES IDX 5 1 3 2 2 3 1 4 22 5 20 6 19 7 17 8 16 9 15 10 14 11 6 12
REMARK SMILES IDX 8 13 7 14 9 15 11 16 12 17 10 18 13 20 4 22 21 24 18 26
REMARK H PARENT 10 19 13 21 4 23 21 25 18 27
REMARK Flexibility Score: inf
ROOT
ATOM      1  C   UNL     1     -16.164 -46.382  -1.617  1.00  0.00     0.184 A 
ATOM      2  C   UNL     1     -17.275 -45.591  -1.958  1.00  0.00     0.208 A 
ATOM      3  C   UNL     1     -17.997 -44.960  -0.933  1.00  0.00     0.238 A 
ATOM      4  O   UNL     1     -19.002 -44.256  -1.226  1.00  0.00    -0.285 OA
ATOM      5  C   UNL     1     -17.583 -45.113   0.406  1.00  0.00     0.111 A 
ATOM      6  C   UNL     1     -18.253 -44.508   1.497  1.00  0.00     0.134 A 
ATOM      7  C   UNL     1     -17.774 -44.702   2.801  1.00  0.00     0.093 A 
ATOM      8  C   UNL     1     -16.639 -45.488   3.034  1.00  0.00     0.123 A 
ATOM      9  C   UNL     1     -15.976 -46.087   1.962  1.00  0.00     0.094 A 
ATOM     10  C   UNL     1     -16.439 -45.908   0.655  1.00  0.00     0.146 A 
ATOM     11  O   UNL     1     -15.792 -46.493  -0.346  1.00  0.00    -0.451 OA
ENDROOT
BRANCH   1  12
ATOM     12  C   UNL     1     -15.367 -47.084  -2.645  1.00  0.00     0.063 A 
ATOM     13  C   UNL     1     -14.193 -47.009  -4.772  1.00  0.00     0.047 A 
ATOM     14  C   UNL     1     -14.951 -46.377  -3.783  1.00  0.00     0.020 A 
ATOM     15  C   UNL     1     -13.828 -48.350  -4.629  1.00  0.00     0.119 A 
ATOM     16  C   UNL     1     -14.217 -49.058  -3.485  1.00  0.00     0.093 A 
ATOM     17  C   UNL     1     -14.975 -48.429  -2.485  1.00  0.00     0.130 A 
BRANCH  15  18
ATOM     18  O   UNL     1     -13.074 -48.968  -5.624  1.00  0.00    -0.508 OA
ATOM     19  H   UNL     1     -13.453 -49.721  -6.185  1.00  0.00     0.293 HD
ENDBRANCH  15  18
BRANCH  17  20
ATOM     20  O   UNL     1     -15.315 -49.132  -1.328  1.00  0.00    -0.507 OA
ATOM     21  H   UNL     1     -14.912 -50.037  -1.117  1.00  0.00     0.293 HD
ENDBRANCH  17  20
ENDBRANCH   1  12
BRANCH   2  22
ATOM     22  O   UNL     1     -17.632 -45.423  -3.298  1.00  0.00    -0.502 OA
ATOM     23  H   UNL     1     -18.241 -46.072  -3.782  1.00  0.00     0.293 HD
ENDBRANCH   2  22
BRANCH   6  24
ATOM     24  O   UNL     1     -19.385 -43.717   1.295  1.00  0.00    -0.507 OA
ATOM     25  H   UNL     1     -19.319 -42.715   1.163  1.00  0.00     0.293 HD
ENDBRANCH   6  24
BRANCH   8  26
ATOM     26  O   UNL     1     -16.163 -45.680   4.329  1.00  0.00    -0.508 OA
ATOM     27  H   UNL     1     -15.865 -44.901   4.905  1.00  0.00     0.293 HD
ENDBRANCH   8  26
TORSDOF 6
ENDMDL
MODEL 2
REMARK VINA RESULT:    -7.438      9.150     12.812
REMARK INTER + INTRA:          -9.098
REMARK INTER:                  -8.723
REMARK INTRA:                  -0.375
REMARK UNBOUND:                -0.138
REMARK SMILES O=c1c(O)c(-c2ccc(O)cc2O)oc2cc(O)cc(O)c12
REMARK SMILES IDX 5 1 3 2 2 3 1 4 22 5 20 6 19 7 17 8 16 9 15 10 14 11 6 12
REMARK SMILES IDX 8 13 7 14 9 15 11 16 12 17 10 18 13 20 4 22 21 24 18 26
REMARK H PARENT 10 19 13 21 4 23 21 25 18 27
REMARK Flexibility Score: inf
ROOT
ATOM      1  C   UNL     1     -11.757 -42.241 -10.182  1.00  0.00     0.184 A 
ATOM      2  C   UNL     1     -10.764 -41.277  -9.935  1.00  0.00     0.208 A 
ATOM      3  C   UNL     1      -9.431 -41.581 -10.251  1.00  0.00     0.238 A 
ATOM      4  O   UNL     1      -8.529 -40.729 -10.025  1.00  0.00    -0.285 OA
ATOM      5  C   UNL     1      -9.119 -42.832 -10.825  1.00  0.00     0.111 A 
ATOM      6  C   UNL     1      -7.802 -43.215 -11.175  1.00  0.00     0.134 A 
ATOM      7  C   UNL     1      -7.576 -44.475 -11.750  1.00  0.00     0.093 A 
ATOM      8  C   UNL     1      -8.639 -45.356 -11.980  1.00  0.00     0.123 A 
ATOM      9  C   UNL     1      -9.939 -44.981 -11.636  1.00  0.00     0.094 A 
ATOM     10  C   UNL     1     -10.186 -43.732 -11.060  1.00  0.00     0.146 A 
ATOM     11  O   UNL     1     -11.432 -43.403 -10.737  1.00  0.00    -0.451 OA
ENDROOT
BRANCH   1  12
ATOM     12  C   UNL     1     -13.178 -41.990  -9.862  1.00  0.00     0.063 A 
ATOM     13  C   UNL     1     -15.215 -40.736 -10.298  1.00  0.00     0.047 A 
ATOM     14  C   UNL     1     -13.869 -40.996 -10.572  1.00  0.00     0.020 A 
ATOM     15  C   UNL     1     -15.889 -41.475  -9.323  1.00  0.00     0.119 A 
ATOM     16  C   UNL     1     -15.215 -42.486  -8.626  1.00  0.00     0.093 A 
ATOM     17  C   UNL     1     -13.866 -42.756  -8.898  1.00  0.00     0.130 A 
BRANCH  15  18
ATOM     18  O   UNL     1     -17.230 -41.203  -9.059  1.00  0.00    -0.508 OA
ATOM     19  H   UNL     1     -17.554 -40.261  -8.879  1.00  0.00     0.293 HD
ENDBRANCH  15  18
BRANCH  17  20
ATOM     20  O   UNL     1     -13.219 -43.797  -8.231  1.00  0.00    -0.507 OA
ATOM     21  H   UNL     1     -13.122 -44.716  -8.646  1.00  0.00     0.293 HD
ENDBRANCH  17  20
ENDBRANCH   1  12
BRANCH   2  22
ATOM     22  O   UNL     1     -11.111 -40.030  -9.408  1.00  0.00    -0.502 OA
ATOM     23  H   UNL     1     -11.553 -39.310  -9.967  1.00  0.00     0.293 HD
ENDBRANCH   2  22
BRANCH   6  24
ATOM     24  O   UNL     1      -6.723 -42.358 -10.959  1.00  0.00    -0.507 OA
ATOM     25  H   UNL     1      -5.885 -42.667 -10.479  1.00  0.00     0.293 HD
ENDBRANCH   6  24
BRANCH   8  26
ATOM     26  O   UNL     1      -8.414 -46.606 -12.551  1.00  0.00    -0.508 OA
ATOM     27  H   UNL     1      -7.515 -47.069 -12.476  1.00  0.00     0.293 HD
ENDBRANCH   8  26
TORSDOF 6
ENDMDL
MODEL 3
REMARK VINA RESULT:    -7.246      5.143      9.007
REMARK INTER + INTRA:          -8.866
REMARK INTER:                  -8.456
REMARK INTRA:                  -0.410
REMARK UNBOUND:                -0.138
REMARK SMILES O=c1c(O)c(-c2ccc(O)cc2O)oc2cc(O)cc(O)c12
REMARK SMILES IDX 5 1 3 2 2 3 1 4 22 5 20 6 19 7 17 8 16 9 15 10 14 11 6 12
REMARK SMILES IDX 8 13 7 14 9 15 11 16 12 17 10 18 13 20 4 22 21 24 18 26
REMARK H PARENT 10 19 13 21 4 23 21 25 18 27
REMARK Flexibility Score: inf
ROOT
ATOM      1  C   UNL     1     -12.602 -46.327  -6.006  1.00  0.00     0.184 A 
ATOM      2  C   UNL     1     -12.896 -44.953  -5.961  1.00  0.00     0.208 A 
ATOM      3  C   UNL     1     -12.427 -44.125  -6.992  1.00  0.00     0.238 A 
ATOM      4  O   UNL     1     -12.676 -42.889  -6.957  1.00  0.00    -0.285 OA
ATOM      5  C   UNL     1     -11.693 -44.687  -8.057  1.00  0.00     0.111 A 
ATOM      6  C   UNL     1     -11.187 -43.923  -9.136  1.00  0.00     0.134 A 
ATOM      7  C   UNL     1     -10.472 -44.558 -10.162  1.00  0.00     0.093 A 
ATOM      8  C   UNL     1     -10.254 -45.941 -10.130  1.00  0.00     0.123 A 
ATOM      9  C   UNL     1     -10.751 -46.697  -9.067  1.00  0.00     0.094 A 
ATOM     10  C   UNL     1     -11.463 -46.083  -8.033  1.00  0.00     0.146 A 
ATOM     11  O   UNL     1     -11.920 -46.827  -7.032  1.00  0.00    -0.451 OA
ENDROOT
BRANCH   1  12
ATOM     12  C   UNL     1     -13.055 -47.253  -4.947  1.00  0.00     0.063 A 
ATOM     13  C   UNL     1     -12.861 -48.043  -2.656  1.00  0.00     0.047 A 
ATOM     14  C   UNL     1     -12.453 -47.185  -3.682  1.00  0.00     0.020 A 
ATOM     15  C   UNL     1     -13.884 -48.967  -2.879  1.00  0.00     0.119 A 
ATOM     16  C   UNL     1     -14.508 -49.026  -4.131  1.00  0.00     0.093 A 
ATOM     17  C   UNL     1     -14.108 -48.166  -5.164  1.00  0.00     0.130 A 
BRANCH  15  18
ATOM     18  O   UNL     1     -14.279 -49.818  -1.848  1.00  0.00    -0.508 OA
ATOM     19  H   UNL     1     -13.886 -49.741  -0.918  1.00  0.00     0.293 HD
ENDBRANCH  15  18
BRANCH  17  20
ATOM     20  O   UNL     1     -14.770 -48.201  -6.392  1.00  0.00    -0.507 OA
ATOM     21  H   UNL     1     -15.486 -48.890  -6.591  1.00  0.00     0.293 HD
ENDBRANCH  17  20
ENDBRANCH   1  12
BRANCH   2  22
ATOM     22  O   UNL     1     -13.665 -44.434  -4.915  1.00  0.00    -0.502 OA
ATOM     23  H   UNL     1     -14.631 -44.155  -5.040  1.00  0.00     0.293 HD
ENDBRANCH   2  22
BRANCH   6  24
ATOM     24  O   UNL     1     -11.390 -42.544  -9.197  1.00  0.00    -0.507 OA
ATOM     25  H   UNL     1     -11.592 -42.073 -10.071  1.00  0.00     0.293 HD
ENDBRANCH   6  24
BRANCH   8  26
ATOM     26  O   UNL     1      -9.545 -46.572 -11.149  1.00  0.00    -0.508 OA
ATOM     27  H   UNL     1     -10.017 -46.983 -11.947  1.00  0.00     0.293 HD
ENDBRANCH   8  26
TORSDOF 6
ENDMDL
MODEL 4
REMARK VINA RESULT:    -7.215      7.251      9.661
REMARK INTER + INTRA:          -8.829
REMARK INTER:                  -8.401
REMARK INTRA:                  -0.428
REMARK UNBOUND:                -0.138
REMARK SMILES O=c1c(O)c(-c2ccc(O)cc2O)oc2cc(O)cc(O)c12
REMARK SMILES IDX 5 1 3 2 2 3 1 4 22 5 20 6 19 7 17 8 16 9 15 10 14 11 6 12
REMARK SMILES IDX 8 13 7 14 9 15 11 16 12 17 10 18 13 20 4 22 21 24 18 26
REMARK H PARENT 10 19 13 21 4 23 21 25 18 27
REMARK Flexibility Score: inf
ROOT
ATOM      1  C   UNL     1     -11.733 -43.207  -6.914  1.00  0.00     0.184 A 
ATOM      2  C   UNL     1     -11.048 -43.023  -8.128  1.00  0.00     0.208 A 
ATOM      3  C   UNL     1     -11.766 -42.583  -9.251  1.00  0.00     0.238 A 
ATOM      4  O   UNL     1     -11.164 -42.424 -10.348  1.00  0.00    -0.285 OA
ATOM      5  C   UNL     1     -13.146 -42.315  -9.135  1.00  0.00     0.111 A 
ATOM      6  C   UNL     1     -13.940 -41.866 -10.217  1.00  0.00     0.134 A 
ATOM      7  C   UNL     1     -15.306 -41.614 -10.019  1.00  0.00     0.093 A 
ATOM      8  C   UNL     1     -15.890 -41.803  -8.761  1.00  0.00     0.123 A 
ATOM      9  C   UNL     1     -15.110 -42.247  -7.692  1.00  0.00     0.094 A 
ATOM     10  C   UNL     1     -13.748 -42.505  -7.869  1.00  0.00     0.146 A 
ATOM     11  O   UNL     1     -13.031 -42.932  -6.835  1.00  0.00    -0.451 OA
ENDROOT
BRANCH   1  12
ATOM     12  C   UNL     1     -11.041 -43.679  -5.697  1.00  0.00     0.063 A 
ATOM     13  C   UNL     1      -9.577 -43.191  -3.819  1.00  0.00     0.047 A 
ATOM     14  C   UNL     1     -10.242 -42.779  -4.977  1.00  0.00     0.020 A 
ATOM     15  C   UNL     1      -9.715 -44.503  -3.358  1.00  0.00     0.119 A 
ATOM     16  C   UNL     1     -10.531 -45.403  -4.056  1.00  0.00     0.093 A 
ATOM     17  C   UNL     1     -11.206 -44.995  -5.217  1.00  0.00     0.130 A 
BRANCH  15  18
ATOM     18  O   UNL     1      -9.045 -44.901  -2.204  1.00  0.00    -0.508 OA
ATOM     19  H   UNL     1      -8.808 -45.871  -2.036  1.00  0.00     0.293 HD
ENDBRANCH  15  18
BRANCH  17  20
ATOM     20  O   UNL     1     -12.053 -45.887  -5.876  1.00  0.00    -0.507 OA
ATOM     21  H   UNL     1     -12.094 -46.867  -5.623  1.00  0.00     0.293 HD
ENDBRANCH  17  20
ENDBRANCH   1  12
BRANCH   2  22
ATOM     22  O   UNL     1      -9.672 -43.253  -8.199  1.00  0.00    -0.502 OA
ATOM     23  H   UNL     1      -9.238 -44.073  -7.793  1.00  0.00     0.293 HD
ENDBRANCH   2  22
BRANCH   6  24
ATOM     24  O   UNL     1     -13.385 -41.667 -11.482  1.00  0.00    -0.507 OA
ATOM     25  H   UNL     1     -12.704 -40.937 -11.656  1.00  0.00     0.293 HD
ENDBRANCH   6  24
BRANCH   8  26
ATOM     26  O   UNL     1     -17.247 -41.553  -8.564  1.00  0.00    -0.508 OA
ATOM     27  H   UNL     1     -17.565 -40.813  -7.947  1.00  0.00     0.293 HD
ENDBRANCH   8  26
TORSDOF 6
ENDMDL
MODEL 5
REMARK VINA RESULT:    -7.211      6.872      9.474
REMARK INTER + INTRA:          -8.824
REMARK INTER:                  -8.414
REMARK INTRA:                  -0.411
REMARK UNBOUND:                -0.138
REMARK SMILES O=c1c(O)c(-c2ccc(O)cc2O)oc2cc(O)cc(O)c12
REMARK SMILES IDX 5 1 3 2 2 3 1 4 22 5 20 6 19 7 17 8 16 9 15 10 14 11 6 12
REMARK SMILES IDX 8 13 7 14 9 15 11 16 12 17 10 18 13 20 4 22 21 24 18 26
REMARK H PARENT 10 19 13 21 4 23 21 25 18 27
REMARK Flexibility Score: inf
ROOT
ATOM      1  C   UNL     1     -12.639 -42.787  -6.403  1.00  0.00     0.184 A 
ATOM      2  C   UNL     1     -13.989 -43.180  -6.422  1.00  0.00     0.208 A 
ATOM      3  C   UNL     1     -14.827 -42.681  -7.431  1.00  0.00     0.238 A 
ATOM      4  O   UNL     1     -16.042 -43.018  -7.452  1.00  0.00    -0.285 OA
ATOM      5  C   UNL     1     -14.297 -41.817  -8.412  1.00  0.00     0.111 A 
ATOM      6  C   UNL     1     -15.072 -41.273  -9.464  1.00  0.00     0.134 A 
ATOM      7  C   UNL     1     -14.469 -40.427 -10.406  1.00  0.00     0.093 A 
ATOM      8  C   UNL     1     -13.107 -40.116 -10.316  1.00  0.00     0.123 A 
ATOM      9  C   UNL     1     -12.339 -40.650  -9.280  1.00  0.00     0.094 A 
ATOM     10  C   UNL     1     -12.921 -41.494  -8.330  1.00  0.00     0.146 A 
ATOM     11  O   UNL     1     -12.168 -41.984  -7.351  1.00  0.00    -0.451 OA
ENDROOT
BRANCH   1  12
ATOM     12  C   UNL     1     -11.706 -43.266  -5.363  1.00  0.00     0.063 A 
ATOM     13  C   UNL     1     -10.711 -42.961  -3.166  1.00  0.00     0.047 A 
ATOM     14  C   UNL     1     -11.581 -42.534  -4.172  1.00  0.00     0.020 A 
ATOM     15  C   UNL     1      -9.967 -44.132  -3.330  1.00  0.00     0.119 A 
ATOM     16  C   UNL     1     -10.103 -44.884  -4.504  1.00  0.00     0.093 A 
ATOM     17  C   UNL     1     -10.978 -44.464  -5.517  1.00  0.00     0.130 A 
BRANCH  15  18
ATOM     18  O   UNL     1      -9.102 -44.545  -2.319  1.00  0.00    -0.508 OA
ATOM     19  H   UNL     1      -8.984 -44.006  -1.470  1.00  0.00     0.293 HD
ENDBRANCH  15  18
BRANCH  17  20
ATOM     20  O   UNL     1     -11.140 -45.246  -6.662  1.00  0.00    -0.507 OA
ATOM     21  H   UNL     1     -10.528 -46.029  -6.863  1.00  0.00     0.293 HD
ENDBRANCH  17  20
ENDBRANCH   1  12
BRANCH   2  22
ATOM     22  O   UNL     1     -14.473 -44.074  -5.462  1.00  0.00    -0.502 OA
ATOM     23  H   UNL     1     -14.185 -45.045  -5.432  1.00  0.00     0.293 HD
ENDBRANCH   2  22
BRANCH   6  24
ATOM     24  O   UNL     1     -16.431 -41.566  -9.580  1.00  0.00    -0.507 OA
ATOM     25  H   UNL     1     -17.066 -41.472  -8.796  1.00  0.00     0.293 HD
ENDBRANCH   6  24
BRANCH   8  26
ATOM     26  O   UNL     1     -12.507 -39.277 -11.252  1.00  0.00    -0.508 OA
ATOM     27  H   UNL     1     -12.948 -39.074 -12.143  1.00  0.00     0.293 HD
ENDBRANCH   8  26
TORSDOF 6
ENDMDL
MODEL 6
REMARK VINA RESULT:    -7.198      6.515     10.024
REMARK INTER + INTRA:          -8.809
REMARK INTER:                  -8.386
REMARK INTRA:                  -0.423
REMARK UNBOUND:                -0.138
REMARK SMILES O=c1c(O)c(-c2ccc(O)cc2O)oc2cc(O)cc(O)c12
REMARK SMILES IDX 5 1 3 2 2 3 1 4 22 5 20 6 19 7 17 8 16 9 15 10 14 11 6 12
REMARK SMILES IDX 8 13 7 14 9 15 11 16 12 17 10 18 13 20 4 22 21 24 18 26
REMARK H PARENT 10 19 13 21 4 23 21 25 18 27
REMARK Flexibility Score: inf
ROOT
ATOM      1  C   UNL     1     -11.271 -42.841  -5.786  1.00  0.00     0.184 A 
ATOM      2  C   UNL     1     -10.762 -43.729  -6.751  1.00  0.00     0.208 A 
ATOM      3  C   UNL     1     -11.023 -43.477  -8.107  1.00  0.00     0.238 A 
ATOM      4  O   UNL     1     -10.581 -44.272  -8.981  1.00  0.00    -0.285 OA
ATOM      5  C   UNL     1     -11.766 -42.336  -8.474  1.00  0.00     0.111 A 
ATOM      6  C   UNL     1     -12.069 -42.009  -9.817  1.00  0.00     0.134 A 
ATOM      7  C   UNL     1     -12.808 -40.851 -10.101  1.00  0.00     0.093 A 
ATOM      8  C   UNL     1     -13.247 -40.015  -9.068  1.00  0.00     0.123 A 
ATOM      9  C   UNL     1     -12.951 -40.334  -7.742  1.00  0.00     0.094 A 
ATOM     10  C   UNL     1     -12.219 -41.485  -7.438  1.00  0.00     0.146 A 
ATOM     11  O   UNL     1     -11.955 -41.767  -6.167  1.00  0.00    -0.451 OA
ENDROOT
BRANCH   1  12
ATOM     12  C   UNL     1     -11.044 -43.053  -4.342  1.00  0.00     0.063 A 
ATOM     13  C   UNL     1      -9.528 -42.971  -2.444  1.00  0.00     0.047 A 
ATOM     14  C   UNL     1      -9.775 -42.786  -3.806  1.00  0.00     0.020 A 
ATOM     15  C   UNL     1     -10.549 -43.410  -1.597  1.00  0.00     0.119 A 
ATOM     16  C   UNL     1     -11.826 -43.656  -2.117  1.00  0.00     0.093 A 
ATOM     17  C   UNL     1     -12.084 -43.468  -3.483  1.00  0.00     0.130 A 
BRANCH  15  18
ATOM     18  O   UNL     1     -10.287 -43.593  -0.241  1.00  0.00    -0.508 OA
ATOM     19  H   UNL     1      -9.568 -44.231   0.079  1.00  0.00     0.293 HD
ENDBRANCH  15  18
BRANCH  17  20
ATOM     20  O   UNL     1     -13.372 -43.669  -3.980  1.00  0.00    -0.507 OA
ATOM     21  H   UNL     1     -13.640 -43.357  -4.906  1.00  0.00     0.293 HD
ENDBRANCH  17  20
ENDBRANCH   1  12
BRANCH   2  22
ATOM     22  O   UNL     1      -9.991 -44.825  -6.358  1.00  0.00    -0.502 OA
ATOM     23  H   UNL     1      -9.512 -45.418  -7.026  1.00  0.00     0.293 HD
ENDBRANCH   2  22
BRANCH   6  24
ATOM     24  O   UNL     1     -11.643 -42.822 -10.868  1.00  0.00    -0.507 OA
ATOM     25  H   UNL     1     -11.914 -42.639 -11.828  1.00  0.00     0.293 HD
ENDBRANCH   6  24
BRANCH   8  26
ATOM     26  O   UNL     1     -13.980 -38.864  -9.349  1.00  0.00    -0.508 OA
ATOM     27  H   UNL     1     -14.835 -38.900  -9.894  1.00  0.00     0.293 HD
ENDBRANCH   8  26
TORSDOF 6
ENDMDL
MODEL 7
REMARK VINA RESULT:    -7.064      1.633      6.522
REMARK INTER + INTRA:          -8.647
REMARK INTER:                  -8.428
REMARK INTRA:                  -0.220
REMARK UNBOUND:                -0.138
REMARK SMILES O=c1c(O)c(-c2ccc(O)cc2O)oc2cc(O)cc(O)c12
REMARK SMILES IDX 5 1 3 2 2 3 1 4 22 5 20 6 19 7 17 8 16 9 15 10 14 11 6 12
REMARK SMILES IDX 8 13 7 14 9 15 11 16 12 17 10 18 13 20 4 22 21 24 18 26
REMARK H PARENT 10 19 13 21 4 23 21 25 18 27
REMARK Flexibility Score: inf
ROOT
ATOM      1  C   UNL     1     -17.014 -44.954  -1.147  1.00  0.00     0.184 A 
ATOM      2  C   UNL     1     -17.318 -44.007  -2.141  1.00  0.00     0.208 A 
ATOM      3  C   UNL     1     -16.847 -44.218  -3.445  1.00  0.00     0.238 A 
ATOM      4  O   UNL     1     -17.104 -43.370  -4.342  1.00  0.00    -0.285 OA
ATOM      5  C   UNL     1     -16.101 -45.379  -3.737  1.00  0.00     0.111 A 
ATOM      6  C   UNL     1     -15.593 -45.668  -5.026  1.00  0.00     0.134 A 
ATOM      7  C   UNL     1     -14.866 -46.849  -5.237  1.00  0.00     0.093 A 
ATOM      8  C   UNL     1     -14.639 -47.745  -4.186  1.00  0.00     0.123 A 
ATOM      9  C   UNL     1     -15.138 -47.463  -2.913  1.00  0.00     0.094 A 
ATOM     10  C   UNL     1     -15.863 -46.290  -2.681  1.00  0.00     0.146 A 
ATOM     11  O   UNL     1     -16.322 -46.044  -1.459  1.00  0.00    -0.451 OA
ENDROOT
BRANCH   1  12
ATOM     12  C   UNL     1     -17.469 -44.787   0.249  1.00  0.00     0.063 A 
ATOM     13  C   UNL     1     -19.295 -44.400   1.806  1.00  0.00     0.047 A 
ATOM     14  C   UNL     1     -18.830 -44.557   0.498  1.00  0.00     0.020 A 
ATOM     15  C   UNL     1     -18.408 -44.485   2.882  1.00  0.00     0.119 A 
ATOM     16  C   UNL     1     -17.051 -44.739   2.646  1.00  0.00     0.093 A 
ATOM     17  C   UNL     1     -16.577 -44.903   1.336  1.00  0.00     0.130 A 
BRANCH  15  18
ATOM     18  O   UNL     1     -18.885 -44.324   4.181  1.00  0.00    -0.508 OA
ATOM     19  H   UNL     1     -19.483 -45.015   4.616  1.00  0.00     0.293 HD
ENDBRANCH  15  18
BRANCH  17  20
ATOM     20  O   UNL     1     -15.232 -45.203   1.117  1.00  0.00    -0.507 OA
ATOM     21  H   UNL     1     -14.652 -44.635   0.511  1.00  0.00     0.293 HD
ENDBRANCH  17  20
ENDBRANCH   1  12
BRANCH   2  22
ATOM     22  O   UNL     1     -18.098 -42.890  -1.829  1.00  0.00    -0.502 OA
ATOM     23  H   UNL     1     -19.053 -42.970  -1.501  1.00  0.00     0.293 HD
ENDBRANCH   2  22
BRANCH   6  24
ATOM     24  O   UNL     1     -15.804 -44.795  -6.094  1.00  0.00    -0.507 OA
ATOM     25  H   UNL     1     -15.160 -44.042  -6.302  1.00  0.00     0.293 HD
ENDBRANCH   6  24
BRANCH   8  26
ATOM     26  O   UNL     1     -13.918 -48.918  -4.396  1.00  0.00    -0.508 OA
ATOM     27  H   UNL     1     -13.878 -49.360  -5.308  1.00  0.00     0.293 HD
ENDBRANCH   8  26
TORSDOF 6
ENDMDL
MODEL 8
REMARK VINA RESULT:    -7.054      4.461      8.666
REMARK INTER + INTRA:          -8.636
REMARK INTER:                  -8.393
REMARK INTRA:                  -0.242
REMARK UNBOUND:                -0.138
REMARK SMILES O=c1c(O)c(-c2ccc(O)cc2O)oc2cc(O)cc(O)c12
REMARK SMILES IDX 5 1 3 2 2 3 1 4 22 5 20 6 19 7 17 8 16 9 15 10 14 11 6 12
REMARK SMILES IDX 8 13 7 14 9 15 11 16 12 17 10 18 13 20 4 22 21 24 18 26
REMARK H PARENT 10 19 13 21 4 23 21 25 18 27
REMARK Flexibility Score: inf
ROOT
ATOM      1  C   UNL     1     -11.756 -45.887  -4.462  1.00  0.00     0.184 A 
ATOM      2  C   UNL     1     -10.589 -45.253  -4.001  1.00  0.00     0.208 A 
ATOM      3  C   UNL     1      -9.895 -44.397  -4.869  1.00  0.00     0.238 A 
ATOM      4  O   UNL     1      -8.841 -43.831  -4.470  1.00  0.00    -0.285 OA
ATOM      5  C   UNL     1     -10.389 -44.174  -6.171  1.00  0.00     0.111 A 
ATOM      6  C   UNL     1      -9.752 -43.323  -7.105  1.00  0.00     0.134 A 
ATOM      7  C   UNL     1     -10.312 -43.147  -8.379  1.00  0.00     0.093 A 
ATOM      8  C   UNL     1     -11.496 -43.804  -8.735  1.00  0.00     0.123 A 
ATOM      9  C   UNL     1     -12.127 -44.644  -7.816  1.00  0.00     0.094 A 
ATOM     10  C   UNL     1     -11.584 -44.835  -6.543  1.00  0.00     0.146 A 
ATOM     11  O   UNL     1     -12.203 -45.644  -5.690  1.00  0.00    -0.451 OA
ENDROOT
BRANCH   1  12
ATOM     12  C   UNL     1     -12.528 -46.810  -3.605  1.00  0.00     0.063 A 
ATOM     13  C   UNL     1     -13.701 -47.211  -1.513  1.00  0.00     0.047 A 
ATOM     14  C   UNL     1     -12.964 -46.366  -2.348  1.00  0.00     0.020 A 
ATOM     15  C   UNL     1     -14.023 -48.504  -1.931  1.00  0.00     0.119 A 
ATOM     16  C   UNL     1     -13.614 -48.949  -3.195  1.00  0.00     0.093 A 
ATOM     17  C   UNL     1     -12.879 -48.105  -4.040  1.00  0.00     0.130 A 
BRANCH  15  18
ATOM     18  O   UNL     1     -14.756 -49.337  -1.088  1.00  0.00    -0.508 OA
ATOM     19  H   UNL     1     -14.308 -50.057  -0.534  1.00  0.00     0.293 HD
ENDBRANCH  15  18
BRANCH  17  20
ATOM     20  O   UNL     1     -12.519 -48.543  -5.315  1.00  0.00    -0.507 OA
ATOM     21  H   UNL     1     -11.556 -48.527  -5.632  1.00  0.00     0.293 HD
ENDBRANCH  17  20
ENDBRANCH   1  12
BRANCH   2  22
ATOM     22  O   UNL     1     -10.150 -45.460  -2.690  1.00  0.00    -0.502 OA
ATOM     23  H   UNL     1      -9.222 -45.806  -2.478  1.00  0.00     0.293 HD
ENDBRANCH   2  22
BRANCH   6  24
ATOM     24  O   UNL     1      -8.572 -42.654  -6.779  1.00  0.00    -0.507 OA
ATOM     25  H   UNL     1      -8.516 -41.642  -6.776  1.00  0.00     0.293 HD
ENDBRANCH   6  24
BRANCH   8  26
ATOM     26  O   UNL     1     -12.052 -43.629 -10.000  1.00  0.00    -0.508 OA
ATOM     27  H   UNL     1     -12.076 -42.719 -10.447  1.00  0.00     0.293 HD
ENDBRANCH   8  26
TORSDOF 6
ENDMDL
MODEL 9
REMARK VINA RESULT:    -7.054      2.008      6.808
REMARK INTER + INTRA:          -8.635
REMARK INTER:                  -8.232
REMARK INTRA:                  -0.403
REMARK UNBOUND:                -0.138
REMARK SMILES O=c1c(O)c(-c2ccc(O)cc2O)oc2cc(O)cc(O)c12
REMARK SMILES IDX 5 1 3 2 2 3 1 4 22 5 20 6 19 7 17 8 16 9 15 10 14 11 6 12
REMARK SMILES IDX 8 13 7 14 9 15 11 16 12 17 10 18 13 20 4 22 21 24 18 26
REMARK H PARENT 10 19 13 21 4 23 21 25 18 27
REMARK Flexibility Score: inf
ROOT
ATOM      1  C   UNL     1     -15.456 -45.660  -0.511  1.00  0.00     0.184 A 
ATOM      2  C   UNL     1     -14.230 -44.971  -0.550  1.00  0.00     0.208 A 
ATOM      3  C   UNL     1     -13.246 -45.390  -1.457  1.00  0.00     0.238 A 
ATOM      4  O   UNL     1     -12.139 -44.786  -1.494  1.00  0.00    -0.285 OA
ATOM      5  C   UNL     1     -13.510 -46.473  -2.321  1.00  0.00     0.111 A 
ATOM      6  C   UNL     1     -12.573 -46.955  -3.266  1.00  0.00     0.134 A 
ATOM      7  C   UNL     1     -12.916 -48.033  -4.096  1.00  0.00     0.093 A 
ATOM      8  C   UNL     1     -14.175 -48.636  -3.998  1.00  0.00     0.123 A 
ATOM      9  C   UNL     1     -15.101 -48.164  -3.067  1.00  0.00     0.094 A 
ATOM     10  C   UNL     1     -14.779 -47.093  -2.230  1.00  0.00     0.146 A 
ATOM     11  O   UNL     1     -15.678 -46.667  -1.349  1.00  0.00    -0.451 OA
ENDROOT
BRANCH   1  12
ATOM     12  C   UNL     1     -16.531 -45.279   0.429  1.00  0.00     0.063 A 
ATOM     13  C   UNL     1     -18.620 -44.101   0.826  1.00  0.00     0.047 A 
ATOM     14  C   UNL     1     -17.584 -44.476  -0.034  1.00  0.00     0.020 A 
ATOM     15  C   UNL     1     -18.622 -44.536   2.154  1.00  0.00     0.119 A 
ATOM     16  C   UNL     1     -17.588 -45.358   2.619  1.00  0.00     0.093 A 
ATOM     17  C   UNL     1     -16.547 -45.742   1.761  1.00  0.00     0.130 A 
BRANCH  15  18
ATOM     18  O   UNL     1     -19.660 -44.152   3.001  1.00  0.00    -0.508 OA
ATOM     19  H   UNL     1     -19.777 -44.567   3.917  1.00  0.00     0.293 HD
ENDBRANCH  15  18
BRANCH  17  20
ATOM     20  O   UNL     1     -15.548 -46.600   2.222  1.00  0.00    -0.507 OA
ATOM     21  H   UNL     1     -14.883 -46.311   2.930  1.00  0.00     0.293 HD
ENDBRANCH  17  20
ENDBRANCH   1  12
BRANCH   2  22
ATOM     22  O   UNL     1     -14.016 -43.873   0.288  1.00  0.00    -0.502 OA
ATOM     23  H   UNL     1     -14.142 -43.925   1.292  1.00  0.00     0.293 HD
ENDBRANCH   2  22
BRANCH   6  24
ATOM     24  O   UNL     1     -11.311 -46.373  -3.388  1.00  0.00    -0.507 OA
ATOM     25  H   UNL     1     -11.116 -45.665  -4.086  1.00  0.00     0.293 HD
ENDBRANCH   6  24
BRANCH   8  26
ATOM     26  O   UNL     1     -14.515 -49.707  -4.823  1.00  0.00    -0.508 OA
ATOM     27  H   UNL     1     -14.059 -49.853  -5.717  1.00  0.00     0.293 HD
ENDBRANCH   8  26
TORSDOF 6
ENDMDL
