MODEL 1
REMARK VINA RESULT:    -3.639      0.000      0.000
REMARK INTER + INTRA:          -5.292
REMARK INTER:                  -4.915
REMARK INTRA:                  -0.377
REMARK UNBOUND:                -0.377
REMARK SMILES [NH3+]CCCC[C@@H]([NH3+])C(=O)[O-]
REMARK SMILES IDX 4 1 3 2 2 3 1 4 5 8 6 9 7 10 8 14 9 15 10 16
REMARK H PARENT 1 5 1 6 1 7 7 11 7 12 7 13
REMARK Flexibility Score: inf
ROOT
ATOM      1  C   UNL     1     168.433 170.438 163.713  1.00  0.00     0.012 C 
ENDROOT
BRANCH   1   2
ATOM      2  C   UNL     1     169.259 169.585 162.734  1.00  0.00     0.061 C 
BRANCH   2   3
ATOM      3  C   UNL     1     169.615 168.177 163.246  1.00  0.00     0.258 C 
BRANCH   3   4
ATOM      4  N   UNL     1     170.724 168.195 164.203  1.00  0.00    -0.358 N 
ATOM      5  H   UNL     1     171.567 168.643 163.777  1.00  0.00     0.344 HD
ATOM      6  H   UNL     1     170.438 168.747 165.044  1.00  0.00     0.344 HD
ATOM      7  H   UNL     1     170.951 167.222 164.511  1.00  0.00     0.344 HD
ENDBRANCH   3   4
ENDBRANCH   2   3
ENDBRANCH   1   2
BRANCH   1   8
ATOM      8  C   UNL     1     169.309 171.289 164.651  1.00  0.00     0.072 C 
BRANCH   8   9
ATOM      9  C   UNL     1     170.064 172.402 163.893  1.00  0.00     0.227 C 
BRANCH   9  10
ATOM     10  N   UNL     1     169.710 173.721 164.430  1.00  0.00    -0.350 N 
ATOM     11  H   UNL     1     168.897 174.113 163.900  1.00  0.00     0.345 HD
ATOM     12  H   UNL     1     170.518 174.378 164.323  1.00  0.00     0.345 HD
ATOM     13  H   UNL     1     169.456 173.651 165.444  1.00  0.00     0.345 HD
ENDBRANCH   9  10
BRANCH   9  14
ATOM     14  C   UNL     1     171.556 172.199 163.976  1.00  0.00     0.099 C 
ATOM     15  O   UNL     1     172.340 173.115 163.617  1.00  0.00    -0.544 OA
ATOM     16  O   UNL     1     172.075 170.999 164.450  1.00  0.00    -0.544 OA
ENDBRANCH   9  14
ENDBRANCH   8   9
ENDBRANCH   1   8
TORSDOF 7
ENDMDL
MODEL 2
REMARK VINA RESULT:    -3.518      1.983      4.326
REMARK INTER + INTRA:          -5.129
REMARK INTER:                  -4.606
REMARK INTRA:                  -0.523
REMARK UNBOUND:                -0.377
REMARK SMILES [NH3+]CCCC[C@@H]([NH3+])C(=O)[O-]
REMARK SMILES IDX 4 1 3 2 2 3 1 4 5 8 6 9 7 10 8 14 9 15 10 16
REMARK H PARENT 1 5 1 6 1 7 7 11 7 12 7 13
REMARK Flexibility Score: inf
ROOT
ATOM      1  C   UNL     1     172.388 171.654 163.210  1.00  0.00     0.012 C 
ENDROOT
BRANCH   1   2
ATOM      2  C   UNL     1     172.149 173.155 163.448  1.00  0.00     0.061 C 
BRANCH   2   3
ATOM      3  C   UNL     1     170.864 173.714 162.811  1.00  0.00     0.258 C 
BRANCH   3   4
ATOM      4  N   UNL     1     169.873 174.115 163.813  1.00  0.00    -0.358 N 
ATOM      5  H   UNL     1     169.290 174.905 163.455  1.00  0.00     0.344 HD
ATOM      6  H   UNL     1     169.249 173.302 164.018  1.00  0.00     0.344 HD
ATOM      7  H   UNL     1     170.351 174.394 164.701  1.00  0.00     0.344 HD
ENDBRANCH   3   4
ENDBRANCH   2   3
ENDBRANCH   1   2
BRANCH   1   8
ATOM      8  C   UNL     1     171.775 170.769 164.309  1.00  0.00     0.072 C 
BRANCH   8   9
ATOM      9  C   UNL     1     170.581 169.938 163.791  1.00  0.00     0.227 C 
BRANCH   9  10
ATOM     10  N   UNL     1     170.630 168.575 164.333  1.00  0.00    -0.350 N 
ATOM     11  H   UNL     1     170.756 168.610 165.371  1.00  0.00     0.345 HD
ATOM     12  H   UNL     1     171.444 168.059 163.923  1.00  0.00     0.345 HD
ATOM     13  H   UNL     1     169.748 168.057 164.112  1.00  0.00     0.345 HD
ENDBRANCH   9  10
BRANCH   9  14
ATOM     14  C   UNL     1     169.270 170.587 164.155  1.00  0.00     0.099 C 
ATOM     15  O   UNL     1     169.227 171.465 165.055  1.00  0.00    -0.544 OA
ATOM     16  O   UNL     1     168.100 170.221 163.499  1.00  0.00    -0.544 OA
ENDBRANCH   9  14
ENDBRANCH   8   9
ENDBRANCH   1   8
TORSDOF 7
ENDMDL
MODEL 3
REMARK VINA RESULT:    -3.452      1.371      3.477
REMARK INTER + INTRA:          -5.040
REMARK INTER:                  -4.738
REMARK INTRA:                  -0.302
REMARK UNBOUND:                -0.377
REMARK SMILES [NH3+]CCCC[C@@H]([NH3+])C(=O)[O-]
REMARK SMILES IDX 4 1 3 2 2 3 1 4 5 8 6 9 7 10 8 14 9 15 10 16
REMARK H PARENT 1 5 1 6 1 7 7 11 7 12 7 13
REMARK Flexibility Score: inf
ROOT
ATOM      1  C   UNL     1     168.083 171.209 163.641  1.00  0.00     0.012 C 
ENDROOT
BRANCH   1   2
ATOM      2  C   UNL     1     168.300 172.515 162.856  1.00  0.00     0.061 C 
BRANCH   2   3
ATOM      3  C   UNL     1     168.726 173.721 163.712  1.00  0.00     0.258 C 
BRANCH   3   4
ATOM      4  N   UNL     1     169.944 173.456 164.482  1.00  0.00    -0.358 N 
ATOM      5  H   UNL     1     170.724 174.069 164.154  1.00  0.00     0.344 HD
ATOM      6  H   UNL     1     169.758 173.657 165.491  1.00  0.00     0.344 HD
ATOM      7  H   UNL     1     170.215 172.450 164.392  1.00  0.00     0.344 HD
ENDBRANCH   3   4
ENDBRANCH   2   3
ENDBRANCH   1   2
BRANCH   1   8
ATOM      8  C   UNL     1     169.029 170.079 163.196  1.00  0.00     0.072 C 
BRANCH   8   9
ATOM      9  C   UNL     1     170.170 169.841 164.208  1.00  0.00     0.227 C 
BRANCH   9  10
ATOM     10  N   UNL     1     170.610 168.442 164.166  1.00  0.00    -0.350 N 
ATOM     11  H   UNL     1     170.779 168.094 165.138  1.00  0.00     0.345 HD
ATOM     12  H   UNL     1     171.507 168.367 163.632  1.00  0.00     0.345 HD
ATOM     13  H   UNL     1     169.886 167.840 163.708  1.00  0.00     0.345 HD
ENDBRANCH   9  10
BRANCH   9  14
ATOM     14  C   UNL     1     171.338 170.754 163.933  1.00  0.00     0.099 C 
ATOM     15  O   UNL     1     172.132 171.062 164.860  1.00  0.00    -0.544 OA
ATOM     16  O   UNL     1     171.548 171.260 162.655  1.00  0.00    -0.544 OA
ENDBRANCH   9  14
ENDBRANCH   8   9
ENDBRANCH   1   8
TORSDOF 7
ENDMDL
MODEL 4
REMARK VINA RESULT:    -3.318      1.941      3.591
REMARK INTER + INTRA:          -4.858
REMARK INTER:                  -4.313
REMARK INTRA:                  -0.545
REMARK UNBOUND:                -0.377
REMARK SMILES [NH3+]CCCC[C@@H]([NH3+])C(=O)[O-]
REMARK SMILES IDX 4 1 3 2 2 3 1 4 5 8 6 9 7 10 8 14 9 15 10 16
REMARK H PARENT 1 5 1 6 1 7 7 11 7 12 7 13
REMARK Flexibility Score: inf
ROOT
ATOM      1  C   UNL     1     167.787 171.648 162.468  1.00  0.00     0.012 C 
ENDROOT
BRANCH   1   2
ATOM      2  C   UNL     1     167.429 172.884 163.312  1.00  0.00     0.061 C 
BRANCH   2   3
ATOM      3  C   UNL     1     168.560 173.918 163.458  1.00  0.00     0.258 C 
BRANCH   3   4
ATOM      4  N   UNL     1     169.245 173.817 164.749  1.00  0.00    -0.358 N 
ATOM      5  H   UNL     1     169.915 174.610 164.871  1.00  0.00     0.344 HD
ATOM      6  H   UNL     1     168.534 173.856 165.514  1.00  0.00     0.344 HD
ATOM      7  H   UNL     1     169.751 172.905 164.818  1.00  0.00     0.344 HD
ENDBRANCH   3   4
ENDBRANCH   2   3
ENDBRANCH   1   2
BRANCH   1   8
ATOM      8  C   UNL     1     168.207 170.441 163.325  1.00  0.00     0.072 C 
BRANCH   8   9
ATOM      9  C   UNL     1     169.734 170.209 163.298  1.00  0.00     0.227 C 
BRANCH   9  10
ATOM     10  N   UNL     1     170.346 170.956 162.193  1.00  0.00    -0.350 N 
ATOM     11  H   UNL     1     171.315 170.602 162.019  1.00  0.00     0.345 HD
ATOM     12  H   UNL     1     170.411 171.971 162.443  1.00  0.00     0.345 HD
ATOM     13  H   UNL     1     169.781 170.853 161.318  1.00  0.00     0.345 HD
ENDBRANCH   9  10
BRANCH   9  14
ATOM     14  C   UNL     1     170.367 170.615 164.604  1.00  0.00     0.099 C 
ATOM     15  O   UNL     1     169.646 170.883 165.600  1.00  0.00    -0.544 OA
ATOM     16  O   UNL     1     171.751 170.695 164.718  1.00  0.00    -0.544 OA
ENDBRANCH   9  14
ENDBRANCH   8   9
ENDBRANCH   1   8
TORSDOF 7
ENDMDL
MODEL 5
REMARK VINA RESULT:    -3.313      2.438      4.091
REMARK INTER + INTRA:          -4.852
REMARK INTER:                  -4.347
REMARK INTRA:                  -0.505
REMARK UNBOUND:                -0.377
REMARK SMILES [NH3+]CCCC[C@@H]([NH3+])C(=O)[O-]
REMARK SMILES IDX 4 1 3 2 2 3 1 4 5 8 6 9 7 10 8 14 9 15 10 16
REMARK H PARENT 1 5 1 6 1 7 7 11 7 12 7 13
REMARK Flexibility Score: inf
ROOT
ATOM      1  C   UNL     1     171.966 170.910 164.246  1.00  0.00     0.012 C 
ENDROOT
BRANCH   1   2
ATOM      2  C   UNL     1     172.274 171.842 163.061  1.00  0.00     0.061 C 
BRANCH   2   3
ATOM      3  C   UNL     1     172.353 173.337 163.418  1.00  0.00     0.258 C 
BRANCH   3   4
ATOM      4  N   UNL     1     171.070 174.021 163.240  1.00  0.00    -0.358 N 
ATOM      5  H   UNL     1     170.559 173.631 162.416  1.00  0.00     0.344 HD
ATOM      6  H   UNL     1     170.487 173.877 164.097  1.00  0.00     0.344 HD
ATOM      7  H   UNL     1     171.222 175.048 163.117  1.00  0.00     0.344 HD
ENDBRANCH   3   4
ENDBRANCH   2   3
ENDBRANCH   1   2
BRANCH   1   8
ATOM      8  C   UNL     1     170.818 169.927 163.951  1.00  0.00     0.072 C 
BRANCH   8   9
ATOM      9  C   UNL     1     169.510 170.327 164.667  1.00  0.00     0.227 C 
BRANCH   9  10
ATOM     10  N   UNL     1     169.803 171.120 165.867  1.00  0.00    -0.350 N 
ATOM     11  H   UNL     1     170.779 170.925 166.191  1.00  0.00     0.345 HD
ATOM     12  H   UNL     1     169.145 170.856 166.638  1.00  0.00     0.345 HD
ATOM     13  H   UNL     1     169.706 172.143 165.668  1.00  0.00     0.345 HD
ENDBRANCH   9  10
BRANCH   9  14
ATOM     14  C   UNL     1     168.605 171.106 163.747  1.00  0.00     0.099 C 
ATOM     15  O   UNL     1     167.792 170.503 162.999  1.00  0.00    -0.544 OA
ATOM     16  O   UNL     1     168.660 172.496 163.719  1.00  0.00    -0.544 OA
ENDBRANCH   9  14
ENDBRANCH   8   9
ENDBRANCH   1   8
TORSDOF 7
ENDMDL
MODEL 6
REMARK VINA RESULT:    -3.238      1.734      3.334
REMARK INTER + INTRA:          -4.751
REMARK INTER:                  -4.527
REMARK INTRA:                  -0.224
REMARK UNBOUND:                -0.377
REMARK SMILES [NH3+]CCCC[C@@H]([NH3+])C(=O)[O-]
REMARK SMILES IDX 4 1 3 2 2 3 1 4 5 8 6 9 7 10 8 14 9 15 10 16
REMARK H PARENT 1 5 1 6 1 7 7 11 7 12 7 13
REMARK Flexibility Score: inf
ROOT
ATOM      1  C   UNL     1     168.603 170.359 163.481  1.00  0.00     0.012 C 
ENDROOT
BRANCH   1   2
ATOM      2  C   UNL     1     167.568 171.221 162.737  1.00  0.00     0.061 C 
BRANCH   2   3
ATOM      3  C   UNL     1     167.548 172.705 163.146  1.00  0.00     0.258 C 
BRANCH   3   4
ATOM      4  N   UNL     1     166.190 173.253 163.191  1.00  0.00    -0.358 N 
ATOM      5  H   UNL     1     165.638 172.931 162.365  1.00  0.00     0.344 HD
ATOM      6  H   UNL     1     165.719 172.920 164.062  1.00  0.00     0.344 HD
ATOM      7  H   UNL     1     166.224 174.298 163.216  1.00  0.00     0.344 HD
ENDBRANCH   3   4
ENDBRANCH   2   3
ENDBRANCH   1   2
BRANCH   1   8
ATOM      8  C   UNL     1     169.274 171.106 164.648  1.00  0.00     0.072 C 
BRANCH   8   9
ATOM      9  C   UNL     1     170.780 170.782 164.759  1.00  0.00     0.227 C 
BRANCH   9  10
ATOM     10  N   UNL     1     171.035 169.390 164.371  1.00  0.00    -0.350 N 
ATOM     11  H   UNL     1     172.056 169.255 164.187  1.00  0.00     0.345 HD
ATOM     12  H   UNL     1     170.513 169.165 163.491  1.00  0.00     0.345 HD
ATOM     13  H   UNL     1     170.733 168.734 165.128  1.00  0.00     0.345 HD
ENDBRANCH   9  10
BRANCH   9  14
ATOM     14  C   UNL     1     171.598 171.713 163.901  1.00  0.00     0.099 C 
ATOM     15  O   UNL     1     172.709 171.338 163.443  1.00  0.00    -0.544 OA
ATOM     16  O   UNL     1     171.132 172.990 163.608  1.00  0.00    -0.544 OA
ENDBRANCH   9  14
ENDBRANCH   8   9
ENDBRANCH   1   8
TORSDOF 7
ENDMDL
MODEL 7
REMARK VINA RESULT:    -3.237      2.314      4.148
REMARK INTER + INTRA:          -4.749
REMARK INTER:                  -4.198
REMARK INTRA:                  -0.551
REMARK UNBOUND:                -0.377
REMARK SMILES [NH3+]CCCC[C@@H]([NH3+])C(=O)[O-]
REMARK SMILES IDX 4 1 3 2 2 3 1 4 5 8 6 9 7 10 8 14 9 15 10 16
REMARK H PARENT 1 5 1 6 1 7 7 11 7 12 7 13
REMARK Flexibility Score: inf
ROOT
ATOM      1  C   UNL     1     171.930 172.854 163.037  1.00  0.00     0.012 C 
ENDROOT
BRANCH   1   2
ATOM      2  C   UNL     1     170.945 174.008 162.779  1.00  0.00     0.061 C 
BRANCH   2   3
ATOM      3  C   UNL     1     169.528 173.786 163.340  1.00  0.00     0.258 C 
BRANCH   3   4
ATOM      4  N   UNL     1     169.513 173.710 164.803  1.00  0.00    -0.358 N 
ATOM      5  H   UNL     1     168.531 173.741 165.160  1.00  0.00     0.344 HD
ATOM      6  H   UNL     1     169.951 172.808 165.100  1.00  0.00     0.344 HD
ATOM      7  H   UNL     1     170.070 174.495 165.211  1.00  0.00     0.344 HD
ENDBRANCH   3   4
ENDBRANCH   2   3
ENDBRANCH   1   2
BRANCH   1   8
ATOM      8  C   UNL     1     171.348 171.477 162.665  1.00  0.00     0.072 C 
BRANCH   8   9
ATOM      9  C   UNL     1     171.443 170.470 163.832  1.00  0.00     0.227 C 
BRANCH   9  10
ATOM     10  N   UNL     1     172.126 171.078 164.980  1.00  0.00    -0.350 N 
ATOM     11  H   UNL     1     172.420 172.054 164.742  1.00  0.00     0.345 HD
ATOM     12  H   UNL     1     172.985 170.527 165.215  1.00  0.00     0.345 HD
ATOM     13  H   UNL     1     171.496 171.104 165.815  1.00  0.00     0.345 HD
ENDBRANCH   9  10
BRANCH   9  14
ATOM     14  C   UNL     1     170.076 169.989 164.245  1.00  0.00     0.099 C 
ATOM     15  O   UNL     1     169.631 168.895 163.810  1.00  0.00    -0.544 OA
ATOM     16  O   UNL     1     169.297 170.749 165.111  1.00  0.00    -0.544 OA
ENDBRANCH   9  14
ENDBRANCH   8   9
ENDBRANCH   1   8
TORSDOF 7
ENDMDL
MODEL 8
REMARK VINA RESULT:    -3.133      2.687      3.470
REMARK INTER + INTRA:          -4.608
REMARK INTER:                  -4.014
REMARK INTRA:                  -0.595
REMARK UNBOUND:                -0.377
REMARK SMILES [NH3+]CCCC[C@@H]([NH3+])C(=O)[O-]
REMARK SMILES IDX 4 1 3 2 2 3 1 4 5 8 6 9 7 10 8 14 9 15 10 16
REMARK H PARENT 1 5 1 6 1 7 7 11 7 12 7 13
REMARK Flexibility Score: inf
ROOT
ATOM      1  C   UNL     1     171.872 171.897 162.949  1.00  0.00     0.012 C 
ENDROOT
BRANCH   1   2
ATOM      2  C   UNL     1     171.871 171.076 164.251  1.00  0.00     0.061 C 
BRANCH   2   3
ATOM      3  C   UNL     1     170.543 170.361 164.562  1.00  0.00     0.258 C 
BRANCH   3   4
ATOM      4  N   UNL     1     169.848 170.951 165.708  1.00  0.00    -0.358 N 
ATOM      5  H   UNL     1     170.517 171.128 166.491  1.00  0.00     0.344 HD
ATOM      6  H   UNL     1     169.424 171.861 165.416  1.00  0.00     0.344 HD
ATOM      7  H   UNL     1     169.078 170.320 166.028  1.00  0.00     0.344 HD
ENDBRANCH   3   4
ENDBRANCH   2   3
ENDBRANCH   1   2
BRANCH   1   8
ATOM      8  C   UNL     1     171.359 173.334 163.147  1.00  0.00     0.072 C 
BRANCH   8   9
ATOM      9  C   UNL     1     169.991 173.564 162.468  1.00  0.00     0.227 C 
BRANCH   9  10
ATOM     10  N   UNL     1     169.637 172.415 161.627  1.00  0.00    -0.350 N 
ATOM     11  H   UNL     1     168.599 172.283 161.625  1.00  0.00     0.345 HD
ATOM     12  H   UNL     1     170.075 171.545 162.010  1.00  0.00     0.345 HD
ATOM     13  H   UNL     1     169.965 172.561 160.644  1.00  0.00     0.345 HD
ENDBRANCH   9  10
BRANCH   9  14
ATOM     14  C   UNL     1     168.911 173.801 163.493  1.00  0.00     0.099 C 
ATOM     15  O   UNL     1     169.166 173.689 164.720  1.00  0.00    -0.544 OA
ATOM     16  O   UNL     1     167.626 174.147 163.089  1.00  0.00    -0.544 OA
ENDBRANCH   9  14
ENDBRANCH   8   9
ENDBRANCH   1   8
TORSDOF 7
ENDMDL
MODEL 9
REMARK VINA RESULT:    -3.133      2.372      2.776
REMARK INTER + INTRA:          -4.608
REMARK INTER:                  -4.109
REMARK INTRA:                  -0.499
REMARK UNBOUND:                -0.377
REMARK SMILES [NH3+]CCCC[C@@H]([NH3+])C(=O)[O-]
REMARK SMILES IDX 4 1 3 2 2 3 1 4 5 8 6 9 7 10 8 14 9 15 10 16
REMARK H PARENT 1 5 1 6 1 7 7 11 7 12 7 13
REMARK Flexibility Score: inf
ROOT
ATOM      1  C   UNL     1     168.674 170.435 162.543  1.00  0.00     0.012 C 
ENDROOT
BRANCH   1   2
ATOM      2  C   UNL     1     169.434 169.532 163.531  1.00  0.00     0.061 C 
BRANCH   2   3
ATOM      3  C   UNL     1     170.612 170.212 164.253  1.00  0.00     0.258 C 
BRANCH   3   4
ATOM      4  N   UNL     1     170.213 170.815 165.527  1.00  0.00    -0.358 N 
ATOM      5  H   UNL     1     169.793 171.759 165.369  1.00  0.00     0.344 HD
ATOM      6  H   UNL     1     169.500 170.202 165.984  1.00  0.00     0.344 HD
ATOM      7  H   UNL     1     171.038 170.890 166.165  1.00  0.00     0.344 HD
ENDBRANCH   3   4
ENDBRANCH   2   3
ENDBRANCH   1   2
BRANCH   1   8
ATOM      8  C   UNL     1     167.586 171.284 163.225  1.00  0.00     0.072 C 
BRANCH   8   9
ATOM      9  C   UNL     1     167.675 172.774 162.828  1.00  0.00     0.227 C 
BRANCH   9  10
ATOM     10  N   UNL     1     166.511 173.510 163.336  1.00  0.00    -0.350 N 
ATOM     11  H   UNL     1     166.745 173.953 164.254  1.00  0.00     0.345 HD
ATOM     12  H   UNL     1     165.711 172.851 163.486  1.00  0.00     0.345 HD
ATOM     13  H   UNL     1     166.221 174.255 162.660  1.00  0.00     0.345 HD
ENDBRANCH   9  10
BRANCH   9  14
ATOM     14  C   UNL     1     168.944 173.399 163.348  1.00  0.00     0.099 C 
ATOM     15  O   UNL     1     169.101 173.577 164.584  1.00  0.00    -0.544 OA
ATOM     16  O   UNL     1     169.950 173.782 162.468  1.00  0.00    -0.544 OA
ENDBRANCH   9  14
ENDBRANCH   8   9
ENDBRANCH   1   8
TORSDOF 7
ENDMDL
