MODEL 1
REMARK VINA RESULT:    -3.789      0.000      0.000
REMARK INTER + INTRA:          -7.999
REMARK INTER:                  -5.894
REMARK INTRA:                  -2.105
REMARK UNBOUND:                -2.105
REMARK SMILES COc1cc(CNC(=O)CCCCC=CC(C)C)ccc1O
REMARK SMILES IDX 11 1 12 2 13 3 14 4 15 5 16 6 17 7 18 8 10 9 8 10 9 11 7 12
REMARK SMILES IDX 6 14 5 15 4 16 19 17 3 18 20 19 21 20 2 21 1 22 22 23
REMARK H PARENT 7 13 22 24
REMARK Flexibility Score: inf
ROOT
ATOM      1  C   UNL     1     158.409 174.792 167.140  1.00  0.00     0.010 C 
ENDROOT
BRANCH   1   2
ATOM      2  C   UNL     1     157.788 175.640 168.265  1.00  0.00     0.005 C 
BRANCH   2   3
ATOM      3  C   UNL     1     157.790 174.899 169.608  1.00  0.00     0.027 C 
BRANCH   3   4
ATOM      4  C   UNL     1     159.198 174.699 170.117  1.00  0.00    -0.031 C 
ATOM      5  C   UNL     1     159.808 173.526 170.385  1.00  0.00    -0.028 C 
BRANCH   5   6
ATOM      6  C   UNL     1     159.250 172.121 170.242  1.00  0.00     0.005 C 
ATOM      7  C   UNL     1     159.954 171.095 171.140  1.00  0.00     0.012 C 
ATOM      8  C   UNL     1     159.146 171.661 168.782  1.00  0.00     0.012 C 
ENDBRANCH   5   6
ENDBRANCH   3   4
ENDBRANCH   2   3
ENDBRANCH   1   2
BRANCH   1   9
ATOM      9  C   UNL     1     159.151 175.650 166.108  1.00  0.00     0.100 C 
BRANCH   9  10
ATOM     10  C   UNL     1     160.625 175.365 166.109  1.00  0.00     0.220 C 
ATOM     11  O   UNL     1     161.343 175.814 165.175  1.00  0.00    -0.275 OA
ATOM     12  N   UNL     1     161.202 174.553 167.142  1.00  0.00    -0.352 N 
ATOM     13  H   UNL     1     160.584 174.159 167.885  1.00  0.00     0.163 HD
BRANCH  12  14
ATOM     14  C   UNL     1     162.625 174.219 167.173  1.00  0.00     0.151 C 
BRANCH  14  15
ATOM     15  C   UNL     1     162.941 173.384 168.384  1.00  0.00    -0.025 A 
ATOM     16  C   UNL     1     163.343 174.004 169.578  1.00  0.00     0.056 A 
ATOM     17  C   UNL     1     162.862 171.985 168.325  1.00  0.00     0.009 A 
ATOM     18  C   UNL     1     163.658 173.233 170.715  1.00  0.00     0.160 A 
ATOM     19  C   UNL     1     163.174 171.216 169.448  1.00  0.00     0.050 A 
ATOM     20  C   UNL     1     163.569 171.831 170.640  1.00  0.00     0.157 A 
BRANCH  18  21
ATOM     21  O   UNL     1     164.060 173.823 171.924  1.00  0.00    -0.493 OA
ATOM     22  C   UNL     1     165.406 174.149 172.256  1.00  0.00     0.278 C 
ENDBRANCH  18  21
BRANCH  20  23
ATOM     23  O   UNL     1     163.872 171.029 171.741  1.00  0.00    -0.504 OA
ATOM     24  H   UNL     1     164.199 170.076 171.641  1.00  0.00     0.293 HD
ENDBRANCH  20  23
ENDBRANCH  14  15
ENDBRANCH  12  14
ENDBRANCH   9  10
ENDBRANCH   1   9
TORSDOF 10
ENDMDL
MODEL 2
REMARK VINA RESULT:    -3.755     15.448     17.983
REMARK INTER + INTRA:          -7.946
REMARK INTER:                  -5.867
REMARK INTRA:                  -2.078
REMARK UNBOUND:                -2.105
REMARK SMILES COc1cc(CNC(=O)CCCCC=CC(C)C)ccc1O
REMARK SMILES IDX 11 1 12 2 13 3 14 4 15 5 16 6 17 7 18 8 10 9 8 10 9 11 7 12
REMARK SMILES IDX 6 14 5 15 4 16 19 17 3 18 20 19 21 20 2 21 1 22 22 23
REMARK H PARENT 7 13 22 24
REMARK Flexibility Score: inf
ROOT
ATOM      1  C   UNL     1     170.714 155.949 167.641  1.00  0.00     0.010 C 
ENDROOT
BRANCH   1   2
ATOM      2  C   UNL     1     172.033 156.488 167.058  1.00  0.00     0.005 C 
BRANCH   2   3
ATOM      3  C   UNL     1     172.845 157.268 168.100  1.00  0.00     0.027 C 
BRANCH   3   4
ATOM      4  C   UNL     1     172.310 158.671 168.266  1.00  0.00    -0.031 C 
ATOM      5  C   UNL     1     171.873 159.246 169.406  1.00  0.00    -0.028 C 
BRANCH   5   6
ATOM      6  C   UNL     1     171.808 158.644 170.799  1.00  0.00     0.005 C 
ATOM      7  C   UNL     1     170.697 157.599 170.956  1.00  0.00     0.012 C 
ATOM      8  C   UNL     1     171.790 159.703 171.909  1.00  0.00     0.012 C 
ENDBRANCH   5   6
ENDBRANCH   3   4
ENDBRANCH   2   3
ENDBRANCH   1   2
BRANCH   1   9
ATOM      9  C   UNL     1     169.582 155.943 166.607  1.00  0.00     0.100 C 
BRANCH   9  10
ATOM     10  C   UNL     1     168.548 156.987 166.912  1.00  0.00     0.220 C 
ATOM     11  O   UNL     1     167.419 156.922 166.354  1.00  0.00    -0.275 OA
ATOM     12  N   UNL     1     168.857 158.072 167.798  1.00  0.00    -0.352 N 
ATOM     13  H   UNL     1     169.811 158.129 168.221  1.00  0.00     0.163 HD
BRANCH  12  14
ATOM     14  C   UNL     1     167.898 159.131 168.105  1.00  0.00     0.151 C 
BRANCH  14  15
ATOM     15  C   UNL     1     167.758 159.295 169.594  1.00  0.00    -0.025 A 
ATOM     16  C   UNL     1     167.071 158.327 170.345  1.00  0.00     0.056 A 
ATOM     17  C   UNL     1     168.286 160.422 170.241  1.00  0.00     0.009 A 
ATOM     18  C   UNL     1     166.917 158.477 171.738  1.00  0.00     0.160 A 
ATOM     19  C   UNL     1     168.137 160.576 171.620  1.00  0.00     0.050 A 
ATOM     20  C   UNL     1     167.457 159.611 172.371  1.00  0.00     0.157 A 
BRANCH  18  21
ATOM     21  O   UNL     1     166.239 157.525 172.517  1.00  0.00    -0.493 OA
ATOM     22  C   UNL     1     164.821 157.403 172.590  1.00  0.00     0.278 C 
ENDBRANCH  18  21
BRANCH  20  23
ATOM     23  O   UNL     1     167.329 159.799 173.747  1.00  0.00    -0.504 OA
ATOM     24  H   UNL     1     167.337 159.025 174.401  1.00  0.00     0.293 HD
ENDBRANCH  20  23
ENDBRANCH  14  15
ENDBRANCH  12  14
ENDBRANCH   9  10
ENDBRANCH   1   9
TORSDOF 10
ENDMDL
MODEL 3
REMARK VINA RESULT:    -3.729      1.236      1.879
REMARK INTER + INTRA:          -7.906
REMARK INTER:                  -5.850
REMARK INTRA:                  -2.056
REMARK UNBOUND:                -2.105
REMARK SMILES COc1cc(CNC(=O)CCCCC=CC(C)C)ccc1O
REMARK SMILES IDX 11 1 12 2 13 3 14 4 15 5 16 6 17 7 18 8 10 9 8 10 9 11 7 12
REMARK SMILES IDX 6 14 5 15 4 16 19 17 3 18 20 19 21 20 2 21 1 22 22 23
REMARK H PARENT 7 13 22 24
REMARK Flexibility Score: inf
ROOT
ATOM      1  C   UNL     1     160.155 175.436 167.656  1.00  0.00     0.010 C 
ENDROOT
BRANCH   1   2
ATOM      2  C   UNL     1     158.894 174.742 167.110  1.00  0.00     0.005 C 
BRANCH   2   3
ATOM      3  C   UNL     1     158.212 173.874 168.174  1.00  0.00     0.027 C 
BRANCH   3   4
ATOM      4  C   UNL     1     158.847 172.506 168.250  1.00  0.00    -0.031 C 
ATOM      5  C   UNL     1     159.357 171.904 169.345  1.00  0.00    -0.028 C 
BRANCH   5   6
ATOM      6  C   UNL     1     159.420 172.434 170.767  1.00  0.00     0.005 C 
ATOM      7  C   UNL     1     160.415 173.588 170.940  1.00  0.00     0.012 C 
ATOM      8  C   UNL     1     159.606 171.326 171.812  1.00  0.00     0.012 C 
ENDBRANCH   5   6
ENDBRANCH   3   4
ENDBRANCH   2   3
ENDBRANCH   1   2
BRANCH   1   9
ATOM      9  C   UNL     1     161.237 175.603 166.582  1.00  0.00     0.100 C 
BRANCH   9  10
ATOM     10  C   UNL     1     162.333 174.589 166.738  1.00  0.00     0.220 C 
ATOM     11  O   UNL     1     163.365 174.677 166.018  1.00  0.00    -0.275 OA
ATOM     12  N   UNL     1     162.188 173.507 167.668  1.00  0.00    -0.352 N 
ATOM     13  H   UNL     1     161.310 173.430 168.228  1.00  0.00     0.163 HD
BRANCH  12  14
ATOM     14  C   UNL     1     163.211 172.477 167.837  1.00  0.00     0.151 C 
BRANCH  14  15
ATOM     15  C   UNL     1     163.374 172.134 169.293  1.00  0.00    -0.025 A 
ATOM     16  C   UNL     1     163.974 173.053 170.168  1.00  0.00     0.056 A 
ATOM     17  C   UNL     1     162.953 170.890 169.784  1.00  0.00     0.009 A 
ATOM     18  C   UNL     1     164.148 172.739 171.531  1.00  0.00     0.160 A 
ATOM     19  C   UNL     1     163.122 170.571 171.133  1.00  0.00     0.050 A 
ATOM     20  C   UNL     1     163.715 171.487 172.007  1.00  0.00     0.157 A 
BRANCH  18  21
ATOM     21  O   UNL     1     164.741 173.638 172.431  1.00  0.00    -0.493 OA
ATOM     22  C   UNL     1     166.086 174.101 172.342  1.00  0.00     0.278 C 
ENDBRANCH  18  21
BRANCH  20  23
ATOM     23  O   UNL     1     163.868 171.135 173.348  1.00  0.00    -0.504 OA
ATOM     24  H   UNL     1     164.097 170.190 173.635  1.00  0.00     0.293 HD
ENDBRANCH  20  23
ENDBRANCH  14  15
ENDBRANCH  12  14
ENDBRANCH   9  10
ENDBRANCH   1   9
TORSDOF 10
ENDMDL
MODEL 4
REMARK VINA RESULT:    -3.706      1.981      3.556
REMARK INTER + INTRA:          -7.870
REMARK INTER:                  -5.857
REMARK INTRA:                  -2.013
REMARK UNBOUND:                -2.105
REMARK SMILES COc1cc(CNC(=O)CCCCC=CC(C)C)ccc1O
REMARK SMILES IDX 11 1 12 2 13 3 14 4 15 5 16 6 17 7 18 8 10 9 8 10 9 11 7 12
REMARK SMILES IDX 6 14 5 15 4 16 19 17 3 18 20 19 21 20 2 21 1 22 22 23
REMARK H PARENT 7 13 22 24
REMARK Flexibility Score: inf
ROOT
ATOM      1  C   UNL     1     158.317 174.963 168.369  1.00  0.00     0.010 C 
ENDROOT
BRANCH   1   2
ATOM      2  C   UNL     1     158.709 176.037 167.339  1.00  0.00     0.005 C 
BRANCH   2   3
ATOM      3  C   UNL     1     159.282 175.420 166.057  1.00  0.00     0.027 C 
BRANCH   3   4
ATOM      4  C   UNL     1     160.655 175.971 165.754  1.00  0.00    -0.031 C 
ATOM      5  C   UNL     1     161.830 175.568 166.283  1.00  0.00    -0.028 C 
BRANCH   5   6
ATOM      6  C   UNL     1     162.075 174.469 167.302  1.00  0.00     0.005 C 
ATOM      7  C   UNL     1     162.028 174.966 168.752  1.00  0.00     0.012 C 
ATOM      8  C   UNL     1     163.329 173.639 166.997  1.00  0.00     0.012 C 
ENDBRANCH   5   6
ENDBRANCH   3   4
ENDBRANCH   2   3
ENDBRANCH   1   2
BRANCH   1   9
ATOM      9  C   UNL     1     158.234 173.564 167.747  1.00  0.00     0.100 C 
BRANCH   9  10
ATOM     10  C   UNL     1     158.755 172.511 168.681  1.00  0.00     0.220 C 
ATOM     11  O   UNL     1     158.589 171.294 168.395  1.00  0.00    -0.275 OA
ATOM     12  N   UNL     1     159.398 172.887 169.907  1.00  0.00    -0.352 N 
ATOM     13  H   UNL     1     159.491 173.900 170.143  1.00  0.00     0.163 HD
BRANCH  12  14
ATOM     14  C   UNL     1     159.896 171.903 170.865  1.00  0.00     0.151 C 
BRANCH  14  15
ATOM     15  C   UNL     1     161.400 171.914 170.894  1.00  0.00    -0.025 A 
ATOM     16  C   UNL     1     162.077 172.471 171.991  1.00  0.00     0.056 A 
ATOM     17  C   UNL     1     162.138 171.394 169.821  1.00  0.00     0.009 A 
ATOM     18  C   UNL     1     163.485 172.504 172.024  1.00  0.00     0.160 A 
ATOM     19  C   UNL     1     163.533 171.424 169.847  1.00  0.00     0.050 A 
ATOM     20  C   UNL     1     164.210 171.974 170.941  1.00  0.00     0.157 A 
BRANCH  18  21
ATOM     21  O   UNL     1     164.190 173.051 173.108  1.00  0.00    -0.493 OA
ATOM     22  C   UNL     1     164.459 174.439 173.279  1.00  0.00     0.278 C 
ENDBRANCH  18  21
BRANCH  20  23
ATOM     23  O   UNL     1     165.604 171.985 170.932  1.00  0.00    -0.504 OA
ATOM     24  H   UNL     1     166.146 172.321 171.720  1.00  0.00     0.293 HD
ENDBRANCH  20  23
ENDBRANCH  14  15
ENDBRANCH  12  14
ENDBRANCH   9  10
ENDBRANCH   1   9
TORSDOF 10
ENDMDL
MODEL 5
REMARK VINA RESULT:    -3.682      9.134     11.152
REMARK INTER + INTRA:          -7.832
REMARK INTER:                  -7.046
REMARK INTRA:                  -0.786
REMARK UNBOUND:                -2.105
REMARK SMILES COc1cc(CNC(=O)CCCCC=CC(C)C)ccc1O
REMARK SMILES IDX 11 1 12 2 13 3 14 4 15 5 16 6 17 7 18 8 10 9 8 10 9 11 7 12
REMARK SMILES IDX 6 14 5 15 4 16 19 17 3 18 20 19 21 20 2 21 1 22 22 23
REMARK H PARENT 7 13 22 24
REMARK Flexibility Score: inf
ROOT
ATOM      1  C   UNL     1     166.729 165.201 168.765  1.00  0.00     0.010 C 
ENDROOT
BRANCH   1   2
ATOM      2  C   UNL     1     165.280 165.683 168.572  1.00  0.00     0.005 C 
BRANCH   2   3
ATOM      3  C   UNL     1     164.566 165.904 169.911  1.00  0.00     0.027 C 
BRANCH   3   4
ATOM      4  C   UNL     1     164.088 164.596 170.495  1.00  0.00    -0.031 C 
ATOM      5  C   UNL     1     162.843 164.078 170.422  1.00  0.00    -0.028 C 
BRANCH   5   6
ATOM      6  C   UNL     1     161.619 164.663 169.741  1.00  0.00     0.005 C 
ATOM      7  C   UNL     1     160.328 164.471 170.547  1.00  0.00     0.012 C 
ATOM      8  C   UNL     1     161.478 164.223 168.278  1.00  0.00     0.012 C 
ENDBRANCH   5   6
ENDBRANCH   3   4
ENDBRANCH   2   3
ENDBRANCH   1   2
BRANCH   1   9
ATOM      9  C   UNL     1     167.463 165.989 169.856  1.00  0.00     0.100 C 
BRANCH   9  10
ATOM     10  C   UNL     1     168.592 166.800 169.288  1.00  0.00     0.220 C 
ATOM     11  O   UNL     1     168.994 166.566 168.117  1.00  0.00    -0.275 OA
ATOM     12  N   UNL     1     169.233 167.804 170.089  1.00  0.00    -0.352 N 
ATOM     13  H   UNL     1     168.909 167.956 171.070  1.00  0.00     0.163 HD
BRANCH  12  14
ATOM     14  C   UNL     1     170.355 168.600 169.596  1.00  0.00     0.151 C 
BRANCH  14  15
ATOM     15  C   UNL     1     171.660 167.990 170.028  1.00  0.00    -0.025 A 
ATOM     16  C   UNL     1     172.864 168.425 169.451  1.00  0.00     0.056 A 
ATOM     17  C   UNL     1     171.686 166.969 170.989  1.00  0.00     0.009 A 
ATOM     18  C   UNL     1     174.092 167.850 169.834  1.00  0.00     0.160 A 
ATOM     19  C   UNL     1     172.900 166.395 171.373  1.00  0.00     0.050 A 
ATOM     20  C   UNL     1     174.100 166.830 170.803  1.00  0.00     0.157 A 
BRANCH  18  21
ATOM     21  O   UNL     1     175.312 168.266 169.277  1.00  0.00    -0.493 OA
ATOM     22  C   UNL     1     175.509 168.574 167.900  1.00  0.00     0.278 C 
ENDBRANCH  18  21
BRANCH  20  23
ATOM     23  O   UNL     1     175.293 166.234 171.212  1.00  0.00    -0.504 OA
ATOM     24  H   UNL     1     175.456 165.955 172.172  1.00  0.00     0.293 HD
ENDBRANCH  20  23
ENDBRANCH  14  15
ENDBRANCH  12  14
ENDBRANCH   9  10
ENDBRANCH   1   9
TORSDOF 10
ENDMDL
MODEL 6
REMARK VINA RESULT:    -3.672     10.873     13.747
REMARK INTER + INTRA:          -7.817
REMARK INTER:                  -6.656
REMARK INTRA:                  -1.161
REMARK UNBOUND:                -2.105
REMARK SMILES COc1cc(CNC(=O)CCCCC=CC(C)C)ccc1O
REMARK SMILES IDX 11 1 12 2 13 3 14 4 15 5 16 6 17 7 18 8 10 9 8 10 9 11 7 12
REMARK SMILES IDX 6 14 5 15 4 16 19 17 3 18 20 19 21 20 2 21 1 22 22 23
REMARK H PARENT 7 13 22 24
REMARK Flexibility Score: inf
ROOT
ATOM      1  C   UNL     1     167.921 165.901 171.352  1.00  0.00     0.010 C 
ENDROOT
BRANCH   1   2
ATOM      2  C   UNL     1     167.392 166.426 170.005  1.00  0.00     0.005 C 
BRANCH   2   3
ATOM      3  C   UNL     1     166.870 165.293 169.112  1.00  0.00     0.027 C 
BRANCH   3   4
ATOM      4  C   UNL     1     165.649 165.729 168.338  1.00  0.00    -0.031 C 
ATOM      5  C   UNL     1     164.363 165.666 168.742  1.00  0.00    -0.028 C 
BRANCH   5   6
ATOM      6  C   UNL     1     163.816 165.153 170.063  1.00  0.00     0.005 C 
ATOM      7  C   UNL     1     162.565 164.281 169.902  1.00  0.00     0.012 C 
ATOM      8  C   UNL     1     163.638 166.261 171.110  1.00  0.00     0.012 C 
ENDBRANCH   5   6
ENDBRANCH   3   4
ENDBRANCH   2   3
ENDBRANCH   1   2
BRANCH   1   9
ATOM      9  C   UNL     1     167.114 164.702 171.864  1.00  0.00     0.100 C 
BRANCH   9  10
ATOM     10  C   UNL     1     168.009 163.616 172.387  1.00  0.00     0.220 C 
ATOM     11  O   UNL     1     169.015 163.924 173.082  1.00  0.00    -0.275 OA
ATOM     12  N   UNL     1     167.743 162.244 172.063  1.00  0.00    -0.352 N 
ATOM     13  H   UNL     1     166.926 162.013 171.455  1.00  0.00     0.163 HD
BRANCH  12  14
ATOM     14  C   UNL     1     168.599 161.152 172.521  1.00  0.00     0.151 C 
BRANCH  14  15
ATOM     15  C   UNL     1     169.289 160.502 171.352  1.00  0.00    -0.025 A 
ATOM     16  C   UNL     1     168.530 159.970 170.297  1.00  0.00     0.056 A 
ATOM     17  C   UNL     1     170.686 160.398 171.317  1.00  0.00     0.009 A 
ATOM     18  C   UNL     1     169.162 159.343 169.204  1.00  0.00     0.160 A 
ATOM     19  C   UNL     1     171.319 159.778 170.238  1.00  0.00     0.050 A 
ATOM     20  C   UNL     1     170.566 159.252 169.183  1.00  0.00     0.157 A 
BRANCH  18  21
ATOM     21  O   UNL     1     168.432 158.806 168.132  1.00  0.00    -0.493 OA
ATOM     22  C   UNL     1     168.088 157.430 167.999  1.00  0.00     0.278 C 
ENDBRANCH  18  21
BRANCH  20  23
ATOM     23  O   UNL     1     171.233 158.641 168.121  1.00  0.00    -0.504 OA
ATOM     24  H   UNL     1     171.944 157.933 168.266  1.00  0.00     0.293 HD
ENDBRANCH  20  23
ENDBRANCH  14  15
ENDBRANCH  12  14
ENDBRANCH   9  10
ENDBRANCH   1   9
TORSDOF 10
ENDMDL
MODEL 7
REMARK VINA RESULT:    -3.635     14.481     17.616
REMARK INTER + INTRA:          -7.759
REMARK INTER:                  -5.729
REMARK INTRA:                  -2.029
REMARK UNBOUND:                -2.105
REMARK SMILES COc1cc(CNC(=O)CCCCC=CC(C)C)ccc1O
REMARK SMILES IDX 11 1 12 2 13 3 14 4 15 5 16 6 17 7 18 8 10 9 8 10 9 11 7 12
REMARK SMILES IDX 6 14 5 15 4 16 19 17 3 18 20 19 21 20 2 21 1 22 22 23
REMARK H PARENT 7 13 22 24
REMARK Flexibility Score: inf
ROOT
ATOM      1  C   UNL     1     170.705 155.993 167.629  1.00  0.00     0.010 C 
ENDROOT
BRANCH   1   2
ATOM      2  C   UNL     1     171.996 156.563 167.017  1.00  0.00     0.005 C 
BRANCH   2   3
ATOM      3  C   UNL     1     172.834 157.324 168.052  1.00  0.00     0.027 C 
BRANCH   3   4
ATOM      4  C   UNL     1     172.304 158.722 168.260  1.00  0.00    -0.031 C 
ATOM      5  C   UNL     1     171.890 159.272 169.421  1.00  0.00    -0.028 C 
BRANCH   5   6
ATOM      6  C   UNL     1     171.853 158.641 170.801  1.00  0.00     0.005 C 
ATOM      7  C   UNL     1     170.730 157.609 170.966  1.00  0.00     0.012 C 
ATOM      8  C   UNL     1     171.882 159.675 171.935  1.00  0.00     0.012 C 
ENDBRANCH   5   6
ENDBRANCH   3   4
ENDBRANCH   2   3
ENDBRANCH   1   2
BRANCH   1   9
ATOM      9  C   UNL     1     169.548 155.964 166.623  1.00  0.00     0.100 C 
BRANCH   9  10
ATOM     10  C   UNL     1     168.519 157.012 166.934  1.00  0.00     0.220 C 
ATOM     11  O   UNL     1     167.395 156.963 166.364  1.00  0.00    -0.275 OA
ATOM     12  N   UNL     1     168.828 158.082 167.838  1.00  0.00    -0.352 N 
ATOM     13  H   UNL     1     169.778 158.125 168.270  1.00  0.00     0.163 HD
BRANCH  12  14
ATOM     14  C   UNL     1     167.874 159.144 168.151  1.00  0.00     0.151 C 
BRANCH  14  15
ATOM     15  C   UNL     1     167.784 159.345 169.640  1.00  0.00    -0.025 A 
ATOM     16  C   UNL     1     168.367 160.477 170.231  1.00  0.00     0.056 A 
ATOM     17  C   UNL     1     167.142 158.398 170.450  1.00  0.00     0.009 A 
ATOM     18  C   UNL     1     168.305 160.670 171.626  1.00  0.00     0.160 A 
ATOM     19  C   UNL     1     167.077 158.583 171.832  1.00  0.00     0.050 A 
ATOM     20  C   UNL     1     167.653 159.712 172.423  1.00  0.00     0.157 A 
BRANCH  18  21
ATOM     21  O   UNL     1     168.875 161.793 172.246  1.00  0.00    -0.493 OA
ATOM     22  C   UNL     1     168.247 163.068 172.346  1.00  0.00     0.278 C 
ENDBRANCH  18  21
BRANCH  20  23
ATOM     23  O   UNL     1     167.568 159.863 173.807  1.00  0.00    -0.504 OA
ATOM     24  H   UNL     1     166.683 159.995 174.282  1.00  0.00     0.293 HD
ENDBRANCH  20  23
ENDBRANCH  14  15
ENDBRANCH  12  14
ENDBRANCH   9  10
ENDBRANCH   1   9
TORSDOF 10
ENDMDL
MODEL 8
REMARK VINA RESULT:    -3.634      1.250      2.119
REMARK INTER + INTRA:          -7.758
REMARK INTER:                  -5.950
REMARK INTRA:                  -1.808
REMARK UNBOUND:                -2.105
REMARK SMILES COc1cc(CNC(=O)CCCCC=CC(C)C)ccc1O
REMARK SMILES IDX 11 1 12 2 13 3 14 4 15 5 16 6 17 7 18 8 10 9 8 10 9 11 7 12
REMARK SMILES IDX 6 14 5 15 4 16 19 17 3 18 20 19 21 20 2 21 1 22 22 23
REMARK H PARENT 7 13 22 24
REMARK Flexibility Score: inf
ROOT
ATOM      1  C   UNL     1     159.394 176.104 166.954  1.00  0.00     0.010 C 
ENDROOT
BRANCH   1   2
ATOM      2  C   UNL     1     158.213 175.121 167.053  1.00  0.00     0.005 C 
BRANCH   2   3
ATOM      3  C   UNL     1     158.282 174.267 168.325  1.00  0.00     0.027 C 
BRANCH   3   4
ATOM      4  C   UNL     1     158.540 172.816 167.993  1.00  0.00    -0.031 C 
ATOM      5  C   UNL     1     158.947 171.847 168.840  1.00  0.00    -0.028 C 
BRANCH   5   6
ATOM      6  C   UNL     1     159.242 171.957 170.325  1.00  0.00     0.005 C 
ATOM      7  C   UNL     1     160.213 170.884 170.831  1.00  0.00     0.012 C 
ATOM      8  C   UNL     1     157.973 172.064 171.182  1.00  0.00     0.012 C 
ENDBRANCH   5   6
ENDBRANCH   3   4
ENDBRANCH   2   3
ENDBRANCH   1   2
BRANCH   1   9
ATOM      9  C   UNL     1     160.286 175.820 165.740  1.00  0.00     0.100 C 
BRANCH   9  10
ATOM     10  C   UNL     1     161.624 175.276 166.151  1.00  0.00     0.220 C 
ATOM     11  O   UNL     1     162.667 175.716 165.596  1.00  0.00    -0.275 OA
ATOM     12  N   UNL     1     161.709 174.235 167.134  1.00  0.00    -0.352 N 
ATOM     13  H   UNL     1     160.830 173.858 167.554  1.00  0.00     0.163 HD
BRANCH  12  14
ATOM     14  C   UNL     1     162.982 173.650 167.547  1.00  0.00     0.151 C 
BRANCH  14  15
ATOM     15  C   UNL     1     162.993 173.415 169.033  1.00  0.00    -0.025 A 
ATOM     16  C   UNL     1     163.693 172.320 169.566  1.00  0.00     0.056 A 
ATOM     17  C   UNL     1     162.289 174.268 169.895  1.00  0.00     0.009 A 
ATOM     18  C   UNL     1     163.698 172.078 170.954  1.00  0.00     0.160 A 
ATOM     19  C   UNL     1     162.290 174.034 171.271  1.00  0.00     0.050 A 
ATOM     20  C   UNL     1     162.990 172.947 171.805  1.00  0.00     0.157 A 
BRANCH  18  21
ATOM     21  O   UNL     1     164.391 170.994 171.516  1.00  0.00    -0.493 OA
ATOM     22  C   UNL     1     163.842 169.692 171.697  1.00  0.00     0.278 C 
ENDBRANCH  18  21
BRANCH  20  23
ATOM     23  O   UNL     1     162.968 172.745 173.185  1.00  0.00    -0.504 OA
ATOM     24  H   UNL     1     162.781 171.837 173.595  1.00  0.00     0.293 HD
ENDBRANCH  20  23
ENDBRANCH  14  15
ENDBRANCH  12  14
ENDBRANCH   9  10
ENDBRANCH   1   9
TORSDOF 10
ENDMDL
MODEL 9
REMARK VINA RESULT:    -3.575      1.600      2.260
REMARK INTER + INTRA:          -7.666
REMARK INTER:                  -5.287
REMARK INTRA:                  -2.379
REMARK UNBOUND:                -2.105
REMARK SMILES COc1cc(CNC(=O)CCCCC=CC(C)C)ccc1O
REMARK SMILES IDX 11 1 12 2 13 3 14 4 15 5 16 6 17 7 18 8 10 9 8 10 9 11 7 12
REMARK SMILES IDX 6 14 5 15 4 16 19 17 3 18 20 19 21 20 2 21 1 22 22 23
REMARK H PARENT 7 13 22 24
REMARK Flexibility Score: inf
ROOT
ATOM      1  C   UNL     1     158.283 173.356 168.223  1.00  0.00     0.010 C 
ENDROOT
BRANCH   1   2
ATOM      2  C   UNL     1     158.962 171.995 168.455  1.00  0.00     0.005 C 
BRANCH   2   3
ATOM      3  C   UNL     1     158.949 171.592 169.935  1.00  0.00     0.027 C 
BRANCH   3   4
ATOM      4  C   UNL     1     158.494 172.738 170.807  1.00  0.00    -0.031 C 
ATOM      5  C   UNL     1     159.226 173.405 171.723  1.00  0.00    -0.028 C 
BRANCH   5   6
ATOM      6  C   UNL     1     160.679 173.186 172.107  1.00  0.00     0.005 C 
ATOM      7  C   UNL     1     160.866 172.099 173.173  1.00  0.00     0.012 C 
ATOM      8  C   UNL     1     161.412 174.489 172.451  1.00  0.00     0.012 C 
ENDBRANCH   5   6
ENDBRANCH   3   4
ENDBRANCH   2   3
ENDBRANCH   1   2
BRANCH   1   9
ATOM      9  C   UNL     1     159.164 174.315 167.414  1.00  0.00     0.100 C 
BRANCH   9  10
ATOM     10  C   UNL     1     160.517 174.486 168.043  1.00  0.00     0.220 C 
ATOM     11  O   UNL     1     160.646 175.253 169.036  1.00  0.00    -0.275 OA
ATOM     12  N   UNL     1     161.659 173.816 167.491  1.00  0.00    -0.352 N 
ATOM     13  H   UNL     1     161.538 173.216 166.645  1.00  0.00     0.163 HD
BRANCH  12  14
ATOM     14  C   UNL     1     163.003 173.973 168.044  1.00  0.00     0.151 C 
BRANCH  14  15
ATOM     15  C   UNL     1     163.235 172.972 169.144  1.00  0.00    -0.025 A 
ATOM     16  C   UNL     1     164.043 173.311 170.242  1.00  0.00     0.056 A 
ATOM     17  C   UNL     1     162.673 171.690 169.072  1.00  0.00     0.009 A 
ATOM     18  C   UNL     1     164.283 172.378 171.271  1.00  0.00     0.160 A 
ATOM     19  C   UNL     1     162.907 170.761 170.087  1.00  0.00     0.050 A 
ATOM     20  C   UNL     1     163.707 171.097 171.184  1.00  0.00     0.157 A 
BRANCH  18  21
ATOM     21  O   UNL     1     165.083 172.688 172.382  1.00  0.00    -0.493 OA
ATOM     22  C   UNL     1     166.148 173.634 172.372  1.00  0.00     0.278 C 
ENDBRANCH  18  21
BRANCH  20  23
ATOM     23  O   UNL     1     163.918 170.144 172.180  1.00  0.00    -0.504 OA
ATOM     24  H   UNL     1     163.161 169.595 172.571  1.00  0.00     0.293 HD
ENDBRANCH  20  23
ENDBRANCH  14  15
ENDBRANCH  12  14
ENDBRANCH   9  10
ENDBRANCH   1   9
TORSDOF 10
ENDMDL
