MODEL 1
REMARK VINA RESULT:    -4.509      0.000      0.000
REMARK INTER + INTRA:          -5.090
REMARK INTER:                  -4.904
REMARK INTRA:                  -0.186
REMARK UNBOUND:                -0.186
REMARK SMILES Cc1ccc(C(C)C)c(O)c1
REMARK SMILES IDX 1 1 2 2 11 3 9 4 5 5 4 6 3 7 10 8 6 10 7 11 8 12
REMARK H PARENT 10 9
REMARK Flexibility Score: inf
ROOT
ATOM      1  C   UNL     1       7.421 -21.096  23.445  1.00  0.00     0.044 C 
ATOM      2  C   UNL     1       8.112 -19.818  23.072  1.00  0.00    -0.047 A 
ATOM      3  C   UNL     1       8.164 -19.407  21.736  1.00  0.00     0.049 A 
ATOM      4  C   UNL     1       8.837 -18.236  21.363  1.00  0.00     0.119 A 
ATOM      5  C   UNL     1       9.491 -17.449  22.356  1.00  0.00    -0.004 A 
ATOM      6  C   UNL     1       9.444 -17.894  23.695  1.00  0.00     0.008 A 
ATOM      7  C   UNL     1       8.771 -19.063  24.046  1.00  0.00     0.004 A 
ENDROOT
BRANCH   4   8
ATOM      8  O   UNL     1       8.819 -17.915  20.005  1.00  0.00    -0.508 OA
ATOM      9  H   UNL     1       8.290 -17.165  19.595  1.00  0.00     0.293 HD
ENDBRANCH   4   8
BRANCH   5  10
ATOM     10  C   UNL     1      10.250 -16.152  22.076  1.00  0.00     0.017 C 
ATOM     11  C   UNL     1       9.351 -14.909  22.128  1.00  0.00     0.012 C 
ATOM     12  C   UNL     1      11.523 -16.008  22.923  1.00  0.00     0.012 C 
ENDBRANCH   5  10
TORSDOF 2
ENDMDL
MODEL 2
REMARK VINA RESULT:    -4.424      0.999      4.067
REMARK INTER + INTRA:          -4.998
REMARK INTER:                  -4.841
REMARK INTRA:                  -0.156
REMARK UNBOUND:                -0.186
REMARK SMILES Cc1ccc(C(C)C)c(O)c1
REMARK SMILES IDX 1 1 2 2 11 3 9 4 5 5 4 6 3 7 10 8 6 10 7 11 8 12
REMARK H PARENT 10 9
REMARK Flexibility Score: inf
ROOT
ATOM      1  C   UNL     1      11.221 -15.865  23.191  1.00  0.00     0.044 C 
ATOM      2  C   UNL     1      10.202 -16.909  22.845  1.00  0.00    -0.047 A 
ATOM      3  C   UNL     1       9.796 -17.088  21.518  1.00  0.00     0.049 A 
ATOM      4  C   UNL     1       8.818 -18.033  21.180  1.00  0.00     0.119 A 
ATOM      5  C   UNL     1       8.213 -18.822  22.202  1.00  0.00    -0.004 A 
ATOM      6  C   UNL     1       8.622 -18.609  23.536  1.00  0.00     0.008 A 
ATOM      7  C   UNL     1       9.596 -17.663  23.853  1.00  0.00     0.004 A 
ENDROOT
BRANCH   4   8
ATOM      8  O   UNL     1       8.494 -18.135  19.826  1.00  0.00    -0.508 OA
ATOM      9  H   UNL     1       8.166 -18.969  19.372  1.00  0.00     0.293 HD
ENDBRANCH   4   8
BRANCH   5  10
ATOM     10  C   UNL     1       7.143 -19.886  21.960  1.00  0.00     0.017 C 
ATOM     11  C   UNL     1       7.042 -20.904  23.104  1.00  0.00     0.012 C 
ATOM     12  C   UNL     1       5.784 -19.290  21.564  1.00  0.00     0.012 C 
ENDBRANCH   5  10
TORSDOF 2
ENDMDL
MODEL 3
REMARK VINA RESULT:    -4.373      9.277     11.027
REMARK INTER + INTRA:          -4.943
REMARK INTER:                  -4.761
REMARK INTRA:                  -0.182
REMARK UNBOUND:                -0.186
REMARK SMILES Cc1ccc(C(C)C)c(O)c1
REMARK SMILES IDX 1 1 2 2 11 3 9 4 5 5 4 6 3 7 10 8 6 10 7 11 8 12
REMARK H PARENT 10 9
REMARK Flexibility Score: inf
ROOT
ATOM      1  C   UNL     1       6.317 -23.511  16.881  1.00  0.00     0.044 C 
ATOM      2  C   UNL     1       7.334 -24.392  16.217  1.00  0.00    -0.047 A 
ATOM      3  C   UNL     1       8.359 -24.976  16.969  1.00  0.00     0.049 A 
ATOM      4  C   UNL     1       9.340 -25.771  16.361  1.00  0.00     0.119 A 
ATOM      5  C   UNL     1       9.305 -25.985  14.951  1.00  0.00    -0.004 A 
ATOM      6  C   UNL     1       8.274 -25.367  14.211  1.00  0.00     0.008 A 
ATOM      7  C   UNL     1       7.308 -24.578  14.834  1.00  0.00     0.004 A 
ENDROOT
BRANCH   4   8
ATOM      8  O   UNL     1      10.312 -26.312  17.204  1.00  0.00    -0.508 OA
ATOM      9  H   UNL     1      10.352 -26.178  18.199  1.00  0.00     0.293 HD
ENDBRANCH   4   8
BRANCH   5  10
ATOM     10  C   UNL     1      10.312 -26.834  14.176  1.00  0.00     0.017 C 
ATOM     11  C   UNL     1       9.644 -27.782  13.169  1.00  0.00     0.012 C 
ATOM     12  C   UNL     1      11.447 -26.004  13.558  1.00  0.00     0.012 C 
ENDBRANCH   5  10
TORSDOF 2
ENDMDL
MODEL 4
REMARK VINA RESULT:    -4.372      9.598     11.181
REMARK INTER + INTRA:          -4.941
REMARK INTER:                  -4.755
REMARK INTRA:                  -0.187
REMARK UNBOUND:                -0.186
REMARK SMILES Cc1ccc(C(C)C)c(O)c1
REMARK SMILES IDX 1 1 2 2 11 3 9 4 5 5 4 6 3 7 10 8 6 10 7 11 8 12
REMARK H PARENT 10 9
REMARK Flexibility Score: inf
ROOT
ATOM      1  C   UNL     1      10.984 -26.387  13.780  1.00  0.00     0.044 C 
ATOM      2  C   UNL     1       9.667 -26.184  14.471  1.00  0.00    -0.047 A 
ATOM      3  C   UNL     1       8.678 -25.388  13.885  1.00  0.00     0.049 A 
ATOM      4  C   UNL     1       7.457 -25.156  14.532  1.00  0.00     0.119 A 
ATOM      5  C   UNL     1       7.215 -25.730  15.814  1.00  0.00    -0.004 A 
ATOM      6  C   UNL     1       8.235 -26.513  16.395  1.00  0.00     0.008 A 
ATOM      7  C   UNL     1       9.445 -26.730  15.737  1.00  0.00     0.004 A 
ENDROOT
BRANCH   4   8
ATOM      8  O   UNL     1       6.538 -24.353  13.854  1.00  0.00    -0.508 OA
ATOM      9  H   UNL     1       6.764 -23.512  13.354  1.00  0.00     0.293 HD
ENDBRANCH   4   8
BRANCH   5  10
ATOM     10  C   UNL     1       5.925 -25.556  16.615  1.00  0.00     0.017 C 
ATOM     11  C   UNL     1       4.795 -26.479  16.136  1.00  0.00     0.012 C 
ATOM     12  C   UNL     1       6.148 -25.617  18.133  1.00  0.00     0.012 C 
ENDBRANCH   5  10
TORSDOF 2
ENDMDL
MODEL 5
REMARK VINA RESULT:    -4.183     14.188     15.526
REMARK INTER + INTRA:          -4.736
REMARK INTER:                  -4.612
REMARK INTRA:                  -0.124
REMARK UNBOUND:                -0.186
REMARK SMILES Cc1ccc(C(C)C)c(O)c1
REMARK SMILES IDX 1 1 2 2 11 3 9 4 5 5 4 6 3 7 10 8 6 10 7 11 8 12
REMARK H PARENT 10 9
REMARK Flexibility Score: inf
ROOT
ATOM      1  C   UNL     1      23.806 -20.775  17.626  1.00  0.00     0.044 C 
ATOM      2  C   UNL     1      23.376 -22.031  18.324  1.00  0.00    -0.047 A 
ATOM      3  C   UNL     1      22.187 -22.671  17.958  1.00  0.00     0.049 A 
ATOM      4  C   UNL     1      21.749 -23.823  18.624  1.00  0.00     0.119 A 
ATOM      5  C   UNL     1      22.519 -24.355  19.700  1.00  0.00    -0.004 A 
ATOM      6  C   UNL     1      23.704 -23.681  20.066  1.00  0.00     0.008 A 
ATOM      7  C   UNL     1      24.122 -22.533  19.393  1.00  0.00     0.004 A 
ENDROOT
BRANCH   4   8
ATOM      8  O   UNL     1      20.554 -24.385  18.172  1.00  0.00    -0.508 OA
ATOM      9  H   UNL     1      20.248 -25.323  18.363  1.00  0.00     0.293 HD
ENDBRANCH   4   8
BRANCH   5  10
ATOM     10  C   UNL     1      22.151 -25.606  20.497  1.00  0.00     0.017 C 
ATOM     11  C   UNL     1      23.327 -26.165  21.310  1.00  0.00     0.012 C 
ATOM     12  C   UNL     1      20.873 -25.431  21.331  1.00  0.00     0.012 C 
ENDBRANCH   5  10
TORSDOF 2
ENDMDL
MODEL 6
REMARK VINA RESULT:    -4.174     13.056     14.062
REMARK INTER + INTRA:          -4.726
REMARK INTER:                  -4.546
REMARK INTRA:                  -0.180
REMARK UNBOUND:                -0.186
REMARK SMILES Cc1ccc(C(C)C)c(O)c1
REMARK SMILES IDX 1 1 2 2 11 3 9 4 5 5 4 6 3 7 10 8 6 10 7 11 8 12
REMARK H PARENT 10 9
REMARK Flexibility Score: inf
ROOT
ATOM      1  C   UNL     1      12.086 -28.785  10.587  1.00  0.00     0.044 C 
ATOM      2  C   UNL     1      12.802 -27.599  11.162  1.00  0.00    -0.047 A 
ATOM      3  C   UNL     1      12.538 -27.182  12.471  1.00  0.00     0.049 A 
ATOM      4  C   UNL     1      13.168 -26.054  13.014  1.00  0.00     0.119 A 
ATOM      5  C   UNL     1      14.089 -25.309  12.221  1.00  0.00    -0.004 A 
ATOM      6  C   UNL     1      14.325 -25.736  10.897  1.00  0.00     0.008 A 
ATOM      7  C   UNL     1      13.686 -26.859  10.373  1.00  0.00     0.004 A 
ENDROOT
BRANCH   4   8
ATOM      8  O   UNL     1      12.838 -25.731  14.331  1.00  0.00    -0.508 OA
ATOM      9  H   UNL     1      12.141 -25.061  14.604  1.00  0.00     0.293 HD
ENDBRANCH   4   8
BRANCH   5  10
ATOM     10  C   UNL     1      14.843 -24.069  12.700  1.00  0.00     0.017 C 
ATOM     11  C   UNL     1      16.280 -24.376  13.145  1.00  0.00     0.012 C 
ATOM     12  C   UNL     1      14.758 -22.896  11.713  1.00  0.00     0.012 C 
ENDBRANCH   5  10
TORSDOF 2
ENDMDL
MODEL 7
REMARK VINA RESULT:    -4.163     12.078     13.517
REMARK INTER + INTRA:          -4.714
REMARK INTER:                  -4.563
REMARK INTRA:                  -0.151
REMARK UNBOUND:                -0.186
REMARK SMILES Cc1ccc(C(C)C)c(O)c1
REMARK SMILES IDX 1 1 2 2 11 3 9 4 5 5 4 6 3 7 10 8 6 10 7 11 8 12
REMARK H PARENT 10 9
REMARK Flexibility Score: inf
ROOT
ATOM      1  C   UNL     1      16.113 -23.819  12.238  1.00  0.00     0.044 C 
ATOM      2  C   UNL     1      14.902 -24.595  12.662  1.00  0.00    -0.047 A 
ATOM      3  C   UNL     1      15.037 -25.894  13.165  1.00  0.00     0.049 A 
ATOM      4  C   UNL     1      13.915 -26.649  13.531  1.00  0.00     0.119 A 
ATOM      5  C   UNL     1      12.609 -26.095  13.383  1.00  0.00    -0.004 A 
ATOM      6  C   UNL     1      12.497 -24.792  12.854  1.00  0.00     0.008 A 
ATOM      7  C   UNL     1      13.625 -24.056  12.493  1.00  0.00     0.004 A 
ENDROOT
BRANCH   4   8
ATOM      8  O   UNL     1      14.163 -27.930  14.028  1.00  0.00    -0.508 OA
ATOM      9  H   UNL     1      15.047 -28.407  13.980  1.00  0.00     0.293 HD
ENDBRANCH   4   8
BRANCH   5  10
ATOM     10  C   UNL     1      11.313 -26.815  13.752  1.00  0.00     0.017 C 
ATOM     11  C   UNL     1      10.132 -25.855  13.953  1.00  0.00     0.012 C 
ATOM     12  C   UNL     1      10.985 -27.982  12.808  1.00  0.00     0.012 C 
ENDBRANCH   5  10
TORSDOF 2
ENDMDL
MODEL 8
REMARK VINA RESULT:    -4.141      9.287     11.135
REMARK INTER + INTRA:          -4.691
REMARK INTER:                  -4.514
REMARK INTRA:                  -0.176
REMARK UNBOUND:                -0.186
REMARK SMILES Cc1ccc(C(C)C)c(O)c1
REMARK SMILES IDX 1 1 2 2 11 3 9 4 5 5 4 6 3 7 10 8 6 10 7 11 8 12
REMARK H PARENT 10 9
REMARK Flexibility Score: inf
ROOT
ATOM      1  C   UNL     1      11.433 -26.594  13.496  1.00  0.00     0.044 C 
ATOM      2  C   UNL     1      10.262 -26.280  14.379  1.00  0.00    -0.047 A 
ATOM      3  C   UNL     1      10.119 -26.920  15.615  1.00  0.00     0.049 A 
ATOM      4  C   UNL     1       9.013 -26.669  16.437  1.00  0.00     0.119 A 
ATOM      5  C   UNL     1       8.007 -25.752  16.011  1.00  0.00    -0.004 A 
ATOM      6  C   UNL     1       8.162 -25.134  14.751  1.00  0.00     0.008 A 
ATOM      7  C   UNL     1       9.269 -25.399  13.946  1.00  0.00     0.004 A 
ENDROOT
BRANCH   4   8
ATOM      8  O   UNL     1       8.973 -27.355  17.652  1.00  0.00    -0.508 OA
ATOM      9  H   UNL     1       8.725 -28.323  17.761  1.00  0.00     0.293 HD
ENDBRANCH   4   8
BRANCH   5  10
ATOM     10  C   UNL     1       6.761 -25.390  16.819  1.00  0.00     0.017 C 
ATOM     11  C   UNL     1       6.598 -23.877  17.020  1.00  0.00     0.012 C 
ATOM     12  C   UNL     1       5.487 -26.068  16.292  1.00  0.00     0.012 C 
ENDBRANCH   5  10
TORSDOF 2
ENDMDL
MODEL 9
REMARK VINA RESULT:    -4.016     14.409     15.465
REMARK INTER + INTRA:          -4.555
REMARK INTER:                  -4.403
REMARK INTRA:                  -0.151
REMARK UNBOUND:                -0.186
REMARK SMILES Cc1ccc(C(C)C)c(O)c1
REMARK SMILES IDX 1 1 2 2 11 3 9 4 5 5 4 6 3 7 10 8 6 10 7 11 8 12
REMARK H PARENT 10 9
REMARK Flexibility Score: inf
ROOT
ATOM      1  C   UNL     1      13.931 -27.649   7.260  1.00  0.00     0.044 C 
ATOM      2  C   UNL     1      13.974 -26.797   8.493  1.00  0.00    -0.047 A 
ATOM      3  C   UNL     1      14.805 -25.673   8.546  1.00  0.00     0.049 A 
ATOM      4  C   UNL     1      14.888 -24.886   9.703  1.00  0.00     0.119 A 
ATOM      5  C   UNL     1      14.121 -25.236  10.853  1.00  0.00    -0.004 A 
ATOM      6  C   UNL     1      13.305 -26.385  10.784  1.00  0.00     0.008 A 
ATOM      7  C   UNL     1      13.238 -27.157   9.624  1.00  0.00     0.004 A 
ENDROOT
BRANCH   4   8
ATOM      8  O   UNL     1      15.742 -23.784   9.644  1.00  0.00    -0.508 OA
ATOM      9  H   UNL     1      15.451 -22.824   9.703  1.00  0.00     0.293 HD
ENDBRANCH   4   8
BRANCH   5  10
ATOM     10  C   UNL     1      14.120 -24.456  12.167  1.00  0.00     0.017 C 
ATOM     11  C   UNL     1      12.883 -24.739  13.030  1.00  0.00     0.012 C 
ATOM     12  C   UNL     1      15.438 -24.588  12.944  1.00  0.00     0.012 C 
ENDBRANCH   5  10
TORSDOF 2
ENDMDL
