MODEL 1
REMARK VINA RESULT:    -4.001      0.000      0.000
REMARK INTER + INTRA:          -7.898
REMARK INTER:                  -6.574
REMARK INTRA:                  -1.324
REMARK UNBOUND:                -1.324
REMARK SMILES CCCCCCCCCCCCCC
REMARK SMILES IDX 7 1 6 2 5 3 4 4 3 5 2 6 1 7 8 8 9 9 10 10 11 11 12 12 13 13
REMARK SMILES IDX 14 14
REMARK H PARENT
REMARK Flexibility Score: inf
ROOT
ATOM      1  C   UNL     1      22.450   1.786 103.274  1.00  0.00    -0.000 C 
ENDROOT
BRANCH   1   2
ATOM      2  C   UNL     1      22.448   3.212 102.703  1.00  0.00    -0.000 C 
BRANCH   2   3
ATOM      3  C   UNL     1      22.719   4.245 103.805  1.00  0.00    -0.000 C 
BRANCH   3   4
ATOM      4  C   UNL     1      21.406   4.792 104.384  1.00  0.00    -0.000 C 
BRANCH   4   5
ATOM      5  C   UNL     1      21.231   4.434 105.875  1.00  0.00    -0.000 C 
BRANCH   5   6
ATOM      6  C   UNL     1      19.870   3.797 106.200  1.00  0.00    -0.003 C 
ATOM      7  C   UNL     1      19.770   2.339 105.756  1.00  0.00     0.004 C 
ENDBRANCH   5   6
ENDBRANCH   4   5
ENDBRANCH   3   4
ENDBRANCH   2   3
ENDBRANCH   1   2
BRANCH   1   8
ATOM      8  C   UNL     1      22.013   0.735 102.242  1.00  0.00    -0.000 C 
BRANCH   8   9
ATOM      9  C   UNL     1      22.983  -0.455 102.162  1.00  0.00    -0.000 C 
BRANCH   9  10
ATOM     10  C   UNL     1      23.994  -0.418 103.314  1.00  0.00    -0.000 C 
BRANCH  10  11
ATOM     11  C   UNL     1      25.422  -0.647 102.800  1.00  0.00    -0.000 C 
BRANCH  11  12
ATOM     12  C   UNL     1      26.404   0.436 103.276  1.00  0.00    -0.000 C 
BRANCH  12  13
ATOM     13  C   UNL     1      26.556   1.583 102.267  1.00  0.00    -0.003 C 
ATOM     14  C   UNL     1      26.226   2.927 102.909  1.00  0.00     0.004 C 
ENDBRANCH  12  13
ENDBRANCH  11  12
ENDBRANCH  10  11
ENDBRANCH   9  10
ENDBRANCH   8   9
ENDBRANCH   1   8
TORSDOF 11
ENDMDL
MODEL 2
REMARK VINA RESULT:    -3.808      1.689      5.630
REMARK INTER + INTRA:          -7.582
REMARK INTER:                  -6.621
REMARK INTRA:                  -0.961
REMARK UNBOUND:                -1.324
REMARK SMILES CCCCCCCCCCCCCC
REMARK SMILES IDX 7 1 6 2 5 3 4 4 3 5 2 6 1 7 8 8 9 9 10 10 11 11 12 12 13 13
REMARK SMILES IDX 14 14
REMARK H PARENT
REMARK Flexibility Score: inf
ROOT
ATOM      1  C   UNL     1      22.843  -0.363 102.178  1.00  0.00    -0.000 C 
ENDROOT
BRANCH   1   2
ATOM      2  C   UNL     1      24.151  -1.147 102.359  1.00  0.00    -0.000 C 
BRANCH   2   3
ATOM      3  C   UNL     1      24.746  -0.910 103.752  1.00  0.00    -0.000 C 
BRANCH   3   4
ATOM      4  C   UNL     1      26.185  -0.382 103.655  1.00  0.00    -0.000 C 
BRANCH   4   5
ATOM      5  C   UNL     1      26.317   0.771 102.638  1.00  0.00    -0.000 C 
BRANCH   5   6
ATOM      6  C   UNL     1      26.893   2.063 103.243  1.00  0.00    -0.003 C 
ATOM      7  C   UNL     1      26.194   3.324 102.741  1.00  0.00     0.004 C 
ENDBRANCH   5   6
ENDBRANCH   4   5
ENDBRANCH   3   4
ENDBRANCH   2   3
ENDBRANCH   1   2
BRANCH   1   8
ATOM      8  C   UNL     1      22.628   0.691 103.276  1.00  0.00    -0.000 C 
BRANCH   8   9
ATOM      9  C   UNL     1      21.773   1.876 102.801  1.00  0.00    -0.000 C 
BRANCH   9  10
ATOM     10  C   UNL     1      21.991   3.104 103.693  1.00  0.00    -0.000 C 
BRANCH  10  11
ATOM     11  C   UNL     1      22.685   4.232 102.915  1.00  0.00    -0.000 C 
BRANCH  11  12
ATOM     12  C   UNL     1      21.693   5.112 102.139  1.00  0.00    -0.000 C 
BRANCH  12  13
ATOM     13  C   UNL     1      22.063   5.256 100.656  1.00  0.00    -0.003 C 
ATOM     14  C   UNL     1      22.512   6.678 100.336  1.00  0.00     0.004 C 
ENDBRANCH  12  13
ENDBRANCH  11  12
ENDBRANCH  10  11
ENDBRANCH   9  10
ENDBRANCH   8   9
ENDBRANCH   1   8
TORSDOF 11
ENDMDL
MODEL 3
REMARK VINA RESULT:    -3.714      2.107      5.435
REMARK INTER + INTRA:          -7.426
REMARK INTER:                  -6.222
REMARK INTRA:                  -1.204
REMARK UNBOUND:                -1.324
REMARK SMILES CCCCCCCCCCCCCC
REMARK SMILES IDX 7 1 6 2 5 3 4 4 3 5 2 6 1 7 8 8 9 9 10 10 11 11 12 12 13 13
REMARK SMILES IDX 14 14
REMARK H PARENT
REMARK Flexibility Score: inf
ROOT
ATOM      1  C   UNL     1      26.942   1.166 103.191  1.00  0.00    -0.000 C 
ENDROOT
BRANCH   1   2
ATOM      2  C   UNL     1      27.161  -0.261 103.713  1.00  0.00    -0.000 C 
BRANCH   2   3
ATOM      3  C   UNL     1      25.829  -0.911 104.111  1.00  0.00    -0.000 C 
BRANCH   3   4
ATOM      4  C   UNL     1      24.805  -0.814 102.970  1.00  0.00    -0.000 C 
BRANCH   4   5
ATOM      5  C   UNL     1      23.436  -0.295 103.456  1.00  0.00    -0.000 C 
BRANCH   5   6
ATOM      6  C   UNL     1      23.115   1.133 102.982  1.00  0.00    -0.003 C 
ATOM      7  C   UNL     1      21.808   1.676 103.555  1.00  0.00     0.004 C 
ENDBRANCH   5   6
ENDBRANCH   4   5
ENDBRANCH   3   4
ENDBRANCH   2   3
ENDBRANCH   1   2
BRANCH   1   8
ATOM      8  C   UNL     1      27.468   2.238 104.159  1.00  0.00    -0.000 C 
BRANCH   8   9
ATOM      9  C   UNL     1      27.014   3.656 103.777  1.00  0.00    -0.000 C 
BRANCH   9  10
ATOM     10  C   UNL     1      25.933   3.611 102.690  1.00  0.00    -0.000 C 
BRANCH  10  11
ATOM     11  C   UNL     1      24.746   4.514 103.058  1.00  0.00    -0.000 C 
BRANCH  11  12
ATOM     12  C   UNL     1      24.095   5.166 101.828  1.00  0.00    -0.000 C 
BRANCH  12  13
ATOM     13  C   UNL     1      22.580   4.929 101.763  1.00  0.00    -0.003 C 
ATOM     14  C   UNL     1      22.017   5.334 100.404  1.00  0.00     0.004 C 
ENDBRANCH  12  13
ENDBRANCH  11  12
ENDBRANCH  10  11
ENDBRANCH   9  10
ENDBRANCH   8   9
ENDBRANCH   1   8
TORSDOF 11
ENDMDL
MODEL 4
REMARK VINA RESULT:    -3.701      2.061      5.758
REMARK INTER + INTRA:          -7.405
REMARK INTER:                  -6.055
REMARK INTRA:                  -1.350
REMARK UNBOUND:                -1.324
REMARK SMILES CCCCCCCCCCCCCC
REMARK SMILES IDX 7 1 6 2 5 3 4 4 3 5 2 6 1 7 8 8 9 9 10 10 11 11 12 12 13 13
REMARK SMILES IDX 14 14
REMARK H PARENT
REMARK Flexibility Score: inf
ROOT
ATOM      1  C   UNL     1      25.729   4.112 103.206  1.00  0.00    -0.000 C 
ENDROOT
BRANCH   1   2
ATOM      2  C   UNL     1      26.608   2.895 103.531  1.00  0.00    -0.000 C 
BRANCH   2   3
ATOM      3  C   UNL     1      27.221   2.303 102.256  1.00  0.00    -0.000 C 
BRANCH   3   4
ATOM      4  C   UNL     1      26.770   0.850 102.049  1.00  0.00    -0.000 C 
BRANCH   4   5
ATOM      5  C   UNL     1      25.787   0.382 103.144  1.00  0.00    -0.000 C 
BRANCH   5   6
ATOM      6  C   UNL     1      24.540  -0.327 102.589  1.00  0.00    -0.003 C 
ATOM      7  C   UNL     1      23.238   0.185 103.201  1.00  0.00     0.004 C 
ENDBRANCH   5   6
ENDBRANCH   4   5
ENDBRANCH   3   4
ENDBRANCH   2   3
ENDBRANCH   1   2
BRANCH   1   8
ATOM      8  C   UNL     1      24.282   3.722 102.862  1.00  0.00    -0.000 C 
BRANCH   8   9
ATOM      9  C   UNL     1      23.250   4.439 103.746  1.00  0.00    -0.000 C 
BRANCH   9  10
ATOM     10  C   UNL     1      21.839   4.307 103.159  1.00  0.00    -0.000 C 
BRANCH  10  11
ATOM     11  C   UNL     1      21.857   4.502 101.636  1.00  0.00    -0.000 C 
BRANCH  11  12
ATOM     12  C   UNL     1      21.664   5.971 101.226  1.00  0.00    -0.000 C 
BRANCH  12  13
ATOM     13  C   UNL     1      22.637   6.410 100.121  1.00  0.00    -0.003 C 
ATOM     14  C   UNL     1      23.989   6.807 100.706  1.00  0.00     0.004 C 
ENDBRANCH  12  13
ENDBRANCH  11  12
ENDBRANCH  10  11
ENDBRANCH   9  10
ENDBRANCH   8   9
ENDBRANCH   1   8
TORSDOF 11
ENDMDL
MODEL 5
REMARK VINA RESULT:    -3.693      2.477      6.273
REMARK INTER + INTRA:          -7.392
REMARK INTER:                  -6.674
REMARK INTRA:                  -0.718
REMARK UNBOUND:                -1.324
REMARK SMILES CCCCCCCCCCCCCC
REMARK SMILES IDX 7 1 6 2 5 3 4 4 3 5 2 6 1 7 8 8 9 9 10 10 11 11 12 12 13 13
REMARK SMILES IDX 14 14
REMARK H PARENT
REMARK Flexibility Score: inf
ROOT
ATOM      1  C   UNL     1      23.264  -0.116 103.359  1.00  0.00    -0.000 C 
ENDROOT
BRANCH   1   2
ATOM      2  C   UNL     1      24.362  -0.663 102.435  1.00  0.00    -0.000 C 
BRANCH   2   3
ATOM      3  C   UNL     1      23.753  -1.359 101.211  1.00  0.00    -0.000 C 
BRANCH   3   4
ATOM      4  C   UNL     1      23.285  -2.780 101.560  1.00  0.00    -0.000 C 
BRANCH   4   5
ATOM      5  C   UNL     1      21.764  -2.958 101.366  1.00  0.00    -0.000 C 
BRANCH   5   6
ATOM      6  C   UNL     1      21.264  -4.375 101.694  1.00  0.00    -0.003 C 
ATOM      7  C   UNL     1      22.277  -5.200 102.485  1.00  0.00     0.004 C 
ENDBRANCH   5   6
ENDBRANCH   4   5
ENDBRANCH   3   4
ENDBRANCH   2   3
ENDBRANCH   1   2
BRANCH   1   8
ATOM      8  C   UNL     1      22.269   0.796 102.622  1.00  0.00    -0.000 C 
BRANCH   8   9
ATOM      9  C   UNL     1      21.803   1.980 103.483  1.00  0.00    -0.000 C 
BRANCH   9  10
ATOM     10  C   UNL     1      22.604   3.246 103.156  1.00  0.00    -0.000 C 
BRANCH  10  11
ATOM     11  C   UNL     1      21.874   4.503 103.653  1.00  0.00    -0.000 C 
BRANCH  11  12
ATOM     12  C   UNL     1      21.300   5.347 102.503  1.00  0.00    -0.000 C 
BRANCH  12  13
ATOM     13  C   UNL     1      21.937   5.011 101.147  1.00  0.00    -0.003 C 
ATOM     14  C   UNL     1      22.394   6.276 100.426  1.00  0.00     0.004 C 
ENDBRANCH  12  13
ENDBRANCH  11  12
ENDBRANCH  10  11
ENDBRANCH   9  10
ENDBRANCH   8   9
ENDBRANCH   1   8
TORSDOF 11
ENDMDL
MODEL 6
REMARK VINA RESULT:    -3.673      1.952      3.318
REMARK INTER + INTRA:          -7.359
REMARK INTER:                  -6.097
REMARK INTRA:                  -1.262
REMARK UNBOUND:                -1.324
REMARK SMILES CCCCCCCCCCCCCC
REMARK SMILES IDX 7 1 6 2 5 3 4 4 3 5 2 6 1 7 8 8 9 9 10 10 11 11 12 12 13 13
REMARK SMILES IDX 14 14
REMARK H PARENT
REMARK Flexibility Score: inf
ROOT
ATOM      1  C   UNL     1      22.513   1.990 102.773  1.00  0.00    -0.000 C 
ENDROOT
BRANCH   1   2
ATOM      2  C   UNL     1      22.208   2.994 103.894  1.00  0.00    -0.000 C 
BRANCH   2   3
ATOM      3  C   UNL     1      21.847   4.369 103.317  1.00  0.00    -0.000 C 
BRANCH   3   4
ATOM      4  C   UNL     1      22.562   4.611 101.979  1.00  0.00    -0.000 C 
BRANCH   4   5
ATOM      5  C   UNL     1      21.702   5.438 100.999  1.00  0.00    -0.000 C 
BRANCH   5   6
ATOM      6  C   UNL     1      22.475   6.579 100.316  1.00  0.00    -0.003 C 
ATOM      7  C   UNL     1      23.962   6.590 100.666  1.00  0.00     0.004 C 
ENDBRANCH   5   6
ENDBRANCH   4   5
ENDBRANCH   3   4
ENDBRANCH   2   3
ENDBRANCH   1   2
BRANCH   1   8
ATOM      8  C   UNL     1      22.442   0.530 103.250  1.00  0.00    -0.000 C 
BRANCH   8   9
ATOM      9  C   UNL     1      23.830  -0.104 103.425  1.00  0.00    -0.000 C 
BRANCH   9  10
ATOM     10  C   UNL     1      24.592  -0.136 102.095  1.00  0.00    -0.000 C 
BRANCH  10  11
ATOM     11  C   UNL     1      26.109  -0.073 102.328  1.00  0.00    -0.000 C 
BRANCH  11  12
ATOM     12  C   UNL     1      26.528   1.144 103.168  1.00  0.00    -0.000 C 
BRANCH  12  13
ATOM     13  C   UNL     1      26.634   2.430 102.335  1.00  0.00    -0.003 C 
ATOM     14  C   UNL     1      25.935   3.594 103.030  1.00  0.00     0.004 C 
ENDBRANCH  12  13
ENDBRANCH  11  12
ENDBRANCH  10  11
ENDBRANCH   9  10
ENDBRANCH   8   9
ENDBRANCH   1   8
TORSDOF 11
ENDMDL
MODEL 7
REMARK VINA RESULT:    -3.613      6.266      9.966
REMARK INTER + INTRA:          -7.261
REMARK INTER:                  -6.080
REMARK INTRA:                  -1.181
REMARK UNBOUND:                -1.324
REMARK SMILES CCCCCCCCCCCCCC
REMARK SMILES IDX 7 1 6 2 5 3 4 4 3 5 2 6 1 7 8 8 9 9 10 10 11 11 12 12 13 13
REMARK SMILES IDX 14 14
REMARK H PARENT
REMARK Flexibility Score: inf
ROOT
ATOM      1  C   UNL     1      32.652   5.241 104.297  1.00  0.00    -0.000 C 
ENDROOT
BRANCH   1   2
ATOM      2  C   UNL     1      33.381   4.546 103.138  1.00  0.00    -0.000 C 
BRANCH   2   3
ATOM      3  C   UNL     1      32.648   4.778 101.810  1.00  0.00    -0.000 C 
BRANCH   3   4
ATOM      4  C   UNL     1      33.311   3.992 100.669  1.00  0.00    -0.000 C 
BRANCH   4   5
ATOM      5  C   UNL     1      32.336   3.722  99.503  1.00  0.00    -0.000 C 
BRANCH   5   6
ATOM      6  C   UNL     1      31.998   4.978  98.682  1.00  0.00    -0.003 C 
ATOM      7  C   UNL     1      31.606   4.663  97.240  1.00  0.00     0.004 C 
ENDBRANCH   5   6
ENDBRANCH   4   5
ENDBRANCH   3   4
ENDBRANCH   2   3
ENDBRANCH   1   2
BRANCH   1   8
ATOM      8  C   UNL     1      31.127   5.267 104.108  1.00  0.00    -0.000 C 
BRANCH   8   9
ATOM      9  C   UNL     1      30.414   4.158 104.897  1.00  0.00    -0.000 C 
BRANCH   9  10
ATOM     10  C   UNL     1      29.564   3.282 103.968  1.00  0.00    -0.000 C 
BRANCH  10  11
ATOM     11  C   UNL     1      30.421   2.196 103.301  1.00  0.00    -0.000 C 
BRANCH  11  12
ATOM     12  C   UNL     1      29.998   1.917 101.850  1.00  0.00    -0.000 C 
BRANCH  12  13
ATOM     13  C   UNL     1      29.295   0.562 101.687  1.00  0.00    -0.003 C 
ATOM     14  C   UNL     1      27.826   0.745 101.316  1.00  0.00     0.004 C 
ENDBRANCH  12  13
ENDBRANCH  11  12
ENDBRANCH  10  11
ENDBRANCH   9  10
ENDBRANCH   8   9
ENDBRANCH   1   8
TORSDOF 11
ENDMDL
MODEL 8
REMARK VINA RESULT:    -3.608      1.318      5.772
REMARK INTER + INTRA:          -7.253
REMARK INTER:                  -6.217
REMARK INTRA:                  -1.036
REMARK UNBOUND:                -1.324
REMARK SMILES CCCCCCCCCCCCCC
REMARK SMILES IDX 7 1 6 2 5 3 4 4 3 5 2 6 1 7 8 8 9 9 10 10 11 11 12 12 13 13
REMARK SMILES IDX 14 14
REMARK H PARENT
REMARK Flexibility Score: inf
ROOT
ATOM      1  C   UNL     1      25.603   4.462 103.700  1.00  0.00    -0.000 C 
ENDROOT
BRANCH   1   2
ATOM      2  C   UNL     1      26.935   3.704 103.783  1.00  0.00    -0.000 C 
BRANCH   2   3
ATOM      3  C   UNL     1      27.006   2.601 102.718  1.00  0.00    -0.000 C 
BRANCH   3   4
ATOM      4  C   UNL     1      26.925   1.208 103.360  1.00  0.00    -0.000 C 
BRANCH   4   5
ATOM      5  C   UNL     1      25.880   0.306 102.669  1.00  0.00    -0.000 C 
BRANCH   5   6
ATOM      6  C   UNL     1      24.973  -0.450 103.654  1.00  0.00    -0.003 C 
ATOM      7  C   UNL     1      25.574  -1.771 104.129  1.00  0.00     0.004 C 
ENDBRANCH   5   6
ENDBRANCH   4   5
ENDBRANCH   3   4
ENDBRANCH   2   3
ENDBRANCH   1   2
BRANCH   1   8
ATOM      8  C   UNL     1      24.632   3.846 102.680  1.00  0.00    -0.000 C 
BRANCH   8   9
ATOM      9  C   UNL     1      23.544   4.832 102.227  1.00  0.00    -0.000 C 
BRANCH   9  10
ATOM     10  C   UNL     1      22.145   4.238 102.433  1.00  0.00    -0.000 C 
BRANCH  10  11
ATOM     11  C   UNL     1      22.231   2.770 102.876  1.00  0.00    -0.000 C 
BRANCH  11  12
ATOM     12  C   UNL     1      21.464   2.500 104.181  1.00  0.00    -0.000 C 
BRANCH  12  13
ATOM     13  C   UNL     1      21.403   3.731 105.098  1.00  0.00    -0.003 C 
ATOM     14  C   UNL     1      20.145   3.712 105.961  1.00  0.00     0.004 C 
ENDBRANCH  12  13
ENDBRANCH  11  12
ENDBRANCH  10  11
ENDBRANCH   9  10
ENDBRANCH   8   9
ENDBRANCH   1   8
TORSDOF 11
ENDMDL
MODEL 9
REMARK VINA RESULT:    -3.593      7.493     10.680
REMARK INTER + INTRA:          -7.227
REMARK INTER:                  -5.594
REMARK INTRA:                  -1.634
REMARK UNBOUND:                -1.324
REMARK SMILES CCCCCCCCCCCCCC
REMARK SMILES IDX 7 1 6 2 5 3 4 4 3 5 2 6 1 7 8 8 9 9 10 10 11 11 12 12 13 13
REMARK SMILES IDX 14 14
REMARK H PARENT
REMARK Flexibility Score: inf
ROOT
ATOM      1  C   UNL     1      33.240   4.895 103.300  1.00  0.00    -0.000 C 
ENDROOT
BRANCH   1   2
ATOM      2  C   UNL     1      34.088   3.651 102.998  1.00  0.00    -0.000 C 
BRANCH   2   3
ATOM      3  C   UNL     1      33.432   2.791 101.909  1.00  0.00    -0.000 C 
BRANCH   3   4
ATOM      4  C   UNL     1      33.615   3.423 100.521  1.00  0.00    -0.000 C 
BRANCH   4   5
ATOM      5  C   UNL     1      32.293   3.480  99.727  1.00  0.00    -0.000 C 
BRANCH   5   6
ATOM      6  C   UNL     1      32.065   4.821  99.008  1.00  0.00    -0.003 C 
ATOM      7  C   UNL     1      32.721   6.002  99.721  1.00  0.00     0.004 C 
ENDBRANCH   5   6
ENDBRANCH   4   5
ENDBRANCH   3   4
ENDBRANCH   2   3
ENDBRANCH   1   2
BRANCH   1   8
ATOM      8  C   UNL     1      33.167   5.211 104.803  1.00  0.00    -0.000 C 
BRANCH   8   9
ATOM      9  C   UNL     1      31.728   5.445 105.289  1.00  0.00    -0.000 C 
BRANCH   9  10
ATOM     10  C   UNL     1      30.728   5.294 104.137  1.00  0.00    -0.000 C 
BRANCH  10  11
ATOM     11  C   UNL     1      29.737   4.153 104.415  1.00  0.00    -0.000 C 
BRANCH  11  12
ATOM     12  C   UNL     1      30.098   2.861 103.663  1.00  0.00    -0.000 C 
BRANCH  12  13
ATOM     13  C   UNL     1      30.989   1.924 104.491  1.00  0.00    -0.003 C 
ATOM     14  C   UNL     1      30.558   1.905 105.954  1.00  0.00     0.004 C 
ENDBRANCH  12  13
ENDBRANCH  11  12
ENDBRANCH  10  11
ENDBRANCH   9  10
ENDBRANCH   8   9
ENDBRANCH   1   8
TORSDOF 11
ENDMDL
