MODEL 1
REMARK VINA RESULT:    -2.982      0.000      0.000
REMARK INTER + INTRA:          -7.174
REMARK INTER:                  -5.074
REMARK INTRA:                  -2.100
REMARK UNBOUND:                -2.100
REMARK SMILES CCCCCCCCCCCCCC(=O)[O-]
REMARK SMILES IDX 8 1 9 2 10 3 11 4 12 5 13 6 14 7 15 8 16 9 7 10 6 11 5 12
REMARK SMILES IDX 4 13 3 14 2 15 1 16
REMARK H PARENT
REMARK Flexibility Score: inf
ROOT
ATOM      1  C   UNL     1      -3.781   6.604  40.165  1.00  0.00     0.000 C 
ENDROOT
BRANCH   1   2
ATOM      2  C   UNL     1      -2.917   5.418  40.618  1.00  0.00     0.000 C 
BRANCH   2   3
ATOM      3  C   UNL     1      -1.850   5.084  39.564  1.00  0.00     0.000 C 
BRANCH   3   4
ATOM      4  C   UNL     1      -2.399   5.108  38.125  1.00  0.00     0.000 C 
BRANCH   4   5
ATOM      5  C   UNL     1      -1.530   5.872  37.110  1.00  0.00     0.006 C 
BRANCH   5   6
ATOM      6  C   UNL     1      -0.307   5.070  36.646  1.00  0.00     0.053 C 
BRANCH   6   7
ATOM      7  C   UNL     1       0.665   5.962  35.941  1.00  0.00     0.041 C 
ATOM      8  O   UNL     1       0.440   7.198  35.850  1.00  0.00    -0.550 OA
ATOM      9  O   UNL     1       1.795   5.422  35.341  1.00  0.00    -0.550 OA
ENDBRANCH   6   7
ENDBRANCH   5   6
ENDBRANCH   4   5
ENDBRANCH   3   4
ENDBRANCH   2   3
ENDBRANCH   1   2
BRANCH   1  10
ATOM     10  C   UNL     1      -3.174   7.963  40.548  1.00  0.00     0.000 C 
BRANCH  10  11
ATOM     11  C   UNL     1      -2.593   8.711  39.336  1.00  0.00    -0.000 C 
BRANCH  11  12
ATOM     12  C   UNL     1      -1.056   8.811  39.372  1.00  0.00    -0.000 C 
BRANCH  12  13
ATOM     13  C   UNL     1      -0.417   8.556  40.750  1.00  0.00    -0.000 C 
BRANCH  13  14
ATOM     14  C   UNL     1       0.636   7.438  40.725  1.00  0.00    -0.000 C 
BRANCH  14  15
ATOM     15  C   UNL     1       1.238   7.284  39.324  1.00  0.00    -0.003 C 
ATOM     16  C   UNL     1       2.360   6.249  39.317  1.00  0.00     0.004 C 
ENDBRANCH  14  15
ENDBRANCH  13  14
ENDBRANCH  12  13
ENDBRANCH  11  12
ENDBRANCH  10  11
ENDBRANCH   1  10
TORSDOF 12
ENDMDL
MODEL 2
REMARK VINA RESULT:    -2.908      1.556      4.082
REMARK INTER + INTRA:          -7.048
REMARK INTER:                  -5.002
REMARK INTRA:                  -2.046
REMARK UNBOUND:                -2.100
REMARK SMILES CCCCCCCCCCCCCC(=O)[O-]
REMARK SMILES IDX 8 1 9 2 10 3 11 4 12 5 13 6 14 7 15 8 16 9 7 10 6 11 5 12
REMARK SMILES IDX 4 13 3 14 2 15 1 16
REMARK H PARENT
REMARK Flexibility Score: inf
ROOT
ATOM      1  C   UNL     1      -0.094   6.270  40.339  1.00  0.00     0.000 C 
ENDROOT
BRANCH   1   2
ATOM      2  C   UNL     1       0.669   7.434  40.989  1.00  0.00     0.000 C 
BRANCH   2   3
ATOM      3  C   UNL     1       0.344   8.762  40.289  1.00  0.00     0.000 C 
BRANCH   3   4
ATOM      4  C   UNL     1      -1.061   8.781  39.660  1.00  0.00     0.000 C 
BRANCH   4   5
ATOM      5  C   UNL     1      -1.098   9.125  38.160  1.00  0.00     0.006 C 
BRANCH   5   6
ATOM      6  C   UNL     1      -1.551   7.946  37.288  1.00  0.00     0.053 C 
BRANCH   6   7
ATOM      7  C   UNL     1      -0.368   7.157  36.822  1.00  0.00     0.041 C 
ATOM      8  O   UNL     1       0.789   7.646  36.899  1.00  0.00    -0.550 OA
ATOM      9  O   UNL     1      -0.550   5.902  36.258  1.00  0.00    -0.550 OA
ENDBRANCH   6   7
ENDBRANCH   5   6
ENDBRANCH   4   5
ENDBRANCH   3   4
ENDBRANCH   2   3
ENDBRANCH   1   2
BRANCH   1  10
ATOM     10  C   UNL     1      -0.537   5.207  41.356  1.00  0.00     0.000 C 
BRANCH  10  11
ATOM     11  C   UNL     1      -1.947   4.663  41.065  1.00  0.00    -0.000 C 
BRANCH  11  12
ATOM     12  C   UNL     1      -2.680   5.457  39.966  1.00  0.00    -0.000 C 
BRANCH  12  13
ATOM     13  C   UNL     1      -4.037   6.053  40.386  1.00  0.00    -0.000 C 
BRANCH  13  14
ATOM     14  C   UNL     1      -3.924   7.496  40.900  1.00  0.00    -0.000 C 
BRANCH  14  15
ATOM     15  C   UNL     1      -3.924   7.533  42.432  1.00  0.00    -0.003 C 
ATOM     16  C   UNL     1      -2.539   7.874  42.975  1.00  0.00     0.004 C 
ENDBRANCH  14  15
ENDBRANCH  13  14
ENDBRANCH  12  13
ENDBRANCH  11  12
ENDBRANCH  10  11
ENDBRANCH   1  10
TORSDOF 12
ENDMDL
MODEL 3
REMARK VINA RESULT:    -2.903      1.483      3.542
REMARK INTER + INTRA:          -7.039
REMARK INTER:                  -5.171
REMARK INTRA:                  -1.867
REMARK UNBOUND:                -2.100
REMARK SMILES CCCCCCCCCCCCCC(=O)[O-]
REMARK SMILES IDX 8 1 9 2 10 3 11 4 12 5 13 6 14 7 15 8 16 9 7 10 6 11 5 12
REMARK SMILES IDX 4 13 3 14 2 15 1 16
REMARK H PARENT
REMARK Flexibility Score: inf
ROOT
ATOM      1  C   UNL     1       0.612   7.551  40.548  1.00  0.00     0.000 C 
ENDROOT
BRANCH   1   2
ATOM      2  C   UNL     1       1.254   7.619  39.154  1.00  0.00     0.000 C 
BRANCH   2   3
ATOM      3  C   UNL     1       0.939   6.352  38.344  1.00  0.00     0.000 C 
BRANCH   3   4
ATOM      4  C   UNL     1       1.304   6.485  36.854  1.00  0.00     0.000 C 
BRANCH   4   5
ATOM      5  C   UNL     1       0.213   7.115  35.970  1.00  0.00     0.006 C 
BRANCH   5   6
ATOM      6  C   UNL     1      -1.208   6.797  36.457  1.00  0.00     0.053 C 
BRANCH   6   7
ATOM      7  C   UNL     1      -1.811   5.706  35.630  1.00  0.00     0.041 C 
ATOM      8  O   UNL     1      -1.372   5.472  34.473  1.00  0.00    -0.550 OA
ATOM      9  O   UNL     1      -2.889   4.980  36.117  1.00  0.00    -0.550 OA
ENDBRANCH   6   7
ENDBRANCH   5   6
ENDBRANCH   4   5
ENDBRANCH   3   4
ENDBRANCH   2   3
ENDBRANCH   1   2
BRANCH   1  10
ATOM     10  C   UNL     1      -0.455   8.635  40.765  1.00  0.00     0.000 C 
BRANCH  10  11
ATOM     11  C   UNL     1      -1.181   9.017  39.463  1.00  0.00    -0.000 C 
BRANCH  11  12
ATOM     12  C   UNL     1      -2.629   8.491  39.407  1.00  0.00    -0.000 C 
BRANCH  12  13
ATOM     13  C   UNL     1      -3.149   7.867  40.715  1.00  0.00    -0.000 C 
BRANCH  13  14
ATOM     14  C   UNL     1      -3.754   6.469  40.513  1.00  0.00    -0.000 C 
BRANCH  14  15
ATOM     15  C   UNL     1      -2.881   5.625  39.578  1.00  0.00    -0.003 C 
ATOM     16  C   UNL     1      -1.811   4.866  40.358  1.00  0.00     0.004 C 
ENDBRANCH  14  15
ENDBRANCH  13  14
ENDBRANCH  12  13
ENDBRANCH  11  12
ENDBRANCH  10  11
ENDBRANCH   1  10
TORSDOF 12
ENDMDL
MODEL 4
REMARK VINA RESULT:    -2.871      1.566      2.862
REMARK INTER + INTRA:          -6.985
REMARK INTER:                  -5.093
REMARK INTRA:                  -1.892
REMARK UNBOUND:                -2.100
REMARK SMILES CCCCCCCCCCCCCC(=O)[O-]
REMARK SMILES IDX 8 1 9 2 10 3 11 4 12 5 13 6 14 7 15 8 16 9 7 10 6 11 5 12
REMARK SMILES IDX 4 13 3 14 2 15 1 16
REMARK H PARENT
REMARK Flexibility Score: inf
ROOT
ATOM      1  C   UNL     1      -1.911   8.357  40.481  1.00  0.00     0.000 C 
ENDROOT
BRANCH   1   2
ATOM      2  C   UNL     1      -1.278   8.899  39.191  1.00  0.00     0.000 C 
BRANCH   2   3
ATOM      3  C   UNL     1      -2.346   9.125  38.109  1.00  0.00     0.000 C 
BRANCH   3   4
ATOM      4  C   UNL     1      -1.947   8.547  36.740  1.00  0.00     0.000 C 
BRANCH   4   5
ATOM      5  C   UNL     1      -1.382   7.116  36.778  1.00  0.00     0.006 C 
BRANCH   5   6
ATOM      6  C   UNL     1      -1.992   6.203  35.705  1.00  0.00     0.053 C 
BRANCH   6   7
ATOM      7  C   UNL     1      -0.915   5.474  34.966  1.00  0.00     0.041 C 
ATOM      8  O   UNL     1      -0.951   5.394  33.710  1.00  0.00    -0.550 OA
ATOM      9  O   UNL     1       0.102   4.841  35.668  1.00  0.00    -0.550 OA
ENDBRANCH   6   7
ENDBRANCH   5   6
ENDBRANCH   4   5
ENDBRANCH   3   4
ENDBRANCH   2   3
ENDBRANCH   1   2
BRANCH   1  10
ATOM     10  C   UNL     1      -3.374   7.925  40.290  1.00  0.00     0.000 C 
BRANCH  10  11
ATOM     11  C   UNL     1      -3.595   6.437  40.613  1.00  0.00    -0.000 C 
BRANCH  11  12
ATOM     12  C   UNL     1      -2.845   5.496  39.651  1.00  0.00    -0.000 C 
BRANCH  12  13
ATOM     13  C   UNL     1      -1.625   4.777  40.259  1.00  0.00    -0.000 C 
BRANCH  13  14
ATOM     14  C   UNL     1      -0.373   4.870  39.374  1.00  0.00    -0.000 C 
BRANCH  14  15
ATOM     15  C   UNL     1       0.702   5.739  40.037  1.00  0.00    -0.003 C 
ATOM     16  C   UNL     1       1.629   6.359  38.995  1.00  0.00     0.004 C 
ENDBRANCH  14  15
ENDBRANCH  13  14
ENDBRANCH  12  13
ENDBRANCH  11  12
ENDBRANCH  10  11
ENDBRANCH   1  10
TORSDOF 12
ENDMDL
MODEL 5
REMARK VINA RESULT:    -2.823      1.965      2.912
REMARK INTER + INTRA:          -6.903
REMARK INTER:                  -5.509
REMARK INTRA:                  -1.395
REMARK UNBOUND:                -2.100
REMARK SMILES CCCCCCCCCCCCCC(=O)[O-]
REMARK SMILES IDX 8 1 9 2 10 3 11 4 12 5 13 6 14 7 15 8 16 9 7 10 6 11 5 12
REMARK SMILES IDX 4 13 3 14 2 15 1 16
REMARK H PARENT
REMARK Flexibility Score: inf
ROOT
ATOM      1  C   UNL     1      -2.852   7.669  39.705  1.00  0.00     0.000 C 
ENDROOT
BRANCH   1   2
ATOM      2  C   UNL     1      -2.716   9.050  39.047  1.00  0.00     0.000 C 
BRANCH   2   3
ATOM      3  C   UNL     1      -1.858   8.969  37.775  1.00  0.00     0.000 C 
BRANCH   3   4
ATOM      4  C   UNL     1      -1.298   7.558  37.518  1.00  0.00     0.000 C 
BRANCH   4   5
ATOM      5  C   UNL     1      -1.242   7.141  36.037  1.00  0.00     0.006 C 
BRANCH   5   6
ATOM      6  C   UNL     1      -2.005   5.840  35.753  1.00  0.00     0.053 C 
BRANCH   6   7
ATOM      7  C   UNL     1      -1.325   5.061  34.672  1.00  0.00     0.041 C 
ATOM      8  O   UNL     1      -1.364   3.803  34.678  1.00  0.00    -0.550 OA
ATOM      9  O   UNL     1      -0.606   5.724  33.686  1.00  0.00    -0.550 OA
ENDBRANCH   6   7
ENDBRANCH   5   6
ENDBRANCH   4   5
ENDBRANCH   3   4
ENDBRANCH   2   3
ENDBRANCH   1   2
BRANCH   1  10
ATOM     10  C   UNL     1      -3.938   7.632  40.792  1.00  0.00     0.000 C 
BRANCH  10  11
ATOM     11  C   UNL     1      -3.466   6.921  42.073  1.00  0.00    -0.000 C 
BRANCH  11  12
ATOM     12  C   UNL     1      -2.626   7.831  42.989  1.00  0.00    -0.000 C 
BRANCH  12  13
ATOM     13  C   UNL     1      -1.107   7.580  42.945  1.00  0.00    -0.000 C 
BRANCH  13  14
ATOM     14  C   UNL     1      -0.304   8.829  42.551  1.00  0.00    -0.000 C 
BRANCH  14  15
ATOM     15  C   UNL     1       0.289   8.678  41.146  1.00  0.00    -0.003 C 
ATOM     16  C   UNL     1       0.581   7.214  40.826  1.00  0.00     0.004 C 
ENDBRANCH  14  15
ENDBRANCH  13  14
ENDBRANCH  12  13
ENDBRANCH  11  12
ENDBRANCH  10  11
ENDBRANCH   1  10
TORSDOF 12
ENDMDL
MODEL 6
REMARK VINA RESULT:    -2.804      1.418      2.447
REMARK INTER + INTRA:          -6.871
REMARK INTER:                  -4.727
REMARK INTRA:                  -2.144
REMARK UNBOUND:                -2.100
REMARK SMILES CCCCCCCCCCCCCC(=O)[O-]
REMARK SMILES IDX 8 1 9 2 10 3 11 4 12 5 13 6 14 7 15 8 16 9 7 10 6 11 5 12
REMARK SMILES IDX 4 13 3 14 2 15 1 16
REMARK H PARENT
REMARK Flexibility Score: inf
ROOT
ATOM      1  C   UNL     1      -1.945   5.259  38.461  1.00  0.00     0.000 C 
ENDROOT
BRANCH   1   2
ATOM      2  C   UNL     1      -2.599   4.828  37.140  1.00  0.00     0.000 C 
BRANCH   2   3
ATOM      3  C   UNL     1      -2.377   5.886  36.048  1.00  0.00     0.000 C 
BRANCH   3   4
ATOM      4  C   UNL     1      -1.157   6.783  36.320  1.00  0.00     0.000 C 
BRANCH   4   5
ATOM      5  C   UNL     1       0.053   6.533  35.401  1.00  0.00     0.006 C 
BRANCH   5   6
ATOM      6  C   UNL     1       1.239   5.893  36.135  1.00  0.00     0.053 C 
BRANCH   6   7
ATOM      7  C   UNL     1       1.024   4.421  36.291  1.00  0.00     0.041 C 
ATOM      8  O   UNL     1       0.625   3.732  35.315  1.00  0.00    -0.550 OA
ATOM      9  O   UNL     1       1.216   3.818  37.527  1.00  0.00    -0.550 OA
ENDBRANCH   6   7
ENDBRANCH   5   6
ENDBRANCH   4   5
ENDBRANCH   3   4
ENDBRANCH   2   3
ENDBRANCH   1   2
BRANCH   1  10
ATOM     10  C   UNL     1      -2.964   5.771  39.491  1.00  0.00     0.000 C 
BRANCH  10  11
ATOM     11  C   UNL     1      -2.462   7.011  40.251  1.00  0.00    -0.000 C 
BRANCH  11  12
ATOM     12  C   UNL     1      -2.711   8.325  39.487  1.00  0.00    -0.000 C 
BRANCH  12  13
ATOM     13  C   UNL     1      -1.441   9.101  39.089  1.00  0.00    -0.000 C 
BRANCH  13  14
ATOM     14  C   UNL     1      -0.238   8.785  39.990  1.00  0.00    -0.000 C 
BRANCH  14  15
ATOM     15  C   UNL     1       0.910   8.176  39.178  1.00  0.00    -0.003 C 
ATOM     16  C   UNL     1       1.282   6.792  39.702  1.00  0.00     0.004 C 
ENDBRANCH  14  15
ENDBRANCH  13  14
ENDBRANCH  12  13
ENDBRANCH  11  12
ENDBRANCH  10  11
ENDBRANCH   1  10
TORSDOF 12
ENDMDL
MODEL 7
REMARK VINA RESULT:    -2.775      1.635      3.281
REMARK INTER + INTRA:          -6.822
REMARK INTER:                  -5.029
REMARK INTRA:                  -1.793
REMARK UNBOUND:                -2.100
REMARK SMILES CCCCCCCCCCCCCC(=O)[O-]
REMARK SMILES IDX 8 1 9 2 10 3 11 4 12 5 13 6 14 7 15 8 16 9 7 10 6 11 5 12
REMARK SMILES IDX 4 13 3 14 2 15 1 16
REMARK H PARENT
REMARK Flexibility Score: inf
ROOT
ATOM      1  C   UNL     1      -0.871   5.190  38.567  1.00  0.00     0.000 C 
ENDROOT
BRANCH   1   2
ATOM      2  C   UNL     1      -2.320   5.114  38.063  1.00  0.00     0.000 C 
BRANCH   2   3
ATOM      3  C   UNL     1      -2.368   4.636  36.604  1.00  0.00     0.000 C 
BRANCH   3   4
ATOM      4  C   UNL     1      -2.216   5.784  35.590  1.00  0.00     0.000 C 
BRANCH   4   5
ATOM      5  C   UNL     1      -0.972   5.696  34.689  1.00  0.00     0.006 C 
BRANCH   5   6
ATOM      6  C   UNL     1       0.233   6.459  35.256  1.00  0.00     0.053 C 
BRANCH   6   7
ATOM      7  C   UNL     1       1.410   5.546  35.397  1.00  0.00     0.041 C 
ATOM      8  O   UNL     1       1.764   4.817  34.434  1.00  0.00    -0.550 OA
ATOM      9  O   UNL     1       2.085   5.465  36.607  1.00  0.00    -0.550 OA
ENDBRANCH   6   7
ENDBRANCH   5   6
ENDBRANCH   4   5
ENDBRANCH   3   4
ENDBRANCH   2   3
ENDBRANCH   1   2
BRANCH   1  10
ATOM     10  C   UNL     1      -0.435   6.622  38.914  1.00  0.00     0.000 C 
BRANCH  10  11
ATOM     11  C   UNL     1      -1.544   7.655  38.649  1.00  0.00    -0.000 C 
BRANCH  11  12
ATOM     12  C   UNL     1      -2.128   8.254  39.944  1.00  0.00    -0.000 C 
BRANCH  12  13
ATOM     13  C   UNL     1      -3.608   7.921  40.209  1.00  0.00    -0.000 C 
BRANCH  13  14
ATOM     14  C   UNL     1      -3.822   7.136  41.512  1.00  0.00    -0.000 C 
BRANCH  14  15
ATOM     15  C   UNL     1      -3.866   5.628  41.241  1.00  0.00    -0.003 C 
ATOM     16  C   UNL     1      -2.649   4.926  41.837  1.00  0.00     0.004 C 
ENDBRANCH  14  15
ENDBRANCH  13  14
ENDBRANCH  12  13
ENDBRANCH  11  12
ENDBRANCH  10  11
ENDBRANCH   1  10
TORSDOF 12
ENDMDL
MODEL 8
REMARK VINA RESULT:    -2.773      8.842     12.372
REMARK INTER + INTRA:          -6.818
REMARK INTER:                  -5.214
REMARK INTRA:                  -1.604
REMARK UNBOUND:                -2.100
REMARK SMILES CCCCCCCCCCCCCC(=O)[O-]
REMARK SMILES IDX 8 1 9 2 10 3 11 4 12 5 13 6 14 7 15 8 16 9 7 10 6 11 5 12
REMARK SMILES IDX 4 13 3 14 2 15 1 16
REMARK H PARENT
REMARK Flexibility Score: inf
ROOT
ATOM      1  C   UNL     1       3.147   5.958  26.209  1.00  0.00     0.000 C 
ENDROOT
BRANCH   1   2
ATOM      2  C   UNL     1       3.327   4.630  26.960  1.00  0.00     0.000 C 
BRANCH   2   3
ATOM      3  C   UNL     1       2.012   4.194  27.625  1.00  0.00     0.000 C 
BRANCH   3   4
ATOM      4  C   UNL     1       1.130   5.382  28.048  1.00  0.00     0.000 C 
BRANCH   4   5
ATOM      5  C   UNL     1       1.024   5.605  29.567  1.00  0.00     0.006 C 
BRANCH   5   6
ATOM      6  C   UNL     1       1.200   7.076  29.970  1.00  0.00     0.053 C 
BRANCH   6   7
ATOM      7  C   UNL     1       1.294   7.202  31.457  1.00  0.00     0.041 C 
ATOM      8  O   UNL     1       0.748   8.171  32.047  1.00  0.00    -0.550 OA
ATOM      9  O   UNL     1       2.027   6.276  32.187  1.00  0.00    -0.550 OA
ENDBRANCH   6   7
ENDBRANCH   5   6
ENDBRANCH   4   5
ENDBRANCH   3   4
ENDBRANCH   2   3
ENDBRANCH   1   2
BRANCH   1  10
ATOM     10  C   UNL     1       4.151   7.034  26.652  1.00  0.00     0.000 C 
BRANCH  10  11
ATOM     11  C   UNL     1       3.652   8.460  26.363  1.00  0.00    -0.000 C 
BRANCH  11  12
ATOM     12  C   UNL     1       2.143   8.633  26.622  1.00  0.00    -0.000 C 
BRANCH  12  13
ATOM     13  C   UNL     1       1.324   9.124  25.414  1.00  0.00    -0.000 C 
BRANCH  13  14
ATOM     14  C   UNL     1       0.709   7.976  24.599  1.00  0.00    -0.000 C 
BRANCH  14  15
ATOM     15  C   UNL     1      -0.413   7.288  25.384  1.00  0.00    -0.003 C 
ATOM     16  C   UNL     1      -0.745   5.923  24.787  1.00  0.00     0.004 C 
ENDBRANCH  14  15
ENDBRANCH  13  14
ENDBRANCH  12  13
ENDBRANCH  11  12
ENDBRANCH  10  11
ENDBRANCH   1  10
TORSDOF 12
ENDMDL
MODEL 9
REMARK VINA RESULT:    -2.769      2.852      5.260
REMARK INTER + INTRA:          -6.811
REMARK INTER:                  -4.733
REMARK INTRA:                  -2.078
REMARK UNBOUND:                -2.100
REMARK SMILES CCCCCCCCCCCCCC(=O)[O-]
REMARK SMILES IDX 8 1 9 2 10 3 11 4 12 5 13 6 14 7 15 8 16 9 7 10 6 11 5 12
REMARK SMILES IDX 4 13 3 14 2 15 1 16
REMARK H PARENT
REMARK Flexibility Score: inf
ROOT
ATOM      1  C   UNL     1       1.430   6.068  39.291  1.00  0.00     0.000 C 
ENDROOT
BRANCH   1   2
ATOM      2  C   UNL     1       0.024   6.179  39.899  1.00  0.00     0.000 C 
BRANCH   2   3
ATOM      3  C   UNL     1      -0.010   7.238  41.012  1.00  0.00     0.000 C 
BRANCH   3   4
ATOM      4  C   UNL     1      -1.038   8.353  40.750  1.00  0.00     0.000 C 
BRANCH   4   5
ATOM      5  C   UNL     1      -2.026   8.071  39.604  1.00  0.00     0.006 C 
BRANCH   5   6
ATOM      6  C   UNL     1      -3.494   8.185  40.038  1.00  0.00     0.053 C 
BRANCH   6   7
ATOM      7  C   UNL     1      -3.802   7.184  41.106  1.00  0.00     0.041 C 
ATOM      8  O   UNL     1      -4.229   7.565  42.227  1.00  0.00    -0.550 OA
ATOM      9  O   UNL     1      -3.570   5.834  40.879  1.00  0.00    -0.550 OA
ENDBRANCH   6   7
ENDBRANCH   5   6
ENDBRANCH   4   5
ENDBRANCH   3   4
ENDBRANCH   2   3
ENDBRANCH   1   2
BRANCH   1  10
ATOM     10  C   UNL     1       1.461   6.414  37.794  1.00  0.00     0.000 C 
BRANCH  10  11
ATOM     11  C   UNL     1       0.968   7.843  37.509  1.00  0.00    -0.000 C 
BRANCH  11  12
ATOM     12  C   UNL     1       0.067   7.929  36.261  1.00  0.00    -0.000 C 
BRANCH  12  13
ATOM     13  C   UNL     1      -0.551   6.594  35.808  1.00  0.00    -0.000 C 
BRANCH  13  14
ATOM     14  C   UNL     1      -2.034   6.460  36.186  1.00  0.00    -0.000 C 
BRANCH  14  15
ATOM     15  C   UNL     1      -2.251   5.282  37.142  1.00  0.00    -0.003 C 
ATOM     16  C   UNL     1      -1.328   4.116  36.797  1.00  0.00     0.004 C 
ENDBRANCH  14  15
ENDBRANCH  13  14
ENDBRANCH  12  13
ENDBRANCH  11  12
ENDBRANCH  10  11
ENDBRANCH   1  10
TORSDOF 12
ENDMDL
