MODEL 1
REMARK VINA RESULT:    -5.231      0.000      0.000
REMARK INTER + INTRA:         -10.891
REMARK INTER:                  -9.818
REMARK INTRA:                  -1.074
REMARK UNBOUND:                -1.074
REMARK SMILES O=C([O-])CCCCCCCCCCCCCCC(=O)[O-]
REMARK SMILES IDX 10 1 9 2 8 3 7 4 6 5 5 6 4 7 2 8 1 9 3 10 11 11 12 12 13 13
REMARK SMILES IDX 14 14 15 15 16 16 17 17 18 18 19 19 20 20
REMARK H PARENT
REMARK Flexibility Score: inf
ROOT
ATOM      1  C   UNL     1      48.588  34.670  13.511  1.00  0.00     0.000 C 
ENDROOT
BRANCH   1   2
ATOM      2  C   UNL     1      48.053  34.264  12.124  1.00  0.00     0.000 C 
BRANCH   2   3
ATOM      3  C   UNL     1      46.580  34.631  11.866  1.00  0.00     0.000 C 
BRANCH   3   4
ATOM      4  C   UNL     1      46.070  35.737  12.805  1.00  0.00     0.000 C 
BRANCH   4   5
ATOM      5  C   UNL     1      44.541  35.728  12.953  1.00  0.00     0.000 C 
BRANCH   5   6
ATOM      6  C   UNL     1      43.860  36.817  12.106  1.00  0.00     0.006 C 
BRANCH   6   7
ATOM      7  C   UNL     1      42.614  36.292  11.381  1.00  0.00     0.053 C 
BRANCH   7   8
ATOM      8  C   UNL     1      41.393  36.379  12.245  1.00  0.00     0.041 C 
ATOM      9  O   UNL     1      40.616  35.393  12.347  1.00  0.00    -0.550 OA
ATOM     10  O   UNL     1      41.093  37.562  12.907  1.00  0.00    -0.550 OA
ENDBRANCH   7   8
ENDBRANCH   6   7
ENDBRANCH   5   6
ENDBRANCH   4   5
ENDBRANCH   3   4
ENDBRANCH   2   3
ENDBRANCH   1   2
BRANCH   1  11
ATOM     11  C   UNL     1      48.467  33.587  14.603  1.00  0.00     0.000 C 
BRANCH  11  12
ATOM     12  C   UNL     1      47.340  33.817  15.625  1.00  0.00     0.000 C 
BRANCH  12  13
ATOM     13  C   UNL     1      47.867  34.057  17.048  1.00  0.00     0.000 C 
BRANCH  13  14
ATOM     14  C   UNL     1      49.284  33.492  17.211  1.00  0.00     0.000 C 
BRANCH  14  15
ATOM     15  C   UNL     1      49.300  32.066  17.785  1.00  0.00     0.000 C 
BRANCH  15  16
ATOM     16  C   UNL     1      47.892  31.477  18.021  1.00  0.00     0.006 C 
BRANCH  16  17
ATOM     17  C   UNL     1      47.860  29.955  17.837  1.00  0.00     0.053 C 
BRANCH  17  18
ATOM     18  C   UNL     1      47.713  29.606  16.390  1.00  0.00     0.041 C 
ATOM     19  O   UNL     1      47.019  30.332  15.630  1.00  0.00    -0.550 OA
ATOM     20  O   UNL     1      48.381  28.504  15.869  1.00  0.00    -0.550 OA
ENDBRANCH  17  18
ENDBRANCH  16  17
ENDBRANCH  15  16
ENDBRANCH  14  15
ENDBRANCH  13  14
ENDBRANCH  12  13
ENDBRANCH  11  12
ENDBRANCH   1  11
TORSDOF 15
ENDMDL
MODEL 2
REMARK VINA RESULT:    -5.190      1.988      9.018
REMARK INTER + INTRA:         -10.815
REMARK INTER:                  -9.743
REMARK INTRA:                  -1.072
REMARK UNBOUND:                -1.074
REMARK SMILES O=C([O-])CCCCCCCCCCCCCCC(=O)[O-]
REMARK SMILES IDX 10 1 9 2 8 3 7 4 6 5 5 6 4 7 2 8 1 9 3 10 11 11 12 12 13 13
REMARK SMILES IDX 14 14 15 15 16 16 17 17 18 18 19 19 20 20
REMARK H PARENT
REMARK Flexibility Score: inf
ROOT
ATOM      1  C   UNL     1      45.137  35.377  12.839  1.00  0.00     0.000 C 
ENDROOT
BRANCH   1   2
ATOM      2  C   UNL     1      46.639  35.727  12.836  1.00  0.00     0.000 C 
BRANCH   2   3
ATOM      3  C   UNL     1      47.574  34.559  12.473  1.00  0.00     0.000 C 
BRANCH   3   4
ATOM      4  C   UNL     1      48.659  34.314  13.534  1.00  0.00     0.000 C 
BRANCH   4   5
ATOM      5  C   UNL     1      48.248  33.249  14.563  1.00  0.00     0.000 C 
BRANCH   5   6
ATOM      6  C   UNL     1      47.694  33.865  15.860  1.00  0.00     0.006 C 
BRANCH   6   7
ATOM      7  C   UNL     1      48.705  33.800  17.011  1.00  0.00     0.053 C 
BRANCH   7   8
ATOM      8  C   UNL     1      48.827  32.412  17.563  1.00  0.00     0.041 C 
ATOM      9  O   UNL     1      47.919  31.940  18.298  1.00  0.00    -0.550 OA
ATOM     10  O   UNL     1      49.960  31.655  17.296  1.00  0.00    -0.550 OA
ENDBRANCH   7   8
ENDBRANCH   6   7
ENDBRANCH   5   6
ENDBRANCH   4   5
ENDBRANCH   3   4
ENDBRANCH   2   3
ENDBRANCH   1   2
BRANCH   1  11
ATOM     11  C   UNL     1      44.192  36.542  12.483  1.00  0.00     0.000 C 
BRANCH  11  12
ATOM     12  C   UNL     1      42.773  36.122  12.061  1.00  0.00     0.000 C 
BRANCH  12  13
ATOM     13  C   UNL     1      42.200  37.002  10.940  1.00  0.00     0.000 C 
BRANCH  13  14
ATOM     14  C   UNL     1      42.992  38.311  10.810  1.00  0.00     0.000 C 
BRANCH  14  15
ATOM     15  C   UNL     1      42.230  39.530  11.353  1.00  0.00     0.000 C 
BRANCH  15  16
ATOM     16  C   UNL     1      40.725  39.270  11.578  1.00  0.00     0.006 C 
BRANCH  16  17
ATOM     17  C   UNL     1      40.305  39.516  13.033  1.00  0.00     0.053 C 
BRANCH  17  18
ATOM     18  C   UNL     1      40.134  38.217  13.756  1.00  0.00     0.041 C 
ATOM     19  O   UNL     1      41.037  37.798  14.527  1.00  0.00    -0.550 OA
ATOM     20  O   UNL     1      38.957  37.493  13.615  1.00  0.00    -0.550 OA
ENDBRANCH  17  18
ENDBRANCH  16  17
ENDBRANCH  15  16
ENDBRANCH  14  15
ENDBRANCH  13  14
ENDBRANCH  12  13
ENDBRANCH  11  12
ENDBRANCH   1  11
TORSDOF 15
ENDMDL
MODEL 3
REMARK VINA RESULT:    -5.155      0.953      8.021
REMARK INTER + INTRA:         -10.748
REMARK INTER:                  -9.514
REMARK INTRA:                  -1.235
REMARK UNBOUND:                -1.074
REMARK SMILES O=C([O-])CCCCCCCCCCCCCCC(=O)[O-]
REMARK SMILES IDX 10 1 9 2 8 3 7 4 6 5 5 6 4 7 2 8 1 9 3 10 11 11 12 12 13 13
REMARK SMILES IDX 14 14 15 15 16 16 17 17 18 18 19 19 20 20
REMARK H PARENT
REMARK Flexibility Score: inf
ROOT
ATOM      1  C   UNL     1      47.273  33.959  15.401  1.00  0.00     0.000 C 
ENDROOT
BRANCH   1   2
ATOM      2  C   UNL     1      47.622  34.074  16.898  1.00  0.00     0.000 C 
BRANCH   2   3
ATOM      3  C   UNL     1      49.088  33.759  17.246  1.00  0.00     0.000 C 
BRANCH   3   4
ATOM      4  C   UNL     1      49.266  32.365  17.870  1.00  0.00     0.000 C 
BRANCH   4   5
ATOM      5  C   UNL     1      47.926  31.662  18.135  1.00  0.00     0.000 C 
BRANCH   5   6
ATOM      6  C   UNL     1      47.866  30.254  17.516  1.00  0.00     0.006 C 
BRANCH   6   7
ATOM      7  C   UNL     1      48.781  30.121  16.292  1.00  0.00     0.053 C 
BRANCH   7   8
ATOM      8  C   UNL     1      48.202  29.194  15.267  1.00  0.00     0.041 C 
ATOM      9  O   UNL     1      47.945  29.612  14.106  1.00  0.00    -0.550 OA
ATOM     10  O   UNL     1      47.912  27.879  15.604  1.00  0.00    -0.550 OA
ENDBRANCH   7   8
ENDBRANCH   6   7
ENDBRANCH   5   6
ENDBRANCH   4   5
ENDBRANCH   3   4
ENDBRANCH   2   3
ENDBRANCH   1   2
BRANCH   1  11
ATOM     11  C   UNL     1      48.460  33.625  14.475  1.00  0.00     0.000 C 
BRANCH  11  12
ATOM     12  C   UNL     1      48.670  34.607  13.308  1.00  0.00     0.000 C 
BRANCH  12  13
ATOM     13  C   UNL     1      48.132  34.068  11.974  1.00  0.00     0.000 C 
BRANCH  13  14
ATOM     14  C   UNL     1      46.624  34.325  11.846  1.00  0.00     0.000 C 
BRANCH  14  15
ATOM     15  C   UNL     1      46.175  35.624  12.535  1.00  0.00     0.000 C 
BRANCH  15  16
ATOM     16  C   UNL     1      44.652  35.708  12.769  1.00  0.00     0.006 C 
BRANCH  16  17
ATOM     17  C   UNL     1      44.047  36.998  12.201  1.00  0.00     0.053 C 
BRANCH  17  18
ATOM     18  C   UNL     1      42.726  36.719  11.556  1.00  0.00     0.041 C 
ATOM     19  O   UNL     1      41.984  35.805  12.003  1.00  0.00    -0.550 OA
ATOM     20  O   UNL     1      42.293  37.501  10.493  1.00  0.00    -0.550 OA
ENDBRANCH  17  18
ENDBRANCH  16  17
ENDBRANCH  15  16
ENDBRANCH  14  15
ENDBRANCH  13  14
ENDBRANCH  12  13
ENDBRANCH  11  12
ENDBRANCH   1  11
TORSDOF 15
ENDMDL
MODEL 4
REMARK VINA RESULT:    -5.119      2.098      3.833
REMARK INTER + INTRA:         -10.682
REMARK INTER:                  -9.727
REMARK INTRA:                  -0.955
REMARK UNBOUND:                -1.074
REMARK SMILES O=C([O-])CCCCCCCCCCCCCCC(=O)[O-]
REMARK SMILES IDX 10 1 9 2 8 3 7 4 6 5 5 6 4 7 2 8 1 9 3 10 11 11 12 12 13 13
REMARK SMILES IDX 14 14 15 15 16 16 17 17 18 18 19 19 20 20
REMARK H PARENT
REMARK Flexibility Score: inf
ROOT
ATOM      1  C   UNL     1      44.986  35.475  13.057  1.00  0.00     0.000 C 
ENDROOT
BRANCH   1   2
ATOM      2  C   UNL     1      44.108  36.606  12.485  1.00  0.00     0.000 C 
BRANCH   2   3
ATOM      3  C   UNL     1      42.844  36.133  11.745  1.00  0.00     0.000 C 
BRANCH   3   4
ATOM      4  C   UNL     1      42.412  37.099  10.630  1.00  0.00     0.000 C 
BRANCH   4   5
ATOM      5  C   UNL     1      42.899  38.536  10.871  1.00  0.00     0.000 C 
BRANCH   5   6
ATOM      6  C   UNL     1      41.747  39.556  10.879  1.00  0.00     0.006 C 
BRANCH   6   7
ATOM      7  C   UNL     1      41.193  39.794  12.289  1.00  0.00     0.053 C 
BRANCH   7   8
ATOM      8  C   UNL     1      39.766  39.354  12.406  1.00  0.00     0.041 C 
ATOM      9  O   UNL     1      39.362  38.782  13.453  1.00  0.00    -0.550 OA
ATOM     10  O   UNL     1      38.892  39.543  11.343  1.00  0.00    -0.550 OA
ENDBRANCH   7   8
ENDBRANCH   6   7
ENDBRANCH   5   6
ENDBRANCH   4   5
ENDBRANCH   3   4
ENDBRANCH   2   3
ENDBRANCH   1   2
BRANCH   1  11
ATOM     11  C   UNL     1      46.494  35.601  12.759  1.00  0.00     0.000 C 
BRANCH  11  12
ATOM     12  C   UNL     1      47.041  34.590  11.735  1.00  0.00     0.000 C 
BRANCH  12  13
ATOM     13  C   UNL     1      48.240  33.793  12.269  1.00  0.00     0.000 C 
BRANCH  13  14
ATOM     14  C   UNL     1      48.621  34.253  13.683  1.00  0.00     0.000 C 
BRANCH  14  15
ATOM     15  C   UNL     1      48.284  33.214  14.764  1.00  0.00     0.000 C 
BRANCH  15  16
ATOM     16  C   UNL     1      47.722  33.831  16.063  1.00  0.00     0.006 C 
BRANCH  16  17
ATOM     17  C   UNL     1      48.769  33.883  17.182  1.00  0.00     0.053 C 
BRANCH  17  18
ATOM     18  C   UNL     1      49.077  32.505  17.677  1.00  0.00     0.041 C 
ATOM     19  O   UNL     1      48.144  31.734  18.026  1.00  0.00    -0.550 OA
ATOM     20  O   UNL     1      50.390  32.054  17.706  1.00  0.00    -0.550 OA
ENDBRANCH  17  18
ENDBRANCH  16  17
ENDBRANCH  15  16
ENDBRANCH  14  15
ENDBRANCH  13  14
ENDBRANCH  12  13
ENDBRANCH  11  12
ENDBRANCH   1  11
TORSDOF 15
ENDMDL
MODEL 5
REMARK VINA RESULT:    -5.119      1.302      8.537
REMARK INTER + INTRA:         -10.682
REMARK INTER:                  -9.881
REMARK INTRA:                  -0.800
REMARK UNBOUND:                -1.074
REMARK SMILES O=C([O-])CCCCCCCCCCCCCCC(=O)[O-]
REMARK SMILES IDX 10 1 9 2 8 3 7 4 6 5 5 6 4 7 2 8 1 9 3 10 11 11 12 12 13 13
REMARK SMILES IDX 14 14 15 15 16 16 17 17 18 18 19 19 20 20
REMARK H PARENT
REMARK Flexibility Score: inf
ROOT
ATOM      1  C   UNL     1      47.508  34.477  12.517  1.00  0.00     0.000 C 
ENDROOT
BRANCH   1   2
ATOM      2  C   UNL     1      48.504  34.482  13.693  1.00  0.00     0.000 C 
BRANCH   2   3
ATOM      3  C   UNL     1      48.294  33.357  14.723  1.00  0.00     0.000 C 
BRANCH   3   4
ATOM      4  C   UNL     1      47.853  33.885  16.098  1.00  0.00     0.000 C 
BRANCH   4   5
ATOM      5  C   UNL     1      48.983  33.841  17.138  1.00  0.00     0.000 C 
BRANCH   5   6
ATOM      6  C   UNL     1      49.368  32.404  17.530  1.00  0.00     0.006 C 
BRANCH   6   7
ATOM      7  C   UNL     1      48.138  31.537  17.831  1.00  0.00     0.053 C 
BRANCH   7   8
ATOM      8  C   UNL     1      48.065  30.347  16.925  1.00  0.00     0.041 C 
ATOM      9  O   UNL     1      47.122  30.236  16.098  1.00  0.00    -0.550 OA
ATOM     10  O   UNL     1      49.019  29.342  17.019  1.00  0.00    -0.550 OA
ENDBRANCH   7   8
ENDBRANCH   6   7
ENDBRANCH   5   6
ENDBRANCH   4   5
ENDBRANCH   3   4
ENDBRANCH   2   3
ENDBRANCH   1   2
BRANCH   1  11
ATOM     11  C   UNL     1      46.588  35.712  12.432  1.00  0.00     0.000 C 
BRANCH  11  12
ATOM     12  C   UNL     1      45.216  35.548  13.111  1.00  0.00     0.000 C 
BRANCH  12  13
ATOM     13  C   UNL     1      44.058  36.060  12.243  1.00  0.00     0.000 C 
BRANCH  13  14
ATOM     14  C   UNL     1      42.866  36.486  13.112  1.00  0.00     0.000 C 
BRANCH  14  15
ATOM     15  C   UNL     1      41.552  36.587  12.321  1.00  0.00     0.000 C 
BRANCH  15  16
ATOM     16  C   UNL     1      41.682  36.152  10.845  1.00  0.00     0.006 C 
BRANCH  16  17
ATOM     17  C   UNL     1      40.929  34.847  10.556  1.00  0.00     0.053 C 
BRANCH  17  18
ATOM     18  C   UNL     1      39.519  34.935  11.049  1.00  0.00     0.041 C 
ATOM     19  O   UNL     1      39.133  34.203  11.998  1.00  0.00    -0.550 OA
ATOM     20  O   UNL     1      38.645  35.861  10.493  1.00  0.00    -0.550 OA
ENDBRANCH  17  18
ENDBRANCH  16  17
ENDBRANCH  15  16
ENDBRANCH  14  15
ENDBRANCH  13  14
ENDBRANCH  12  13
ENDBRANCH  11  12
ENDBRANCH   1  11
TORSDOF 15
ENDMDL
MODEL 6
REMARK VINA RESULT:    -5.093      4.356      8.813
REMARK INTER + INTRA:         -10.632
REMARK INTER:                  -9.356
REMARK INTRA:                  -1.277
REMARK UNBOUND:                -1.074
REMARK SMILES O=C([O-])CCCCCCCCCCCCCCC(=O)[O-]
REMARK SMILES IDX 10 1 9 2 8 3 7 4 6 5 5 6 4 7 2 8 1 9 3 10 11 11 12 12 13 13
REMARK SMILES IDX 14 14 15 15 16 16 17 17 18 18 19 19 20 20
REMARK H PARENT
REMARK Flexibility Score: inf
ROOT
ATOM      1  C   UNL     1      49.490  29.642  15.426  1.00  0.00     0.000 C 
ENDROOT
BRANCH   1   2
ATOM      2  C   UNL     1      48.634  28.397  15.731  1.00  0.00     0.000 C 
BRANCH   2   3
ATOM      3  C   UNL     1      49.403  27.224  16.366  1.00  0.00     0.000 C 
BRANCH   3   4
ATOM      4  C   UNL     1      48.617  25.903  16.319  1.00  0.00     0.000 C 
BRANCH   4   5
ATOM      5  C   UNL     1      47.829  25.731  15.011  1.00  0.00     0.000 C 
BRANCH   5   6
ATOM      6  C   UNL     1      48.596  24.904  13.965  1.00  0.00     0.006 C 
BRANCH   6   7
ATOM      7  C   UNL     1      48.885  25.708  12.691  1.00  0.00     0.053 C 
BRANCH   7   8
ATOM      8  C   UNL     1      50.325  25.611  12.289  1.00  0.00     0.041 C 
ATOM      9  O   UNL     1      51.209  25.366  13.152  1.00  0.00    -0.550 OA
ATOM     10  O   UNL     1      50.695  25.827  10.968  1.00  0.00    -0.550 OA
ENDBRANCH   7   8
ENDBRANCH   6   7
ENDBRANCH   5   6
ENDBRANCH   4   5
ENDBRANCH   3   4
ENDBRANCH   2   3
ENDBRANCH   1   2
BRANCH   1  11
ATOM     11  C   UNL     1      49.933  30.451  16.662  1.00  0.00     0.000 C 
BRANCH  11  12
ATOM     12  C   UNL     1      48.897  31.464  17.182  1.00  0.00     0.000 C 
BRANCH  12  13
ATOM     13  C   UNL     1      49.526  32.805  17.585  1.00  0.00     0.000 C 
BRANCH  13  14
ATOM     14  C   UNL     1      48.818  33.976  16.889  1.00  0.00     0.000 C 
BRANCH  14  15
ATOM     15  C   UNL     1      47.899  33.525  15.742  1.00  0.00     0.000 C 
BRANCH  15  16
ATOM     16  C   UNL     1      48.386  33.969  14.346  1.00  0.00     0.006 C 
BRANCH  16  17
ATOM     17  C   UNL     1      48.777  32.778  13.462  1.00  0.00     0.053 C 
BRANCH  17  18
ATOM     18  C   UNL     1      48.999  33.224  12.051  1.00  0.00     0.041 C 
ATOM     19  O   UNL     1      48.064  33.156  11.211  1.00  0.00    -0.550 OA
ATOM     20  O   UNL     1      50.225  33.760  11.677  1.00  0.00    -0.550 OA
ENDBRANCH  17  18
ENDBRANCH  16  17
ENDBRANCH  15  16
ENDBRANCH  14  15
ENDBRANCH  13  14
ENDBRANCH  12  13
ENDBRANCH  11  12
ENDBRANCH   1  11
TORSDOF 15
ENDMDL
MODEL 7
REMARK VINA RESULT:    -5.035      2.085      8.837
REMARK INTER + INTRA:         -10.524
REMARK INTER:                  -9.106
REMARK INTRA:                  -1.418
REMARK UNBOUND:                -1.074
REMARK SMILES O=C([O-])CCCCCCCCCCCCCCC(=O)[O-]
REMARK SMILES IDX 10 1 9 2 8 3 7 4 6 5 5 6 4 7 2 8 1 9 3 10 11 11 12 12 13 13
REMARK SMILES IDX 14 14 15 15 16 16 17 17 18 18 19 19 20 20
REMARK H PARENT
REMARK Flexibility Score: inf
ROOT
ATOM      1  C   UNL     1      43.427  36.183  12.559  1.00  0.00     0.000 C 
ENDROOT
BRANCH   1   2
ATOM      2  C   UNL     1      44.759  35.789  13.229  1.00  0.00     0.000 C 
BRANCH   2   3
ATOM      3  C   UNL     1      45.775  35.108  12.295  1.00  0.00     0.000 C 
BRANCH   3   4
ATOM      4  C   UNL     1      47.229  35.294  12.761  1.00  0.00     0.000 C 
BRANCH   4   5
ATOM      5  C   UNL     1      48.108  34.071  12.455  1.00  0.00     0.000 C 
BRANCH   5   6
ATOM      6  C   UNL     1      48.688  33.429  13.728  1.00  0.00     0.006 C 
BRANCH   6   7
ATOM      7  C   UNL     1      47.893  33.811  14.983  1.00  0.00     0.053 C 
BRANCH   7   8
ATOM      8  C   UNL     1      48.576  33.349  16.233  1.00  0.00     0.041 C 
ATOM      9  O   UNL     1      48.729  32.118  16.455  1.00  0.00    -0.550 OA
ATOM     10  O   UNL     1      49.012  34.276  17.171  1.00  0.00    -0.550 OA
ENDBRANCH   7   8
ENDBRANCH   6   7
ENDBRANCH   5   6
ENDBRANCH   4   5
ENDBRANCH   3   4
ENDBRANCH   2   3
ENDBRANCH   1   2
BRANCH   1  11
ATOM     11  C   UNL     1      43.458  37.504  11.765  1.00  0.00     0.000 C 
BRANCH  11  12
ATOM     12  C   UNL     1      42.424  37.604  10.630  1.00  0.00     0.000 C 
BRANCH  12  13
ATOM     13  C   UNL     1      41.949  36.230  10.135  1.00  0.00     0.000 C 
BRANCH  13  14
ATOM     14  C   UNL     1      40.436  36.066  10.334  1.00  0.00     0.000 C 
BRANCH  14  15
ATOM     15  C   UNL     1      40.082  35.052  11.434  1.00  0.00     0.000 C 
BRANCH  15  16
ATOM     16  C   UNL     1      39.721  35.704  12.786  1.00  0.00     0.006 C 
BRANCH  16  17
ATOM     17  C   UNL     1      39.300  37.170  12.629  1.00  0.00     0.053 C 
BRANCH  17  18
ATOM     18  C   UNL     1      40.129  38.051  13.510  1.00  0.00     0.041 C 
ATOM     19  O   UNL     1      40.870  37.546  14.394  1.00  0.00    -0.550 OA
ATOM     20  O   UNL     1      40.119  39.427  13.322  1.00  0.00    -0.550 OA
ENDBRANCH  17  18
ENDBRANCH  16  17
ENDBRANCH  15  16
ENDBRANCH  14  15
ENDBRANCH  13  14
ENDBRANCH  12  13
ENDBRANCH  11  12
ENDBRANCH   1  11
TORSDOF 15
ENDMDL
MODEL 8
REMARK VINA RESULT:    -4.927      6.231     11.561
REMARK INTER + INTRA:         -10.320
REMARK INTER:                  -8.574
REMARK INTRA:                  -1.746
REMARK UNBOUND:                -1.074
REMARK SMILES O=C([O-])CCCCCCCCCCCCCCC(=O)[O-]
REMARK SMILES IDX 10 1 9 2 8 3 7 4 6 5 5 6 4 7 2 8 1 9 3 10 11 11 12 12 13 13
REMARK SMILES IDX 14 14 15 15 16 16 17 17 18 18 19 19 20 20
REMARK H PARENT
REMARK Flexibility Score: inf
ROOT
ATOM      1  C   UNL     1      48.433  25.656  19.305  1.00  0.00     0.000 C 
ENDROOT
BRANCH   1   2
ATOM      2  C   UNL     1      48.068  25.586  20.801  1.00  0.00     0.000 C 
BRANCH   2   3
ATOM      3  C   UNL     1      48.178  26.923  21.556  1.00  0.00     0.000 C 
BRANCH   3   4
ATOM      4  C   UNL     1      49.412  26.990  22.471  1.00  0.00     0.000 C 
BRANCH   4   5
ATOM      5  C   UNL     1      50.052  25.612  22.701  1.00  0.00     0.000 C 
BRANCH   5   6
ATOM      6  C   UNL     1      51.558  25.601  22.384  1.00  0.00     0.006 C 
BRANCH   6   7
ATOM      7  C   UNL     1      52.025  26.916  21.748  1.00  0.00     0.053 C 
BRANCH   7   8
ATOM      8  C   UNL     1      52.757  26.679  20.462  1.00  0.00     0.041 C 
ATOM      9  O   UNL     1      53.125  25.517  20.146  1.00  0.00    -0.550 OA
ATOM     10  O   UNL     1      53.064  27.748  19.631  1.00  0.00    -0.550 OA
ENDBRANCH   7   8
ENDBRANCH   6   7
ENDBRANCH   5   6
ENDBRANCH   4   5
ENDBRANCH   3   4
ENDBRANCH   2   3
ENDBRANCH   1   2
BRANCH   1  11
ATOM     11  C   UNL     1      49.702  24.877  18.903  1.00  0.00     0.000 C 
BRANCH  11  12
ATOM     12  C   UNL     1      50.386  25.369  17.616  1.00  0.00     0.000 C 
BRANCH  12  13
ATOM     13  C   UNL     1      49.475  25.271  16.383  1.00  0.00     0.000 C 
BRANCH  13  14
ATOM     14  C   UNL     1      49.546  26.554  15.544  1.00  0.00     0.000 C 
BRANCH  14  15
ATOM     15  C   UNL     1      48.375  27.514  15.813  1.00  0.00     0.000 C 
BRANCH  15  16
ATOM     16  C   UNL     1      48.658  28.536  16.935  1.00  0.00     0.006 C 
BRANCH  16  17
ATOM     17  C   UNL     1      47.699  29.733  16.885  1.00  0.00     0.053 C 
BRANCH  17  18
ATOM     18  C   UNL     1      48.374  30.967  17.394  1.00  0.00     0.041 C 
ATOM     19  O   UNL     1      49.539  31.255  17.013  1.00  0.00    -0.550 OA
ATOM     20  O   UNL     1      47.697  31.826  18.251  1.00  0.00    -0.550 OA
ENDBRANCH  17  18
ENDBRANCH  16  17
ENDBRANCH  15  16
ENDBRANCH  14  15
ENDBRANCH  13  14
ENDBRANCH  12  13
ENDBRANCH  11  12
ENDBRANCH   1  11
TORSDOF 15
ENDMDL
MODEL 9
REMARK VINA RESULT:    -4.890      5.777      9.135
REMARK INTER + INTRA:         -10.252
REMARK INTER:                  -8.643
REMARK INTRA:                  -1.609
REMARK UNBOUND:                -1.074
REMARK SMILES O=C([O-])CCCCCCCCCCCCCCC(=O)[O-]
REMARK SMILES IDX 10 1 9 2 8 3 7 4 6 5 5 6 4 7 2 8 1 9 3 10 11 11 12 12 13 13
REMARK SMILES IDX 14 14 15 15 16 16 17 17 18 18 19 19 20 20
REMARK H PARENT
REMARK Flexibility Score: inf
ROOT
ATOM      1  C   UNL     1      49.423  25.055  18.767  1.00  0.00     0.000 C 
ENDROOT
BRANCH   1   2
ATOM      2  C   UNL     1      49.589  25.326  17.258  1.00  0.00     0.000 C 
BRANCH   2   3
ATOM      3  C   UNL     1      48.273  25.558  16.494  1.00  0.00     0.000 C 
BRANCH   3   4
ATOM      4  C   UNL     1      48.294  26.844  15.652  1.00  0.00     0.000 C 
BRANCH   4   5
ATOM      5  C   UNL     1      49.316  27.870  16.165  1.00  0.00     0.000 C 
BRANCH   5   6
ATOM      6  C   UNL     1      48.664  28.989  16.995  1.00  0.00     0.006 C 
BRANCH   6   7
ATOM      7  C   UNL     1      49.213  30.375  16.632  1.00  0.00     0.053 C 
BRANCH   7   8
ATOM      8  C   UNL     1      48.282  31.468  17.057  1.00  0.00     0.041 C 
ATOM      9  O   UNL     1      48.146  32.499  16.346  1.00  0.00    -0.550 OA
ATOM     10  O   UNL     1      47.592  31.366  18.259  1.00  0.00    -0.550 OA
ENDBRANCH   7   8
ENDBRANCH   6   7
ENDBRANCH   5   6
ENDBRANCH   4   5
ENDBRANCH   3   4
ENDBRANCH   2   3
ENDBRANCH   1   2
BRANCH   1  11
ATOM     11  C   UNL     1      48.476  26.023  19.506  1.00  0.00     0.000 C 
BRANCH  11  12
ATOM     12  C   UNL     1      48.110  25.604  20.941  1.00  0.00     0.000 C 
BRANCH  12  13
ATOM     13  C   UNL     1      48.134  26.780  21.928  1.00  0.00     0.000 C 
BRANCH  13  14
ATOM     14  C   UNL     1      49.520  26.930  22.571  1.00  0.00     0.000 C 
BRANCH  14  15
ATOM     15  C   UNL     1      50.280  25.598  22.675  1.00  0.00     0.000 C 
BRANCH  15  16
ATOM     16  C   UNL     1      51.687  25.635  22.040  1.00  0.00     0.006 C 
BRANCH  16  17
ATOM     17  C   UNL     1      52.063  27.037  21.545  1.00  0.00     0.053 C 
BRANCH  17  18
ATOM     18  C   UNL     1      52.737  26.959  20.211  1.00  0.00     0.041 C 
ATOM     19  O   UNL     1      53.301  27.974  19.725  1.00  0.00    -0.550 OA
ATOM     20  O   UNL     1      52.784  25.750  19.527  1.00  0.00    -0.550 OA
ENDBRANCH  17  18
ENDBRANCH  16  17
ENDBRANCH  15  16
ENDBRANCH  14  15
ENDBRANCH  13  14
ENDBRANCH  12  13
ENDBRANCH  11  12
ENDBRANCH   1  11
TORSDOF 15
ENDMDL
