MODEL 1
REMARK VINA RESULT:    -3.715      0.000      0.000
REMARK INTER + INTRA:          -4.479
REMARK INTER:                  -4.475
REMARK INTRA:                  -0.004
REMARK UNBOUND:                -0.004
REMARK SMILES OCC(O)CO
REMARK SMILES IDX 3 1 5 2 6 3 2 5 1 6 4 8
REMARK H PARENT 6 4 1 7 4 9
REMARK Flexibility Score: inf
ROOT
ATOM      1  C   UNL     1       2.711  25.169  19.638  1.00  0.00     0.165 C 
ENDROOT
BRANCH   1   2
ATOM      2  C   UNL     1       3.661  25.581  18.501  1.00  0.00     0.190 C 
BRANCH   2   3
ATOM      3  O   UNL     1       4.953  25.089  18.731  1.00  0.00    -0.394 OA
ATOM      4  H   UNL     1       4.920  24.119  18.523  1.00  0.00     0.210 HD
ENDBRANCH   2   3
ENDBRANCH   1   2
BRANCH   1   5
ATOM      5  C   UNL     1       1.384  25.952  19.613  1.00  0.00     0.190 C 
BRANCH   5   6
ATOM      6  O   UNL     1       1.586  27.291  19.977  1.00  0.00    -0.394 OA
ATOM      7  H   UNL     1       2.311  27.295  20.655  1.00  0.00     0.210 HD
ENDBRANCH   5   6
ENDBRANCH   1   5
BRANCH   1   8
ATOM      8  O   UNL     1       2.471  23.784  19.606  1.00  0.00    -0.388 OA
ATOM      9  H   UNL     1       3.150  23.373  19.009  1.00  0.00     0.211 HD
ENDBRANCH   1   8
TORSDOF 5
ENDMDL
MODEL 2
REMARK VINA RESULT:    -3.633      1.155      2.878
REMARK INTER + INTRA:          -4.380
REMARK INTER:                  -4.167
REMARK INTRA:                  -0.213
REMARK UNBOUND:                -0.004
REMARK SMILES OCC(O)CO
REMARK SMILES IDX 3 1 5 2 6 3 2 5 1 6 4 8
REMARK H PARENT 6 4 1 7 4 9
REMARK Flexibility Score: inf
ROOT
ATOM      1  C   UNL     1       2.738  26.017  18.867  1.00  0.00     0.165 C 
ENDROOT
BRANCH   1   2
ATOM      2  C   UNL     1       2.598  25.034  20.042  1.00  0.00     0.190 C 
BRANCH   2   3
ATOM      3  O   UNL     1       2.397  23.728  19.575  1.00  0.00    -0.394 OA
ATOM      4  H   UNL     1       1.424  23.646  19.396  1.00  0.00     0.210 HD
ENDBRANCH   2   3
ENDBRANCH   1   2
BRANCH   1   5
ATOM      5  C   UNL     1       3.950  25.699  17.970  1.00  0.00     0.190 C 
BRANCH   5   6
ATOM      6  O   UNL     1       4.979  25.103  18.713  1.00  0.00    -0.394 OA
ATOM      7  H   UNL     1       5.572  24.646  18.061  1.00  0.00     0.210 HD
ENDBRANCH   5   6
ENDBRANCH   1   5
BRANCH   1   8
ATOM      8  O   UNL     1       1.554  26.055  18.109  1.00  0.00    -0.388 OA
ATOM      9  H   UNL     1       1.644  26.788  17.444  1.00  0.00     0.211 HD
ENDBRANCH   1   8
TORSDOF 5
ENDMDL
MODEL 3
REMARK VINA RESULT:    -3.625      0.727      2.924
REMARK INTER + INTRA:          -4.371
REMARK INTER:                  -4.366
REMARK INTRA:                  -0.005
REMARK UNBOUND:                -0.004
REMARK SMILES OCC(O)CO
REMARK SMILES IDX 3 1 5 2 6 3 2 5 1 6 4 8
REMARK H PARENT 6 4 1 7 4 9
REMARK Flexibility Score: inf
ROOT
ATOM      1  C   UNL     1       2.550  25.138  19.406  1.00  0.00     0.165 C 
ENDROOT
BRANCH   1   2
ATOM      2  C   UNL     1       1.314  26.053  19.388  1.00  0.00     0.190 C 
BRANCH   2   3
ATOM      3  O   UNL     1       1.599  27.284  19.994  1.00  0.00    -0.394 OA
ATOM      4  H   UNL     1       1.716  27.094  20.962  1.00  0.00     0.210 HD
ENDBRANCH   2   3
ENDBRANCH   1   2
BRANCH   1   5
ATOM      5  C   UNL     1       3.665  25.630  18.463  1.00  0.00     0.190 C 
BRANCH   5   6
ATOM      6  O   UNL     1       4.894  25.042  18.793  1.00  0.00    -0.394 OA
ATOM      7  H   UNL     1       4.810  24.074  18.588  1.00  0.00     0.210 HD
ENDBRANCH   5   6
ENDBRANCH   1   5
BRANCH   1   8
ATOM      8  O   UNL     1       3.038  24.989  20.717  1.00  0.00    -0.388 OA
ATOM      9  H   UNL     1       2.978  25.874  21.164  1.00  0.00     0.211 HD
ENDBRANCH   1   8
TORSDOF 5
ENDMDL
MODEL 4
REMARK VINA RESULT:    -3.604      1.374      2.018
REMARK INTER + INTRA:          -4.346
REMARK INTER:                  -4.127
REMARK INTRA:                  -0.219
REMARK UNBOUND:                -0.004
REMARK SMILES OCC(O)CO
REMARK SMILES IDX 3 1 5 2 6 3 2 5 1 6 4 8
REMARK H PARENT 6 4 1 7 4 9
REMARK Flexibility Score: inf
ROOT
ATOM      1  C   UNL     1       2.812  25.547  18.381  1.00  0.00     0.165 C 
ENDROOT
BRANCH   1   2
ATOM      2  C   UNL     1       4.265  25.809  17.949  1.00  0.00     0.190 C 
BRANCH   2   3
ATOM      3  O   UNL     1       5.157  25.056  18.725  1.00  0.00    -0.394 OA
ATOM      4  H   UNL     1       4.644  24.751  19.517  1.00  0.00     0.210 HD
ENDBRANCH   2   3
ENDBRANCH   1   2
BRANCH   1   5
ATOM      5  C   UNL     1       2.599  25.750  19.894  1.00  0.00     0.190 C 
BRANCH   5   6
ATOM      6  O   UNL     1       3.057  24.640  20.617  1.00  0.00    -0.394 OA
ATOM      7  H   UNL     1       4.040  24.604  20.491  1.00  0.00     0.210 HD
ENDBRANCH   5   6
ENDBRANCH   1   5
BRANCH   1   8
ATOM      8  O   UNL     1       1.923  26.348  17.642  1.00  0.00    -0.388 OA
ATOM      9  H   UNL     1       1.990  27.276  17.991  1.00  0.00     0.211 HD
ENDBRANCH   1   8
TORSDOF 5
ENDMDL
MODEL 5
REMARK VINA RESULT:    -3.584      1.507      2.208
REMARK INTER + INTRA:          -4.322
REMARK INTER:                  -4.319
REMARK INTRA:                  -0.003
REMARK UNBOUND:                -0.004
REMARK SMILES OCC(O)CO
REMARK SMILES IDX 3 1 5 2 6 3 2 5 1 6 4 8
REMARK H PARENT 6 4 1 7 4 9
REMARK Flexibility Score: inf
ROOT
ATOM      1  C   UNL     1       3.960  25.771  18.529  1.00  0.00     0.165 C 
ENDROOT
BRANCH   1   2
ATOM      2  C   UNL     1       3.564  26.002  17.060  1.00  0.00     0.190 C 
BRANCH   2   3
ATOM      3  O   UNL     1       4.694  25.976  16.231  1.00  0.00    -0.394 OA
ATOM      4  H   UNL     1       4.563  26.700  15.565  1.00  0.00     0.210 HD
ENDBRANCH   2   3
ENDBRANCH   1   2
BRANCH   1   5
ATOM      5  C   UNL     1       2.847  25.081  19.341  1.00  0.00     0.190 C 
BRANCH   5   6
ATOM      6  O   UNL     1       2.656  25.723  20.572  1.00  0.00    -0.394 OA
ATOM      7  H   UNL     1       1.693  25.962  20.622  1.00  0.00     0.210 HD
ENDBRANCH   5   6
ENDBRANCH   1   5
BRANCH   1   8
ATOM      8  O   UNL     1       5.160  25.041  18.610  1.00  0.00    -0.388 OA
ATOM      9  H   UNL     1       5.590  25.065  17.714  1.00  0.00     0.211 HD
ENDBRANCH   1   8
TORSDOF 5
ENDMDL
MODEL 6
REMARK VINA RESULT:    -3.523      1.566      3.190
REMARK INTER + INTRA:          -4.248
REMARK INTER:                  -4.246
REMARK INTRA:                  -0.002
REMARK UNBOUND:                -0.004
REMARK SMILES OCC(O)CO
REMARK SMILES IDX 3 1 5 2 6 3 2 5 1 6 4 8
REMARK H PARENT 6 4 1 7 4 9
REMARK Flexibility Score: inf
ROOT
ATOM      1  C   UNL     1       3.670  25.413  18.127  1.00  0.00     0.165 C 
ENDROOT
BRANCH   1   2
ATOM      2  C   UNL     1       2.564  25.958  19.046  1.00  0.00     0.190 C 
BRANCH   2   3
ATOM      3  O   UNL     1       2.918  25.806  20.394  1.00  0.00    -0.394 OA
ATOM      4  H   UNL     1       2.910  24.830  20.572  1.00  0.00     0.210 HD
ENDBRANCH   2   3
ENDBRANCH   1   2
BRANCH   1   5
ATOM      5  C   UNL     1       3.969  26.350  16.941  1.00  0.00     0.190 C 
BRANCH   5   6
ATOM      6  O   UNL     1       5.311  26.245  16.547  1.00  0.00    -0.394 OA
ATOM      7  H   UNL     1       5.853  26.272  17.378  1.00  0.00     0.210 HD
ENDBRANCH   5   6
ENDBRANCH   1   5
BRANCH   1   8
ATOM      8  O   UNL     1       4.841  25.152  18.861  1.00  0.00    -0.388 OA
ATOM      9  H   UNL     1       4.844  25.756  19.650  1.00  0.00     0.211 HD
ENDBRANCH   1   8
TORSDOF 5
ENDMDL
MODEL 7
REMARK VINA RESULT:    -3.459     20.552     21.216
REMARK INTER + INTRA:          -4.170
REMARK INTER:                  -3.953
REMARK INTRA:                  -0.217
REMARK UNBOUND:                -0.004
REMARK SMILES OCC(O)CO
REMARK SMILES IDX 3 1 5 2 6 3 2 5 1 6 4 8
REMARK H PARENT 6 4 1 7 4 9
REMARK Flexibility Score: inf
ROOT
ATOM      1  C   UNL     1      13.813  14.973  34.818  1.00  0.00     0.165 C 
ENDROOT
BRANCH   1   2
ATOM      2  C   UNL     1      12.333  14.556  34.757  1.00  0.00     0.190 C 
BRANCH   2   3
ATOM      3  O   UNL     1      11.658  15.265  33.755  1.00  0.00    -0.394 OA
ATOM      4  H   UNL     1      12.296  15.350  33.000  1.00  0.00     0.210 HD
ENDBRANCH   2   3
ENDBRANCH   1   2
BRANCH   1   5
ATOM      5  C   UNL     1      14.693  14.176  33.837  1.00  0.00     0.190 C 
BRANCH   5   6
ATOM      6  O   UNL     1      14.259  14.357  32.516  1.00  0.00    -0.394 OA
ATOM      7  H   UNL     1      15.022  14.110  31.930  1.00  0.00     0.210 HD
ENDBRANCH   5   6
ENDBRANCH   1   5
BRANCH   1   8
ATOM      8  O   UNL     1      13.947  16.356  34.595  1.00  0.00    -0.388 OA
ATOM      9  H   UNL     1      14.539  16.479  33.808  1.00  0.00     0.211 HD
ENDBRANCH   1   8
TORSDOF 5
ENDMDL
MODEL 8
REMARK VINA RESULT:    -3.442      6.456      7.322
REMARK INTER + INTRA:          -4.150
REMARK INTER:                  -3.946
REMARK INTRA:                  -0.204
REMARK UNBOUND:                -0.004
REMARK SMILES OCC(O)CO
REMARK SMILES IDX 3 1 5 2 6 3 2 5 1 6 4 8
REMARK H PARENT 6 4 1 7 4 9
REMARK Flexibility Score: inf
ROOT
ATOM      1  C   UNL     1      -0.534  23.116  25.382  1.00  0.00     0.165 C 
ENDROOT
BRANCH   1   2
ATOM      2  C   UNL     1       0.064  23.218  23.968  1.00  0.00     0.190 C 
BRANCH   2   3
ATOM      3  O   UNL     1       1.457  23.070  24.006  1.00  0.00    -0.394 OA
ATOM      4  H   UNL     1       1.833  23.987  23.957  1.00  0.00     0.210 HD
ENDBRANCH   2   3
ENDBRANCH   1   2
BRANCH   1   5
ATOM      5  C   UNL     1      -0.729  21.658  25.838  1.00  0.00     0.190 C 
BRANCH   5   6
ATOM      6  O   UNL     1      -0.439  20.765  24.796  1.00  0.00    -0.394 OA
ATOM      7  H   UNL     1      -0.358  19.865  25.207  1.00  0.00     0.210 HD
ENDBRANCH   5   6
ENDBRANCH   1   5
BRANCH   1   8
ATOM      8  O   UNL     1       0.257  23.824  26.306  1.00  0.00    -0.388 OA
ATOM      9  H   UNL     1       0.498  24.695  25.893  1.00  0.00     0.211 HD
ENDBRANCH   1   8
TORSDOF 5
ENDMDL
MODEL 9
REMARK VINA RESULT:    -3.421      6.347      7.243
REMARK INTER + INTRA:          -4.126
REMARK INTER:                  -3.942
REMARK INTRA:                  -0.183
REMARK UNBOUND:                -0.004
REMARK SMILES OCC(O)CO
REMARK SMILES IDX 3 1 5 2 6 3 2 5 1 6 4 8
REMARK H PARENT 6 4 1 7 4 9
REMARK Flexibility Score: inf
ROOT
ATOM      1  C   UNL     1      -0.668  22.235  24.780  1.00  0.00     0.165 C 
ENDROOT
BRANCH   1   2
ATOM      2  C   UNL     1      -0.388  22.700  26.219  1.00  0.00     0.190 C 
BRANCH   2   3
ATOM      3  O   UNL     1       0.183  23.980  26.226  1.00  0.00    -0.394 OA
ATOM      4  H   UNL     1       0.504  24.134  27.152  1.00  0.00     0.210 HD
ENDBRANCH   2   3
ENDBRANCH   1   2
BRANCH   1   5
ATOM      5  C   UNL     1       0.126  23.040  23.734  1.00  0.00     0.190 C 
BRANCH   5   6
ATOM      6  O   UNL     1       1.494  23.052  24.045  1.00  0.00    -0.394 OA
ATOM      7  H   UNL     1       1.783  24.001  24.017  1.00  0.00     0.210 HD
ENDBRANCH   5   6
ENDBRANCH   1   5
BRANCH   1   8
ATOM      8  O   UNL     1      -0.414  20.858  24.646  1.00  0.00    -0.388 OA
ATOM      9  H   UNL     1       0.413  20.652  25.156  1.00  0.00     0.211 HD
ENDBRANCH   1   8
TORSDOF 5
ENDMDL
