MODEL 1
REMARK VINA RESULT:    -5.845      0.000      0.000
REMARK INTER + INTRA:          -6.750
REMARK INTER:                  -6.699
REMARK INTRA:                  -0.051
REMARK UNBOUND:                -0.051
REMARK SMILES O=C([O-])c1cc(O)c(O)c(O)c1
REMARK SMILES IDX 4 1 5 2 12 3 6 4 10 5 8 6 2 7 1 8 3 9 7 10 11 12 9 14
REMARK H PARENT 7 11 11 13 9 15
REMARK Flexibility Score: inf
ROOT
ATOM      1  C   UNL     1     -32.330  -3.551 -17.964  1.00  0.00     0.005 A 
ATOM      2  C   UNL     1     -30.927  -3.539 -17.926  1.00  0.00     0.060 A 
ATOM      3  C   UNL     1     -32.988  -2.966 -19.060  1.00  0.00     0.060 A 
ATOM      4  C   UNL     1     -30.189  -2.953 -18.964  1.00  0.00     0.162 A 
ATOM      5  C   UNL     1     -32.259  -2.380 -20.100  1.00  0.00     0.162 A 
ATOM      6  C   UNL     1     -30.855  -2.371 -20.056  1.00  0.00     0.200 A 
ENDROOT
BRANCH   1   7
ATOM      7  C   UNL     1     -33.102  -4.170 -16.864  1.00  0.00     0.072 C 
ATOM      8  O   UNL     1     -32.627  -4.221 -15.697  1.00  0.00    -0.545 OA
ATOM      9  O   UNL     1     -34.362  -4.707 -17.101  1.00  0.00    -0.545 OA
ENDBRANCH   1   7
BRANCH   4  10
ATOM     10  O   UNL     1     -28.796  -2.948 -18.914  1.00  0.00    -0.504 OA
ATOM     11  H   UNL     1     -28.244  -2.371 -19.539  1.00  0.00     0.293 HD
ENDBRANCH   4  10
BRANCH   5  12
ATOM     12  O   UNL     1     -32.949  -1.810 -21.170  1.00  0.00    -0.504 OA
ATOM     13  H   UNL     1     -33.882  -1.431 -21.069  1.00  0.00     0.293 HD
ENDBRANCH   5  12
BRANCH   6  14
ATOM     14  O   UNL     1     -30.136  -1.785 -21.098  1.00  0.00    -0.502 OA
ATOM     15  H   UNL     1     -29.955  -2.270 -21.969  1.00  0.00     0.293 HD
ENDBRANCH   6  14
TORSDOF 4
ENDMDL
MODEL 2
REMARK VINA RESULT:    -5.837      0.055      2.430
REMARK INTER + INTRA:          -6.741
REMARK INTER:                  -6.690
REMARK INTRA:                  -0.051
REMARK UNBOUND:                -0.051
REMARK SMILES O=C([O-])c1cc(O)c(O)c(O)c1
REMARK SMILES IDX 4 1 5 2 12 3 6 4 10 5 8 6 2 7 1 8 3 9 7 10 11 12 9 14
REMARK H PARENT 7 11 11 13 9 15
REMARK Flexibility Score: inf
ROOT
ATOM      1  C   UNL     1     -32.287  -3.534 -17.982  1.00  0.00     0.005 A 
ATOM      2  C   UNL     1     -32.964  -2.964 -19.073  1.00  0.00     0.060 A 
ATOM      3  C   UNL     1     -30.883  -3.515 -17.966  1.00  0.00     0.060 A 
ATOM      4  C   UNL     1     -32.252  -2.384 -20.132  1.00  0.00     0.162 A 
ATOM      5  C   UNL     1     -30.164  -2.938 -19.018  1.00  0.00     0.162 A 
ATOM      6  C   UNL     1     -30.846  -2.370 -20.107  1.00  0.00     0.200 A 
ENDROOT
BRANCH   1   7
ATOM      7  C   UNL     1     -33.047  -4.144 -16.868  1.00  0.00     0.072 C 
ATOM      8  O   UNL     1     -32.557  -4.191 -15.708  1.00  0.00    -0.545 OA
ATOM      9  O   UNL     1     -34.312  -4.677 -17.086  1.00  0.00    -0.545 OA
ENDBRANCH   1   7
BRANCH   4  10
ATOM     10  O   UNL     1     -32.935  -1.822 -21.208  1.00  0.00    -0.504 OA
ATOM     11  H   UNL     1     -32.489  -1.163 -21.836  1.00  0.00     0.293 HD
ENDBRANCH   4  10
BRANCH   5  12
ATOM     12  O   UNL     1     -28.770  -2.939 -18.965  1.00  0.00    -0.504 OA
ATOM     13  H   UNL     1     -28.261  -2.593 -18.161  1.00  0.00     0.293 HD
ENDBRANCH   5  12
BRANCH   6  14
ATOM     14  O   UNL     1     -30.122  -1.796 -21.152  1.00  0.00    -0.502 OA
ATOM     15  H   UNL     1     -30.531  -1.623 -22.062  1.00  0.00     0.293 HD
ENDBRANCH   6  14
TORSDOF 4
ENDMDL
MODEL 3
REMARK VINA RESULT:    -5.645      6.042      9.160
REMARK INTER + INTRA:          -6.521
REMARK INTER:                  -6.472
REMARK INTRA:                  -0.049
REMARK UNBOUND:                -0.051
REMARK SMILES O=C([O-])c1cc(O)c(O)c(O)c1
REMARK SMILES IDX 4 1 5 2 12 3 6 4 10 5 8 6 2 7 1 8 3 9 7 10 11 12 9 14
REMARK H PARENT 7 11 11 13 9 15
REMARK Flexibility Score: inf
ROOT
ATOM      1  C   UNL     1     -37.100  -6.933 -15.608  1.00  0.00     0.005 A 
ATOM      2  C   UNL     1     -36.306  -7.260 -14.497  1.00  0.00     0.060 A 
ATOM      3  C   UNL     1     -38.357  -7.544 -15.752  1.00  0.00     0.060 A 
ATOM      4  C   UNL     1     -36.756  -8.182 -13.543  1.00  0.00     0.162 A 
ATOM      5  C   UNL     1     -38.815  -8.466 -14.804  1.00  0.00     0.162 A 
ATOM      6  C   UNL     1     -38.015  -8.790 -13.695  1.00  0.00     0.200 A 
ENDROOT
BRANCH   1   7
ATOM      7  C   UNL     1     -36.616  -5.958 -16.611  1.00  0.00     0.072 C 
ATOM      8  O   UNL     1     -37.389  -5.075 -17.072  1.00  0.00    -0.545 OA
ATOM      9  O   UNL     1     -35.302  -6.003 -17.061  1.00  0.00    -0.545 OA
ENDBRANCH   1   7
BRANCH   4  10
ATOM     10  O   UNL     1     -35.959  -8.498 -12.445  1.00  0.00    -0.504 OA
ATOM     11  H   UNL     1     -35.137  -9.086 -12.536  1.00  0.00     0.293 HD
ENDBRANCH   4  10
BRANCH   5  12
ATOM     12  O   UNL     1     -40.068  -9.051 -14.982  1.00  0.00    -0.504 OA
ATOM     13  H   UNL     1     -40.889  -8.729 -14.486  1.00  0.00     0.293 HD
ENDBRANCH   5  12
BRANCH   6  14
ATOM     14  O   UNL     1     -38.480  -9.709 -12.755  1.00  0.00    -0.502 OA
ATOM     15  H   UNL     1     -38.668 -10.676 -12.992  1.00  0.00     0.293 HD
ENDBRANCH   6  14
TORSDOF 4
ENDMDL
MODEL 4
REMARK VINA RESULT:    -5.643      6.074      9.502
REMARK INTER + INTRA:          -6.518
REMARK INTER:                  -6.470
REMARK INTRA:                  -0.048
REMARK UNBOUND:                -0.051
REMARK SMILES O=C([O-])c1cc(O)c(O)c(O)c1
REMARK SMILES IDX 4 1 5 2 12 3 6 4 10 5 8 6 2 7 1 8 3 9 7 10 11 12 9 14
REMARK H PARENT 7 11 11 13 9 15
REMARK Flexibility Score: inf
ROOT
ATOM      1  C   UNL     1     -37.120  -6.943 -15.550  1.00  0.00     0.005 A 
ATOM      2  C   UNL     1     -38.383  -7.534 -15.720  1.00  0.00     0.060 A 
ATOM      3  C   UNL     1     -36.340  -7.309 -14.441  1.00  0.00     0.060 A 
ATOM      4  C   UNL     1     -38.861  -8.476 -14.800  1.00  0.00     0.162 A 
ATOM      5  C   UNL     1     -36.809  -8.250 -13.517  1.00  0.00     0.162 A 
ATOM      6  C   UNL     1     -38.073  -8.837 -13.692  1.00  0.00     0.200 A 
ENDROOT
BRANCH   1   7
ATOM      7  C   UNL     1     -36.623  -5.948 -16.527  1.00  0.00     0.072 C 
ATOM      8  O   UNL     1     -37.377  -5.028 -16.944  1.00  0.00    -0.545 OA
ATOM      9  O   UNL     1     -35.318  -6.014 -16.999  1.00  0.00    -0.545 OA
ENDBRANCH   1   7
BRANCH   4  10
ATOM     10  O   UNL     1     -40.115  -9.055 -14.980  1.00  0.00    -0.504 OA
ATOM     11  H   UNL     1     -40.365  -9.932 -14.535  1.00  0.00     0.293 HD
ENDBRANCH   4  10
BRANCH   5  12
ATOM     12  O   UNL     1     -36.004  -8.587 -12.429  1.00  0.00    -0.504 OA
ATOM     13  H   UNL     1     -35.093  -9.014 -12.544  1.00  0.00     0.293 HD
ENDBRANCH   5  12
BRANCH   6  14
ATOM     14  O   UNL     1     -38.532  -9.774 -12.767  1.00  0.00    -0.502 OA
ATOM     15  H   UNL     1     -38.103 -10.685 -12.662  1.00  0.00     0.293 HD
ENDBRANCH   6  14
TORSDOF 4
ENDMDL
MODEL 5
REMARK VINA RESULT:    -5.488      1.178      4.156
REMARK INTER + INTRA:          -6.341
REMARK INTER:                  -6.288
REMARK INTRA:                  -0.053
REMARK UNBOUND:                -0.051
REMARK SMILES O=C([O-])c1cc(O)c(O)c(O)c1
REMARK SMILES IDX 4 1 5 2 12 3 6 4 10 5 8 6 2 7 1 8 3 9 7 10 11 12 9 14
REMARK H PARENT 7 11 11 13 9 15
REMARK Flexibility Score: inf
ROOT
ATOM      1  C   UNL     1     -31.140  -2.617 -19.594  1.00  0.00     0.005 A 
ATOM      2  C   UNL     1     -30.832  -2.987 -18.275  1.00  0.00     0.060 A 
ATOM      3  C   UNL     1     -32.486  -2.581 -19.995  1.00  0.00     0.060 A 
ATOM      4  C   UNL     1     -31.849  -3.315 -17.368  1.00  0.00     0.162 A 
ATOM      5  C   UNL     1     -33.508  -2.906 -19.096  1.00  0.00     0.162 A 
ATOM      6  C   UNL     1     -33.193  -3.275 -17.778  1.00  0.00     0.200 A 
ENDROOT
BRANCH   1   7
ATOM      7  C   UNL     1     -30.060  -2.273 -20.546  1.00  0.00     0.072 C 
ATOM      8  O   UNL     1     -30.334  -1.806 -21.684  1.00  0.00    -0.545 OA
ATOM      9  O   UNL     1     -28.727  -2.460 -20.198  1.00  0.00    -0.545 OA
ENDBRANCH   1   7
BRANCH   4  10
ATOM     10  O   UNL     1     -31.529  -3.680 -16.062  1.00  0.00    -0.504 OA
ATOM     11  H   UNL     1     -32.232  -3.711 -15.331  1.00  0.00     0.293 HD
ENDBRANCH   4  10
BRANCH   5  12
ATOM     12  O   UNL     1     -34.832  -2.858 -19.533  1.00  0.00    -0.504 OA
ATOM     13  H   UNL     1     -35.166  -3.420 -20.306  1.00  0.00     0.293 HD
ENDBRANCH   5  12
BRANCH   6  14
ATOM     14  O   UNL     1     -34.218  -3.598 -16.888  1.00  0.00    -0.502 OA
ATOM     15  H   UNL     1     -35.187  -3.371 -17.076  1.00  0.00     0.293 HD
ENDBRANCH   6  14
TORSDOF 4
ENDMDL
MODEL 6
REMARK VINA RESULT:    -5.466      1.224      4.820
REMARK INTER + INTRA:          -6.316
REMARK INTER:                  -6.263
REMARK INTRA:                  -0.053
REMARK UNBOUND:                -0.051
REMARK SMILES O=C([O-])c1cc(O)c(O)c(O)c1
REMARK SMILES IDX 4 1 5 2 12 3 6 4 10 5 8 6 2 7 1 8 3 9 7 10 11 12 9 14
REMARK H PARENT 7 11 11 13 9 15
REMARK Flexibility Score: inf
ROOT
ATOM      1  C   UNL     1     -30.959  -2.545 -19.792  1.00  0.00     0.005 A 
ATOM      2  C   UNL     1     -32.327  -2.492 -20.101  1.00  0.00     0.060 A 
ATOM      3  C   UNL     1     -30.564  -2.997 -18.521  1.00  0.00     0.060 A 
ATOM      4  C   UNL     1     -33.289  -2.882 -19.159  1.00  0.00     0.162 A 
ATOM      5  C   UNL     1     -31.517  -3.389 -17.575  1.00  0.00     0.162 A 
ATOM      6  C   UNL     1     -32.885  -3.333 -17.890  1.00  0.00     0.200 A 
ENDROOT
BRANCH   1   7
ATOM      7  C   UNL     1     -29.950  -2.131 -20.792  1.00  0.00     0.072 C 
ATOM      8  O   UNL     1     -30.308  -1.654 -21.903  1.00  0.00    -0.545 OA
ATOM      9  O   UNL     1     -28.593  -2.261 -20.522  1.00  0.00    -0.545 OA
ENDBRANCH   1   7
BRANCH   4  10
ATOM     10  O   UNL     1     -34.644  -2.824 -19.478  1.00  0.00    -0.504 OA
ATOM     11  H   UNL     1     -35.363  -2.959 -18.775  1.00  0.00     0.293 HD
ENDBRANCH   4  10
BRANCH   5  12
ATOM     12  O   UNL     1     -31.084  -3.832 -16.325  1.00  0.00    -0.504 OA
ATOM     13  H   UNL     1     -30.719  -3.198 -15.625  1.00  0.00     0.293 HD
ENDBRANCH   5  12
BRANCH   6  14
ATOM     14  O   UNL     1     -33.828  -3.726 -16.941  1.00  0.00    -0.502 OA
ATOM     15  H   UNL     1     -33.732  -3.498 -15.958  1.00  0.00     0.293 HD
ENDBRANCH   6  14
TORSDOF 4
ENDMDL
MODEL 7
REMARK VINA RESULT:    -5.163      8.474     10.664
REMARK INTER + INTRA:          -5.969
REMARK INTER:                  -5.924
REMARK INTRA:                  -0.045
REMARK UNBOUND:                -0.051
REMARK SMILES O=C([O-])c1cc(O)c(O)c(O)c1
REMARK SMILES IDX 4 1 5 2 12 3 6 4 10 5 8 6 2 7 1 8 3 9 7 10 11 12 9 14
REMARK H PARENT 7 11 11 13 9 15
REMARK Flexibility Score: inf
ROOT
ATOM      1  C   UNL     1     -38.902  -5.851 -13.378  1.00  0.00     0.005 A 
ATOM      2  C   UNL     1     -38.084  -6.991 -13.328  1.00  0.00     0.060 A 
ATOM      3  C   UNL     1     -40.297  -6.014 -13.403  1.00  0.00     0.060 A 
ATOM      4  C   UNL     1     -38.646  -8.274 -13.303  1.00  0.00     0.162 A 
ATOM      5  C   UNL     1     -40.868  -7.292 -13.377  1.00  0.00     0.162 A 
ATOM      6  C   UNL     1     -40.043  -8.428 -13.328  1.00  0.00     0.200 A 
ENDROOT
BRANCH   1   7
ATOM      7  C   UNL     1     -38.300  -4.499 -13.405  1.00  0.00     0.072 C 
ATOM      8  O   UNL     1     -37.948  -3.976 -14.497  1.00  0.00    -0.545 OA
ATOM      9  O   UNL     1     -38.113  -3.787 -12.227  1.00  0.00    -0.545 OA
ENDBRANCH   1   7
BRANCH   4  10
ATOM     10  O   UNL     1     -37.822  -9.397 -13.253  1.00  0.00    -0.504 OA
ATOM     11  H   UNL     1     -38.174 -10.302 -12.961  1.00  0.00     0.293 HD
ENDBRANCH   4  10
BRANCH   5  12
ATOM     12  O   UNL     1     -42.257  -7.412 -13.403  1.00  0.00    -0.504 OA
ATOM     13  H   UNL     1     -42.718  -8.292 -13.596  1.00  0.00     0.293 HD
ENDBRANCH   5  12
BRANCH   6  14
ATOM     14  O   UNL     1     -40.620  -9.698 -13.302  1.00  0.00    -0.502 OA
ATOM     15  H   UNL     1     -40.829 -10.179 -12.435  1.00  0.00     0.293 HD
ENDBRANCH   6  14
TORSDOF 4
ENDMDL
MODEL 8
REMARK VINA RESULT:    -5.161      8.500     10.878
REMARK INTER + INTRA:          -5.966
REMARK INTER:                  -5.922
REMARK INTRA:                  -0.045
REMARK UNBOUND:                -0.051
REMARK SMILES O=C([O-])c1cc(O)c(O)c(O)c1
REMARK SMILES IDX 4 1 5 2 12 3 6 4 10 5 8 6 2 7 1 8 3 9 7 10 11 12 9 14
REMARK H PARENT 7 11 11 13 9 15
REMARK Flexibility Score: inf
ROOT
ATOM      1  C   UNL     1     -38.901  -5.851 -13.385  1.00  0.00     0.005 A 
ATOM      2  C   UNL     1     -40.296  -6.006 -13.417  1.00  0.00     0.060 A 
ATOM      3  C   UNL     1     -38.089  -6.995 -13.321  1.00  0.00     0.060 A 
ATOM      4  C   UNL     1     -40.874  -7.282 -13.387  1.00  0.00     0.162 A 
ATOM      5  C   UNL     1     -38.657  -8.274 -13.291  1.00  0.00     0.162 A 
ATOM      6  C   UNL     1     -40.054  -8.422 -13.324  1.00  0.00     0.200 A 
ENDROOT
BRANCH   1   7
ATOM      7  C   UNL     1     -38.298  -4.499 -13.416  1.00  0.00     0.072 C 
ATOM      8  O   UNL     1     -37.912  -3.945 -12.352  1.00  0.00    -0.545 OA
ATOM      9  O   UNL     1     -38.151  -3.820 -14.620  1.00  0.00    -0.545 OA
ENDBRANCH   1   7
BRANCH   4  10
ATOM     10  O   UNL     1     -42.260  -7.423 -13.420  1.00  0.00    -0.504 OA
ATOM     11  H   UNL     1     -42.862  -6.684 -13.767  1.00  0.00     0.293 HD
ENDBRANCH   4  10
BRANCH   5  12
ATOM     12  O   UNL     1     -37.816  -9.385 -13.228  1.00  0.00    -0.504 OA
ATOM     13  H   UNL     1     -37.669  -9.901 -12.369  1.00  0.00     0.293 HD
ENDBRANCH   5  12
BRANCH   6  14
ATOM     14  O   UNL     1     -40.612  -9.700 -13.294  1.00  0.00    -0.502 OA
ATOM     15  H   UNL     1     -40.092 -10.523 -13.574  1.00  0.00     0.293 HD
ENDBRANCH   6  14
TORSDOF 4
ENDMDL
MODEL 9
REMARK VINA RESULT:    -5.055      7.225      9.157
REMARK INTER + INTRA:          -5.844
REMARK INTER:                  -5.795
REMARK INTRA:                  -0.050
REMARK UNBOUND:                -0.051
REMARK SMILES O=C([O-])c1cc(O)c(O)c(O)c1
REMARK SMILES IDX 4 1 5 2 12 3 6 4 10 5 8 6 2 7 1 8 3 9 7 10 11 12 9 14
REMARK H PARENT 7 11 11 13 9 15
REMARK Flexibility Score: inf
ROOT
ATOM      1  C   UNL     1     -36.928  -5.914 -13.672  1.00  0.00     0.005 A 
ATOM      2  C   UNL     1     -38.319  -5.841 -13.493  1.00  0.00     0.060 A 
ATOM      3  C   UNL     1     -36.389  -6.994 -14.391  1.00  0.00     0.060 A 
ATOM      4  C   UNL     1     -39.160  -6.829 -14.021  1.00  0.00     0.162 A 
ATOM      5  C   UNL     1     -37.222  -7.985 -14.922  1.00  0.00     0.162 A 
ATOM      6  C   UNL     1     -38.612  -7.906 -14.739  1.00  0.00     0.200 A 
ENDROOT
BRANCH   1   7
ATOM      7  C   UNL     1     -36.046  -4.866 -13.110  1.00  0.00     0.072 C 
ATOM      8  O   UNL     1     -35.017  -4.492 -13.735  1.00  0.00    -0.545 OA
ATOM      9  O   UNL     1     -36.340  -4.280 -11.884  1.00  0.00    -0.545 OA
ENDBRANCH   1   7
BRANCH   4  10
ATOM     10  O   UNL     1     -40.539  -6.745 -13.836  1.00  0.00    -0.504 OA
ATOM     11  H   UNL     1     -41.032  -5.861 -13.903  1.00  0.00     0.293 HD
ENDBRANCH   4  10
BRANCH   5  12
ATOM     12  O   UNL     1     -36.648  -9.041 -15.630  1.00  0.00    -0.504 OA
ATOM     13  H   UNL     1     -35.646  -9.182 -15.669  1.00  0.00     0.293 HD
ENDBRANCH   5  12
BRANCH   6  14
ATOM     14  O   UNL     1     -39.435  -8.898 -15.273  1.00  0.00    -0.502 OA
ATOM     15  H   UNL     1     -40.134  -9.377 -14.717  1.00  0.00     0.293 HD
ENDBRANCH   6  14
TORSDOF 4
ENDMDL
