MODEL 1
REMARK VINA RESULT:    -2.907      0.000      0.000
REMARK INTER + INTRA:          -3.863
REMARK INTER:                  -3.757
REMARK INTRA:                  -0.107
REMARK UNBOUND:                -0.107
REMARK SMILES CCCCCCC=O
REMARK SMILES IDX 4 1 3 2 2 3 1 4 5 5 6 6 7 7 8 8
REMARK H PARENT
REMARK Flexibility Score: inf
ROOT
ATOM      1  C   UNL     1     118.679 115.828 112.810  1.00  0.00     0.000 C 
ENDROOT
BRANCH   1   2
ATOM      2  C   UNL     1     119.334 116.855 111.875  1.00  0.00    -0.000 C 
BRANCH   2   3
ATOM      3  C   UNL     1     119.206 118.295 112.397  1.00  0.00    -0.003 C 
ATOM      4  C   UNL     1     119.986 118.526 113.691  1.00  0.00     0.004 C 
ENDBRANCH   2   3
ENDBRANCH   1   2
BRANCH   1   5
ATOM      5  C   UNL     1     118.460 114.492 112.090  1.00  0.00     0.008 C 
BRANCH   5   6
ATOM      6  C   UNL     1     118.598 113.315 113.062  1.00  0.00     0.072 C 
BRANCH   6   7
ATOM      7  C   UNL     1     118.112 113.689 114.430  1.00  0.00     0.224 C 
ATOM      8  O   UNL     1     118.370 112.984 115.394  1.00  0.00    -0.303 OA
ENDBRANCH   6   7
ENDBRANCH   5   6
ENDBRANCH   1   5
TORSDOF 5
ENDMDL
MODEL 2
REMARK VINA RESULT:    -2.885      3.336      4.376
REMARK INTER + INTRA:          -3.835
REMARK INTER:                  -3.707
REMARK INTRA:                  -0.128
REMARK UNBOUND:                -0.107
REMARK SMILES CCCCCCC=O
REMARK SMILES IDX 4 1 3 2 2 3 1 4 5 5 6 6 7 7 8 8
REMARK H PARENT
REMARK Flexibility Score: inf
ROOT
ATOM      1  C   UNL     1     117.407 118.229 112.642  1.00  0.00     0.000 C 
ENDROOT
BRANCH   1   2
ATOM      2  C   UNL     1     116.398 119.107 111.887  1.00  0.00    -0.000 C 
BRANCH   2   3
ATOM      3  C   UNL     1     114.968 118.964 112.429  1.00  0.00    -0.003 C 
ATOM      4  C   UNL     1     114.651 119.969 113.535  1.00  0.00     0.004 C 
ENDBRANCH   2   3
ENDBRANCH   1   2
BRANCH   1   5
ATOM      5  C   UNL     1     118.840 118.517 112.181  1.00  0.00     0.008 C 
BRANCH   5   6
ATOM      6  C   UNL     1     119.810 118.521 113.368  1.00  0.00     0.072 C 
BRANCH   6   7
ATOM      7  C   UNL     1     119.143 118.003 114.607  1.00  0.00     0.224 C 
ATOM      8  O   UNL     1     119.637 117.080 115.236  1.00  0.00    -0.303 OA
ENDBRANCH   6   7
ENDBRANCH   5   6
ENDBRANCH   1   5
TORSDOF 5
ENDMDL
MODEL 3
REMARK VINA RESULT:    -2.860      4.868      5.064
REMARK INTER + INTRA:          -3.802
REMARK INTER:                  -3.671
REMARK INTRA:                  -0.131
REMARK UNBOUND:                -0.107
REMARK SMILES CCCCCCC=O
REMARK SMILES IDX 4 1 3 2 2 3 1 4 5 5 6 6 7 7 8 8
REMARK H PARENT
REMARK Flexibility Score: inf
ROOT
ATOM      1  C   UNL     1     114.779 117.636 113.021  1.00  0.00     0.000 C 
ENDROOT
BRANCH   1   2
ATOM      2  C   UNL     1     114.602 119.063 112.483  1.00  0.00    -0.000 C 
BRANCH   2   3
ATOM      3  C   UNL     1     114.612 120.120 113.597  1.00  0.00    -0.003 C 
ATOM      4  C   UNL     1     115.064 119.556 114.944  1.00  0.00     0.004 C 
ENDBRANCH   2   3
ENDBRANCH   1   2
BRANCH   1   5
ATOM      5  C   UNL     1     114.821 116.617 111.876  1.00  0.00     0.008 C 
BRANCH   5   6
ATOM      6  C   UNL     1     113.628 115.659 111.947  1.00  0.00     0.072 C 
BRANCH   6   7
ATOM      7  C   UNL     1     113.780 114.696 113.086  1.00  0.00     0.224 C 
ATOM      8  O   UNL     1     112.816 114.386 113.768  1.00  0.00    -0.303 OA
ENDBRANCH   6   7
ENDBRANCH   5   6
ENDBRANCH   1   5
TORSDOF 5
ENDMDL
MODEL 4
REMARK VINA RESULT:    -2.857      2.023      4.352
REMARK INTER + INTRA:          -3.798
REMARK INTER:                  -3.665
REMARK INTRA:                  -0.133
REMARK UNBOUND:                -0.107
REMARK SMILES CCCCCCC=O
REMARK SMILES IDX 4 1 3 2 2 3 1 4 5 5 6 6 7 7 8 8
REMARK H PARENT
REMARK Flexibility Score: inf
ROOT
ATOM      1  C   UNL     1     118.417 115.715 112.757  1.00  0.00     0.000 C 
ENDROOT
BRANCH   1   2
ATOM      2  C   UNL     1     118.584 114.315 112.149  1.00  0.00    -0.000 C 
BRANCH   2   3
ATOM      3  C   UNL     1     118.565 113.205 113.211  1.00  0.00    -0.003 C 
ATOM      4  C   UNL     1     118.181 113.719 114.597  1.00  0.00     0.004 C 
ENDBRANCH   2   3
ENDBRANCH   1   2
BRANCH   1   5
ATOM      5  C   UNL     1     119.080 116.780 111.875  1.00  0.00     0.008 C 
BRANCH   5   6
ATOM      6  C   UNL     1     118.855 118.185 112.445  1.00  0.00     0.072 C 
BRANCH   6   7
ATOM      7  C   UNL     1     119.947 118.556 113.403  1.00  0.00     0.224 C 
ATOM      8  O   UNL     1     119.785 118.428 114.607  1.00  0.00    -0.303 OA
ENDBRANCH   6   7
ENDBRANCH   5   6
ENDBRANCH   1   5
TORSDOF 5
ENDMDL
MODEL 5
REMARK VINA RESULT:    -2.845      5.056      6.359
REMARK INTER + INTRA:          -3.783
REMARK INTER:                  -3.643
REMARK INTRA:                  -0.140
REMARK UNBOUND:                -0.107
REMARK SMILES CCCCCCC=O
REMARK SMILES IDX 4 1 3 2 2 3 1 4 5 5 6 6 7 7 8 8
REMARK H PARENT
REMARK Flexibility Score: inf
ROOT
ATOM      1  C   UNL     1     114.927 117.239 112.616  1.00  0.00     0.000 C 
ENDROOT
BRANCH   1   2
ATOM      2  C   UNL     1     113.889 116.364 111.899  1.00  0.00    -0.000 C 
BRANCH   2   3
ATOM      3  C   UNL     1     113.930 114.900 112.362  1.00  0.00    -0.003 C 
ATOM      4  C   UNL     1     113.263 114.689 113.720  1.00  0.00     0.004 C 
ENDBRANCH   2   3
ENDBRANCH   1   2
BRANCH   1   5
ATOM      5  C   UNL     1     114.877 118.683 112.105  1.00  0.00     0.008 C 
BRANCH   5   6
ATOM      6  C   UNL     1     114.501 119.653 113.230  1.00  0.00     0.072 C 
BRANCH   6   7
ATOM      7  C   UNL     1     114.922 119.114 114.565  1.00  0.00     0.224 C 
ATOM      8  O   UNL     1     115.808 119.662 115.202  1.00  0.00    -0.303 OA
ENDBRANCH   6   7
ENDBRANCH   5   6
ENDBRANCH   1   5
TORSDOF 5
ENDMDL
MODEL 6
REMARK VINA RESULT:    -2.840      3.661      4.553
REMARK INTER + INTRA:          -3.777
REMARK INTER:                  -3.617
REMARK INTRA:                  -0.160
REMARK UNBOUND:                -0.107
REMARK SMILES CCCCCCC=O
REMARK SMILES IDX 4 1 3 2 2 3 1 4 5 5 6 6 7 7 8 8
REMARK H PARENT
REMARK Flexibility Score: inf
ROOT
ATOM      1  C   UNL     1     116.177 114.502 112.875  1.00  0.00     0.000 C 
ENDROOT
BRANCH   1   2
ATOM      2  C   UNL     1     117.202 113.653 112.109  1.00  0.00    -0.000 C 
BRANCH   2   3
ATOM      3  C   UNL     1     118.423 113.286 112.966  1.00  0.00    -0.003 C 
ATOM      4  C   UNL     1     118.188 113.513 114.459  1.00  0.00     0.004 C 
ENDBRANCH   2   3
ENDBRANCH   1   2
BRANCH   1   5
ATOM      5  C   UNL     1     114.893 114.684 112.057  1.00  0.00     0.008 C 
BRANCH   5   6
ATOM      6  C   UNL     1     113.654 114.621 112.956  1.00  0.00     0.072 C 
BRANCH   6   7
ATOM      7  C   UNL     1     114.018 114.871 114.389  1.00  0.00     0.224 C 
ATOM      8  O   UNL     1     113.154 114.896 115.252  1.00  0.00    -0.303 OA
ENDBRANCH   6   7
ENDBRANCH   5   6
ENDBRANCH   1   5
TORSDOF 5
ENDMDL
MODEL 7
REMARK VINA RESULT:    -2.833      1.929      2.123
REMARK INTER + INTRA:          -3.768
REMARK INTER:                  -3.655
REMARK INTRA:                  -0.113
REMARK UNBOUND:                -0.107
REMARK SMILES CCCCCCC=O
REMARK SMILES IDX 4 1 3 2 2 3 1 4 5 5 6 6 7 7 8 8
REMARK H PARENT
REMARK Flexibility Score: inf
ROOT
ATOM      1  C   UNL     1     118.450 115.685 112.843  1.00  0.00     0.000 C 
ENDROOT
BRANCH   1   2
ATOM      2  C   UNL     1     119.240 116.578 111.875  1.00  0.00    -0.000 C 
BRANCH   2   3
ATOM      3  C   UNL     1     119.105 118.072 112.207  1.00  0.00    -0.003 C 
ATOM      4  C   UNL     1     119.993 118.502 113.373  1.00  0.00     0.004 C 
ENDBRANCH   2   3
ENDBRANCH   1   2
BRANCH   1   5
ATOM      5  C   UNL     1     118.576 114.207 112.454  1.00  0.00     0.008 C 
BRANCH   5   6
ATOM      6  C   UNL     1     117.249 113.665 111.914  1.00  0.00     0.072 C 
BRANCH   6   7
ATOM      7  C   UNL     1     116.161 114.689 112.037  1.00  0.00     0.224 C 
ATOM      8  O   UNL     1     115.052 114.371 112.438  1.00  0.00    -0.303 OA
ENDBRANCH   6   7
ENDBRANCH   5   6
ENDBRANCH   1   5
TORSDOF 5
ENDMDL
MODEL 8
REMARK VINA RESULT:    -2.830      3.339      4.527
REMARK INTER + INTRA:          -3.764
REMARK INTER:                  -3.603
REMARK INTRA:                  -0.161
REMARK UNBOUND:                -0.107
REMARK SMILES CCCCCCC=O
REMARK SMILES IDX 4 1 3 2 2 3 1 4 5 5 6 6 7 7 8 8
REMARK H PARENT
REMARK Flexibility Score: inf
ROOT
ATOM      1  C   UNL     1     116.116 114.469 112.725  1.00  0.00     0.000 C 
ENDROOT
BRANCH   1   2
ATOM      2  C   UNL     1     114.822 114.731 111.941  1.00  0.00    -0.000 C 
BRANCH   2   3
ATOM      3  C   UNL     1     113.576 114.729 112.841  1.00  0.00    -0.003 C 
ATOM      4  C   UNL     1     113.918 114.859 114.324  1.00  0.00     0.004 C 
ENDBRANCH   2   3
ENDBRANCH   1   2
BRANCH   1   5
ATOM      5  C   UNL     1     117.078 113.588 111.918  1.00  0.00     0.008 C 
BRANCH   5   6
ATOM      6  C   UNL     1     118.514 114.116 112.007  1.00  0.00     0.072 C 
BRANCH   6   7
ATOM      7  C   UNL     1     118.537 115.520 112.533  1.00  0.00     0.224 C 
ATOM      8  O   UNL     1     119.235 116.369 112.001  1.00  0.00    -0.303 OA
ENDBRANCH   6   7
ENDBRANCH   5   6
ENDBRANCH   1   5
TORSDOF 5
ENDMDL
MODEL 9
REMARK VINA RESULT:    -2.830      3.913      4.705
REMARK INTER + INTRA:          -3.764
REMARK INTER:                  -3.537
REMARK INTRA:                  -0.227
REMARK UNBOUND:                -0.107
REMARK SMILES CCCCCCC=O
REMARK SMILES IDX 4 1 3 2 2 3 1 4 5 5 6 6 7 7 8 8
REMARK H PARENT
REMARK Flexibility Score: inf
ROOT
ATOM      1  C   UNL     1     118.195 117.544 112.077  1.00  0.00     0.000 C 
ENDROOT
BRANCH   1   2
ATOM      2  C   UNL     1     119.606 118.146 112.148  1.00  0.00    -0.000 C 
BRANCH   2   3
ATOM      3  C   UNL     1     119.992 118.577 113.571  1.00  0.00    -0.003 C 
ATOM      4  C   UNL     1     119.538 117.578 114.635  1.00  0.00     0.004 C 
ENDBRANCH   2   3
ENDBRANCH   1   2
BRANCH   1   5
ATOM      5  C   UNL     1     117.131 118.644 111.990  1.00  0.00     0.008 C 
BRANCH   5   6
ATOM      6  C   UNL     1     116.060 118.461 113.071  1.00  0.00     0.072 C 
BRANCH   6   7
ATOM      7  C   UNL     1     114.821 119.235 112.735  1.00  0.00     0.224 C 
ATOM      8  O   UNL     1     114.496 120.204 113.403  1.00  0.00    -0.303 OA
ENDBRANCH   6   7
ENDBRANCH   5   6
ENDBRANCH   1   5
TORSDOF 5
ENDMDL
