MODEL 1
REMARK VINA RESULT:    -6.238      0.000      0.000
REMARK INTER + INTRA:          -7.876
REMARK INTER:                  -7.514
REMARK INTRA:                  -0.362
REMARK UNBOUND:                -0.362
REMARK SMILES Oc1cc(O)c2c(c1)O[C@@H](c1ccc(O)c(O)c1)[C@H](O)C2
REMARK SMILES IDX 21 1 19 2 10 3 9 4 7 5 8 6 2 7 3 8 4 9 6 10 20 11 11 13
REMARK SMILES IDX 18 14 12 15 16 16 13 17 14 18 17 19 15 21 5 23 1 25
REMARK H PARENT 20 12 17 20 15 22 5 24 1 26
REMARK Flexibility Score: inf
ROOT
ATOM      1  C   UNL     1     -42.706 -52.691   9.079  1.00  0.00     0.079 C 
ATOM      2  C   UNL     1     -42.933 -51.404   8.263  1.00  0.00     0.164 C 
ATOM      3  C   UNL     1     -44.441 -51.161   8.079  1.00  0.00     0.232 C 
ATOM      4  O   UNL     1     -45.079 -51.100   9.354  1.00  0.00    -0.482 OA
ATOM      5  C   UNL     1     -44.715 -51.938  10.414  1.00  0.00     0.131 A 
ATOM      6  C   UNL     1     -45.504 -51.955  11.566  1.00  0.00     0.093 A 
ATOM      7  C   UNL     1     -45.173 -52.796  12.635  1.00  0.00     0.122 A 
ATOM      8  C   UNL     1     -44.056 -53.628  12.543  1.00  0.00     0.092 A 
ATOM      9  C   UNL     1     -43.254 -53.624  11.394  1.00  0.00     0.126 A 
ATOM     10  C   UNL     1     -43.559 -52.745  10.329  1.00  0.00     0.039 A 
ENDROOT
BRANCH   2  11
ATOM     11  O   UNL     1     -42.316 -51.523   7.007  1.00  0.00    -0.389 OA
ATOM     12  H   UNL     1     -41.490 -52.058   7.143  1.00  0.00     0.211 HD
ENDBRANCH   2  11
BRANCH   3  13
ATOM     13  C   UNL     1     -44.699 -49.880   7.321  1.00  0.00    -0.001 A 
ATOM     14  C   UNL     1     -45.253 -49.914   6.029  1.00  0.00     0.057 A 
ATOM     15  C   UNL     1     -44.433 -48.639   7.919  1.00  0.00     0.012 A 
ATOM     16  C   UNL     1     -45.518 -48.724   5.336  1.00  0.00     0.157 A 
ATOM     17  C   UNL     1     -44.696 -47.452   7.230  1.00  0.00     0.050 A 
ATOM     18  C   UNL     1     -45.236 -47.487   5.940  1.00  0.00     0.157 A 
BRANCH  16  19
ATOM     19  O   UNL     1     -46.062 -48.766   4.053  1.00  0.00    -0.504 OA
ATOM     20  H   UNL     1     -46.124 -49.633   3.531  1.00  0.00     0.293 HD
ENDBRANCH  16  19
BRANCH  18  21
ATOM     21  O   UNL     1     -45.487 -46.286   5.277  1.00  0.00    -0.504 OA
ATOM     22  H   UNL     1     -45.479 -46.218   4.267  1.00  0.00     0.293 HD
ENDBRANCH  18  21
ENDBRANCH   3  13
BRANCH   9  23
ATOM     23  O   UNL     1     -42.177 -54.512  11.343  1.00  0.00    -0.507 OA
ATOM     24  H   UNL     1     -41.346 -54.411  11.913  1.00  0.00     0.293 HD
ENDBRANCH   9  23
BRANCH   7  25
ATOM     25  O   UNL     1     -45.953 -52.818  13.788  1.00  0.00    -0.508 OA
ATOM     26  H   UNL     1     -45.671 -53.341  14.609  1.00  0.00     0.293 HD
ENDBRANCH   7  25
TORSDOF 6
ENDMDL
MODEL 2
REMARK VINA RESULT:    -6.077      2.558      6.699
REMARK INTER + INTRA:          -7.683
REMARK INTER:                  -7.337
REMARK INTRA:                  -0.346
REMARK UNBOUND:                -0.362
REMARK SMILES Oc1cc(O)c2c(c1)O[C@@H](c1ccc(O)c(O)c1)[C@H](O)C2
REMARK SMILES IDX 21 1 19 2 10 3 9 4 7 5 8 6 2 7 3 8 4 9 6 10 20 11 11 13
REMARK SMILES IDX 18 14 12 15 16 16 13 17 14 18 17 19 15 21 5 23 1 25
REMARK H PARENT 20 12 17 20 15 22 5 24 1 26
REMARK Flexibility Score: inf
ROOT
ATOM      1  C   UNL     1     -45.746 -49.139  10.371  1.00  0.00     0.079 C 
ATOM      2  C   UNL     1     -45.144 -50.549  10.215  1.00  0.00     0.164 C 
ATOM      3  C   UNL     1     -45.696 -51.215   8.943  1.00  0.00     0.232 C 
ATOM      4  O   UNL     1     -45.422 -50.393   7.809  1.00  0.00    -0.482 OA
ATOM      5  C   UNL     1     -45.507 -48.997   7.859  1.00  0.00     0.131 A 
ATOM      6  C   UNL     1     -45.412 -48.270   6.671  1.00  0.00     0.093 A 
ATOM      7  C   UNL     1     -45.509 -46.874   6.689  1.00  0.00     0.122 A 
ATOM      8  C   UNL     1     -45.713 -46.208   7.900  1.00  0.00     0.092 A 
ATOM      9  C   UNL     1     -45.812 -46.922   9.100  1.00  0.00     0.126 A 
ATOM     10  C   UNL     1     -45.670 -48.330   9.093  1.00  0.00     0.039 A 
ENDROOT
BRANCH   2  11
ATOM     11  O   UNL     1     -45.466 -51.329  11.337  1.00  0.00    -0.389 OA
ATOM     12  H   UNL     1     -45.543 -50.707  12.107  1.00  0.00     0.211 HD
ENDBRANCH   2  11
BRANCH   3  13
ATOM     13  C   UNL     1     -45.090 -52.583   8.736  1.00  0.00    -0.001 A 
ATOM     14  C   UNL     1     -45.909 -53.699   8.489  1.00  0.00     0.057 A 
ATOM     15  C   UNL     1     -43.696 -52.746   8.741  1.00  0.00     0.012 A 
ATOM     16  C   UNL     1     -45.345 -54.963   8.271  1.00  0.00     0.157 A 
ATOM     17  C   UNL     1     -43.131 -54.006   8.523  1.00  0.00     0.050 A 
ATOM     18  C   UNL     1     -43.948 -55.117   8.289  1.00  0.00     0.157 A 
BRANCH  16  19
ATOM     19  O   UNL     1     -46.165 -56.065   8.033  1.00  0.00    -0.504 OA
ATOM     20  H   UNL     1     -45.797 -56.930   7.654  1.00  0.00     0.293 HD
ENDBRANCH  16  19
BRANCH  18  21
ATOM     21  O   UNL     1     -43.357 -56.361   8.075  1.00  0.00    -0.504 OA
ATOM     22  H   UNL     1     -43.852 -57.228   8.242  1.00  0.00     0.293 HD
ENDBRANCH  18  21
ENDBRANCH   3  13
BRANCH   9  23
ATOM     23  O   UNL     1     -46.061 -46.204  10.272  1.00  0.00    -0.507 OA
ATOM     24  H   UNL     1     -46.989 -45.928  10.568  1.00  0.00     0.293 HD
ENDBRANCH   9  23
BRANCH   7  25
ATOM     25  O   UNL     1     -45.414 -46.141   5.509  1.00  0.00    -0.508 OA
ATOM     26  H   UNL     1     -44.869 -46.472   4.721  1.00  0.00     0.293 HD
ENDBRANCH   7  25
TORSDOF 6
ENDMDL
MODEL 3
REMARK VINA RESULT:    -6.043      1.950      2.893
REMARK INTER + INTRA:          -7.642
REMARK INTER:                  -7.282
REMARK INTRA:                  -0.360
REMARK UNBOUND:                -0.362
REMARK SMILES Oc1cc(O)c2c(c1)O[C@@H](c1ccc(O)c(O)c1)[C@H](O)C2
REMARK SMILES IDX 21 1 19 2 10 3 9 4 7 5 8 6 2 7 3 8 4 9 6 10 20 11 11 13
REMARK SMILES IDX 18 14 12 15 16 16 13 17 14 18 17 19 15 21 5 23 1 25
REMARK H PARENT 20 12 17 20 15 22 5 24 1 26
REMARK Flexibility Score: inf
ROOT
ATOM      1  C   UNL     1     -44.462 -52.902   9.532  1.00  0.00     0.079 C 
ATOM      2  C   UNL     1     -45.059 -52.086   8.369  1.00  0.00     0.164 C 
ATOM      3  C   UNL     1     -44.927 -50.582   8.664  1.00  0.00     0.232 C 
ATOM      4  O   UNL     1     -43.557 -50.253   8.894  1.00  0.00    -0.482 OA
ATOM      5  C   UNL     1     -42.694 -51.097   9.601  1.00  0.00     0.131 A 
ATOM      6  C   UNL     1     -41.425 -50.630   9.951  1.00  0.00     0.093 A 
ATOM      7  C   UNL     1     -40.547 -51.446  10.672  1.00  0.00     0.122 A 
ATOM      8  C   UNL     1     -40.947 -52.729  11.052  1.00  0.00     0.092 A 
ATOM      9  C   UNL     1     -42.215 -53.213  10.711  1.00  0.00     0.126 A 
ATOM     10  C   UNL     1     -43.090 -52.408   9.944  1.00  0.00     0.039 A 
ENDROOT
BRANCH   2  11
ATOM     11  O   UNL     1     -46.413 -52.419   8.202  1.00  0.00    -0.389 OA
ATOM     12  H   UNL     1     -46.751 -52.701   9.092  1.00  0.00     0.211 HD
ENDBRANCH   2  11
BRANCH   3  13
ATOM     13  C   UNL     1     -45.463 -49.753   7.521  1.00  0.00    -0.001 A 
ATOM     14  C   UNL     1     -44.977 -49.936   6.215  1.00  0.00     0.057 A 
ATOM     15  C   UNL     1     -46.489 -48.821   7.744  1.00  0.00     0.012 A 
ATOM     16  C   UNL     1     -45.493 -49.186   5.149  1.00  0.00     0.157 A 
ATOM     17  C   UNL     1     -47.006 -48.071   6.683  1.00  0.00     0.050 A 
ATOM     18  C   UNL     1     -46.512 -48.247   5.386  1.00  0.00     0.157 A 
BRANCH  16  19
ATOM     19  O   UNL     1     -45.001 -49.370   3.859  1.00  0.00    -0.504 OA
ATOM     20  H   UNL     1     -44.056 -49.103   3.607  1.00  0.00     0.293 HD
ENDBRANCH  16  19
BRANCH  18  21
ATOM     21  O   UNL     1     -47.046 -47.485   4.348  1.00  0.00    -0.504 OA
ATOM     22  H   UNL     1     -46.497 -46.798   3.847  1.00  0.00     0.293 HD
ENDBRANCH  18  21
ENDBRANCH   3  13
BRANCH   9  23
ATOM     23  O   UNL     1     -42.574 -54.487  11.158  1.00  0.00    -0.507 OA
ATOM     24  H   UNL     1     -43.092 -54.650  12.012  1.00  0.00     0.293 HD
ENDBRANCH   9  23
BRANCH   7  25
ATOM     25  O   UNL     1     -39.280 -50.988  11.023  1.00  0.00    -0.508 OA
ATOM     26  H   UNL     1     -38.980 -50.043  10.812  1.00  0.00     0.293 HD
ENDBRANCH   7  25
TORSDOF 6
ENDMDL
MODEL 4
REMARK VINA RESULT:    -6.007      4.332      7.738
REMARK INTER + INTRA:          -7.598
REMARK INTER:                  -7.264
REMARK INTRA:                  -0.334
REMARK UNBOUND:                -0.362
REMARK SMILES Oc1cc(O)c2c(c1)O[C@@H](c1ccc(O)c(O)c1)[C@H](O)C2
REMARK SMILES IDX 21 1 19 2 10 3 9 4 7 5 8 6 2 7 3 8 4 9 6 10 20 11 11 13
REMARK SMILES IDX 18 14 12 15 16 16 13 17 14 18 17 19 15 21 5 23 1 25
REMARK H PARENT 20 12 17 20 15 22 5 24 1 26
REMARK Flexibility Score: inf
ROOT
ATOM      1  C   UNL     1     -45.626 -45.583   8.504  1.00  0.00     0.079 C 
ATOM      2  C   UNL     1     -45.271 -45.478  10.000  1.00  0.00     0.164 C 
ATOM      3  C   UNL     1     -46.056 -46.534  10.797  1.00  0.00     0.232 C 
ATOM      4  O   UNL     1     -45.781 -47.835  10.277  1.00  0.00    -0.482 OA
ATOM      5  C   UNL     1     -45.641 -48.077   8.907  1.00  0.00     0.131 A 
ATOM      6  C   UNL     1     -45.562 -49.397   8.457  1.00  0.00     0.093 A 
ATOM      7  C   UNL     1     -45.438 -49.670   7.090  1.00  0.00     0.122 A 
ATOM      8  C   UNL     1     -45.404 -48.618   6.173  1.00  0.00     0.092 A 
ATOM      9  C   UNL     1     -45.482 -47.289   6.606  1.00  0.00     0.126 A 
ATOM     10  C   UNL     1     -45.563 -47.006   7.990  1.00  0.00     0.039 A 
ENDROOT
BRANCH   2  11
ATOM     11  O   UNL     1     -45.588 -44.195  10.474  1.00  0.00    -0.389 OA
ATOM     12  H   UNL     1     -45.671 -43.607   9.678  1.00  0.00     0.211 HD
ENDBRANCH   2  11
BRANCH   3  13
ATOM     13  C   UNL     1     -45.696 -46.488  12.264  1.00  0.00    -0.001 A 
ATOM     14  C   UNL     1     -46.702 -46.476  13.247  1.00  0.00     0.057 A 
ATOM     15  C   UNL     1     -44.350 -46.507  12.663  1.00  0.00     0.012 A 
ATOM     16  C   UNL     1     -46.368 -46.461  14.609  1.00  0.00     0.157 A 
ATOM     17  C   UNL     1     -44.015 -46.492  14.020  1.00  0.00     0.050 A 
ATOM     18  C   UNL     1     -45.017 -46.467  14.996  1.00  0.00     0.157 A 
BRANCH  16  19
ATOM     19  O   UNL     1     -47.371 -46.442  15.576  1.00  0.00    -0.504 OA
ATOM     20  H   UNL     1     -48.289 -46.057  15.382  1.00  0.00     0.293 HD
ENDBRANCH  16  19
BRANCH  18  21
ATOM     21  O   UNL     1     -44.653 -46.452  16.342  1.00  0.00    -0.504 OA
ATOM     22  H   UNL     1     -44.638 -45.599  16.886  1.00  0.00     0.293 HD
ENDBRANCH  18  21
ENDBRANCH   3  13
BRANCH   9  23
ATOM     23  O   UNL     1     -45.488 -46.282   5.638  1.00  0.00    -0.507 OA
ATOM     24  H   UNL     1     -46.195 -45.559   5.593  1.00  0.00     0.293 HD
ENDBRANCH   9  23
BRANCH   7  25
ATOM     25  O   UNL     1     -45.358 -50.983   6.633  1.00  0.00    -0.508 OA
ATOM     26  H   UNL     1     -46.184 -51.497   6.347  1.00  0.00     0.293 HD
ENDBRANCH   7  25
TORSDOF 6
ENDMDL
MODEL 5
REMARK VINA RESULT:    -5.946      1.466      3.175
REMARK INTER + INTRA:          -7.525
REMARK INTER:                  -7.212
REMARK INTRA:                  -0.313
REMARK UNBOUND:                -0.362
REMARK SMILES Oc1cc(O)c2c(c1)O[C@@H](c1ccc(O)c(O)c1)[C@H](O)C2
REMARK SMILES IDX 21 1 19 2 10 3 9 4 7 5 8 6 2 7 3 8 4 9 6 10 20 11 11 13
REMARK SMILES IDX 18 14 12 15 16 16 13 17 14 18 17 19 15 21 5 23 1 25
REMARK H PARENT 20 12 17 20 15 22 5 24 1 26
REMARK Flexibility Score: inf
ROOT
ATOM      1  C   UNL     1     -45.124 -52.300  10.236  1.00  0.00     0.079 C 
ATOM      2  C   UNL     1     -45.524 -51.856   8.816  1.00  0.00     0.164 C 
ATOM      3  C   UNL     1     -44.517 -50.820   8.289  1.00  0.00     0.232 C 
ATOM      4  O   UNL     1     -43.199 -51.367   8.321  1.00  0.00    -0.482 OA
ATOM      5  C   UNL     1     -42.753 -52.182   9.368  1.00  0.00     0.131 A 
ATOM      6  C   UNL     1     -41.401 -52.525   9.431  1.00  0.00     0.093 A 
ATOM      7  C   UNL     1     -40.924 -53.325  10.475  1.00  0.00     0.122 A 
ATOM      8  C   UNL     1     -41.804 -53.772  11.464  1.00  0.00     0.092 A 
ATOM      9  C   UNL     1     -43.162 -53.437  11.416  1.00  0.00     0.126 A 
ATOM     10  C   UNL     1     -43.657 -52.665  10.339  1.00  0.00     0.039 A 
ENDROOT
BRANCH   2  11
ATOM     11  O   UNL     1     -46.812 -51.296   8.838  1.00  0.00    -0.389 OA
ATOM     12  H   UNL     1     -47.445 -52.025   8.607  1.00  0.00     0.211 HD
ENDBRANCH   2  11
BRANCH   3  13
ATOM     13  C   UNL     1     -44.855 -50.397   6.878  1.00  0.00    -0.001 A 
ATOM     14  C   UNL     1     -45.479 -49.162   6.632  1.00  0.00     0.057 A 
ATOM     15  C   UNL     1     -44.506 -51.216   5.792  1.00  0.00     0.012 A 
ATOM     16  C   UNL     1     -45.769 -48.758   5.321  1.00  0.00     0.157 A 
ATOM     17  C   UNL     1     -44.794 -50.815   4.484  1.00  0.00     0.050 A 
ATOM     18  C   UNL     1     -45.426 -49.591   4.242  1.00  0.00     0.157 A 
BRANCH  16  19
ATOM     19  O   UNL     1     -46.393 -47.534   5.087  1.00  0.00    -0.504 OA
ATOM     20  H   UNL     1     -47.399 -47.461   4.986  1.00  0.00     0.293 HD
ENDBRANCH  16  19
BRANCH  18  21
ATOM     21  O   UNL     1     -45.701 -49.218   2.927  1.00  0.00    -0.504 OA
ATOM     22  H   UNL     1     -46.634 -49.264   2.539  1.00  0.00     0.293 HD
ENDBRANCH  18  21
ENDBRANCH   3  13
BRANCH   9  23
ATOM     23  O   UNL     1     -43.983 -53.876  12.458  1.00  0.00    -0.507 OA
ATOM     24  H   UNL     1     -43.946 -54.814  12.837  1.00  0.00     0.293 HD
ENDBRANCH   9  23
BRANCH   7  25
ATOM     25  O   UNL     1     -39.578 -53.673  10.545  1.00  0.00    -0.508 OA
ATOM     26  H   UNL     1     -39.129 -53.881  11.430  1.00  0.00     0.293 HD
ENDBRANCH   7  25
TORSDOF 6
ENDMDL
MODEL 6
REMARK VINA RESULT:    -5.862      2.594      4.768
REMARK INTER + INTRA:          -7.423
REMARK INTER:                  -7.052
REMARK INTRA:                  -0.371
REMARK UNBOUND:                -0.362
REMARK SMILES Oc1cc(O)c2c(c1)O[C@@H](c1ccc(O)c(O)c1)[C@H](O)C2
REMARK SMILES IDX 21 1 19 2 10 3 9 4 7 5 8 6 2 7 3 8 4 9 6 10 20 11 11 13
REMARK SMILES IDX 18 14 12 15 16 16 13 17 14 18 17 19 15 21 5 23 1 25
REMARK H PARENT 20 12 17 20 15 22 5 24 1 26
REMARK Flexibility Score: inf
ROOT
ATOM      1  C   UNL     1     -45.568 -47.083   7.613  1.00  0.00     0.079 C 
ATOM      2  C   UNL     1     -45.483 -47.601   6.164  1.00  0.00     0.164 C 
ATOM      3  C   UNL     1     -44.324 -48.604   6.036  1.00  0.00     0.232 C 
ATOM      4  O   UNL     1     -44.501 -49.669   6.969  1.00  0.00    -0.482 OA
ATOM      5  C   UNL     1     -44.989 -49.455   8.263  1.00  0.00     0.131 A 
ATOM      6  C   UNL     1     -44.957 -50.507   9.182  1.00  0.00     0.093 A 
ATOM      7  C   UNL     1     -45.424 -50.317  10.487  1.00  0.00     0.122 A 
ATOM      8  C   UNL     1     -45.913 -49.068  10.875  1.00  0.00     0.092 A 
ATOM      9  C   UNL     1     -45.951 -48.002   9.967  1.00  0.00     0.126 A 
ATOM     10  C   UNL     1     -45.522 -48.201   8.633  1.00  0.00     0.039 A 
ENDROOT
BRANCH   2  11
ATOM     11  O   UNL     1     -45.277 -46.524   5.286  1.00  0.00    -0.389 OA
ATOM     12  H   UNL     1     -45.487 -46.855   4.374  1.00  0.00     0.211 HD
ENDBRANCH   2  11
BRANCH   3  13
ATOM     13  C   UNL     1     -44.242 -49.166   4.635  1.00  0.00    -0.001 A 
ATOM     14  C   UNL     1     -45.326 -49.870   4.083  1.00  0.00     0.057 A 
ATOM     15  C   UNL     1     -43.097 -48.949   3.853  1.00  0.00     0.012 A 
ATOM     16  C   UNL     1     -45.260 -50.369   2.774  1.00  0.00     0.157 A 
ATOM     17  C   UNL     1     -43.029 -49.445   2.548  1.00  0.00     0.050 A 
ATOM     18  C   UNL     1     -44.103 -50.155   2.004  1.00  0.00     0.157 A 
BRANCH  16  19
ATOM     19  O   UNL     1     -46.337 -51.071   2.236  1.00  0.00    -0.504 OA
ATOM     20  H   UNL     1     -46.702 -51.906   2.680  1.00  0.00     0.293 HD
ENDBRANCH  16  19
BRANCH  18  21
ATOM     21  O   UNL     1     -44.007 -50.639   0.699  1.00  0.00    -0.504 OA
ATOM     22  H   UNL     1     -44.539 -50.239  -0.063  1.00  0.00     0.293 HD
ENDBRANCH  18  21
ENDBRANCH   3  13
BRANCH   9  23
ATOM     23  O   UNL     1     -46.409 -46.765  10.426  1.00  0.00    -0.507 OA
ATOM     24  H   UNL     1     -46.580 -46.564  11.403  1.00  0.00     0.293 HD
ENDBRANCH   9  23
BRANCH   7  25
ATOM     25  O   UNL     1     -45.397 -51.361  11.409  1.00  0.00    -0.508 OA
ATOM     26  H   UNL     1     -45.756 -51.246  12.350  1.00  0.00     0.293 HD
ENDBRANCH   7  25
TORSDOF 6
ENDMDL
MODEL 7
REMARK VINA RESULT:    -5.782      4.533      5.867
REMARK INTER + INTRA:          -7.328
REMARK INTER:                  -7.285
REMARK INTRA:                  -0.043
REMARK UNBOUND:                -0.362
REMARK SMILES Oc1cc(O)c2c(c1)O[C@@H](c1ccc(O)c(O)c1)[C@H](O)C2
REMARK SMILES IDX 21 1 19 2 10 3 9 4 7 5 8 6 2 7 3 8 4 9 6 10 20 11 11 13
REMARK SMILES IDX 18 14 12 15 16 16 13 17 14 18 17 19 15 21 5 23 1 25
REMARK H PARENT 20 12 17 20 15 22 5 24 1 26
REMARK Flexibility Score: inf
ROOT
ATOM      1  C   UNL     1     -45.895 -48.299  12.430  1.00  0.00     0.079 C 
ATOM      2  C   UNL     1     -45.268 -48.458  11.032  1.00  0.00     0.164 C 
ATOM      3  C   UNL     1     -46.016 -47.573  10.021  1.00  0.00     0.232 C 
ATOM      4  O   UNL     1     -45.996 -46.215  10.459  1.00  0.00    -0.482 OA
ATOM      5  C   UNL     1     -46.134 -45.862  11.806  1.00  0.00     0.131 A 
ATOM      6  C   UNL     1     -46.295 -44.516  12.141  1.00  0.00     0.093 A 
ATOM      7  C   UNL     1     -46.452 -44.136  13.479  1.00  0.00     0.122 A 
ATOM      8  C   UNL     1     -46.457 -45.109  14.480  1.00  0.00     0.092 A 
ATOM      9  C   UNL     1     -46.298 -46.463  14.162  1.00  0.00     0.126 A 
ATOM     10  C   UNL     1     -46.095 -46.849  12.816  1.00  0.00     0.039 A 
ENDROOT
BRANCH   2  11
ATOM     11  O   UNL     1     -45.339 -49.802  10.629  1.00  0.00    -0.389 OA
ATOM     12  H   UNL     1     -46.286 -50.082  10.735  1.00  0.00     0.211 HD
ENDBRANCH   2  11
BRANCH   3  13
ATOM     13  C   UNL     1     -45.396 -47.671   8.646  1.00  0.00    -0.001 A 
ATOM     14  C   UNL     1     -46.125 -47.293   7.504  1.00  0.00     0.057 A 
ATOM     15  C   UNL     1     -44.066 -48.095   8.499  1.00  0.00     0.012 A 
ATOM     16  C   UNL     1     -45.541 -47.359   6.231  1.00  0.00     0.157 A 
ATOM     17  C   UNL     1     -43.482 -48.161   7.231  1.00  0.00     0.050 A 
ATOM     18  C   UNL     1     -44.212 -47.797   6.095  1.00  0.00     0.157 A 
BRANCH  16  19
ATOM     19  O   UNL     1     -46.272 -46.988   5.105  1.00  0.00    -0.504 OA
ATOM     20  H   UNL     1     -46.165 -47.470   4.219  1.00  0.00     0.293 HD
ENDBRANCH  16  19
BRANCH  18  21
ATOM     21  O   UNL     1     -43.603 -47.873   4.843  1.00  0.00    -0.504 OA
ATOM     22  H   UNL     1     -43.291 -47.049   4.346  1.00  0.00     0.293 HD
ENDBRANCH  18  21
ENDBRANCH   3  13
BRANCH   9  23
ATOM     23  O   UNL     1     -46.358 -47.393  15.203  1.00  0.00    -0.507 OA
ATOM     24  H   UNL     1     -47.038 -47.347  15.951  1.00  0.00     0.293 HD
ENDBRANCH   9  23
BRANCH   7  25
ATOM     25  O   UNL     1     -46.611 -42.796  13.821  1.00  0.00    -0.508 OA
ATOM     26  H   UNL     1     -45.879 -42.115  13.654  1.00  0.00     0.293 HD
ENDBRANCH   7  25
TORSDOF 6
ENDMDL
MODEL 8
REMARK VINA RESULT:    -5.769      8.995     11.294
REMARK INTER + INTRA:          -7.311
REMARK INTER:                  -6.978
REMARK INTRA:                  -0.333
REMARK UNBOUND:                -0.362
REMARK SMILES Oc1cc(O)c2c(c1)O[C@@H](c1ccc(O)c(O)c1)[C@H](O)C2
REMARK SMILES IDX 21 1 19 2 10 3 9 4 7 5 8 6 2 7 3 8 4 9 6 10 20 11 11 13
REMARK SMILES IDX 18 14 12 15 16 16 13 17 14 18 17 19 15 21 5 23 1 25
REMARK H PARENT 20 12 17 20 15 22 5 24 1 26
REMARK Flexibility Score: inf
ROOT
ATOM      1  C   UNL     1     -42.436 -42.690  12.967  1.00  0.00     0.079 C 
ATOM      2  C   UNL     1     -43.575 -43.593  13.479  1.00  0.00     0.164 C 
ATOM      3  C   UNL     1     -44.816 -42.740  13.795  1.00  0.00     0.232 C 
ATOM      4  O   UNL     1     -45.203 -42.004  12.635  1.00  0.00    -0.482 OA
ATOM      5  C   UNL     1     -44.269 -41.431  11.766  1.00  0.00     0.131 A 
ATOM      6  C   UNL     1     -44.716 -40.569  10.763  1.00  0.00     0.093 A 
ATOM      7  C   UNL     1     -43.802 -39.969   9.889  1.00  0.00     0.122 A 
ATOM      8  C   UNL     1     -42.436 -40.228  10.029  1.00  0.00     0.092 A 
ATOM      9  C   UNL     1     -41.971 -41.090  11.029  1.00  0.00     0.126 A 
ATOM     10  C   UNL     1     -42.895 -41.733  11.887  1.00  0.00     0.039 A 
ENDROOT
BRANCH   2  11
ATOM     11  O   UNL     1     -43.160 -44.272  14.636  1.00  0.00    -0.389 OA
ATOM     12  H   UNL     1     -43.586 -45.168  14.611  1.00  0.00     0.211 HD
ENDBRANCH   2  11
BRANCH   3  13
ATOM     13  C   UNL     1     -45.968 -43.602  14.257  1.00  0.00    -0.001 A 
ATOM     14  C   UNL     1     -46.344 -43.627  15.611  1.00  0.00     0.057 A 
ATOM     15  C   UNL     1     -46.706 -44.352  13.327  1.00  0.00     0.012 A 
ATOM     16  C   UNL     1     -47.430 -44.406  16.035  1.00  0.00     0.157 A 
ATOM     17  C   UNL     1     -47.789 -45.129  13.748  1.00  0.00     0.050 A 
ATOM     18  C   UNL     1     -48.155 -45.162  15.098  1.00  0.00     0.157 A 
BRANCH  16  19
ATOM     19  O   UNL     1     -47.793 -44.429  17.380  1.00  0.00    -0.504 OA
ATOM     20  H   UNL     1     -47.166 -44.098  18.106  1.00  0.00     0.293 HD
ENDBRANCH  16  19
BRANCH  18  21
ATOM     21  O   UNL     1     -49.239 -45.947  15.488  1.00  0.00    -0.504 OA
ATOM     22  H   UNL     1     -50.052 -46.072  14.899  1.00  0.00     0.293 HD
ENDBRANCH  18  21
ENDBRANCH   3  13
BRANCH   9  23
ATOM     23  O   UNL     1     -40.591 -41.274  11.147  1.00  0.00    -0.507 OA
ATOM     24  H   UNL     1     -39.931 -40.508  11.200  1.00  0.00     0.293 HD
ENDBRANCH   9  23
BRANCH   7  25
ATOM     25  O   UNL     1     -44.239 -39.109   8.885  1.00  0.00    -0.508 OA
ATOM     26  H   UNL     1     -43.802 -38.207   8.732  1.00  0.00     0.293 HD
ENDBRANCH   7  25
TORSDOF 6
ENDMDL
MODEL 9
REMARK VINA RESULT:    -5.719      3.892      6.608
REMARK INTER + INTRA:          -7.252
REMARK INTER:                  -7.598
REMARK INTRA:                   0.346
REMARK UNBOUND:                -0.362
REMARK SMILES Oc1cc(O)c2c(c1)O[C@@H](c1ccc(O)c(O)c1)[C@H](O)C2
REMARK SMILES IDX 21 1 19 2 10 3 9 4 7 5 8 6 2 7 3 8 4 9 6 10 20 11 11 13
REMARK SMILES IDX 18 14 12 15 16 16 13 17 14 18 17 19 15 21 5 23 1 25
REMARK H PARENT 20 12 17 20 15 22 5 24 1 26
REMARK Flexibility Score: inf
ROOT
ATOM      1  C   UNL     1     -45.607 -47.122   9.808  1.00  0.00     0.079 C 
ATOM      2  C   UNL     1     -45.744 -48.618   9.464  1.00  0.00     0.164 C 
ATOM      3  C   UNL     1     -45.012 -49.465  10.519  1.00  0.00     0.232 C 
ATOM      4  O   UNL     1     -45.526 -49.171  11.817  1.00  0.00    -0.482 OA
ATOM      5  C   UNL     1     -45.876 -47.873  12.206  1.00  0.00     0.131 A 
ATOM      6  C   UNL     1     -46.191 -47.628  13.545  1.00  0.00     0.093 A 
ATOM      7  C   UNL     1     -46.529 -46.337  13.965  1.00  0.00     0.122 A 
ATOM      8  C   UNL     1     -46.542 -45.289  13.043  1.00  0.00     0.092 A 
ATOM      9  C   UNL     1     -46.229 -45.516  11.697  1.00  0.00     0.126 A 
ATOM     10  C   UNL     1     -45.928 -46.828  11.259  1.00  0.00     0.039 A 
ENDROOT
BRANCH   2  11
ATOM     11  O   UNL     1     -45.197 -48.865   8.195  1.00  0.00    -0.389 OA
ATOM     12  H   UNL     1     -45.385 -49.817   7.983  1.00  0.00     0.211 HD
ENDBRANCH   2  11
BRANCH   3  13
ATOM     13  C   UNL     1     -45.166 -50.942  10.236  1.00  0.00    -0.001 A 
ATOM     14  C   UNL     1     -44.808 -51.896  11.204  1.00  0.00     0.057 A 
ATOM     15  C   UNL     1     -45.714 -51.374   9.018  1.00  0.00     0.012 A 
ATOM     16  C   UNL     1     -44.976 -53.265  10.951  1.00  0.00     0.157 A 
ATOM     17  C   UNL     1     -45.882 -52.738   8.764  1.00  0.00     0.050 A 
ATOM     18  C   UNL     1     -45.515 -53.687   9.723  1.00  0.00     0.157 A 
BRANCH  16  19
ATOM     19  O   UNL     1     -44.614 -54.205  11.914  1.00  0.00    -0.504 OA
ATOM     20  H   UNL     1     -45.054 -55.118  11.959  1.00  0.00     0.293 HD
ENDBRANCH  16  19
BRANCH  18  21
ATOM     21  O   UNL     1     -45.694 -55.041   9.442  1.00  0.00    -0.504 OA
ATOM     22  H   UNL     1     -46.350 -55.615   9.956  1.00  0.00     0.293 HD
ENDBRANCH  18  21
ENDBRANCH   3  13
BRANCH   9  23
ATOM     23  O   UNL     1     -46.214 -44.419  10.832  1.00  0.00    -0.507 OA
ATOM     24  H   UNL     1     -45.366 -44.036  10.435  1.00  0.00     0.293 HD
ENDBRANCH   9  23
BRANCH   7  25
ATOM     25  O   UNL     1     -46.846 -46.085  15.297  1.00  0.00    -0.508 OA
ATOM     26  H   UNL     1     -47.587 -46.590  15.771  1.00  0.00     0.293 HD
ENDBRANCH   7  25
TORSDOF 6
ENDMDL
