MODEL 1
REMARK VINA RESULT:    -2.699      0.000      0.000
REMARK INTER + INTRA:          -3.027
REMARK INTER:                  -2.856
REMARK INTRA:                  -0.170
REMARK UNBOUND:                -0.170
REMARK SMILES CC(C)[C@H]1CC[C@H](C)CC1=O
REMARK SMILES IDX 8 1 7 2 6 3 5 4 4 5 10 6 11 7 9 8 2 9 1 10 3 11
REMARK H PARENT
REMARK Flexibility Score: inf
ROOT
ATOM      1  C   UNL     1     124.715 118.820 117.002  1.00  0.00     0.008 C 
ATOM      2  C   UNL     1     126.021 119.596 116.804  1.00  0.00    -0.007 C 
ATOM      3  C   UNL     1     126.160 120.064 115.341  1.00  0.00     0.004 C 
ATOM      4  C   UNL     1     127.458 120.862 115.120  1.00  0.00     0.012 C 
ATOM      5  C   UNL     1     127.545 122.090 116.060  1.00  0.00     0.058 C 
ATOM      6  C   UNL     1     127.327 121.592 117.479  1.00  0.00     0.136 C 
ATOM      7  O   UNL     1     128.162 121.751 118.357  1.00  0.00    -0.299 OA
ATOM      8  C   UNL     1     126.087 120.795 117.767  1.00  0.00     0.079 C 
ENDROOT
BRANCH   5   9
ATOM      9  C   UNL     1     128.874 122.900 115.898  1.00  0.00    -0.007 C 
ATOM     10  C   UNL     1     129.837 122.266 114.876  1.00  0.00     0.008 C 
ATOM     11  C   UNL     1     128.583 124.348 115.460  1.00  0.00     0.008 C 
ENDBRANCH   5   9
TORSDOF 1
ENDMDL
MODEL 2
REMARK VINA RESULT:    -2.675     12.626     14.980
REMARK INTER + INTRA:          -3.002
REMARK INTER:                  -2.840
REMARK INTRA:                  -0.161
REMARK UNBOUND:                -0.170
REMARK SMILES CC(C)[C@H]1CC[C@H](C)CC1=O
REMARK SMILES IDX 8 1 7 2 6 3 5 4 4 5 10 6 11 7 9 8 2 9 1 10 3 11
REMARK H PARENT
REMARK Flexibility Score: inf
ROOT
ATOM      1  C   UNL     1     109.925 116.489 115.447  1.00  0.00     0.008 C 
ATOM      2  C   UNL     1     111.273 117.038 115.923  1.00  0.00    -0.007 C 
ATOM      3  C   UNL     1     111.720 118.224 115.043  1.00  0.00     0.004 C 
ATOM      4  C   UNL     1     113.067 118.804 115.512  1.00  0.00     0.012 C 
ATOM      5  C   UNL     1     113.014 119.257 116.992  1.00  0.00     0.058 C 
ATOM      6  C   UNL     1     112.497 118.084 117.808  1.00  0.00     0.136 C 
ATOM      7  O   UNL     1     113.145 117.594 118.720  1.00  0.00    -0.299 OA
ATOM      8  C   UNL     1     111.194 117.458 117.401  1.00  0.00     0.079 C 
ENDROOT
BRANCH   5   9
ATOM      9  C   UNL     1     114.379 119.810 117.519  1.00  0.00    -0.007 C 
ATOM     10  C   UNL     1     115.369 120.134 116.384  1.00  0.00     0.008 C 
ATOM     11  C   UNL     1     114.168 121.083 118.360  1.00  0.00     0.008 C 
ENDBRANCH   5   9
TORSDOF 1
ENDMDL
MODEL 3
REMARK VINA RESULT:    -2.674      4.143      5.880
REMARK INTER + INTRA:          -3.000
REMARK INTER:                  -2.848
REMARK INTRA:                  -0.152
REMARK UNBOUND:                -0.170
REMARK SMILES CC(C)[C@H]1CC[C@H](C)CC1=O
REMARK SMILES IDX 8 1 7 2 6 3 5 4 4 5 10 6 11 7 9 8 2 9 1 10 3 11
REMARK H PARENT
REMARK Flexibility Score: inf
ROOT
ATOM      1  C   UNL     1     129.772 123.746 114.875  1.00  0.00     0.008 C 
ATOM      2  C   UNL     1     129.487 124.940 115.792  1.00  0.00    -0.007 C 
ATOM      3  C   UNL     1     128.483 125.907 115.130  1.00  0.00     0.004 C 
ATOM      4  C   UNL     1     128.167 127.108 116.040  1.00  0.00     0.012 C 
ATOM      5  C   UNL     1     127.615 126.659 117.415  1.00  0.00     0.058 C 
ATOM      6  C   UNL     1     128.596 125.652 117.993  1.00  0.00     0.136 C 
ATOM      7  O   UNL     1     129.148 125.830 119.068  1.00  0.00    -0.299 OA
ATOM      8  C   UNL     1     128.961 124.459 117.156  1.00  0.00     0.079 C 
ENDROOT
BRANCH   5   9
ATOM      9  C   UNL     1     127.326 127.851 118.385  1.00  0.00    -0.007 C 
ATOM     10  C   UNL     1     128.280 129.041 118.168  1.00  0.00     0.008 C 
ATOM     11  C   UNL     1     125.878 128.352 118.224  1.00  0.00     0.008 C 
ENDBRANCH   5   9
TORSDOF 1
ENDMDL
MODEL 4
REMARK VINA RESULT:    -2.659      9.567     10.531
REMARK INTER + INTRA:          -2.985
REMARK INTER:                  -2.810
REMARK INTRA:                  -0.175
REMARK UNBOUND:                -0.170
REMARK SMILES CC(C)[C@H]1CC[C@H](C)CC1=O
REMARK SMILES IDX 8 1 7 2 6 3 5 4 4 5 10 6 11 7 9 8 2 9 1 10 3 11
REMARK H PARENT
REMARK Flexibility Score: inf
ROOT
ATOM      1  C   UNL     1     116.624 129.150 115.609  1.00  0.00     0.008 C 
ATOM      2  C   UNL     1     117.777 128.246 116.055  1.00  0.00    -0.007 C 
ATOM      3  C   UNL     1     117.375 127.421 117.295  1.00  0.00     0.004 C 
ATOM      4  C   UNL     1     118.513 126.491 117.754  1.00  0.00     0.012 C 
ATOM      5  C   UNL     1     118.962 125.531 116.624  1.00  0.00     0.058 C 
ATOM      6  C   UNL     1     119.273 126.379 115.402  1.00  0.00     0.136 C 
ATOM      7  O   UNL     1     120.375 126.375 114.875  1.00  0.00    -0.299 OA
ATOM      8  C   UNL     1     118.213 127.320 114.905  1.00  0.00     0.079 C 
ENDROOT
BRANCH   5   9
ATOM      9  C   UNL     1     120.150 124.602 117.038  1.00  0.00    -0.007 C 
ATOM     10  C   UNL     1     120.941 125.146 118.242  1.00  0.00     0.008 C 
ATOM     11  C   UNL     1     119.646 123.188 117.385  1.00  0.00     0.008 C 
ENDBRANCH   5   9
TORSDOF 1
ENDMDL
MODEL 5
REMARK VINA RESULT:    -2.658      5.817      7.713
REMARK INTER + INTRA:          -2.984
REMARK INTER:                  -2.812
REMARK INTRA:                  -0.172
REMARK UNBOUND:                -0.170
REMARK SMILES CC(C)[C@H]1CC[C@H](C)CC1=O
REMARK SMILES IDX 8 1 7 2 6 3 5 4 4 5 10 6 11 7 9 8 2 9 1 10 3 11
REMARK H PARENT
REMARK Flexibility Score: inf
ROOT
ATOM      1  C   UNL     1     124.787 129.889 120.911  1.00  0.00     0.008 C 
ATOM      2  C   UNL     1     125.888 129.105 120.189  1.00  0.00    -0.007 C 
ATOM      3  C   UNL     1     125.345 127.757 119.671  1.00  0.00     0.004 C 
ATOM      4  C   UNL     1     126.429 126.956 118.926  1.00  0.00     0.012 C 
ATOM      5  C   UNL     1     127.023 127.758 117.741  1.00  0.00     0.058 C 
ATOM      6  C   UNL     1     127.472 129.105 118.282  1.00  0.00     0.136 C 
ATOM      7  O   UNL     1     128.631 129.483 118.196  1.00  0.00    -0.299 OA
ATOM      8  C   UNL     1     126.471 129.936 119.032  1.00  0.00     0.079 C 
ENDROOT
BRANCH   5   9
ATOM      9  C   UNL     1     128.162 126.995 116.987  1.00  0.00    -0.007 C 
ATOM     10  C   UNL     1     128.573 125.689 117.693  1.00  0.00     0.008 C 
ATOM     11  C   UNL     1     127.735 126.657 115.546  1.00  0.00     0.008 C 
ENDBRANCH   5   9
TORSDOF 1
ENDMDL
MODEL 6
REMARK VINA RESULT:    -2.651      8.983     10.264
REMARK INTER + INTRA:          -2.976
REMARK INTER:                  -2.807
REMARK INTRA:                  -0.169
REMARK UNBOUND:                -0.170
REMARK SMILES CC(C)[C@H]1CC[C@H](C)CC1=O
REMARK SMILES IDX 8 1 7 2 6 3 5 4 4 5 10 6 11 7 9 8 2 9 1 10 3 11
REMARK H PARENT
REMARK Flexibility Score: inf
ROOT
ATOM      1  C   UNL     1     129.698 114.398 120.993  1.00  0.00     0.008 C 
ATOM      2  C   UNL     1     128.987 113.263 120.249  1.00  0.00    -0.007 C 
ATOM      3  C   UNL     1     127.571 113.698 119.817  1.00  0.00     0.004 C 
ATOM      4  C   UNL     1     126.840 112.579 119.052  1.00  0.00     0.012 C 
ATOM      5  C   UNL     1     127.637 112.119 117.806  1.00  0.00     0.058 C 
ATOM      6  C   UNL     1     129.044 111.775 118.267  1.00  0.00     0.136 C 
ATOM      7  O   UNL     1     129.524 110.663 118.106  1.00  0.00    -0.299 OA
ATOM      8  C   UNL     1     129.813 112.815 119.030  1.00  0.00     0.079 C 
ENDROOT
BRANCH   5   9
ATOM      9  C   UNL     1     126.949 110.950 117.029  1.00  0.00    -0.007 C 
ATOM     10  C   UNL     1     125.620 110.509 117.670  1.00  0.00     0.008 C 
ATOM     11  C   UNL     1     126.676 111.348 115.566  1.00  0.00     0.008 C 
ENDBRANCH   5   9
TORSDOF 1
ENDMDL
MODEL 7
REMARK VINA RESULT:    -2.622     12.658     15.090
REMARK INTER + INTRA:          -2.946
REMARK INTER:                  -2.771
REMARK INTRA:                  -0.175
REMARK UNBOUND:                -0.170
REMARK SMILES CC(C)[C@H]1CC[C@H](C)CC1=O
REMARK SMILES IDX 8 1 7 2 6 3 5 4 4 5 10 6 11 7 9 8 2 9 1 10 3 11
REMARK H PARENT
REMARK Flexibility Score: inf
ROOT
ATOM      1  C   UNL     1     110.037 116.429 115.757  1.00  0.00     0.008 C 
ATOM      2  C   UNL     1     110.854 117.661 116.157  1.00  0.00    -0.007 C 
ATOM      3  C   UNL     1     111.662 117.385 117.443  1.00  0.00     0.004 C 
ATOM      4  C   UNL     1     112.505 118.605 117.857  1.00  0.00     0.012 C 
ATOM      5  C   UNL     1     113.471 119.047 116.730  1.00  0.00     0.058 C 
ATOM      6  C   UNL     1     112.644 119.232 115.469  1.00  0.00     0.136 C 
ATOM      7  O   UNL     1     112.597 120.300 114.876  1.00  0.00    -0.299 OA
ATOM      8  C   UNL     1     111.787 118.087 115.010  1.00  0.00     0.079 C 
ENDROOT
BRANCH   5   9
ATOM      9  C   UNL     1     114.311 120.314 117.097  1.00  0.00    -0.007 C 
ATOM     10  C   UNL     1     113.709 121.109 118.271  1.00  0.00     0.008 C 
ATOM     11  C   UNL     1     115.758 119.927 117.462  1.00  0.00     0.008 C 
ENDBRANCH   5   9
TORSDOF 1
ENDMDL
MODEL 8
REMARK VINA RESULT:    -2.576     10.178     10.921
REMARK INTER + INTRA:          -2.897
REMARK INTER:                  -2.730
REMARK INTRA:                  -0.167
REMARK UNBOUND:                -0.170
REMARK SMILES CC(C)[C@H]1CC[C@H](C)CC1=O
REMARK SMILES IDX 8 1 7 2 6 3 5 4 4 5 10 6 11 7 9 8 2 9 1 10 3 11
REMARK H PARENT
REMARK Flexibility Score: inf
ROOT
ATOM      1  C   UNL     1     115.919 129.162 115.624  1.00  0.00     0.008 C 
ATOM      2  C   UNL     1     116.631 127.877 116.055  1.00  0.00    -0.007 C 
ATOM      3  C   UNL     1     117.879 127.626 115.182  1.00  0.00     0.004 C 
ATOM      4  C   UNL     1     118.623 126.347 115.607  1.00  0.00     0.012 C 
ATOM      5  C   UNL     1     119.042 126.394 117.097  1.00  0.00     0.058 C 
ATOM      6  C   UNL     1     117.800 126.719 117.910  1.00  0.00     0.136 C 
ATOM      7  O   UNL     1     117.385 125.973 118.784  1.00  0.00    -0.299 OA
ATOM      8  C   UNL     1     117.016 127.946 117.544  1.00  0.00     0.079 C 
ENDROOT
BRANCH   5   9
ATOM      9  C   UNL     1     119.760 125.091 117.578  1.00  0.00    -0.007 C 
ATOM     10  C   UNL     1     120.020 124.095 116.432  1.00  0.00     0.008 C 
ATOM     11  C   UNL     1     121.107 125.422 118.251  1.00  0.00     0.008 C 
ENDBRANCH   5   9
TORSDOF 1
ENDMDL
