MODEL 1
REMARK VINA RESULT:    -4.310      0.000      0.000
REMARK INTER + INTRA:          -6.139
REMARK INTER:                  -5.822
REMARK INTRA:                  -0.318
REMARK UNBOUND:                -0.318
REMARK SMILES O=C[C@@H](O)[C@H](O)[C@@H](O)CO
REMARK SMILES IDX 7 1 9 2 10 3 5 5 3 6 2 7 1 8 4 9 6 11 8 13
REMARK H PARENT 10 4 4 10 6 12 8 14
REMARK Flexibility Score: inf
ROOT
ATOM      1  C   UNL     1       8.123  -0.870   9.230  1.00  0.00     0.171 C 
ENDROOT
BRANCH   1   2
ATOM      2  C   UNL     1       8.707   0.448   8.689  1.00  0.00     0.190 C 
BRANCH   2   3
ATOM      3  O   UNL     1       9.292   1.182   9.730  1.00  0.00    -0.394 OA
ATOM      4  H   UNL     1       8.984   0.759  10.573  1.00  0.00     0.210 HD
ENDBRANCH   2   3
ENDBRANCH   1   2
BRANCH   1   5
ATOM      5  C   UNL     1       9.227  -1.884   9.639  1.00  0.00     0.181 C 
BRANCH   5   6
ATOM      6  C   UNL     1       8.624  -3.222  10.124  1.00  0.00     0.209 C 
BRANCH   6   7
ATOM      7  C   UNL     1       8.908  -4.319   9.135  1.00  0.00     0.258 C 
ATOM      8  O   UNL     1       9.925  -4.296   8.460  1.00  0.00    -0.300 OA
ENDBRANCH   6   7
BRANCH   6   9
ATOM      9  O   UNL     1       9.170  -3.584  11.367  1.00  0.00    -0.383 OA
ATOM     10  H   UNL     1       8.680  -3.077  12.065  1.00  0.00     0.211 HD
ENDBRANCH   6   9
ENDBRANCH   5   6
BRANCH   5  11
ATOM     11  O   UNL     1      10.046  -1.345  10.648  1.00  0.00    -0.387 OA
ATOM     12  H   UNL     1       9.464  -0.797  11.236  1.00  0.00     0.211 HD
ENDBRANCH   5  11
ENDBRANCH   1   5
BRANCH   1  13
ATOM     13  O   UNL     1       7.243  -0.610  10.295  1.00  0.00    -0.388 OA
ATOM     14  H   UNL     1       6.863   0.298  10.161  1.00  0.00     0.211 HD
ENDBRANCH   1  13
TORSDOF 8
ENDMDL
MODEL 2
REMARK VINA RESULT:    -4.279      1.096      4.262
REMARK INTER + INTRA:          -6.097
REMARK INTER:                  -5.597
REMARK INTRA:                  -0.501
REMARK UNBOUND:                -0.318
REMARK SMILES O=C[C@@H](O)[C@H](O)[C@@H](O)CO
REMARK SMILES IDX 7 1 9 2 10 3 5 5 3 6 2 7 1 8 4 9 6 11 8 13
REMARK H PARENT 10 4 4 10 6 12 8 14
REMARK Flexibility Score: inf
ROOT
ATOM      1  C   UNL     1       9.214  -1.871   9.622  1.00  0.00     0.171 C 
ENDROOT
BRANCH   1   2
ATOM      2  C   UNL     1       8.751  -3.267  10.075  1.00  0.00     0.190 C 
BRANCH   2   3
ATOM      3  O   UNL     1       9.165  -3.512  11.391  1.00  0.00    -0.394 OA
ATOM      4  H   UNL     1      10.020  -3.021  11.508  1.00  0.00     0.210 HD
ENDBRANCH   2   3
ENDBRANCH   1   2
BRANCH   1   5
ATOM      5  C   UNL     1       8.030  -0.967   9.181  1.00  0.00     0.181 C 
BRANCH   5   6
ATOM      6  C   UNL     1       8.523   0.357   8.556  1.00  0.00     0.209 C 
BRANCH   6   7
ATOM      7  C   UNL     1       7.390   1.075   7.876  1.00  0.00     0.258 C 
ATOM      8  O   UNL     1       6.405   1.419   8.511  1.00  0.00    -0.300 OA
ENDBRANCH   6   7
BRANCH   6   9
ATOM      9  O   UNL     1       9.058   1.198   9.546  1.00  0.00    -0.383 OA
ATOM     10  H   UNL     1      10.007   0.936   9.678  1.00  0.00     0.211 HD
ENDBRANCH   6   9
ENDBRANCH   5   6
BRANCH   5  11
ATOM     11  O   UNL     1       7.187  -0.686  10.272  1.00  0.00    -0.387 OA
ATOM     12  H   UNL     1       6.261  -0.631   9.921  1.00  0.00     0.211 HD
ENDBRANCH   5  11
ENDBRANCH   1   5
BRANCH   1  13
ATOM     13  O   UNL     1       9.977  -1.262  10.634  1.00  0.00    -0.388 OA
ATOM     14  H   UNL     1       9.756  -0.293  10.641  1.00  0.00     0.211 HD
ENDBRANCH   1  13
TORSDOF 8
ENDMDL
MODEL 3
REMARK VINA RESULT:    -4.221      1.127      3.923
REMARK INTER + INTRA:          -6.019
REMARK INTER:                  -5.037
REMARK INTRA:                  -0.982
REMARK UNBOUND:                -0.318
REMARK SMILES O=C[C@@H](O)[C@H](O)[C@@H](O)CO
REMARK SMILES IDX 7 1 9 2 10 3 5 5 3 6 2 7 1 8 4 9 6 11 8 13
REMARK H PARENT 10 4 4 10 6 12 8 14
REMARK Flexibility Score: inf
ROOT
ATOM      1  C   UNL     1       8.406  -3.938   9.617  1.00  0.00     0.171 C 
ENDROOT
BRANCH   1   2
ATOM      2  C   UNL     1       8.115  -4.522  11.010  1.00  0.00     0.190 C 
BRANCH   2   3
ATOM      3  O   UNL     1       8.967  -3.950  11.964  1.00  0.00    -0.394 OA
ATOM      4  H   UNL     1       9.530  -4.690  12.311  1.00  0.00     0.210 HD
ENDBRANCH   2   3
ENDBRANCH   1   2
BRANCH   1   5
ATOM      5  C   UNL     1       7.950  -2.459   9.486  1.00  0.00     0.181 C 
BRANCH   5   6
ATOM      6  C   UNL     1       9.154  -1.491   9.438  1.00  0.00     0.209 C 
BRANCH   6   7
ATOM      7  C   UNL     1       8.694  -0.089   9.150  1.00  0.00     0.258 C 
ATOM      8  O   UNL     1       7.616   0.111   8.612  1.00  0.00    -0.300 OA
ENDBRANCH   6   7
BRANCH   6   9
ATOM      9  O   UNL     1       9.838  -1.497  10.666  1.00  0.00    -0.383 OA
ATOM     10  H   UNL     1       9.510  -0.721  11.192  1.00  0.00     0.211 HD
ENDBRANCH   6   9
ENDBRANCH   5   6
BRANCH   5  11
ATOM     11  O   UNL     1       7.106  -2.104  10.555  1.00  0.00    -0.387 OA
ATOM     12  H   UNL     1       7.686  -1.909  11.335  1.00  0.00     0.211 HD
ENDBRANCH   5  11
ENDBRANCH   1   5
BRANCH   1  13
ATOM     13  O   UNL     1       9.769  -4.087   9.304  1.00  0.00    -0.388 OA
ATOM     14  H   UNL     1       9.975  -5.058   9.297  1.00  0.00     0.211 HD
ENDBRANCH   1  13
TORSDOF 8
ENDMDL
MODEL 4
REMARK VINA RESULT:    -4.076      1.283      1.793
REMARK INTER + INTRA:          -5.824
REMARK INTER:                  -4.888
REMARK INTRA:                  -0.936
REMARK UNBOUND:                -0.318
REMARK SMILES O=C[C@@H](O)[C@H](O)[C@@H](O)CO
REMARK SMILES IDX 7 1 9 2 10 3 5 5 3 6 2 7 1 8 4 9 6 11 8 13
REMARK H PARENT 10 4 4 10 6 12 8 14
REMARK Flexibility Score: inf
ROOT
ATOM      1  C   UNL     1       8.017  -1.827   9.414  1.00  0.00     0.171 C 
ENDROOT
BRANCH   1   2
ATOM      2  C   UNL     1       9.218  -0.879   9.575  1.00  0.00     0.190 C 
BRANCH   2   3
ATOM      3  O   UNL     1       9.977  -1.244  10.694  1.00  0.00    -0.394 OA
ATOM      4  H   UNL     1       9.888  -0.498  11.343  1.00  0.00     0.210 HD
ENDBRANCH   2   3
ENDBRANCH   1   2
BRANCH   1   5
ATOM      5  C   UNL     1       8.448  -3.314   9.281  1.00  0.00     0.181 C 
BRANCH   5   6
ATOM      6  C   UNL     1       8.097  -4.127  10.548  1.00  0.00     0.209 C 
BRANCH   6   7
ATOM      7  C   UNL     1       8.223  -5.602  10.280  1.00  0.00     0.258 C 
ATOM      8  O   UNL     1       8.512  -6.007   9.165  1.00  0.00    -0.300 OA
ENDBRANCH   6   7
BRANCH   6   9
ATOM      9  O   UNL     1       8.958  -3.787  11.604  1.00  0.00    -0.383 OA
ATOM     10  H   UNL     1       8.393  -3.487  12.363  1.00  0.00     0.211 HD
ENDBRANCH   6   9
ENDBRANCH   5   6
BRANCH   5  11
ATOM     11  O   UNL     1       9.829  -3.409   9.031  1.00  0.00    -0.387 OA
ATOM     12  H   UNL     1      10.043  -4.372   8.924  1.00  0.00     0.211 HD
ENDBRANCH   5  11
ENDBRANCH   1   5
BRANCH   1  13
ATOM     13  O   UNL     1       7.111  -1.647  10.475  1.00  0.00    -0.388 OA
ATOM     14  H   UNL     1       6.209  -1.503  10.085  1.00  0.00     0.211 HD
ENDBRANCH   1  13
TORSDOF 8
ENDMDL
MODEL 5
REMARK VINA RESULT:    -4.063      2.562      4.996
REMARK INTER + INTRA:          -5.806
REMARK INTER:                  -4.901
REMARK INTRA:                  -0.906
REMARK UNBOUND:                -0.318
REMARK SMILES O=C[C@@H](O)[C@H](O)[C@@H](O)CO
REMARK SMILES IDX 7 1 9 2 10 3 5 5 3 6 2 7 1 8 4 9 6 11 8 13
REMARK H PARENT 10 4 4 10 6 12 8 14
REMARK Flexibility Score: inf
ROOT
ATOM      1  C   UNL     1       8.371  -6.139  11.105  1.00  0.00     0.171 C 
ENDROOT
BRANCH   1   2
ATOM      2  C   UNL     1       8.678  -7.009  12.336  1.00  0.00     0.190 C 
BRANCH   2   3
ATOM      3  O   UNL     1      10.037  -6.923  12.664  1.00  0.00    -0.394 OA
ATOM      4  H   UNL     1      10.135  -7.355  13.552  1.00  0.00     0.210 HD
ENDBRANCH   2   3
ENDBRANCH   1   2
BRANCH   1   5
ATOM      5  C   UNL     1       7.984  -4.684  11.488  1.00  0.00     0.181 C 
BRANCH   5   6
ATOM      6  C   UNL     1       7.472  -3.886  10.267  1.00  0.00     0.209 C 
BRANCH   6   7
ATOM      7  C   UNL     1       8.533  -2.944   9.770  1.00  0.00     0.258 C 
ATOM      8  O   UNL     1       9.475  -3.361   9.115  1.00  0.00    -0.300 OA
ENDBRANCH   6   7
BRANCH   6   9
ATOM      9  O   UNL     1       7.121  -4.759   9.223  1.00  0.00    -0.383 OA
ATOM     10  H   UNL     1       6.999  -4.210   8.405  1.00  0.00     0.211 HD
ENDBRANCH   6   9
ENDBRANCH   5   6
BRANCH   5  11
ATOM     11  O   UNL     1       9.081  -4.013  12.060  1.00  0.00    -0.387 OA
ATOM     12  H   UNL     1       9.647  -4.700  12.500  1.00  0.00     0.211 HD
ENDBRANCH   5  11
ENDBRANCH   1   5
BRANCH   1  13
ATOM     13  O   UNL     1       9.456  -6.164  10.210  1.00  0.00    -0.388 OA
ATOM     14  H   UNL     1      10.292  -6.152  10.746  1.00  0.00     0.211 HD
ENDBRANCH   1  13
TORSDOF 8
ENDMDL
MODEL 6
REMARK VINA RESULT:    -4.031      2.097      3.162
REMARK INTER + INTRA:          -5.762
REMARK INTER:                  -4.854
REMARK INTRA:                  -0.908
REMARK UNBOUND:                -0.318
REMARK SMILES O=C[C@@H](O)[C@H](O)[C@@H](O)CO
REMARK SMILES IDX 7 1 9 2 10 3 5 5 3 6 2 7 1 8 4 9 6 11 8 13
REMARK H PARENT 10 4 4 10 6 12 8 14
REMARK Flexibility Score: inf
ROOT
ATOM      1  C   UNL     1       7.718  -3.346   9.703  1.00  0.00     0.171 C 
ENDROOT
BRANCH   1   2
ATOM      2  C   UNL     1       8.969  -2.537   9.320  1.00  0.00     0.190 C 
BRANCH   2   3
ATOM      3  O   UNL     1       9.611  -2.062  10.472  1.00  0.00    -0.394 OA
ATOM      4  H   UNL     1       9.241  -2.586  11.230  1.00  0.00     0.210 HD
ENDBRANCH   2   3
ENDBRANCH   1   2
BRANCH   1   5
ATOM      5  C   UNL     1       8.062  -4.790  10.163  1.00  0.00     0.181 C 
BRANCH   5   6
ATOM      6  C   UNL     1       7.941  -4.946  11.696  1.00  0.00     0.209 C 
BRANCH   6   7
ATOM      7  C   UNL     1       8.106  -6.386  12.095  1.00  0.00     0.258 C 
ATOM      8  O   UNL     1       9.218  -6.850  12.296  1.00  0.00    -0.300 OA
ENDBRANCH   6   7
BRANCH   6   9
ATOM      9  O   UNL     1       8.926  -4.183  12.346  1.00  0.00    -0.383 OA
ATOM     10  H   UNL     1       8.468  -3.426  12.796  1.00  0.00     0.211 HD
ENDBRANCH   6   9
ENDBRANCH   5   6
BRANCH   5  11
ATOM     11  O   UNL     1       9.363  -5.142   9.757  1.00  0.00    -0.387 OA
ATOM     12  H   UNL     1       9.403  -5.028   8.772  1.00  0.00     0.211 HD
ENDBRANCH   5  11
ENDBRANCH   1   5
BRANCH   1  13
ATOM     13  O   UNL     1       6.975  -2.658  10.679  1.00  0.00    -0.388 OA
ATOM     14  H   UNL     1       6.798  -3.287  11.427  1.00  0.00     0.211 HD
ENDBRANCH   1  13
TORSDOF 8
ENDMDL
MODEL 7
REMARK VINA RESULT:    -3.913      1.298      2.138
REMARK INTER + INTRA:          -5.603
REMARK INTER:                  -5.150
REMARK INTRA:                  -0.453
REMARK UNBOUND:                -0.318
REMARK SMILES O=C[C@@H](O)[C@H](O)[C@@H](O)CO
REMARK SMILES IDX 7 1 9 2 10 3 5 5 3 6 2 7 1 8 4 9 6 11 8 13
REMARK H PARENT 10 4 4 10 6 12 8 14
REMARK Flexibility Score: inf
ROOT
ATOM      1  C   UNL     1       9.248   0.721   8.990  1.00  0.00     0.171 C 
ENDROOT
BRANCH   1   2
ATOM      2  C   UNL     1      10.170   1.507   9.938  1.00  0.00     0.190 C 
BRANCH   2   3
ATOM      3  O   UNL     1       9.719   2.827  10.070  1.00  0.00    -0.394 OA
ATOM      4  H   UNL     1       9.805   3.239   9.172  1.00  0.00     0.210 HD
ENDBRANCH   2   3
ENDBRANCH   1   2
BRANCH   1   5
ATOM      5  C   UNL     1       9.183  -0.791   9.344  1.00  0.00     0.181 C 
BRANCH   5   6
ATOM      6  C   UNL     1       7.726  -1.304   9.399  1.00  0.00     0.209 C 
BRANCH   6   7
ATOM      7  C   UNL     1       7.698  -2.802   9.523  1.00  0.00     0.258 C 
ATOM      8  O   UNL     1       8.681  -3.409   9.920  1.00  0.00    -0.300 OA
ENDBRANCH   6   7
BRANCH   6   9
ATOM      9  O   UNL     1       7.052  -0.749  10.500  1.00  0.00    -0.383 OA
ATOM     10  H   UNL     1       7.621  -0.020  10.860  1.00  0.00     0.211 HD
ENDBRANCH   6   9
ENDBRANCH   5   6
BRANCH   5  11
ATOM     11  O   UNL     1       9.815  -1.039  10.576  1.00  0.00    -0.387 OA
ATOM     12  H   UNL     1       9.993  -0.158  10.997  1.00  0.00     0.211 HD
ENDBRANCH   5  11
ENDBRANCH   1   5
BRANCH   1  13
ATOM     13  O   UNL     1       7.967   1.300   8.970  1.00  0.00    -0.388 OA
ATOM     14  H   UNL     1       7.379   0.719   8.418  1.00  0.00     0.211 HD
ENDBRANCH   1  13
TORSDOF 8
ENDMDL
MODEL 8
REMARK VINA RESULT:    -3.873      2.458      4.690
REMARK INTER + INTRA:          -5.549
REMARK INTER:                  -4.881
REMARK INTRA:                  -0.668
REMARK UNBOUND:                -0.318
REMARK SMILES O=C[C@@H](O)[C@H](O)[C@@H](O)CO
REMARK SMILES IDX 7 1 9 2 10 3 5 5 3 6 2 7 1 8 4 9 6 11 8 13
REMARK H PARENT 10 4 4 10 6 12 8 14
REMARK Flexibility Score: inf
ROOT
ATOM      1  C   UNL     1       9.416  -5.311   9.351  1.00  0.00     0.171 C 
ENDROOT
BRANCH   1   2
ATOM      2  C   UNL     1      10.322  -6.110   8.398  1.00  0.00     0.190 C 
BRANCH   2   3
ATOM      3  O   UNL     1      11.131  -6.994   9.124  1.00  0.00    -0.394 OA
ATOM      4  H   UNL     1      10.819  -6.944  10.065  1.00  0.00     0.210 HD
ENDBRANCH   2   3
ENDBRANCH   1   2
BRANCH   1   5
ATOM      5  C   UNL     1       8.872  -4.008   8.702  1.00  0.00     0.181 C 
BRANCH   5   6
ATOM      6  C   UNL     1       8.567  -2.925   9.760  1.00  0.00     0.209 C 
BRANCH   6   7
ATOM      7  C   UNL     1       7.086  -2.820   9.997  1.00  0.00     0.258 C 
ATOM      8  O   UNL     1       6.490  -3.701  10.596  1.00  0.00    -0.300 OA
ENDBRANCH   6   7
BRANCH   6   9
ATOM      9  O   UNL     1       9.196  -3.237  10.978  1.00  0.00    -0.383 OA
ATOM     10  H   UNL     1       9.725  -4.064  10.835  1.00  0.00     0.211 HD
ENDBRANCH   6   9
ENDBRANCH   5   6
BRANCH   5  11
ATOM     11  O   UNL     1       7.710  -4.275   7.955  1.00  0.00    -0.387 OA
ATOM     12  H   UNL     1       6.987  -3.704   8.323  1.00  0.00     0.211 HD
ENDBRANCH   5  11
ENDBRANCH   1   5
BRANCH   1  13
ATOM     13  O   UNL     1       8.372  -6.125   9.824  1.00  0.00    -0.388 OA
ATOM     14  H   UNL     1       7.568  -5.553   9.939  1.00  0.00     0.211 HD
ENDBRANCH   1  13
TORSDOF 8
ENDMDL
MODEL 9
REMARK VINA RESULT:    -3.732      1.492      4.056
REMARK INTER + INTRA:          -5.359
REMARK INTER:                  -4.842
REMARK INTRA:                  -0.517
REMARK UNBOUND:                -0.318
REMARK SMILES O=C[C@@H](O)[C@H](O)[C@@H](O)CO
REMARK SMILES IDX 7 1 9 2 10 3 5 5 3 6 2 7 1 8 4 9 6 11 8 13
REMARK H PARENT 10 4 4 10 6 12 8 14
REMARK Flexibility Score: inf
ROOT
ATOM      1  C   UNL     1       8.196  -4.578   9.074  1.00  0.00     0.171 C 
ENDROOT
BRANCH   1   2
ATOM      2  C   UNL     1       9.597  -5.074   8.677  1.00  0.00     0.190 C 
BRANCH   2   3
ATOM      3  O   UNL     1       9.966  -6.170   9.468  1.00  0.00    -0.394 OA
ATOM      4  H   UNL     1      10.537  -5.807  10.194  1.00  0.00     0.210 HD
ENDBRANCH   2   3
ENDBRANCH   1   2
BRANCH   1   5
ATOM      5  C   UNL     1       8.247  -3.439  10.130  1.00  0.00     0.181 C 
BRANCH   5   6
ATOM      6  C   UNL     1       8.973  -2.187   9.587  1.00  0.00     0.209 C 
BRANCH   6   7
ATOM      7  C   UNL     1       7.985  -1.099   9.270  1.00  0.00     0.258 C 
ATOM      8  O   UNL     1       7.078  -1.298   8.476  1.00  0.00    -0.300 OA
ENDBRANCH   6   7
BRANCH   6   9
ATOM      9  O   UNL     1       9.889  -1.701  10.535  1.00  0.00    -0.383 OA
ATOM     10  H   UNL     1      10.486  -1.060  10.069  1.00  0.00     0.211 HD
ENDBRANCH   6   9
ENDBRANCH   5   6
BRANCH   5  11
ATOM     11  O   UNL     1       8.885  -3.879  11.304  1.00  0.00    -0.387 OA
ATOM     12  H   UNL     1       9.034  -4.856  11.208  1.00  0.00     0.211 HD
ENDBRANCH   5  11
ENDBRANCH   1   5
BRANCH   1  13
ATOM     13  O   UNL     1       7.477  -4.188   7.930  1.00  0.00    -0.388 OA
ATOM     14  H   UNL     1       8.131  -3.863   7.256  1.00  0.00     0.211 HD
ENDBRANCH   1  13
TORSDOF 8
ENDMDL
