MODEL 1
REMARK VINA RESULT:    -3.042      0.000      0.000
REMARK INTER + INTRA:          -3.309
REMARK INTER:                  -3.309
REMARK INTRA:                   0.000
REMARK UNBOUND:                 0.000
REMARK SMILES [NH3+]CC(=O)[O-]
REMARK SMILES IDX 2 1 1 2 3 6 4 7 5 8
REMARK H PARENT 1 3 1 4 1 5
REMARK Flexibility Score: inf
ROOT
ATOM      1  C   UNL     1       9.073  39.153  72.907  1.00  0.00     0.312 C 
ENDROOT
BRANCH   1   2
ATOM      2  N   UNL     1       8.539  40.173  73.808  1.00  0.00    -0.353 N 
ATOM      3  H   UNL     1       7.601  39.880  74.167  1.00  0.00     0.344 HD
ATOM      4  H   UNL     1       9.194  40.322  74.609  1.00  0.00     0.344 HD
ATOM      5  H   UNL     1       8.435  41.071  73.284  1.00  0.00     0.344 HD
ENDBRANCH   1   2
BRANCH   1   6
ATOM      6  C   UNL     1      10.259  39.677  72.159  1.00  0.00     0.096 C 
ATOM      7  O   UNL     1      11.393  39.702  72.707  1.00  0.00    -0.544 OA
ATOM      8  O   UNL     1      10.123  40.089  70.840  1.00  0.00    -0.544 OA
ENDBRANCH   1   6
TORSDOF 2
ENDMDL
MODEL 2
REMARK VINA RESULT:    -2.955      2.165      2.592
REMARK INTER + INTRA:          -3.214
REMARK INTER:                  -3.214
REMARK INTRA:                   0.000
REMARK UNBOUND:                 0.000
REMARK SMILES [NH3+]CC(=O)[O-]
REMARK SMILES IDX 2 1 1 2 3 6 4 7 5 8
REMARK H PARENT 1 3 1 4 1 5
REMARK Flexibility Score: inf
ROOT
ATOM      1  C   UNL     1      10.164  39.685  70.541  1.00  0.00     0.312 C 
ENDROOT
BRANCH   1   2
ATOM      2  N   UNL     1       9.758  41.040  70.171  1.00  0.00    -0.353 N 
ATOM      3  H   UNL     1       9.697  41.642  71.024  1.00  0.00     0.344 HD
ATOM      4  H   UNL     1      10.446  41.449  69.497  1.00  0.00     0.344 HD
ATOM      5  H   UNL     1       8.819  41.002  69.715  1.00  0.00     0.344 HD
ENDBRANCH   1   2
BRANCH   1   6
ATOM      6  C   UNL     1      10.107  39.504  72.026  1.00  0.00     0.096 C 
ATOM      7  O   UNL     1       9.077  39.023  72.567  1.00  0.00    -0.544 OA
ATOM      8  O   UNL     1      11.212  39.818  72.808  1.00  0.00    -0.544 OA
ENDBRANCH   1   6
TORSDOF 2
ENDMDL
MODEL 3
REMARK VINA RESULT:    -2.939      7.817      8.268
REMARK INTER + INTRA:          -3.197
REMARK INTER:                  -3.197
REMARK INTRA:                   0.000
REMARK UNBOUND:                 0.000
REMARK SMILES [NH3+]CC(=O)[O-]
REMARK SMILES IDX 2 1 1 2 3 6 4 7 5 8
REMARK H PARENT 1 3 1 4 1 5
REMARK Flexibility Score: inf
ROOT
ATOM      1  C   UNL     1      12.894  38.333  66.332  1.00  0.00     0.312 C 
ENDROOT
BRANCH   1   2
ATOM      2  N   UNL     1      14.210  38.937  66.534  1.00  0.00    -0.353 N 
ATOM      3  H   UNL     1      14.341  39.182  67.543  1.00  0.00     0.344 HD
ATOM      4  H   UNL     1      14.959  38.275  66.229  1.00  0.00     0.344 HD
ATOM      5  H   UNL     1      14.276  39.810  65.963  1.00  0.00     0.344 HD
ENDBRANCH   1   2
BRANCH   1   6
ATOM      6  C   UNL     1      12.632  38.113  64.874  1.00  0.00     0.096 C 
ATOM      7  O   UNL     1      11.554  38.507  64.358  1.00  0.00    -0.544 OA
ATOM      8  O   UNL     1      13.601  37.519  64.076  1.00  0.00    -0.544 OA
ENDBRANCH   1   6
TORSDOF 2
ENDMDL
MODEL 4
REMARK VINA RESULT:    -2.887     12.859     13.168
REMARK INTER + INTRA:          -3.140
REMARK INTER:                  -3.140
REMARK INTRA:                   0.000
REMARK UNBOUND:                 0.000
REMARK SMILES [NH3+]CC(=O)[O-]
REMARK SMILES IDX 2 1 1 2 3 6 4 7 5 8
REMARK H PARENT 1 3 1 4 1 5
REMARK Flexibility Score: inf
ROOT
ATOM      1  C   UNL     1       3.240  29.211  70.087  1.00  0.00     0.312 C 
ENDROOT
BRANCH   1   2
ATOM      2  N   UNL     1       3.020  27.999  70.875  1.00  0.00    -0.353 N 
ATOM      3  H   UNL     1       2.054  27.634  70.710  1.00  0.00     0.344 HD
ATOM      4  H   UNL     1       3.724  27.270  70.614  1.00  0.00     0.344 HD
ATOM      5  H   UNL     1       3.128  28.226  71.889  1.00  0.00     0.344 HD
ENDBRANCH   1   2
BRANCH   1   6
ATOM      6  C   UNL     1       1.950  29.939  69.868  1.00  0.00     0.096 C 
ATOM      7  O   UNL     1       0.935  29.651  70.554  1.00  0.00    -0.544 OA
ATOM      8  O   UNL     1       1.882  30.970  68.940  1.00  0.00    -0.544 OA
ENDBRANCH   1   6
TORSDOF 2
ENDMDL
MODEL 5
REMARK VINA RESULT:    -2.793     11.729     12.017
REMARK INTER + INTRA:          -3.038
REMARK INTER:                  -3.038
REMARK INTRA:                   0.000
REMARK UNBOUND:                 0.000
REMARK SMILES [NH3+]CC(=O)[O-]
REMARK SMILES IDX 2 1 1 2 3 6 4 7 5 8
REMARK H PARENT 1 3 1 4 1 5
REMARK Flexibility Score: inf
ROOT
ATOM      1  C   UNL     1       1.688  30.173  69.231  1.00  0.00     0.312 C 
ENDROOT
BRANCH   1   2
ATOM      2  N   UNL     1       0.568  30.124  70.169  1.00  0.00    -0.353 N 
ATOM      3  H   UNL     1      -0.331  30.000  69.649  1.00  0.00     0.344 HD
ATOM      4  H   UNL     1       0.699  29.334  70.843  1.00  0.00     0.344 HD
ATOM      5  H   UNL     1       0.530  31.021  70.704  1.00  0.00     0.344 HD
ENDBRANCH   1   2
BRANCH   1   6
ATOM      6  C   UNL     1       2.647  31.259  69.610  1.00  0.00     0.096 C 
ATOM      7  O   UNL     1       3.758  30.971  70.129  1.00  0.00    -0.544 OA
ATOM      8  O   UNL     1       2.336  32.586  69.344  1.00  0.00    -0.544 OA
ENDBRANCH   1   6
TORSDOF 2
ENDMDL
MODEL 6
REMARK VINA RESULT:    -2.785     13.117     13.371
REMARK INTER + INTRA:          -3.029
REMARK INTER:                  -3.029
REMARK INTRA:                   0.000
REMARK UNBOUND:                 0.000
REMARK SMILES [NH3+]CC(=O)[O-]
REMARK SMILES IDX 2 1 1 2 3 6 4 7 5 8
REMARK H PARENT 1 3 1 4 1 5
REMARK Flexibility Score: inf
ROOT
ATOM      1  C   UNL     1       1.173  29.900  70.211  1.00  0.00     0.312 C 
ENDROOT
BRANCH   1   2
ATOM      2  N   UNL     1       0.341  28.742  70.537  1.00  0.00    -0.353 N 
ATOM      3  H   UNL     1       0.910  27.866  70.486  1.00  0.00     0.344 HD
ATOM      4  H   UNL     1      -0.060  28.848  71.497  1.00  0.00     0.344 HD
ATOM      5  H   UNL     1      -0.442  28.679  69.848  1.00  0.00     0.344 HD
ENDBRANCH   1   2
BRANCH   1   6
ATOM      6  C   UNL     1       2.538  29.464  69.779  1.00  0.00     0.096 C 
ATOM      7  O   UNL     1       3.074  29.973  68.761  1.00  0.00    -0.544 OA
ATOM      8  O   UNL     1       3.241  28.531  70.532  1.00  0.00    -0.544 OA
ENDBRANCH   1   6
TORSDOF 2
ENDMDL
MODEL 7
REMARK VINA RESULT:    -2.746      8.746      8.872
REMARK INTER + INTRA:          -2.986
REMARK INTER:                  -2.986
REMARK INTRA:                   0.000
REMARK UNBOUND:                 0.000
REMARK SMILES [NH3+]CC(=O)[O-]
REMARK SMILES IDX 2 1 1 2 3 6 4 7 5 8
REMARK H PARENT 1 3 1 4 1 5
REMARK Flexibility Score: inf
ROOT
ATOM      1  C   UNL     1      13.302  37.907  64.936  1.00  0.00     0.312 C 
ENDROOT
BRANCH   1   2
ATOM      2  N   UNL     1      13.981  37.186  63.861  1.00  0.00    -0.353 N 
ATOM      3  H   UNL     1      15.017  37.309  63.945  1.00  0.00     0.344 HD
ATOM      4  H   UNL     1      13.740  36.169  63.903  1.00  0.00     0.344 HD
ATOM      5  H   UNL     1      13.669  37.570  62.941  1.00  0.00     0.344 HD
ENDBRANCH   1   2
BRANCH   1   6
ATOM      6  C   UNL     1      11.819  37.878  64.736  1.00  0.00     0.096 C 
ATOM      7  O   UNL     1      11.141  36.905  65.159  1.00  0.00    -0.544 OA
ATOM      8  O   UNL     1      11.178  38.950  64.128  1.00  0.00    -0.544 OA
ENDBRANCH   1   6
TORSDOF 2
ENDMDL
MODEL 8
REMARK VINA RESULT:    -2.744      8.024      8.353
REMARK INTER + INTRA:          -2.985
REMARK INTER:                  -2.985
REMARK INTRA:                   0.000
REMARK UNBOUND:                 0.000
REMARK SMILES [NH3+]CC(=O)[O-]
REMARK SMILES IDX 2 1 1 2 3 6 4 7 5 8
REMARK H PARENT 1 3 1 4 1 5
REMARK Flexibility Score: inf
ROOT
ATOM      1  C   UNL     1      11.476  37.876  65.112  1.00  0.00     0.312 C 
ENDROOT
BRANCH   1   2
ATOM      2  N   UNL     1      10.769  38.774  64.200  1.00  0.00    -0.353 N 
ATOM      3  H   UNL     1      11.007  39.769  64.419  1.00  0.00     0.344 HD
ATOM      4  H   UNL     1      11.028  38.556  63.210  1.00  0.00     0.344 HD
ATOM      5  H   UNL     1       9.739  38.639  64.318  1.00  0.00     0.344 HD
ENDBRANCH   1   2
BRANCH   1   6
ATOM      6  C   UNL     1      12.957  38.040  64.971  1.00  0.00     0.096 C 
ATOM      7  O   UNL     1      13.651  38.407  65.955  1.00  0.00    -0.544 OA
ATOM      8  O   UNL     1      13.578  37.737  63.766  1.00  0.00    -0.544 OA
ENDBRANCH   1   6
TORSDOF 2
ENDMDL
MODEL 9
REMARK VINA RESULT:    -2.723      2.908      3.388
REMARK INTER + INTRA:          -2.962
REMARK INTER:                  -2.962
REMARK INTRA:                   0.000
REMARK UNBOUND:                 0.000
REMARK SMILES [NH3+]CC(=O)[O-]
REMARK SMILES IDX 2 1 1 2 3 6 4 7 5 8
REMARK H PARENT 1 3 1 4 1 5
REMARK Flexibility Score: inf
ROOT
ATOM      1  C   UNL     1      10.125  39.742  70.689  1.00  0.00     0.312 C 
ENDROOT
BRANCH   1   2
ATOM      2  N   UNL     1       9.770  41.024  70.083  1.00  0.00    -0.353 N 
ATOM      3  H   UNL     1       8.732  41.091  69.968  1.00  0.00     0.344 HD
ATOM      4  H   UNL     1      10.111  41.811  70.681  1.00  0.00     0.344 HD
ATOM      5  H   UNL     1      10.220  41.095  69.142  1.00  0.00     0.344 HD
ENDBRANCH   1   2
BRANCH   1   6
ATOM      6  C   UNL     1      10.699  38.815  69.663  1.00  0.00     0.096 C 
ATOM      7  O   UNL     1      10.216  38.777  68.501  1.00  0.00    -0.544 OA
ATOM      8  O   UNL     1      11.801  38.029  69.976  1.00  0.00    -0.544 OA
ENDBRANCH   1   6
TORSDOF 2
ENDMDL
