MODEL 1
REMARK VINA RESULT:    -4.254      0.000      0.000
REMARK INTER + INTRA:          -6.434
REMARK INTER:                  -5.747
REMARK INTRA:                  -0.687
REMARK UNBOUND:                -0.687
REMARK SMILES O=C[C@H](O)[C@@H](O)[C@H](O)CO
REMARK SMILES IDX 7 1 9 2 10 3 5 5 3 6 2 7 1 8 4 9 6 11 8 13
REMARK H PARENT 10 4 4 10 6 12 8 14
REMARK Flexibility Score: inf
ROOT
ATOM      1  C   UNL     1      13.095 -53.649  22.358  1.00  0.00     0.171 C 
ENDROOT
BRANCH   1   2
ATOM      2  C   UNL     1      11.671 -54.118  21.995  1.00  0.00     0.190 C 
BRANCH   2   3
ATOM      3  O   UNL     1      11.687 -55.428  21.495  1.00  0.00    -0.394 OA
ATOM      4  H   UNL     1      10.788 -55.811  21.671  1.00  0.00     0.210 HD
ENDBRANCH   2   3
ENDBRANCH   1   2
BRANCH   1   5
ATOM      5  C   UNL     1      14.143 -54.790  22.231  1.00  0.00     0.181 C 
BRANCH   5   6
ATOM      6  C   UNL     1      15.600 -54.259  22.135  1.00  0.00     0.209 C 
BRANCH   6   7
ATOM      7  C   UNL     1      16.527 -55.252  21.482  1.00  0.00     0.258 C 
ATOM      8  O   UNL     1      16.202 -56.423  21.361  1.00  0.00    -0.300 OA
ENDBRANCH   6   7
BRANCH   6   9
ATOM      9  O   UNL     1      16.090 -53.907  23.404  1.00  0.00    -0.383 OA
ATOM     10  H   UNL     1      17.081 -53.951  23.370  1.00  0.00     0.211 HD
ENDBRANCH   6   9
ENDBRANCH   5   6
BRANCH   5  11
ATOM     11  O   UNL     1      14.017 -55.710  23.290  1.00  0.00    -0.387 OA
ATOM     12  H   UNL     1      13.984 -55.197  24.139  1.00  0.00     0.211 HD
ENDBRANCH   5  11
ENDBRANCH   1   5
BRANCH   1  13
ATOM     13  O   UNL     1      13.117 -53.073  23.641  1.00  0.00    -0.388 OA
ATOM     14  H   UNL     1      13.924 -52.499  23.707  1.00  0.00     0.211 HD
ENDBRANCH   1  13
TORSDOF 8
ENDMDL
MODEL 2
REMARK VINA RESULT:    -4.115      1.365      3.747
REMARK INTER + INTRA:          -6.246
REMARK INTER:                  -5.337
REMARK INTRA:                  -0.909
REMARK UNBOUND:                -0.687
REMARK SMILES O=C[C@H](O)[C@@H](O)[C@H](O)CO
REMARK SMILES IDX 7 1 9 2 10 3 5 5 3 6 2 7 1 8 4 9 6 11 8 13
REMARK H PARENT 10 4 4 10 6 12 8 14
REMARK Flexibility Score: inf
ROOT
ATOM      1  C   UNL     1      15.468 -54.500  21.852  1.00  0.00     0.171 C 
ENDROOT
BRANCH   1   2
ATOM      2  C   UNL     1      16.704 -54.751  22.740  1.00  0.00     0.190 C 
BRANCH   2   3
ATOM      3  O   UNL     1      16.350 -55.441  23.909  1.00  0.00    -0.394 OA
ATOM      4  H   UNL     1      15.582 -54.953  24.306  1.00  0.00     0.210 HD
ENDBRANCH   2   3
ENDBRANCH   1   2
BRANCH   1   5
ATOM      5  C   UNL     1      14.234 -54.037  22.675  1.00  0.00     0.181 C 
BRANCH   5   6
ATOM      6  C   UNL     1      13.136 -53.381  21.792  1.00  0.00     0.209 C 
BRANCH   6   7
ATOM      7  C   UNL     1      11.968 -54.305  21.556  1.00  0.00     0.258 C 
ATOM      8  O   UNL     1      12.126 -55.379  20.998  1.00  0.00    -0.300 OA
ENDBRANCH   6   7
BRANCH   6   9
ATOM      9  O   UNL     1      13.669 -52.957  20.563  1.00  0.00    -0.383 OA
ATOM     10  H   UNL     1      14.640 -53.165  20.566  1.00  0.00     0.211 HD
ENDBRANCH   6   9
ENDBRANCH   5   6
BRANCH   5  11
ATOM     11  O   UNL     1      13.700 -55.103  23.425  1.00  0.00    -0.387 OA
ATOM     12  H   UNL     1      14.259 -55.906  23.257  1.00  0.00     0.211 HD
ENDBRANCH   5  11
ENDBRANCH   1   5
BRANCH   1  13
ATOM     13  O   UNL     1      15.173 -55.637  21.079  1.00  0.00    -0.388 OA
ATOM     14  H   UNL     1      16.024 -55.979  20.698  1.00  0.00     0.211 HD
ENDBRANCH   1  13
TORSDOF 8
ENDMDL
MODEL 3
REMARK VINA RESULT:    -4.096      1.339      4.039
REMARK INTER + INTRA:          -6.220
REMARK INTER:                  -5.529
REMARK INTRA:                  -0.691
REMARK UNBOUND:                -0.687
REMARK SMILES O=C[C@H](O)[C@@H](O)[C@H](O)CO
REMARK SMILES IDX 7 1 9 2 10 3 5 5 3 6 2 7 1 8 4 9 6 11 8 13
REMARK H PARENT 10 4 4 10 6 12 8 14
REMARK Flexibility Score: inf
ROOT
ATOM      1  C   UNL     1      14.590 -55.515  22.175  1.00  0.00     0.171 C 
ENDROOT
BRANCH   1   2
ATOM      2  C   UNL     1      16.102 -55.397  22.458  1.00  0.00     0.190 C 
BRANCH   2   3
ATOM      3  O   UNL     1      16.354 -55.370  23.837  1.00  0.00    -0.394 OA
ATOM      4  H   UNL     1      17.278 -55.027  23.952  1.00  0.00     0.210 HD
ENDBRANCH   2   3
ENDBRANCH   1   2
BRANCH   1   5
ATOM      5  C   UNL     1      14.042 -54.297  21.378  1.00  0.00     0.181 C 
BRANCH   5   6
ATOM      6  C   UNL     1      12.511 -54.384  21.130  1.00  0.00     0.209 C 
BRANCH   6   7
ATOM      7  C   UNL     1      11.727 -53.539  22.101  1.00  0.00     0.258 C 
ATOM      8  O   UNL     1      11.854 -53.694  23.306  1.00  0.00    -0.300 OA
ENDBRANCH   6   7
BRANCH   6   9
ATOM      9  O   UNL     1      12.069 -55.717  21.187  1.00  0.00    -0.383 OA
ATOM     10  H   UNL     1      11.808 -55.990  20.269  1.00  0.00     0.211 HD
ENDBRANCH   6   9
ENDBRANCH   5   6
BRANCH   5  11
ATOM     11  O   UNL     1      14.377 -53.087  22.016  1.00  0.00    -0.387 OA
ATOM     12  H   UNL     1      13.957 -52.346  21.506  1.00  0.00     0.211 HD
ENDBRANCH   5  11
ENDBRANCH   1   5
BRANCH   1  13
ATOM     13  O   UNL     1      13.875 -55.711  23.370  1.00  0.00    -0.388 OA
ATOM     14  H   UNL     1      13.385 -54.872  23.575  1.00  0.00     0.211 HD
ENDBRANCH   1  13
TORSDOF 8
ENDMDL
MODEL 4
REMARK VINA RESULT:    -4.084      1.847      4.004
REMARK INTER + INTRA:          -6.205
REMARK INTER:                  -5.716
REMARK INTRA:                  -0.488
REMARK UNBOUND:                -0.687
REMARK SMILES O=C[C@H](O)[C@@H](O)[C@H](O)CO
REMARK SMILES IDX 7 1 9 2 10 3 5 5 3 6 2 7 1 8 4 9 6 11 8 13
REMARK H PARENT 10 4 4 10 6 12 8 14
REMARK Flexibility Score: inf
ROOT
ATOM      1  C   UNL     1      14.359 -55.392  22.282  1.00  0.00     0.171 C 
ENDROOT
BRANCH   1   2
ATOM      2  C   UNL     1      15.886 -55.288  22.477  1.00  0.00     0.190 C 
BRANCH   2   3
ATOM      3  O   UNL     1      16.229 -55.420  23.831  1.00  0.00    -0.394 OA
ATOM      4  H   UNL     1      15.690 -54.749  24.327  1.00  0.00     0.210 HD
ENDBRANCH   2   3
ENDBRANCH   1   2
BRANCH   1   5
ATOM      5  C   UNL     1      13.856 -54.527  21.092  1.00  0.00     0.181 C 
BRANCH   5   6
ATOM      6  C   UNL     1      12.613 -55.140  20.389  1.00  0.00     0.209 C 
BRANCH   6   7
ATOM      7  C   UNL     1      11.920 -54.149  19.489  1.00  0.00     0.258 C 
ATOM      8  O   UNL     1      12.566 -53.359  18.818  1.00  0.00    -0.300 OA
ENDBRANCH   6   7
BRANCH   6   9
ATOM      9  O   UNL     1      11.705 -55.650  21.333  1.00  0.00    -0.383 OA
ATOM     10  H   UNL     1      11.387 -56.531  21.003  1.00  0.00     0.211 HD
ENDBRANCH   6   9
ENDBRANCH   5   6
BRANCH   5  11
ATOM     11  O   UNL     1      13.594 -53.206  21.506  1.00  0.00    -0.387 OA
ATOM     12  H   UNL     1      12.664 -52.982  21.243  1.00  0.00     0.211 HD
ENDBRANCH   5  11
ENDBRANCH   1   5
BRANCH   1  13
ATOM     13  O   UNL     1      13.683 -55.071  23.473  1.00  0.00    -0.388 OA
ATOM     14  H   UNL     1      14.359 -54.974  24.194  1.00  0.00     0.211 HD
ENDBRANCH   1  13
TORSDOF 8
ENDMDL
MODEL 5
REMARK VINA RESULT:    -3.986      1.267      2.111
REMARK INTER + INTRA:          -6.072
REMARK INTER:                  -5.333
REMARK INTRA:                  -0.738
REMARK UNBOUND:                -0.687
REMARK SMILES O=C[C@H](O)[C@@H](O)[C@H](O)CO
REMARK SMILES IDX 7 1 9 2 10 3 5 5 3 6 2 7 1 8 4 9 6 11 8 13
REMARK H PARENT 10 4 4 10 6 12 8 14
REMARK Flexibility Score: inf
ROOT
ATOM      1  C   UNL     1      13.740 -54.177  22.998  1.00  0.00     0.171 C 
ENDROOT
BRANCH   1   2
ATOM      2  C   UNL     1      12.614 -53.122  22.959  1.00  0.00     0.190 C 
BRANCH   2   3
ATOM      3  O   UNL     1      12.649 -52.311  24.103  1.00  0.00    -0.394 OA
ATOM      4  H   UNL     1      11.723 -52.284  24.461  1.00  0.00     0.210 HD
ENDBRANCH   2   3
ENDBRANCH   1   2
BRANCH   1   5
ATOM      5  C   UNL     1      15.043 -53.675  22.315  1.00  0.00     0.181 C 
BRANCH   5   6
ATOM      6  C   UNL     1      16.269 -54.576  22.629  1.00  0.00     0.209 C 
BRANCH   6   7
ATOM      7  C   UNL     1      16.641 -55.459  21.464  1.00  0.00     0.258 C 
ATOM      8  O   UNL     1      15.898 -56.359  21.102  1.00  0.00    -0.300 OA
ENDBRANCH   6   7
BRANCH   6   9
ATOM      9  O   UNL     1      16.035 -55.361  23.771  1.00  0.00    -0.383 OA
ATOM     10  H   UNL     1      15.130 -55.762  23.683  1.00  0.00     0.211 HD
ENDBRANCH   6   9
ENDBRANCH   5   6
BRANCH   5  11
ATOM     11  O   UNL     1      14.864 -53.543  20.924  1.00  0.00    -0.387 OA
ATOM     12  H   UNL     1      15.475 -54.182  20.475  1.00  0.00     0.211 HD
ENDBRANCH   5  11
ENDBRANCH   1   5
BRANCH   1  13
ATOM     13  O   UNL     1      13.302 -55.391  22.439  1.00  0.00    -0.388 OA
ATOM     14  H   UNL     1      13.458 -55.353  21.459  1.00  0.00     0.211 HD
ENDBRANCH   1  13
TORSDOF 8
ENDMDL
MODEL 6
REMARK VINA RESULT:    -3.982      1.289      4.063
REMARK INTER + INTRA:          -6.066
REMARK INTER:                  -5.155
REMARK INTRA:                  -0.911
REMARK UNBOUND:                -0.687
REMARK SMILES O=C[C@H](O)[C@@H](O)[C@H](O)CO
REMARK SMILES IDX 7 1 9 2 10 3 5 5 3 6 2 7 1 8 4 9 6 11 8 13
REMARK H PARENT 10 4 4 10 6 12 8 14
REMARK Flexibility Score: inf
ROOT
ATOM      1  C   UNL     1      16.363 -55.067  21.338  1.00  0.00     0.171 C 
ENDROOT
BRANCH   1   2
ATOM      2  C   UNL     1      17.126 -54.570  22.584  1.00  0.00     0.190 C 
BRANCH   2   3
ATOM      3  O   UNL     1      16.589 -55.126  23.754  1.00  0.00    -0.394 OA
ATOM      4  H   UNL     1      15.614 -55.228  23.600  1.00  0.00     0.210 HD
ENDBRANCH   2   3
ENDBRANCH   1   2
BRANCH   1   5
ATOM      5  C   UNL     1      14.961 -54.408  21.203  1.00  0.00     0.181 C 
BRANCH   5   6
ATOM      6  C   UNL     1      13.809 -55.359  21.630  1.00  0.00     0.209 C 
BRANCH   6   7
ATOM      7  C   UNL     1      12.453 -54.814  21.259  1.00  0.00     0.258 C 
ATOM      8  O   UNL     1      11.992 -53.842  21.837  1.00  0.00    -0.300 OA
ENDBRANCH   6   7
BRANCH   6   9
ATOM      9  O   UNL     1      13.860 -55.620  23.010  1.00  0.00    -0.383 OA
ATOM     10  H   UNL     1      13.132 -55.103  23.444  1.00  0.00     0.211 HD
ENDBRANCH   6   9
ENDBRANCH   5   6
BRANCH   5  11
ATOM     11  O   UNL     1      14.902 -53.198  21.921  1.00  0.00    -0.387 OA
ATOM     12  H   UNL     1      13.947 -52.951  22.027  1.00  0.00     0.211 HD
ENDBRANCH   5  11
ENDBRANCH   1   5
BRANCH   1  13
ATOM     13  O   UNL     1      16.274 -56.470  21.336  1.00  0.00    -0.388 OA
ATOM     14  H   UNL     1      17.180 -56.836  21.161  1.00  0.00     0.211 HD
ENDBRANCH   1  13
TORSDOF 8
ENDMDL
MODEL 7
REMARK VINA RESULT:    -3.976      1.428      1.929
REMARK INTER + INTRA:          -6.059
REMARK INTER:                  -5.591
REMARK INTRA:                  -0.467
REMARK UNBOUND:                -0.687
REMARK SMILES O=C[C@H](O)[C@@H](O)[C@H](O)CO
REMARK SMILES IDX 7 1 9 2 10 3 5 5 3 6 2 7 1 8 4 9 6 11 8 13
REMARK H PARENT 10 4 4 10 6 12 8 14
REMARK Flexibility Score: inf
ROOT
ATOM      1  C   UNL     1      13.835 -54.798  21.972  1.00  0.00     0.171 C 
ENDROOT
BRANCH   1   2
ATOM      2  C   UNL     1      12.971 -55.446  20.871  1.00  0.00     0.190 C 
BRANCH   2   3
ATOM      3  O   UNL     1      11.651 -55.629  21.311  1.00  0.00    -0.394 OA
ATOM      4  H   UNL     1      11.698 -56.210  22.115  1.00  0.00     0.210 HD
ENDBRANCH   2   3
ENDBRANCH   1   2
BRANCH   1   5
ATOM      5  C   UNL     1      15.355 -54.885  21.658  1.00  0.00     0.181 C 
BRANCH   5   6
ATOM      6  C   UNL     1      16.239 -54.384  22.833  1.00  0.00     0.209 C 
BRANCH   6   7
ATOM      7  C   UNL     1      17.607 -53.949  22.372  1.00  0.00     0.258 C 
ATOM      8  O   UNL     1      17.902 -53.973  21.187  1.00  0.00    -0.300 OA
ENDBRANCH   6   7
BRANCH   6   9
ATOM      9  O   UNL     1      16.359 -55.372  23.826  1.00  0.00    -0.383 OA
ATOM     10  H   UNL     1      17.255 -55.790  23.732  1.00  0.00     0.211 HD
ENDBRANCH   6   9
ENDBRANCH   5   6
BRANCH   5  11
ATOM     11  O   UNL     1      15.717 -56.194  21.283  1.00  0.00    -0.387 OA
ATOM     12  H   UNL     1      14.961 -56.796  21.507  1.00  0.00     0.211 HD
ENDBRANCH   5  11
ENDBRANCH   1   5
BRANCH   1  13
ATOM     13  O   UNL     1      13.538 -55.356  23.229  1.00  0.00    -0.388 OA
ATOM     14  H   UNL     1      12.559 -55.277  23.376  1.00  0.00     0.211 HD
ENDBRANCH   1  13
TORSDOF 8
ENDMDL
MODEL 8
REMARK VINA RESULT:    -3.966     15.206     16.098
REMARK INTER + INTRA:          -6.044
REMARK INTER:                  -5.554
REMARK INTRA:                  -0.490
REMARK UNBOUND:                -0.687
REMARK SMILES O=C[C@H](O)[C@@H](O)[C@H](O)CO
REMARK SMILES IDX 7 1 9 2 10 3 5 5 3 6 2 7 1 8 4 9 6 11 8 13
REMARK H PARENT 10 4 4 10 6 12 8 14
REMARK Flexibility Score: inf
ROOT
ATOM      1  C   UNL     1       0.920 -46.513  24.603  1.00  0.00     0.171 C 
ENDROOT
BRANCH   1   2
ATOM      2  C   UNL     1       0.427 -47.963  24.789  1.00  0.00     0.190 C 
BRANCH   2   3
ATOM      3  O   UNL     1       1.273 -48.674  25.653  1.00  0.00    -0.394 OA
ATOM      4  H   UNL     1       1.899 -49.188  25.079  1.00  0.00     0.210 HD
ENDBRANCH   2   3
ENDBRANCH   1   2
BRANCH   1   5
ATOM      5  C   UNL     1       0.494 -45.915  23.233  1.00  0.00     0.181 C 
BRANCH   5   6
ATOM      6  C   UNL     1       1.308 -44.647  22.853  1.00  0.00     0.209 C 
BRANCH   6   7
ATOM      7  C   UNL     1       0.589 -43.789  21.844  1.00  0.00     0.258 C 
ATOM      8  O   UNL     1      -0.008 -44.297  20.907  1.00  0.00    -0.300 OA
ENDBRANCH   6   7
BRANCH   6   9
ATOM      9  O   UNL     1       2.580 -44.995  22.369  1.00  0.00    -0.383 OA
ATOM     10  H   UNL     1       2.501 -45.149  21.391  1.00  0.00     0.211 HD
ENDBRANCH   6   9
ENDBRANCH   5   6
BRANCH   5  11
ATOM     11  O   UNL     1       0.575 -46.884  22.214  1.00  0.00    -0.387 OA
ATOM     12  H   UNL     1       0.612 -46.410  21.343  1.00  0.00     0.211 HD
ENDBRANCH   5  11
ENDBRANCH   1   5
BRANCH   1  13
ATOM     13  O   UNL     1       2.313 -46.434  24.787  1.00  0.00    -0.388 OA
ATOM     14  H   UNL     1       2.531 -45.515  25.091  1.00  0.00     0.211 HD
ENDBRANCH   1  13
TORSDOF 8
ENDMDL
MODEL 9
REMARK VINA RESULT:    -3.896     13.216     14.704
REMARK INTER + INTRA:          -5.950
REMARK INTER:                  -5.057
REMARK INTRA:                  -0.893
REMARK UNBOUND:                -0.687
REMARK SMILES O=C[C@H](O)[C@@H](O)[C@H](O)CO
REMARK SMILES IDX 7 1 9 2 10 3 5 5 3 6 2 7 1 8 4 9 6 11 8 13
REMARK H PARENT 10 4 4 10 6 12 8 14
REMARK Flexibility Score: inf
ROOT
ATOM      1  C   UNL     1       0.981 -50.831  22.074  1.00  0.00     0.171 C 
ENDROOT
BRANCH   1   2
ATOM      2  C   UNL     1       1.445 -50.838  20.602  1.00  0.00     0.190 C 
BRANCH   2   3
ATOM      3  O   UNL     1       2.578 -50.030  20.430  1.00  0.00    -0.394 OA
ATOM      4  H   UNL     1       2.686 -49.508  21.267  1.00  0.00     0.210 HD
ENDBRANCH   2   3
ENDBRANCH   1   2
BRANCH   1   5
ATOM      5  C   UNL     1      -0.033 -49.689  22.367  1.00  0.00     0.181 C 
BRANCH   5   6
ATOM      6  C   UNL     1      -0.537 -49.699  23.837  1.00  0.00     0.209 C 
BRANCH   6   7
ATOM      7  C   UNL     1       0.071 -48.587  24.655  1.00  0.00     0.258 C 
ATOM      8  O   UNL     1       1.226 -48.660  25.045  1.00  0.00    -0.300 OA
ENDBRANCH   6   7
BRANCH   6   9
ATOM      9  O   UNL     1      -0.281 -50.939  24.446  1.00  0.00    -0.383 OA
ATOM     10  H   UNL     1      -0.075 -50.770  25.403  1.00  0.00     0.211 HD
ENDBRANCH   6   9
ENDBRANCH   5   6
BRANCH   5  11
ATOM     11  O   UNL     1       0.514 -48.434  22.035  1.00  0.00    -0.387 OA
ATOM     12  H   UNL     1       0.909 -48.503  21.128  1.00  0.00     0.211 HD
ENDBRANCH   5  11
ENDBRANCH   1   5
BRANCH   1  13
ATOM     13  O   UNL     1       2.085 -50.773  22.943  1.00  0.00    -0.388 OA
ATOM     14  H   UNL     1       2.373 -51.704  23.137  1.00  0.00     0.211 HD
ENDBRANCH   1  13
TORSDOF 8
ENDMDL
