MODEL 1
REMARK VINA RESULT:    -1.122      0.000      0.000
REMARK INTER + INTRA:          -1.155
REMARK INTER:                  -1.155
REMARK INTRA:                   0.000
REMARK UNBOUND:                 0.000
REMARK SMILES O=c1ccc2ccc(O)cc2o1
REMARK SMILES IDX 6 1 7 2 8 3 10 4 11 5 5 6 4 7 3 8 2 9 1 10 12 11 9 12
REMARK H PARENT 9 13
REMARK Flexibility Score: inf
ROOT
ATOM      1  C   UNL     1      19.640  39.941  11.236  1.00  0.00     0.016 A 
ATOM      2  C   UNL     1      18.519  39.630  10.460  1.00  0.00     0.047 A 
ATOM      3  C   UNL     1      17.637  40.643  10.055  1.00  0.00     0.119 A 
ATOM      4  C   UNL     1      17.878  41.971  10.429  1.00  0.00     0.094 A 
ATOM      5  C   UNL     1      18.997  42.290  11.206  1.00  0.00     0.142 A 
ATOM      6  C   UNL     1      19.885  41.269  11.612  1.00  0.00     0.018 A 
ATOM      7  C   UNL     1      20.994  41.619  12.388  1.00  0.00     0.019 A 
ATOM      8  C   UNL     1      21.192  42.956  12.734  1.00  0.00     0.094 A 
ATOM      9  C   UNL     1      20.271  43.914  12.296  1.00  0.00     0.336 A 
ATOM     10  O   UNL     1      20.432  45.124  12.599  1.00  0.00    -0.246 OA
ATOM     11  O   UNL     1      19.222  43.554  11.559  1.00  0.00    -0.423 OA
ENDROOT
BRANCH   3  12
ATOM     12  O   UNL     1      16.518  40.341   9.282  1.00  0.00    -0.508 OA
ATOM     13  H   UNL     1      15.846  39.640   9.573  1.00  0.00     0.293 HD
ENDBRANCH   3  12
TORSDOF 1
ENDMDL
MODEL 2
REMARK VINA RESULT:    -0.484      0.775      4.220
REMARK INTER + INTRA:          -0.498
REMARK INTER:                  -0.498
REMARK INTRA:                   0.000
REMARK UNBOUND:                 0.000
REMARK SMILES O=c1ccc2ccc(O)cc2o1
REMARK SMILES IDX 6 1 7 2 8 3 10 4 11 5 5 6 4 7 3 8 2 9 1 10 12 11 9 12
REMARK H PARENT 9 13
REMARK Flexibility Score: inf
ROOT
ATOM      1  C   UNL     1      20.851  41.439  12.690  1.00  0.00     0.016 A 
ATOM      2  C   UNL     1      21.189  42.725  13.125  1.00  0.00     0.047 A 
ATOM      3  C   UNL     1      20.495  43.841  12.635  1.00  0.00     0.119 A 
ATOM      4  C   UNL     1      19.461  43.670  11.707  1.00  0.00     0.094 A 
ATOM      5  C   UNL     1      19.116  42.387  11.268  1.00  0.00     0.142 A 
ATOM      6  C   UNL     1      19.815  41.264  11.762  1.00  0.00     0.018 A 
ATOM      7  C   UNL     1      19.449  39.995  11.303  1.00  0.00     0.019 A 
ATOM      8  C   UNL     1      18.411  39.875  10.379  1.00  0.00     0.094 A 
ATOM      9  C   UNL     1      17.763  41.032   9.933  1.00  0.00     0.336 A 
ATOM     10  O   UNL     1      16.825  40.944   9.099  1.00  0.00    -0.246 OA
ATOM     11  O   UNL     1      18.132  42.229  10.385  1.00  0.00    -0.423 OA
ENDROOT
BRANCH   3  12
ATOM     12  O   UNL     1      20.826  45.125  13.063  1.00  0.00    -0.508 OA
ATOM     13  H   UNL     1      21.165  45.829  12.417  1.00  0.00     0.293 HD
ENDBRANCH   3  12
TORSDOF 1
ENDMDL
