MODEL 1
REMARK VINA RESULT:    -3.223      0.000      0.000
REMARK INTER + INTRA:          -8.427
REMARK INTER:                  -5.861
REMARK INTRA:                  -2.566
REMARK UNBOUND:                -2.566
REMARK SMILES CCCCCC=CCC=CCCCCCCCC(=O)[O-]
REMARK SMILES IDX 11 1 12 2 13 3 14 4 15 5 16 6 17 7 18 8 19 9 20 10 10 11
REMARK SMILES IDX 9 12 8 13 7 14 6 15 5 16 4 17 3 18 2 19 1 20
REMARK H PARENT
REMARK Flexibility Score: inf
ROOT
ATOM      1  C   UNL     1      39.482 -37.564  -2.223  1.00  0.00     0.027 C 
ENDROOT
BRANCH   1   2
ATOM      2  C   UNL     1      38.857 -37.765  -3.617  1.00  0.00     0.004 C 
BRANCH   2   3
ATOM      3  C   UNL     1      37.943 -39.007  -3.733  1.00  0.00     0.000 C 
BRANCH   3   4
ATOM      4  C   UNL     1      37.687 -39.748  -2.406  1.00  0.00     0.000 C 
BRANCH   4   5
ATOM      5  C   UNL     1      36.192 -39.984  -2.132  1.00  0.00     0.000 C 
BRANCH   5   6
ATOM      6  C   UNL     1      35.398 -40.049  -3.447  1.00  0.00     0.006 C 
BRANCH   6   7
ATOM      7  C   UNL     1      35.185 -41.492  -3.928  1.00  0.00     0.053 C 
BRANCH   7   8
ATOM      8  C   UNL     1      33.728 -41.812  -4.109  1.00  0.00     0.041 C 
ATOM      9  O   UNL     1      32.856 -40.914  -3.948  1.00  0.00    -0.550 OA
ATOM     10  O   UNL     1      33.333 -43.107  -4.423  1.00  0.00    -0.550 OA
ENDBRANCH   7   8
ENDBRANCH   6   7
ENDBRANCH   5   6
ENDBRANCH   4   5
ENDBRANCH   3   4
ENDBRANCH   2   3
ENDBRANCH   1   2
BRANCH   1  11
ATOM     11  C   UNL     1      40.151 -36.219  -2.059  1.00  0.00    -0.031 C 
ATOM     12  C   UNL     1      41.450 -35.966  -2.308  1.00  0.00    -0.027 C 
BRANCH  12  13
ATOM     13  C   UNL     1      42.435 -36.998  -2.801  1.00  0.00     0.054 C 
BRANCH  13  14
ATOM     14  C   UNL     1      42.457 -37.040  -4.309  1.00  0.00    -0.027 C 
ATOM     15  C   UNL     1      42.564 -38.172  -5.031  1.00  0.00    -0.031 C 
BRANCH  15  16
ATOM     16  C   UNL     1      42.736 -39.545  -4.429  1.00  0.00     0.027 C 
BRANCH  16  17
ATOM     17  C   UNL     1      41.441 -40.367  -4.558  1.00  0.00     0.004 C 
BRANCH  17  18
ATOM     18  C   UNL     1      41.029 -41.028  -3.230  1.00  0.00     0.000 C 
BRANCH  18  19
ATOM     19  C   UNL     1      41.914 -40.576  -2.056  1.00  0.00    -0.003 C 
ATOM     20  C   UNL     1      41.114 -40.529  -0.753  1.00  0.00     0.004 C 
ENDBRANCH  18  19
ENDBRANCH  17  18
ENDBRANCH  16  17
ENDBRANCH  15  16
ENDBRANCH  13  14
ENDBRANCH  12  13
ENDBRANCH   1  11
TORSDOF 14
ENDMDL
MODEL 2
REMARK VINA RESULT:    -3.165      3.911      8.491
REMARK INTER + INTRA:          -8.322
REMARK INTER:                  -5.957
REMARK INTRA:                  -2.365
REMARK UNBOUND:                -2.566
REMARK SMILES CCCCCC=CCC=CCCCCCCCC(=O)[O-]
REMARK SMILES IDX 11 1 12 2 13 3 14 4 15 5 16 6 17 7 18 8 19 9 20 10 10 11
REMARK SMILES IDX 9 12 8 13 7 14 6 15 5 16 4 17 3 18 2 19 1 20
REMARK H PARENT
REMARK Flexibility Score: inf
ROOT
ATOM      1  C   UNL     1      32.077 -42.408  -4.133  1.00  0.00     0.027 C 
ENDROOT
BRANCH   1   2
ATOM      2  C   UNL     1      33.153 -41.307  -4.158  1.00  0.00     0.004 C 
BRANCH   2   3
ATOM      3  C   UNL     1      34.565 -41.804  -4.545  1.00  0.00     0.000 C 
BRANCH   3   4
ATOM      4  C   UNL     1      35.670 -41.472  -3.523  1.00  0.00     0.000 C 
BRANCH   4   5
ATOM      5  C   UNL     1      35.705 -39.982  -3.142  1.00  0.00     0.000 C 
BRANCH   5   6
ATOM      6  C   UNL     1      37.064 -39.358  -3.499  1.00  0.00     0.006 C 
BRANCH   6   7
ATOM      7  C   UNL     1      37.671 -38.573  -2.327  1.00  0.00     0.053 C 
BRANCH   7   8
ATOM      8  C   UNL     1      38.445 -37.375  -2.796  1.00  0.00     0.041 C 
ATOM      9  O   UNL     1      38.329 -36.269  -2.197  1.00  0.00    -0.550 OA
ATOM     10  O   UNL     1      39.267 -37.469  -3.913  1.00  0.00    -0.550 OA
ENDBRANCH   7   8
ENDBRANCH   6   7
ENDBRANCH   5   6
ENDBRANCH   4   5
ENDBRANCH   3   4
ENDBRANCH   2   3
ENDBRANCH   1   2
BRANCH   1  11
ATOM     11  C   UNL     1      32.653 -43.805  -4.116  1.00  0.00    -0.031 C 
ATOM     12  C   UNL     1      32.812 -44.561  -3.013  1.00  0.00    -0.027 C 
BRANCH  12  13
ATOM     13  C   UNL     1      32.427 -44.122  -1.621  1.00  0.00     0.054 C 
BRANCH  13  14
ATOM     14  C   UNL     1      33.580 -43.424  -0.943  1.00  0.00    -0.027 C 
ATOM     15  C   UNL     1      33.521 -42.169  -0.456  1.00  0.00    -0.031 C 
BRANCH  15  16
ATOM     16  C   UNL     1      32.313 -41.273  -0.576  1.00  0.00     0.027 C 
BRANCH  16  17
ATOM     17  C   UNL     1      32.736 -39.811  -0.809  1.00  0.00     0.004 C 
BRANCH  17  18
ATOM     18  C   UNL     1      33.870 -39.370   0.134  1.00  0.00     0.000 C 
BRANCH  18  19
ATOM     19  C   UNL     1      33.340 -38.861   1.485  1.00  0.00    -0.003 C 
ATOM     20  C   UNL     1      34.434 -38.129   2.264  1.00  0.00     0.004 C 
ENDBRANCH  18  19
ENDBRANCH  17  18
ENDBRANCH  16  17
ENDBRANCH  15  16
ENDBRANCH  13  14
ENDBRANCH  12  13
ENDBRANCH   1  11
TORSDOF 14
ENDMDL
MODEL 3
REMARK VINA RESULT:    -3.163     10.209     12.372
REMARK INTER + INTRA:          -8.318
REMARK INTER:                  -5.670
REMARK INTRA:                  -2.647
REMARK UNBOUND:                -2.566
REMARK SMILES CCCCCC=CCC=CCCCCCCCC(=O)[O-]
REMARK SMILES IDX 11 1 12 2 13 3 14 4 15 5 16 6 17 7 18 8 19 9 20 10 10 11
REMARK SMILES IDX 9 12 8 13 7 14 6 15 5 16 4 17 3 18 2 19 1 20
REMARK H PARENT
REMARK Flexibility Score: inf
ROOT
ATOM      1  C   UNL     1      34.394 -38.926   5.891  1.00  0.00     0.027 C 
ENDROOT
BRANCH   1   2
ATOM      2  C   UNL     1      33.093 -38.926   6.716  1.00  0.00     0.004 C 
BRANCH   2   3
ATOM      3  C   UNL     1      32.115 -37.782   6.365  1.00  0.00     0.000 C 
BRANCH   3   4
ATOM      4  C   UNL     1      32.144 -36.585   7.335  1.00  0.00     0.000 C 
BRANCH   4   5
ATOM      5  C   UNL     1      32.283 -37.011   8.807  1.00  0.00     0.000 C 
BRANCH   5   6
ATOM      6  C   UNL     1      33.624 -36.538   9.389  1.00  0.00     0.006 C 
BRANCH   6   7
ATOM      7  C   UNL     1      34.383 -37.668  10.100  1.00  0.00     0.053 C 
BRANCH   7   8
ATOM      8  C   UNL     1      34.055 -37.728  11.564  1.00  0.00     0.041 C 
ATOM      9  O   UNL     1      33.331 -38.659  12.015  1.00  0.00    -0.550 OA
ATOM     10  O   UNL     1      34.521 -36.741  12.425  1.00  0.00    -0.550 OA
ENDBRANCH   7   8
ENDBRANCH   6   7
ENDBRANCH   5   6
ENDBRANCH   4   5
ENDBRANCH   3   4
ENDBRANCH   2   3
ENDBRANCH   1   2
BRANCH   1  11
ATOM     11  C   UNL     1      35.481 -38.066   6.494  1.00  0.00    -0.031 C 
ATOM     12  C   UNL     1      35.761 -36.802   6.125  1.00  0.00    -0.027 C 
BRANCH  12  13
ATOM     13  C   UNL     1      35.017 -36.049   5.049  1.00  0.00     0.054 C 
BRANCH  13  14
ATOM     14  C   UNL     1      35.584 -36.362   3.687  1.00  0.00    -0.027 C 
ATOM     15  C   UNL     1      34.881 -36.930   2.688  1.00  0.00    -0.031 C 
BRANCH  15  16
ATOM     16  C   UNL     1      33.447 -37.383   2.817  1.00  0.00     0.027 C 
BRANCH  16  17
ATOM     17  C   UNL     1      33.166 -38.584   1.897  1.00  0.00     0.004 C 
BRANCH  17  18
ATOM     18  C   UNL     1      32.962 -39.892   2.683  1.00  0.00     0.000 C 
BRANCH  18  19
ATOM     19  C   UNL     1      31.520 -40.416   2.579  1.00  0.00    -0.003 C 
ATOM     20  C   UNL     1      30.714 -40.058   3.829  1.00  0.00     0.004 C 
ENDBRANCH  18  19
ENDBRANCH  17  18
ENDBRANCH  16  17
ENDBRANCH  15  16
ENDBRANCH  13  14
ENDBRANCH  12  13
ENDBRANCH   1  11
TORSDOF 14
ENDMDL
MODEL 4
REMARK VINA RESULT:    -3.135     11.756     13.599
REMARK INTER + INTRA:          -8.267
REMARK INTER:                  -5.989
REMARK INTRA:                  -2.278
REMARK UNBOUND:                -2.566
REMARK SMILES CCCCCC=CCC=CCCCCCCCC(=O)[O-]
REMARK SMILES IDX 11 1 12 2 13 3 14 4 15 5 16 6 17 7 18 8 19 9 20 10 10 11
REMARK SMILES IDX 9 12 8 13 7 14 6 15 5 16 4 17 3 18 2 19 1 20
REMARK H PARENT
REMARK Flexibility Score: inf
ROOT
ATOM      1  C   UNL     1      32.321 -37.258   6.807  1.00  0.00     0.027 C 
ENDROOT
BRANCH   1   2
ATOM      2  C   UNL     1      32.807 -36.010   7.567  1.00  0.00     0.004 C 
BRANCH   2   3
ATOM      3  C   UNL     1      33.279 -36.288   9.013  1.00  0.00     0.000 C 
BRANCH   3   4
ATOM      4  C   UNL     1      32.159 -36.282  10.072  1.00  0.00     0.000 C 
BRANCH   4   5
ATOM      5  C   UNL     1      32.580 -36.954  11.390  1.00  0.00     0.000 C 
BRANCH   5   6
ATOM      6  C   UNL     1      34.100 -37.180  11.429  1.00  0.00     0.006 C 
BRANCH   6   7
ATOM      7  C   UNL     1      34.618 -37.419  12.854  1.00  0.00     0.053 C 
BRANCH   7   8
ATOM      8  C   UNL     1      34.948 -38.864  13.096  1.00  0.00     0.041 C 
ATOM      9  O   UNL     1      35.621 -39.201  14.109  1.00  0.00    -0.550 OA
ATOM     10  O   UNL     1      34.542 -39.834  12.186  1.00  0.00    -0.550 OA
ENDBRANCH   7   8
ENDBRANCH   6   7
ENDBRANCH   5   6
ENDBRANCH   4   5
ENDBRANCH   3   4
ENDBRANCH   2   3
ENDBRANCH   1   2
BRANCH   1  11
ATOM     11  C   UNL     1      31.711 -36.936   5.462  1.00  0.00    -0.031 C 
ATOM     12  C   UNL     1      32.272 -37.219   4.271  1.00  0.00    -0.027 C 
BRANCH  12  13
ATOM     13  C   UNL     1      33.603 -37.911   4.104  1.00  0.00     0.054 C 
BRANCH  13  14
ATOM     14  C   UNL     1      34.613 -36.984   3.476  1.00  0.00    -0.027 C 
ATOM     15  C   UNL     1      35.594 -36.361   4.159  1.00  0.00    -0.031 C 
BRANCH  15  16
ATOM     16  C   UNL     1      35.777 -36.462   5.654  1.00  0.00     0.027 C 
BRANCH  16  17
ATOM     17  C   UNL     1      36.695 -37.644   6.015  1.00  0.00     0.004 C 
BRANCH  17  18
ATOM     18  C   UNL     1      35.917 -38.831   6.613  1.00  0.00     0.000 C 
BRANCH  18  19
ATOM     19  C   UNL     1      35.877 -38.786   8.150  1.00  0.00    -0.003 C 
ATOM     20  C   UNL     1      34.784 -39.704   8.697  1.00  0.00     0.004 C 
ENDBRANCH  18  19
ENDBRANCH  17  18
ENDBRANCH  16  17
ENDBRANCH  15  16
ENDBRANCH  13  14
ENDBRANCH  12  13
ENDBRANCH   1  11
TORSDOF 14
ENDMDL
MODEL 5
REMARK VINA RESULT:    -3.132      5.365      7.923
REMARK INTER + INTRA:          -8.261
REMARK INTER:                  -5.564
REMARK INTRA:                  -2.696
REMARK UNBOUND:                -2.566
REMARK SMILES CCCCCC=CCC=CCCCCCCCC(=O)[O-]
REMARK SMILES IDX 11 1 12 2 13 3 14 4 15 5 16 6 17 7 18 8 19 9 20 10 10 11
REMARK SMILES IDX 9 12 8 13 7 14 6 15 5 16 4 17 3 18 2 19 1 20
REMARK H PARENT
REMARK Flexibility Score: inf
ROOT
ATOM      1  C   UNL     1      42.164 -37.682  -4.804  1.00  0.00     0.027 C 
ENDROOT
BRANCH   1   2
ATOM      2  C   UNL     1      43.215 -38.807  -4.855  1.00  0.00     0.004 C 
BRANCH   2   3
ATOM      3  C   UNL     1      42.974 -39.951  -3.844  1.00  0.00     0.000 C 
BRANCH   3   4
ATOM      4  C   UNL     1      43.938 -39.965  -2.641  1.00  0.00     0.000 C 
BRANCH   4   5
ATOM      5  C   UNL     1      45.060 -38.920  -2.762  1.00  0.00     0.000 C 
BRANCH   5   6
ATOM      6  C   UNL     1      45.089 -38.004  -1.528  1.00  0.00     0.006 C 
BRANCH   6   7
ATOM      7  C   UNL     1      46.033 -36.806  -1.712  1.00  0.00     0.053 C 
BRANCH   7   8
ATOM      8  C   UNL     1      47.468 -37.236  -1.822  1.00  0.00     0.041 C 
ATOM      9  O   UNL     1      48.039 -37.797  -0.846  1.00  0.00    -0.550 OA
ATOM     10  O   UNL     1      48.183 -36.988  -2.988  1.00  0.00    -0.550 OA
ENDBRANCH   7   8
ENDBRANCH   6   7
ENDBRANCH   5   6
ENDBRANCH   4   5
ENDBRANCH   3   4
ENDBRANCH   2   3
ENDBRANCH   1   2
BRANCH   1  11
ATOM     11  C   UNL     1      42.590 -36.505  -3.957  1.00  0.00    -0.031 C 
ATOM     12  C   UNL     1      42.075 -36.193  -2.753  1.00  0.00    -0.027 C 
BRANCH  12  13
ATOM     13  C   UNL     1      40.990 -36.984  -2.064  1.00  0.00     0.054 C 
BRANCH  13  14
ATOM     14  C   UNL     1      39.664 -36.270  -2.160  1.00  0.00    -0.027 C 
ATOM     15  C   UNL     1      38.612 -36.723  -2.868  1.00  0.00    -0.031 C 
BRANCH  15  16
ATOM     16  C   UNL     1      38.637 -37.976  -3.709  1.00  0.00     0.027 C 
BRANCH  16  17
ATOM     17  C   UNL     1      37.540 -38.959  -3.261  1.00  0.00     0.004 C 
BRANCH  17  18
ATOM     18  C   UNL     1      38.115 -40.196  -2.547  1.00  0.00     0.000 C 
BRANCH  18  19
ATOM     19  C   UNL     1      39.648 -40.263  -2.642  1.00  0.00    -0.003 C 
ATOM     20  C   UNL     1      40.259 -40.745  -1.326  1.00  0.00     0.004 C 
ENDBRANCH  18  19
ENDBRANCH  17  18
ENDBRANCH  16  17
ENDBRANCH  15  16
ENDBRANCH  13  14
ENDBRANCH  12  13
ENDBRANCH   1  11
TORSDOF 14
ENDMDL
MODEL 6
REMARK VINA RESULT:    -3.110      1.493      3.722
REMARK INTER + INTRA:          -8.222
REMARK INTER:                  -5.691
REMARK INTRA:                  -2.531
REMARK UNBOUND:                -2.566
REMARK SMILES CCCCCC=CCC=CCCCCCCCC(=O)[O-]
REMARK SMILES IDX 11 1 12 2 13 3 14 4 15 5 16 6 17 7 18 8 19 9 20 10 10 11
REMARK SMILES IDX 9 12 8 13 7 14 6 15 5 16 4 17 3 18 2 19 1 20
REMARK H PARENT
REMARK Flexibility Score: inf
ROOT
ATOM      1  C   UNL     1      40.019 -40.214  -2.095  1.00  0.00     0.027 C 
ENDROOT
BRANCH   1   2
ATOM      2  C   UNL     1      39.105 -41.366  -1.637  1.00  0.00     0.004 C 
BRANCH   2   3
ATOM      3  C   UNL     1      38.954 -42.509  -2.666  1.00  0.00     0.000 C 
BRANCH   3   4
ATOM      4  C   UNL     1      37.534 -42.681  -3.239  1.00  0.00     0.000 C 
BRANCH   4   5
ATOM      5  C   UNL     1      36.534 -41.655  -2.679  1.00  0.00     0.000 C 
BRANCH   5   6
ATOM      6  C   UNL     1      35.819 -40.911  -3.818  1.00  0.00     0.006 C 
BRANCH   6   7
ATOM      7  C   UNL     1      34.709 -41.756  -4.459  1.00  0.00     0.053 C 
BRANCH   7   8
ATOM      8  C   UNL     1      33.350 -41.389  -3.933  1.00  0.00     0.041 C 
ATOM      9  O   UNL     1      33.229 -40.482  -3.063  1.00  0.00    -0.550 OA
ATOM     10  O   UNL     1      32.223 -42.070  -4.377  1.00  0.00    -0.550 OA
ENDBRANCH   7   8
ENDBRANCH   6   7
ENDBRANCH   5   6
ENDBRANCH   4   5
ENDBRANCH   3   4
ENDBRANCH   2   3
ENDBRANCH   1   2
BRANCH   1  11
ATOM     11  C   UNL     1      39.669 -39.685  -3.467  1.00  0.00    -0.031 C 
ATOM     12  C   UNL     1      38.797 -38.689  -3.712  1.00  0.00    -0.027 C 
BRANCH  12  13
ATOM     13  C   UNL     1      38.039 -37.943  -2.641  1.00  0.00     0.054 C 
BRANCH  13  14
ATOM     14  C   UNL     1      38.366 -36.471  -2.682  1.00  0.00    -0.027 C 
ATOM     15  C   UNL     1      39.272 -35.876  -1.883  1.00  0.00    -0.031 C 
BRANCH  15  16
ATOM     16  C   UNL     1      40.041 -36.591  -0.799  1.00  0.00     0.027 C 
BRANCH  16  17
ATOM     17  C   UNL     1      41.514 -36.777  -1.204  1.00  0.00     0.004 C 
BRANCH  17  18
ATOM     18  C   UNL     1      41.893 -35.943  -2.441  1.00  0.00     0.000 C 
BRANCH  18  19
ATOM     19  C   UNL     1      42.916 -36.661  -3.337  1.00  0.00    -0.003 C 
ATOM     20  C   UNL     1      42.224 -37.363  -4.507  1.00  0.00     0.004 C 
ENDBRANCH  18  19
ENDBRANCH  17  18
ENDBRANCH  16  17
ENDBRANCH  15  16
ENDBRANCH  13  14
ENDBRANCH  12  13
ENDBRANCH   1  11
TORSDOF 14
ENDMDL
MODEL 7
REMARK VINA RESULT:    -3.084     10.269     12.207
REMARK INTER + INTRA:          -8.173
REMARK INTER:                  -5.406
REMARK INTRA:                  -2.767
REMARK UNBOUND:                -2.566
REMARK SMILES CCCCCC=CCC=CCCCCCCCC(=O)[O-]
REMARK SMILES IDX 11 1 12 2 13 3 14 4 15 5 16 6 17 7 18 8 19 9 20 10 10 11
REMARK SMILES IDX 9 12 8 13 7 14 6 15 5 16 4 17 3 18 2 19 1 20
REMARK H PARENT
REMARK Flexibility Score: inf
ROOT
ATOM      1  C   UNL     1      32.623 -38.832   4.793  1.00  0.00     0.027 C 
ENDROOT
BRANCH   1   2
ATOM      2  C   UNL     1      32.382 -38.281   6.211  1.00  0.00     0.004 C 
BRANCH   2   3
ATOM      3  C   UNL     1      32.094 -36.764   6.266  1.00  0.00     0.000 C 
BRANCH   3   4
ATOM      4  C   UNL     1      33.335 -35.878   6.499  1.00  0.00     0.000 C 
BRANCH   4   5
ATOM      5  C   UNL     1      34.182 -36.339   7.696  1.00  0.00     0.000 C 
BRANCH   5   6
ATOM      6  C   UNL     1      33.374 -36.260   9.001  1.00  0.00     0.006 C 
BRANCH   6   7
ATOM      7  C   UNL     1      34.045 -37.027  10.150  1.00  0.00     0.053 C 
BRANCH   7   8
ATOM      8  C   UNL     1      33.201 -37.027  11.393  1.00  0.00     0.041 C 
ATOM      9  O   UNL     1      33.602 -37.618  12.434  1.00  0.00    -0.550 OA
ATOM     10  O   UNL     1      31.959 -36.403  11.392  1.00  0.00    -0.550 OA
ENDBRANCH   7   8
ENDBRANCH   6   7
ENDBRANCH   5   6
ENDBRANCH   4   5
ENDBRANCH   3   4
ENDBRANCH   2   3
ENDBRANCH   1   2
BRANCH   1  11
ATOM     11  C   UNL     1      32.122 -37.912   3.703  1.00  0.00    -0.031 C 
ATOM     12  C   UNL     1      32.885 -37.376   2.733  1.00  0.00    -0.027 C 
BRANCH  12  13
ATOM     13  C   UNL     1      34.367 -37.623   2.586  1.00  0.00     0.054 C 
BRANCH  13  14
ATOM     14  C   UNL     1      35.159 -36.603   3.365  1.00  0.00    -0.027 C 
ATOM     15  C   UNL     1      36.252 -36.894   4.097  1.00  0.00    -0.031 C 
BRANCH  15  16
ATOM     16  C   UNL     1      36.796 -38.289   4.283  1.00  0.00     0.027 C 
BRANCH  16  17
ATOM     17  C   UNL     1      36.215 -38.940   5.551  1.00  0.00     0.004 C 
BRANCH  17  18
ATOM     18  C   UNL     1      36.977 -38.530   6.824  1.00  0.00     0.000 C 
BRANCH  18  19
ATOM     19  C   UNL     1      36.453 -39.254   8.076  1.00  0.00    -0.003 C 
ATOM     20  C   UNL     1      35.145 -39.988   7.778  1.00  0.00     0.004 C 
ENDBRANCH  18  19
ENDBRANCH  17  18
ENDBRANCH  16  17
ENDBRANCH  15  16
ENDBRANCH  13  14
ENDBRANCH  12  13
ENDBRANCH   1  11
TORSDOF 14
ENDMDL
MODEL 8
REMARK VINA RESULT:    -3.060      4.452      7.125
REMARK INTER + INTRA:          -8.131
REMARK INTER:                  -5.151
REMARK INTRA:                  -2.980
REMARK UNBOUND:                -2.566
REMARK SMILES CCCCCC=CCC=CCCCCCCCC(=O)[O-]
REMARK SMILES IDX 11 1 12 2 13 3 14 4 15 5 16 6 17 7 18 8 19 9 20 10 10 11
REMARK SMILES IDX 9 12 8 13 7 14 6 15 5 16 4 17 3 18 2 19 1 20
REMARK H PARENT
REMARK Flexibility Score: inf
ROOT
ATOM      1  C   UNL     1      42.169 -37.745  -4.762  1.00  0.00     0.027 C 
ENDROOT
BRANCH   1   2
ATOM      2  C   UNL     1      43.226 -38.864  -4.805  1.00  0.00     0.004 C 
BRANCH   2   3
ATOM      3  C   UNL     1      43.066 -39.936  -3.703  1.00  0.00     0.000 C 
BRANCH   3   4
ATOM      4  C   UNL     1      44.108 -39.860  -2.569  1.00  0.00     0.000 C 
BRANCH   4   5
ATOM      5  C   UNL     1      45.190 -38.796  -2.822  1.00  0.00     0.000 C 
BRANCH   5   6
ATOM      6  C   UNL     1      45.465 -37.983  -1.547  1.00  0.00     0.006 C 
BRANCH   6   7
ATOM      7  C   UNL     1      44.323 -38.094  -0.526  1.00  0.00     0.053 C 
BRANCH   7   8
ATOM      8  C   UNL     1      44.135 -36.820   0.246  1.00  0.00     0.041 C 
ATOM      9  O   UNL     1      44.964 -35.875   0.125  1.00  0.00    -0.550 OA
ATOM     10  O   UNL     1      43.066 -36.687   1.124  1.00  0.00    -0.550 OA
ENDBRANCH   7   8
ENDBRANCH   6   7
ENDBRANCH   5   6
ENDBRANCH   4   5
ENDBRANCH   3   4
ENDBRANCH   2   3
ENDBRANCH   1   2
BRANCH   1  11
ATOM     11  C   UNL     1      42.607 -36.542  -3.958  1.00  0.00    -0.031 C 
ATOM     12  C   UNL     1      42.103 -36.188  -2.761  1.00  0.00    -0.027 C 
BRANCH  12  13
ATOM     13  C   UNL     1      41.021 -36.952  -2.036  1.00  0.00     0.054 C 
BRANCH  13  14
ATOM     14  C   UNL     1      39.700 -36.231  -2.133  1.00  0.00    -0.027 C 
ATOM     15  C   UNL     1      38.638 -36.690  -2.822  1.00  0.00    -0.031 C 
BRANCH  15  16
ATOM     16  C   UNL     1      38.645 -37.960  -3.638  1.00  0.00     0.027 C 
BRANCH  16  17
ATOM     17  C   UNL     1      37.501 -38.895  -3.207  1.00  0.00     0.004 C 
BRANCH  17  18
ATOM     18  C   UNL     1      38.017 -40.207  -2.587  1.00  0.00     0.000 C 
BRANCH  18  19
ATOM     19  C   UNL     1      39.542 -40.357  -2.725  1.00  0.00    -0.003 C 
ATOM     20  C   UNL     1      40.207 -40.487  -1.355  1.00  0.00     0.004 C 
ENDBRANCH  18  19
ENDBRANCH  17  18
ENDBRANCH  16  17
ENDBRANCH  15  16
ENDBRANCH  13  14
ENDBRANCH  12  13
ENDBRANCH   1  11
TORSDOF 14
ENDMDL
MODEL 9
REMARK VINA RESULT:    -3.035      3.660      7.453
REMARK INTER + INTRA:          -8.086
REMARK INTER:                  -5.064
REMARK INTRA:                  -3.022
REMARK UNBOUND:                -2.566
REMARK SMILES CCCCCC=CCC=CCCCCCCCC(=O)[O-]
REMARK SMILES IDX 11 1 12 2 13 3 14 4 15 5 16 6 17 7 18 8 19 9 20 10 10 11
REMARK SMILES IDX 9 12 8 13 7 14 6 15 5 16 4 17 3 18 2 19 1 20
REMARK H PARENT
REMARK Flexibility Score: inf
ROOT
ATOM      1  C   UNL     1      37.589 -42.680  -2.400  1.00  0.00     0.027 C 
ENDROOT
BRANCH   1   2
ATOM      2  C   UNL     1      37.095 -42.794  -3.854  1.00  0.00     0.004 C 
BRANCH   2   3
ATOM      3  C   UNL     1      37.407 -41.560  -4.732  1.00  0.00     0.000 C 
BRANCH   3   4
ATOM      4  C   UNL     1      38.216 -40.453  -4.028  1.00  0.00     0.000 C 
BRANCH   4   5
ATOM      5  C   UNL     1      37.396 -39.173  -3.791  1.00  0.00     0.000 C 
BRANCH   5   6
ATOM      6  C   UNL     1      37.912 -38.414  -2.558  1.00  0.00     0.006 C 
BRANCH   6   7
ATOM      7  C   UNL     1      38.460 -37.025  -2.915  1.00  0.00     0.053 C 
BRANCH   7   8
ATOM      8  C   UNL     1      39.962 -37.003  -2.931  1.00  0.00     0.041 C 
ATOM      9  O   UNL     1      40.596 -36.271  -2.121  1.00  0.00    -0.550 OA
ATOM     10  O   UNL     1      40.661 -37.764  -3.862  1.00  0.00    -0.550 OA
ENDBRANCH   7   8
ENDBRANCH   6   7
ENDBRANCH   5   6
ENDBRANCH   4   5
ENDBRANCH   3   4
ENDBRANCH   2   3
ENDBRANCH   1   2
BRANCH   1  11
ATOM     11  C   UNL     1      36.565 -43.135  -1.386  1.00  0.00    -0.031 C 
ATOM     12  C   UNL     1      35.676 -42.332  -0.770  1.00  0.00    -0.027 C 
BRANCH  12  13
ATOM     13  C   UNL     1      35.569 -40.846  -1.010  1.00  0.00     0.054 C 
BRANCH  13  14
ATOM     14  C   UNL     1      34.124 -40.424  -1.115  1.00  0.00    -0.027 C 
ATOM     15  C   UNL     1      33.446 -40.332  -2.275  1.00  0.00    -0.031 C 
BRANCH  15  16
ATOM     16  C   UNL     1      34.058 -40.582  -3.632  1.00  0.00     0.027 C 
BRANCH  16  17
ATOM     17  C   UNL     1      33.339 -41.737  -4.353  1.00  0.00     0.004 C 
BRANCH  17  18
ATOM     18  C   UNL     1      33.098 -42.946  -3.432  1.00  0.00     0.000 C 
BRANCH  18  19
ATOM     19  C   UNL     1      33.633 -44.255  -4.036  1.00  0.00    -0.003 C 
ATOM     20  C   UNL     1      33.981 -45.264  -2.941  1.00  0.00     0.004 C 
ENDBRANCH  18  19
ENDBRANCH  17  18
ENDBRANCH  16  17
ENDBRANCH  15  16
ENDBRANCH  13  14
ENDBRANCH  12  13
ENDBRANCH   1  11
TORSDOF 14
ENDMDL
