MODEL 1
REMARK VINA RESULT:    -6.220      0.000      0.000
REMARK INTER + INTRA:          -7.066
REMARK INTER:                  -6.766
REMARK INTRA:                  -0.300
REMARK UNBOUND:                -0.300
REMARK SMILES CC1(C)CC[C@]2(C(=O)[O-])CC[C@]3(C)C(=CC[C@H]4[C@]5(C)CC[C@H](O)C(C)(C)[C@@H]5CC[C@@]43C)[C@@H]2C1
REMARK SMILES IDX 6 1 5 2 10 3 32 4 4 5 11 6 14 7 33 8 2 9 12 10 15 11 1 12
REMARK SMILES IDX 3 13 13 14 30 15 16 16 17 17 29 18 31 19 18 20 28 21 27 22
REMARK SMILES IDX 20 23 19 24 24 25 21 26 22 27 25 28 26 29 7 30 8 31 9 32
REMARK SMILES IDX 23 33
REMARK H PARENT 23 34
REMARK Flexibility Score: inf
ROOT
ATOM      1  C   UNL     1      46.898 110.555  55.213  1.00  0.00     0.017 C 
ATOM      2  C   UNL     1      46.135 111.884  55.430  1.00  0.00     0.014 C 
ATOM      3  C   UNL     1      47.799 110.238  56.452  1.00  0.00     0.014 C 
ATOM      4  C   UNL     1      47.755 110.627  53.882  1.00  0.00     0.028 C 
ATOM      5  C   UNL     1      45.238 112.232  54.228  1.00  0.00     0.007 C 
ATOM      6  C   UNL     1      49.072 111.090  56.607  1.00  0.00     0.013 C 
ATOM      7  C   UNL     1      49.259 110.442  54.175  1.00  0.00    -0.064 C 
ATOM      8  C   UNL     1      47.484 111.860  52.969  1.00  0.00     0.015 C 
ATOM      9  C   UNL     1      45.992 112.301  52.858  1.00  0.00    -0.035 C 
ATOM     10  C   UNL     1      49.942 111.277  55.300  1.00  0.00    -0.006 C 
ATOM     11  C   UNL     1      49.803 109.280  53.730  1.00  0.00    -0.027 C 
ATOM     12  C   UNL     1      45.959 113.760  52.341  1.00  0.00     0.011 C 
ATOM     13  C   UNL     1      45.274 111.431  51.798  1.00  0.00     0.011 C 
ATOM     14  C   UNL     1      49.918 112.798  54.946  1.00  0.00     0.017 C 
ATOM     15  C   UNL     1      51.485 110.849  55.518  1.00  0.00    -0.020 C 
ATOM     16  C   UNL     1      51.096 108.690  54.210  1.00  0.00     0.032 C 
ATOM     17  C   UNL     1      51.565 109.276  55.561  1.00  0.00     0.006 C 
ATOM     18  C   UNL     1      52.059 111.491  56.839  1.00  0.00     0.008 C 
ATOM     19  C   UNL     1      52.364 111.380  54.335  1.00  0.00     0.012 C 
ATOM     20  C   UNL     1      52.913 108.601  56.135  1.00  0.00    -0.025 C 
ATOM     21  C   UNL     1      52.664 110.492  57.825  1.00  0.00     0.005 C 
ATOM     22  C   UNL     1      53.696 109.588  57.102  1.00  0.00     0.003 C 
ATOM     23  C   UNL     1      52.476 107.324  56.928  1.00  0.00     0.010 C 
ATOM     24  C   UNL     1      53.840 108.145  54.965  1.00  0.00     0.012 C 
ATOM     25  C   UNL     1      54.772 108.914  58.082  1.00  0.00    -0.006 C 
ATOM     26  C   UNL     1      53.596 106.655  57.724  1.00  0.00     0.033 C 
ATOM     27  C   UNL     1      54.206 107.624  58.750  1.00  0.00     0.120 C 
ATOM     28  C   UNL     1      55.218 109.894  59.210  1.00  0.00     0.014 C 
ATOM     29  C   UNL     1      56.091 108.573  57.306  1.00  0.00     0.014 C 
ENDROOT
BRANCH   1  30
ATOM     30  C   UNL     1      45.856 109.426  55.165  1.00  0.00     0.048 C 
ATOM     31  O   UNL     1      45.241 109.049  56.196  1.00  0.00    -0.550 OA
ATOM     32  O   UNL     1      45.653 108.712  53.987  1.00  0.00    -0.550 OA
ENDBRANCH   1  30
BRANCH  27  33
ATOM     33  O   UNL     1      53.228 107.952  59.712  1.00  0.00    -0.393 OA
ATOM     34  H   UNL     1      53.510 108.812  60.127  1.00  0.00     0.210 HD
ENDBRANCH  27  33
TORSDOF 2
ENDMDL
MODEL 2
REMARK VINA RESULT:    -5.874      2.287      7.526
REMARK INTER + INTRA:          -6.689
REMARK INTER:                  -6.381
REMARK INTRA:                  -0.308
REMARK UNBOUND:                -0.300
REMARK SMILES CC1(C)CC[C@]2(C(=O)[O-])CC[C@]3(C)C(=CC[C@H]4[C@]5(C)CC[C@H](O)C(C)(C)[C@@H]5CC[C@@]43C)[C@@H]2C1
REMARK SMILES IDX 6 1 5 2 10 3 32 4 4 5 11 6 14 7 33 8 2 9 12 10 15 11 1 12
REMARK SMILES IDX 3 13 13 14 30 15 16 16 17 17 29 18 31 19 18 20 28 21 27 22
REMARK SMILES IDX 20 23 19 24 24 25 21 26 22 27 25 28 26 29 7 30 8 31 9 32
REMARK SMILES IDX 23 33
REMARK H PARENT 23 34
REMARK Flexibility Score: inf
ROOT
ATOM      1  C   UNL     1      54.169 110.709  56.668  1.00  0.00     0.017 C 
ATOM      2  C   UNL     1      55.426 110.438  55.807  1.00  0.00     0.014 C 
ATOM      3  C   UNL     1      53.196 109.485  56.606  1.00  0.00     0.014 C 
ATOM      4  C   UNL     1      53.452 112.039  56.190  1.00  0.00     0.028 C 
ATOM      5  C   UNL     1      56.409 111.624  55.842  1.00  0.00     0.007 C 
ATOM      6  C   UNL     1      52.412 109.303  55.293  1.00  0.00     0.013 C 
ATOM      7  C   UNL     1      52.010 111.758  55.717  1.00  0.00    -0.064 C 
ATOM      8  C   UNL     1      54.247 112.903  55.166  1.00  0.00     0.015 C 
ATOM      9  C   UNL     1      55.784 112.993  55.409  1.00  0.00    -0.035 C 
ATOM     10  C   UNL     1      51.733 110.605  54.706  1.00  0.00    -0.006 C 
ATOM     11  C   UNL     1      51.027 112.247  56.515  1.00  0.00    -0.027 C 
ATOM     12  C   UNL     1      56.454 113.454  54.092  1.00  0.00     0.011 C 
ATOM     13  C   UNL     1      56.077 114.082  56.469  1.00  0.00     0.011 C 
ATOM     14  C   UNL     1      52.418 110.900  53.334  1.00  0.00     0.017 C 
ATOM     15  C   UNL     1      50.152 110.408  54.433  1.00  0.00    -0.020 C 
ATOM     16  C   UNL     1      49.598 111.795  56.505  1.00  0.00     0.032 C 
ATOM     17  C   UNL     1      49.401 110.424  55.817  1.00  0.00     0.006 C 
ATOM     18  C   UNL     1      49.887 109.065  53.650  1.00  0.00     0.008 C 
ATOM     19  C   UNL     1      49.612 111.573  53.537  1.00  0.00     0.012 C 
ATOM     20  C   UNL     1      47.883 109.881  55.863  1.00  0.00    -0.025 C 
ATOM     21  C   UNL     1      48.891 108.119  54.320  1.00  0.00     0.005 C 
ATOM     22  C   UNL     1      47.584 108.880  54.666  1.00  0.00     0.003 C 
ATOM     23  C   UNL     1      47.711 109.135  57.228  1.00  0.00     0.010 C 
ATOM     24  C   UNL     1      46.873 111.070  55.835  1.00  0.00     0.012 C 
ATOM     25  C   UNL     1      46.304 107.930  54.841  1.00  0.00    -0.006 C 
ATOM     26  C   UNL     1      46.396 108.368  57.374  1.00  0.00     0.033 C 
ATOM     27  C   UNL     1      46.245 107.308  56.271  1.00  0.00     0.120 C 
ATOM     28  C   UNL     1      46.302 106.767  53.802  1.00  0.00     0.014 C 
ATOM     29  C   UNL     1      44.982 108.722  54.554  1.00  0.00     0.014 C 
ENDROOT
BRANCH   1  30
ATOM     30  C   UNL     1      54.622 110.795  58.135  1.00  0.00     0.048 C 
ATOM     31  O   UNL     1      54.477 111.846  58.811  1.00  0.00    -0.550 OA
ATOM     32  O   UNL     1      55.315 109.736  58.715  1.00  0.00    -0.550 OA
ENDBRANCH   1  30
BRANCH  27  33
ATOM     33  O   UNL     1      47.250 106.332  56.428  1.00  0.00    -0.393 OA
ATOM     34  H   UNL     1      47.330 105.858  55.556  1.00  0.00     0.210 HD
ENDBRANCH  27  33
TORSDOF 2
ENDMDL
MODEL 3
REMARK VINA RESULT:    -5.776      1.847      7.903
REMARK INTER + INTRA:          -6.583
REMARK INTER:                  -6.342
REMARK INTRA:                  -0.240
REMARK UNBOUND:                -0.300
REMARK SMILES CC1(C)CC[C@]2(C(=O)[O-])CC[C@]3(C)C(=CC[C@H]4[C@]5(C)CC[C@H](O)C(C)(C)[C@@H]5CC[C@@]43C)[C@@H]2C1
REMARK SMILES IDX 6 1 5 2 10 3 32 4 4 5 11 6 14 7 33 8 2 9 12 10 15 11 1 12
REMARK SMILES IDX 3 13 13 14 30 15 16 16 17 17 29 18 31 19 18 20 28 21 27 22
REMARK SMILES IDX 20 23 19 24 24 25 21 26 22 27 25 28 26 29 7 30 8 31 9 32
REMARK SMILES IDX 23 33
REMARK H PARENT 23 34
REMARK Flexibility Score: inf
ROOT
ATOM      1  C   UNL     1      53.747 109.215  56.137  1.00  0.00     0.017 C 
ATOM      2  C   UNL     1      54.781 110.266  55.667  1.00  0.00     0.014 C 
ATOM      3  C   UNL     1      52.642 109.015  55.047  1.00  0.00     0.014 C 
ATOM      4  C   UNL     1      53.115 109.649  57.524  1.00  0.00     0.028 C 
ATOM      5  C   UNL     1      55.885 110.491  56.716  1.00  0.00     0.007 C 
ATOM      6  C   UNL     1      51.611 110.150  54.905  1.00  0.00     0.013 C 
ATOM      7  C   UNL     1      51.587 109.834  57.409  1.00  0.00    -0.064 C 
ATOM      8  C   UNL     1      53.801 110.856  58.230  1.00  0.00     0.015 C 
ATOM      9  C   UNL     1      55.356 110.900  58.133  1.00  0.00    -0.035 C 
ATOM     10  C   UNL     1      50.993 110.696  56.254  1.00  0.00    -0.006 C 
ATOM     11  C   UNL     1      50.835 108.909  58.058  1.00  0.00    -0.027 C 
ATOM     12  C   UNL     1      55.817 112.345  58.441  1.00  0.00     0.011 C 
ATOM     13  C   UNL     1      55.968 109.989  59.224  1.00  0.00     0.011 C 
ATOM     14  C   UNL     1      51.440 112.185  56.394  1.00  0.00     0.017 C 
ATOM     15  C   UNL     1      49.377 110.667  56.249  1.00  0.00    -0.020 C 
ATOM     16  C   UNL     1      49.385 108.632  57.792  1.00  0.00     0.032 C 
ATOM     17  C   UNL     1      48.905 109.175  56.427  1.00  0.00     0.006 C 
ATOM     18  C   UNL     1      48.814 111.293  54.916  1.00  0.00     0.008 C 
ATOM     19  C   UNL     1      48.819 111.531  57.430  1.00  0.00     0.012 C 
ATOM     20  C   UNL     1      47.368 108.820  56.086  1.00  0.00    -0.025 C 
ATOM     21  C   UNL     1      47.856 110.390  54.139  1.00  0.00     0.005 C 
ATOM     22  C   UNL     1      46.735 109.870  55.076  1.00  0.00     0.003 C 
ATOM     23  C   UNL     1      47.367 107.396  55.434  1.00  0.00     0.010 C 
ATOM     24  C   UNL     1      46.517 108.749  57.393  1.00  0.00     0.012 C 
ATOM     25  C   UNL     1      45.408 109.402  54.308  1.00  0.00    -0.006 C 
ATOM     26  C   UNL     1      46.022 106.964  54.850  1.00  0.00     0.033 C 
ATOM     27  C   UNL     1      45.544 107.945  53.768  1.00  0.00     0.120 C 
ATOM     28  C   UNL     1      45.076 110.340  53.107  1.00  0.00     0.014 C 
ATOM     29  C   UNL     1      44.158 109.503  55.249  1.00  0.00     0.014 C 
ENDROOT
BRANCH   1  30
ATOM     30  C   UNL     1      54.473 107.862  56.234  1.00  0.00     0.048 C 
ATOM     31  O   UNL     1      54.715 107.167  55.214  1.00  0.00    -0.550 OA
ATOM     32  O   UNL     1      54.780 107.323  57.480  1.00  0.00    -0.550 OA
ENDBRANCH   1  30
BRANCH  27  33
ATOM     33  O   UNL     1      46.439 107.903  52.679  1.00  0.00    -0.393 OA
ATOM     34  H   UNL     1      45.898 107.700  51.869  1.00  0.00     0.210 HD
ENDBRANCH  27  33
TORSDOF 2
ENDMDL
MODEL 4
REMARK VINA RESULT:    -5.318      2.505      3.783
REMARK INTER + INTRA:          -6.084
REMARK INTER:                  -5.790
REMARK INTRA:                  -0.294
REMARK UNBOUND:                -0.300
REMARK SMILES CC1(C)CC[C@]2(C(=O)[O-])CC[C@]3(C)C(=CC[C@H]4[C@]5(C)CC[C@H](O)C(C)(C)[C@@H]5CC[C@@]43C)[C@@H]2C1
REMARK SMILES IDX 6 1 5 2 10 3 32 4 4 5 11 6 14 7 33 8 2 9 12 10 15 11 1 12
REMARK SMILES IDX 3 13 13 14 30 15 16 16 17 17 29 18 31 19 18 20 28 21 27 22
REMARK SMILES IDX 20 23 19 24 24 25 21 26 22 27 25 28 26 29 7 30 8 31 9 32
REMARK SMILES IDX 23 33
REMARK H PARENT 23 34
REMARK Flexibility Score: inf
ROOT
ATOM      1  C   UNL     1      48.273 110.346  56.811  1.00  0.00     0.017 C 
ATOM      2  C   UNL     1      47.157 110.889  55.885  1.00  0.00     0.014 C 
ATOM      3  C   UNL     1      49.313 111.472  57.125  1.00  0.00     0.014 C 
ATOM      4  C   UNL     1      48.970 109.087  56.148  1.00  0.00     0.028 C 
ATOM      5  C   UNL     1      46.114 109.808  55.552  1.00  0.00     0.007 C 
ATOM      6  C   UNL     1      50.273 111.853  55.983  1.00  0.00     0.013 C 
ATOM      7  C   UNL     1      50.476 109.338  55.919  1.00  0.00    -0.064 C 
ATOM      8  C   UNL     1      48.271 108.518  54.878  1.00  0.00     0.015 C 
ATOM      9  C   UNL     1      46.712 108.508  54.914  1.00  0.00    -0.035 C 
ATOM     10  C   UNL     1      50.948 110.646  55.216  1.00  0.00    -0.006 C 
ATOM     11  C   UNL     1      51.316 108.617  56.704  1.00  0.00    -0.027 C 
ATOM     12  C   UNL     1      46.198 108.382  53.460  1.00  0.00     0.011 C 
ATOM     13  C   UNL     1      46.220 107.254  55.676  1.00  0.00     0.011 C 
ATOM     14  C   UNL     1      50.435 110.694  53.742  1.00  0.00     0.017 C 
ATOM     15  C   UNL     1      52.560 110.763  55.179  1.00  0.00    -0.020 C 
ATOM     16  C   UNL     1      52.757 108.942  56.958  1.00  0.00     0.032 C 
ATOM     17  C   UNL     1      53.119 110.403  56.606  1.00  0.00     0.006 C 
ATOM     18  C   UNL     1      53.002 112.210  54.735  1.00  0.00     0.008 C 
ATOM     19  C   UNL     1      53.148 109.764  54.125  1.00  0.00     0.012 C 
ATOM     20  C   UNL     1      54.647 110.798  56.944  1.00  0.00    -0.025 C 
ATOM     21  C   UNL     1      53.952 112.914  55.704  1.00  0.00     0.005 C 
ATOM     22  C   UNL     1      55.157 111.994  56.031  1.00  0.00     0.003 C 
ATOM     23  C   UNL     1      54.678 111.233  58.448  1.00  0.00     0.010 C 
ATOM     24  C   UNL     1      55.583 109.560  56.783  1.00  0.00     0.012 C 
ATOM     25  C   UNL     1      56.454 112.779  56.554  1.00  0.00    -0.006 C 
ATOM     26  C   UNL     1      56.003 111.843  58.906  1.00  0.00     0.033 C 
ATOM     27  C   UNL     1      56.358 113.089  58.080  1.00  0.00     0.120 C 
ATOM     28  C   UNL     1      56.658 114.125  55.794  1.00  0.00     0.014 C 
ATOM     29  C   UNL     1      57.756 111.956  56.261  1.00  0.00     0.014 C 
ENDROOT
BRANCH   1  30
ATOM     30  C   UNL     1      47.625 110.000  58.162  1.00  0.00     0.048 C 
ATOM     31  O   UNL     1      47.250 110.894  58.964  1.00  0.00    -0.550 OA
ATOM     32  O   UNL     1      47.544 108.674  58.578  1.00  0.00    -0.550 OA
ENDBRANCH   1  30
BRANCH  27  33
ATOM     33  O   UNL     1      55.398 114.093  58.321  1.00  0.00    -0.393 OA
ATOM     34  H   UNL     1      54.541 113.629  58.523  1.00  0.00     0.210 HD
ENDBRANCH  27  33
TORSDOF 2
ENDMDL
MODEL 5
REMARK VINA RESULT:    -5.289      1.470      1.705
REMARK INTER + INTRA:          -6.053
REMARK INTER:                  -5.743
REMARK INTRA:                  -0.310
REMARK UNBOUND:                -0.300
REMARK SMILES CC1(C)CC[C@]2(C(=O)[O-])CC[C@]3(C)C(=CC[C@H]4[C@]5(C)CC[C@H](O)C(C)(C)[C@@H]5CC[C@@]43C)[C@@H]2C1
REMARK SMILES IDX 6 1 5 2 10 3 32 4 4 5 11 6 14 7 33 8 2 9 12 10 15 11 1 12
REMARK SMILES IDX 3 13 13 14 30 15 16 16 17 17 29 18 31 19 18 20 28 21 27 22
REMARK SMILES IDX 20 23 19 24 24 25 21 26 22 27 25 28 26 29 7 30 8 31 9 32
REMARK SMILES IDX 23 33
REMARK H PARENT 23 34
REMARK Flexibility Score: inf
ROOT
ATOM      1  C   UNL     1      47.481 108.861  55.251  1.00  0.00     0.017 C 
ATOM      2  C   UNL     1      46.264 109.437  56.014  1.00  0.00     0.014 C 
ATOM      3  C   UNL     1      48.562 108.353  56.261  1.00  0.00     0.014 C 
ATOM      4  C   UNL     1      48.078 109.952  54.269  1.00  0.00     0.028 C 
ATOM      5  C   UNL     1      45.177 109.951  55.052  1.00  0.00     0.007 C 
ATOM      6  C   UNL     1      49.375 109.436  56.993  1.00  0.00     0.013 C 
ATOM      7  C   UNL     1      49.545 110.277  54.620  1.00  0.00    -0.064 C 
ATOM      8  C   UNL     1      47.220 111.239  54.086  1.00  0.00     0.015 C 
ATOM      9  C   UNL     1      45.678 111.018  54.021  1.00  0.00    -0.035 C 
ATOM     10  C   UNL     1      49.938 110.606  56.092  1.00  0.00    -0.006 C 
ATOM     11  C   UNL     1      50.471 109.854  53.721  1.00  0.00    -0.027 C 
ATOM     12  C   UNL     1      44.985 112.369  54.322  1.00  0.00     0.011 C 
ATOM     13  C   UNL     1      45.274 110.614  52.583  1.00  0.00     0.011 C 
ATOM     14  C   UNL     1      49.246 111.923  56.564  1.00  0.00     0.017 C 
ATOM     15  C   UNL     1      51.534 110.803  56.261  1.00  0.00    -0.020 C 
ATOM     16  C   UNL     1      51.935 109.691  53.997  1.00  0.00     0.032 C 
ATOM     17  C   UNL     1      52.264 109.629  55.506  1.00  0.00     0.006 C 
ATOM     18  C   UNL     1      51.931 110.841  57.787  1.00  0.00     0.008 C 
ATOM     19  C   UNL     1      51.976 112.172  55.641  1.00  0.00     0.012 C 
ATOM     20  C   UNL     1      53.825 109.377  55.826  1.00  0.00    -0.025 C 
ATOM     21  C   UNL     1      53.001 109.829  58.195  1.00  0.00     0.005 C 
ATOM     22  C   UNL     1      54.229 109.943  57.254  1.00  0.00     0.003 C 
ATOM     23  C   UNL     1      54.049 107.828  55.792  1.00  0.00     0.010 C 
ATOM     24  C   UNL     1      54.723 110.016  54.720  1.00  0.00     0.012 C 
ATOM     25  C   UNL     1      55.588 109.371  57.884  1.00  0.00    -0.006 C 
ATOM     26  C   UNL     1      55.426 107.372  56.274  1.00  0.00     0.033 C 
ATOM     27  C   UNL     1      55.687 107.823  57.720  1.00  0.00     0.120 C 
ATOM     28  C   UNL     1      55.708 109.711  59.401  1.00  0.00     0.014 C 
ATOM     29  C   UNL     1      56.835 110.054  57.224  1.00  0.00     0.014 C 
ENDROOT
BRANCH   1  30
ATOM     30  C   UNL     1      47.004 107.608  54.498  1.00  0.00     0.048 C 
ATOM     31  O   UNL     1      46.591 106.588  55.107  1.00  0.00    -0.550 OA
ATOM     32  O   UNL     1      47.130 107.536  53.113  1.00  0.00    -0.550 OA
ENDBRANCH   1  30
BRANCH  27  33
ATOM     33  O   UNL     1      54.774 107.176  58.577  1.00  0.00    -0.393 OA
ATOM     34  H   UNL     1      54.981 106.203  58.538  1.00  0.00     0.210 HD
ENDBRANCH  27  33
TORSDOF 2
ENDMDL
MODEL 6
REMARK VINA RESULT:    -5.228     13.420     15.893
REMARK INTER + INTRA:          -5.986
REMARK INTER:                  -5.853
REMARK INTRA:                  -0.133
REMARK UNBOUND:                -0.300
REMARK SMILES CC1(C)CC[C@]2(C(=O)[O-])CC[C@]3(C)C(=CC[C@H]4[C@]5(C)CC[C@H](O)C(C)(C)[C@@H]5CC[C@@]43C)[C@@H]2C1
REMARK SMILES IDX 6 1 5 2 10 3 32 4 4 5 11 6 14 7 33 8 2 9 12 10 15 11 1 12
REMARK SMILES IDX 3 13 13 14 30 15 16 16 17 17 29 18 31 19 18 20 28 21 27 22
REMARK SMILES IDX 20 23 19 24 24 25 21 26 22 27 25 28 26 29 7 30 8 31 9 32
REMARK SMILES IDX 23 33
REMARK H PARENT 23 34
REMARK Flexibility Score: inf
ROOT
ATOM      1  C   UNL     1      57.172  97.599  56.682  1.00  0.00     0.017 C 
ATOM      2  C   UNL     1      56.670  96.157  56.432  1.00  0.00     0.014 C 
ATOM      3  C   UNL     1      57.406  98.335  55.321  1.00  0.00     0.014 C 
ATOM      4  C   UNL     1      58.492  97.576  57.558  1.00  0.00     0.028 C 
ATOM      5  C   UNL     1      56.430  95.399  57.751  1.00  0.00     0.007 C 
ATOM      6  C   UNL     1      58.648  97.907  54.519  1.00  0.00     0.013 C 
ATOM      7  C   UNL     1      59.675  98.218  56.803  1.00  0.00    -0.064 C 
ATOM      8  C   UNL     1      58.869  96.197  58.176  1.00  0.00     0.015 C 
ATOM      9  C   UNL     1      57.674  95.344  58.700  1.00  0.00    -0.035 C 
ATOM     10  C   UNL     1      59.993  97.782  55.341  1.00  0.00    -0.006 C 
ATOM     11  C   UNL     1      60.108  99.407  57.294  1.00  0.00    -0.027 C 
ATOM     12  C   UNL     1      58.148  93.875  58.820  1.00  0.00     0.011 C 
ATOM     13  C   UNL     1      57.291  95.812  60.125  1.00  0.00     0.011 C 
ATOM     14  C   UNL     1      60.420  96.281  55.295  1.00  0.00     0.017 C 
ATOM     15  C   UNL     1      61.193  98.654  54.698  1.00  0.00    -0.020 C 
ATOM     16  C   UNL     1      60.945 100.400  56.545  1.00  0.00     0.032 C 
ATOM     17  C   UNL     1      60.931 100.174  55.016  1.00  0.00     0.006 C 
ATOM     18  C   UNL     1      61.295  98.399  53.145  1.00  0.00     0.008 C 
ATOM     19  C   UNL     1      62.564  98.223  55.321  1.00  0.00     0.012 C 
ATOM     20  C   UNL     1      61.763 101.277  54.183  1.00  0.00    -0.025 C 
ATOM     21  C   UNL     1      61.232  99.661  52.285  1.00  0.00     0.005 C 
ATOM     22  C   UNL     1      62.265 100.702  52.790  1.00  0.00     0.003 C 
ATOM     23  C   UNL     1      60.794 102.482  53.937  1.00  0.00     0.010 C 
ATOM     24  C   UNL     1      62.974 101.798  55.019  1.00  0.00     0.012 C 
ATOM     25  C   UNL     1      62.689 101.788  51.688  1.00  0.00    -0.006 C 
ATOM     26  C   UNL     1      61.333 103.548  52.983  1.00  0.00     0.033 C 
ATOM     27  C   UNL     1      61.653 102.951  51.604  1.00  0.00     0.120 C 
ATOM     28  C   UNL     1      62.823 101.149  50.272  1.00  0.00     0.014 C 
ATOM     29  C   UNL     1      64.111 102.367  52.000  1.00  0.00     0.014 C 
ENDROOT
BRANCH   1  30
ATOM     30  C   UNL     1      56.036  98.371  57.374  1.00  0.00     0.048 C 
ATOM     31  O   UNL     1      56.266  99.230  58.263  1.00  0.00    -0.550 OA
ATOM     32  O   UNL     1      54.708  98.048  57.105  1.00  0.00    -0.550 OA
ENDBRANCH   1  30
BRANCH  27  33
ATOM     33  O   UNL     1      60.456 102.505  51.005  1.00  0.00    -0.393 OA
ATOM     34  H   UNL     1      59.712 102.986  51.457  1.00  0.00     0.210 HD
ENDBRANCH  27  33
TORSDOF 2
ENDMDL
MODEL 7
REMARK VINA RESULT:    -5.221      2.613      7.571
REMARK INTER + INTRA:          -5.979
REMARK INTER:                  -5.699
REMARK INTRA:                  -0.280
REMARK UNBOUND:                -0.300
REMARK SMILES CC1(C)CC[C@]2(C(=O)[O-])CC[C@]3(C)C(=CC[C@H]4[C@]5(C)CC[C@H](O)C(C)(C)[C@@H]5CC[C@@]43C)[C@@H]2C1
REMARK SMILES IDX 6 1 5 2 10 3 32 4 4 5 11 6 14 7 33 8 2 9 12 10 15 11 1 12
REMARK SMILES IDX 3 13 13 14 30 15 16 16 17 17 29 18 31 19 18 20 28 21 27 22
REMARK SMILES IDX 20 23 19 24 24 25 21 26 22 27 25 28 26 29 7 30 8 31 9 32
REMARK SMILES IDX 23 33
REMARK H PARENT 23 34
REMARK Flexibility Score: inf
ROOT
ATOM      1  C   UNL     1      52.769 112.298  55.327  1.00  0.00     0.017 C 
ATOM      2  C   UNL     1      53.035 113.787  55.655  1.00  0.00     0.014 C 
ATOM      3  C   UNL     1      51.442 112.152  54.511  1.00  0.00     0.014 C 
ATOM      4  C   UNL     1      52.723 111.442  56.660  1.00  0.00     0.028 C 
ATOM      5  C   UNL     1      54.334 113.971  56.461  1.00  0.00     0.007 C 
ATOM      6  C   UNL     1      50.132 112.342  55.297  1.00  0.00     0.013 C 
ATOM      7  C   UNL     1      51.352 110.755  56.835  1.00  0.00    -0.064 C 
ATOM      8  C   UNL     1      53.177 112.182  57.953  1.00  0.00     0.015 C 
ATOM      9  C   UNL     1      54.394 113.142  57.788  1.00  0.00    -0.035 C 
ATOM     10  C   UNL     1      50.041 111.584  56.681  1.00  0.00    -0.006 C 
ATOM     11  C   UNL     1      51.352 109.404  56.698  1.00  0.00    -0.027 C 
ATOM     12  C   UNL     1      54.402 114.119  58.989  1.00  0.00     0.011 C 
ATOM     13  C   UNL     1      55.709 112.328  57.861  1.00  0.00     0.011 C 
ATOM     14  C   UNL     1      49.945 112.673  57.796  1.00  0.00     0.017 C 
ATOM     15  C   UNL     1      48.723 110.654  56.790  1.00  0.00    -0.020 C 
ATOM     16  C   UNL     1      50.142 108.560  56.434  1.00  0.00     0.032 C 
ATOM     17  C   UNL     1      48.941 109.374  55.899  1.00  0.00     0.006 C 
ATOM     18  C   UNL     1      47.440 111.454  56.343  1.00  0.00     0.008 C 
ATOM     19  C   UNL     1      48.493 110.217  58.276  1.00  0.00     0.012 C 
ATOM     20  C   UNL     1      47.652 108.475  55.534  1.00  0.00    -0.025 C 
ATOM     21  C   UNL     1      46.622 110.787  55.237  1.00  0.00     0.005 C 
ATOM     22  C   UNL     1      46.308 109.317  55.619  1.00  0.00     0.003 C 
ATOM     23  C   UNL     1      47.859 107.961  54.070  1.00  0.00     0.010 C 
ATOM     24  C   UNL     1      47.568 107.230  56.472  1.00  0.00     0.012 C 
ATOM     25  C   UNL     1      45.038 108.702  54.857  1.00  0.00    -0.006 C 
ATOM     26  C   UNL     1      46.645 107.257  53.464  1.00  0.00     0.033 C 
ATOM     27  C   UNL     1      45.420 108.184  53.436  1.00  0.00     0.120 C 
ATOM     28  C   UNL     1      43.895 109.751  54.704  1.00  0.00     0.014 C 
ATOM     29  C   UNL     1      44.401 107.539  55.692  1.00  0.00     0.014 C 
ENDROOT
BRANCH   1  30
ATOM     30  C   UNL     1      53.885 111.827  54.379  1.00  0.00     0.048 C 
ATOM     31  O   UNL     1      54.175 112.461  53.332  1.00  0.00    -0.550 OA
ATOM     32  O   UNL     1      54.526 110.612  54.606  1.00  0.00    -0.550 OA
ENDBRANCH   1  30
BRANCH  27  33
ATOM     33  O   UNL     1      45.678 109.265  52.569  1.00  0.00    -0.393 OA
ATOM     34  H   UNL     1      45.728 108.890  51.648  1.00  0.00     0.210 HD
ENDBRANCH  27  33
TORSDOF 2
ENDMDL
MODEL 8
REMARK VINA RESULT:    -5.213      2.733      7.941
REMARK INTER + INTRA:          -5.971
REMARK INTER:                  -5.662
REMARK INTRA:                  -0.309
REMARK UNBOUND:                -0.300
REMARK SMILES CC1(C)CC[C@]2(C(=O)[O-])CC[C@]3(C)C(=CC[C@H]4[C@]5(C)CC[C@H](O)C(C)(C)[C@@H]5CC[C@@]43C)[C@@H]2C1
REMARK SMILES IDX 6 1 5 2 10 3 32 4 4 5 11 6 14 7 33 8 2 9 12 10 15 11 1 12
REMARK SMILES IDX 3 13 13 14 30 15 16 16 17 17 29 18 31 19 18 20 28 21 27 22
REMARK SMILES IDX 20 23 19 24 24 25 21 26 22 27 25 28 26 29 7 30 8 31 9 32
REMARK SMILES IDX 23 33
REMARK H PARENT 23 34
REMARK Flexibility Score: inf
ROOT
ATOM      1  C   UNL     1      54.884 111.821  57.512  1.00  0.00     0.017 C 
ATOM      2  C   UNL     1      56.180 110.983  57.622  1.00  0.00     0.014 C 
ATOM      3  C   UNL     1      53.637 110.937  57.846  1.00  0.00     0.014 C 
ATOM      4  C   UNL     1      54.765 112.461  56.067  1.00  0.00     0.028 C 
ATOM      5  C   UNL     1      57.431 111.820  57.298  1.00  0.00     0.007 C 
ATOM      6  C   UNL     1      53.217 109.916  56.772  1.00  0.00     0.013 C 
ATOM      7  C   UNL     1      53.489 111.979  55.345  1.00  0.00    -0.064 C 
ATOM      8  C   UNL     1      56.030 112.336  55.167  1.00  0.00     0.015 C 
ATOM      9  C   UNL     1      57.397 112.517  55.895  1.00  0.00    -0.035 C 
ATOM     10  C   UNL     1      53.154 110.458  55.289  1.00  0.00    -0.006 C 
ATOM     11  C   UNL     1      52.527 112.920  55.167  1.00  0.00    -0.027 C 
ATOM     12  C   UNL     1      58.503 111.902  55.004  1.00  0.00     0.011 C 
ATOM     13  C   UNL     1      57.714 114.026  56.031  1.00  0.00     0.011 C 
ATOM     14  C   UNL     1      54.238 109.687  54.471  1.00  0.00     0.017 C 
ATOM     15  C   UNL     1      51.723 110.181  54.590  1.00  0.00    -0.020 C 
ATOM     16  C   UNL     1      51.085 112.638  54.865  1.00  0.00     0.032 C 
ATOM     17  C   UNL     1      50.670 111.186  55.192  1.00  0.00     0.006 C 
ATOM     18  C   UNL     1      51.279 108.683  54.808  1.00  0.00     0.008 C 
ATOM     19  C   UNL     1      51.826 110.405  53.043  1.00  0.00     0.012 C 
ATOM     20  C   UNL     1      49.105 110.881  54.948  1.00  0.00    -0.025 C 
ATOM     21  C   UNL     1      49.900 108.511  55.444  1.00  0.00     0.005 C 
ATOM     22  C   UNL     1      48.846 109.340  54.664  1.00  0.00     0.003 C 
ATOM     23  C   UNL     1      48.353 111.309  56.253  1.00  0.00     0.010 C 
ATOM     24  C   UNL     1      48.554 111.746  53.771  1.00  0.00     0.012 C 
ATOM     25  C   UNL     1      47.339 108.828  54.858  1.00  0.00    -0.006 C 
ATOM     26  C   UNL     1      46.879 110.908  56.299  1.00  0.00     0.033 C 
ATOM     27  C   UNL     1      46.711 109.386  56.173  1.00  0.00     0.120 C 
ATOM     28  C   UNL     1      47.260 107.271  54.901  1.00  0.00     0.014 C 
ATOM     29  C   UNL     1      46.452 109.238  53.633  1.00  0.00     0.014 C 
ENDROOT
BRANCH   1  30
ATOM     30  C   UNL     1      54.931 112.893  58.613  1.00  0.00     0.048 C 
ATOM     31  O   UNL     1      54.894 114.121  58.344  1.00  0.00    -0.550 OA
ATOM     32  O   UNL     1      55.133 112.522  59.940  1.00  0.00    -0.550 OA
ENDBRANCH   1  30
BRANCH  27  33
ATOM     33  O   UNL     1      47.288 108.764  57.299  1.00  0.00    -0.393 OA
ATOM     34  H   UNL     1      48.274 108.853  57.205  1.00  0.00     0.210 HD
ENDBRANCH  27  33
TORSDOF 2
ENDMDL
MODEL 9
REMARK VINA RESULT:    -4.991      2.665      4.380
REMARK INTER + INTRA:          -5.728
REMARK INTER:                  -5.634
REMARK INTRA:                  -0.094
REMARK UNBOUND:                -0.300
REMARK SMILES CC1(C)CC[C@]2(C(=O)[O-])CC[C@]3(C)C(=CC[C@H]4[C@]5(C)CC[C@H](O)C(C)(C)[C@@H]5CC[C@@]43C)[C@@H]2C1
REMARK SMILES IDX 6 1 5 2 10 3 32 4 4 5 11 6 14 7 33 8 2 9 12 10 15 11 1 12
REMARK SMILES IDX 3 13 13 14 30 15 16 16 17 17 29 18 31 19 18 20 28 21 27 22
REMARK SMILES IDX 20 23 19 24 24 25 21 26 22 27 25 28 26 29 7 30 8 31 9 32
REMARK SMILES IDX 23 33
REMARK H PARENT 23 34
REMARK Flexibility Score: inf
ROOT
ATOM      1  C   UNL     1      47.693 107.903  54.902  1.00  0.00     0.017 C 
ATOM      2  C   UNL     1      47.214 106.795  55.872  1.00  0.00     0.014 C 
ATOM      3  C   UNL     1      49.256 107.938  54.850  1.00  0.00     0.014 C 
ATOM      4  C   UNL     1      47.099 109.306  55.336  1.00  0.00     0.028 C 
ATOM      5  C   UNL     1      45.678 106.731  55.951  1.00  0.00     0.007 C 
ATOM      6  C   UNL     1      49.967 108.533  56.080  1.00  0.00     0.013 C 
ATOM      7  C   UNL     1      48.224 110.311  55.666  1.00  0.00    -0.064 C 
ATOM      8  C   UNL     1      46.007 109.264  56.446  1.00  0.00     0.015 C 
ATOM      9  C   UNL     1      44.994 108.082  56.349  1.00  0.00    -0.035 C 
ATOM     10  C   UNL     1      49.380 109.896  56.625  1.00  0.00    -0.006 C 
ATOM     11  C   UNL     1      48.368 111.337  54.789  1.00  0.00    -0.027 C 
ATOM     12  C   UNL     1      44.319 107.913  57.732  1.00  0.00     0.011 C 
ATOM     13  C   UNL     1      43.875 108.442  55.343  1.00  0.00     0.011 C 
ATOM     14  C   UNL     1      48.832 109.618  58.060  1.00  0.00     0.017 C 
ATOM     15  C   UNL     1      50.507 111.049  56.745  1.00  0.00    -0.020 C 
ATOM     16  C   UNL     1      49.588 112.198  54.657  1.00  0.00     0.032 C 
ATOM     17  C   UNL     1      50.846 111.568  55.297  1.00  0.00     0.006 C 
ATOM     18  C   UNL     1      51.791 110.497  57.475  1.00  0.00     0.008 C 
ATOM     19  C   UNL     1      49.969 112.240  57.609  1.00  0.00     0.012 C 
ATOM     20  C   UNL     1      52.189 112.441  55.100  1.00  0.00    -0.025 C 
ATOM     21  C   UNL     1      53.095 110.673  56.696  1.00  0.00     0.005 C 
ATOM     22  C   UNL     1      53.251 112.148  56.244  1.00  0.00     0.003 C 
ATOM     23  C   UNL     1      52.788 112.040  53.710  1.00  0.00     0.010 C 
ATOM     24  C   UNL     1      51.851 113.964  55.055  1.00  0.00     0.012 C 
ATOM     25  C   UNL     1      54.764 112.578  55.932  1.00  0.00    -0.006 C 
ATOM     26  C   UNL     1      54.178 112.610  53.428  1.00  0.00     0.033 C 
ATOM     27  C   UNL     1      55.191 112.159  54.491  1.00  0.00     0.120 C 
ATOM     28  C   UNL     1      55.765 111.942  56.944  1.00  0.00     0.014 C 
ATOM     29  C   UNL     1      54.948 114.125  56.109  1.00  0.00     0.014 C 
ENDROOT
BRANCH   1  30
ATOM     30  C   UNL     1      47.246 107.502  53.486  1.00  0.00     0.048 C 
ATOM     31  O   UNL     1      46.171 107.923  52.988  1.00  0.00    -0.550 OA
ATOM     32  O   UNL     1      47.978 106.564  52.763  1.00  0.00    -0.550 OA
ENDBRANCH   1  30
BRANCH  27  33
ATOM     33  O   UNL     1      55.353 110.760  54.411  1.00  0.00    -0.393 OA
ATOM     34  H   UNL     1      55.217 110.401  55.329  1.00  0.00     0.210 HD
ENDBRANCH  27  33
TORSDOF 2
ENDMDL
