MODEL 1
REMARK VINA RESULT:    -4.444      0.000      0.000
REMARK INTER + INTRA:         -10.590
REMARK INTER:                  -8.600
REMARK INTRA:                  -1.991
REMARK UNBOUND:                -1.991
REMARK SMILES CCCCCCCCCCCCCCCCCC(=O)[O-]
REMARK SMILES IDX 10 1 11 2 12 3 13 4 14 5 15 6 16 7 17 8 18 9 19 10 20 11
REMARK SMILES IDX 9 12 8 13 7 14 6 15 5 16 4 17 3 18 2 19 1 20
REMARK H PARENT
REMARK Flexibility Score: inf
ROOT
ATOM      1  C   UNL     1      -7.541  25.883  22.904  1.00  0.00     0.000 C 
ENDROOT
BRANCH   1   2
ATOM      2  C   UNL     1      -7.696  26.181  24.408  1.00  0.00     0.000 C 
BRANCH   2   3
ATOM      3  C   UNL     1      -8.891  25.487  25.092  1.00  0.00     0.000 C 
BRANCH   3   4
ATOM      4  C   UNL     1     -10.196  26.303  25.112  1.00  0.00     0.000 C 
BRANCH   4   5
ATOM      5  C   UNL     1     -10.130  27.511  26.061  1.00  0.00     0.000 C 
BRANCH   5   6
ATOM      6  C   UNL     1     -10.676  28.798  25.421  1.00  0.00     0.000 C 
BRANCH   6   7
ATOM      7  C   UNL     1     -10.053  29.086  24.045  1.00  0.00     0.006 C 
BRANCH   7   8
ATOM      8  C   UNL     1     -11.125  29.508  23.037  1.00  0.00     0.053 C 
BRANCH   8   9
ATOM      9  C   UNL     1     -10.958  28.766  21.749  1.00  0.00     0.041 C 
ATOM     10  O   UNL     1     -10.690  29.391  20.689  1.00  0.00    -0.550 OA
ATOM     11  O   UNL     1     -11.062  27.380  21.725  1.00  0.00    -0.550 OA
ENDBRANCH   8   9
ENDBRANCH   7   8
ENDBRANCH   6   7
ENDBRANCH   5   6
ENDBRANCH   4   5
ENDBRANCH   3   4
ENDBRANCH   2   3
ENDBRANCH   1   2
BRANCH   1  12
ATOM     12  C   UNL     1      -8.633  24.974  22.302  1.00  0.00     0.000 C 
BRANCH  12  13
ATOM     13  C   UNL     1      -8.132  23.623  21.758  1.00  0.00    -0.000 C 
BRANCH  13  14
ATOM     14  C   UNL     1      -8.896  22.423  22.343  1.00  0.00    -0.000 C 
BRANCH  14  15
ATOM     15  C   UNL     1     -10.329  22.315  21.796  1.00  0.00    -0.000 C 
BRANCH  15  16
ATOM     16  C   UNL     1     -10.451  21.284  20.661  1.00  0.00    -0.000 C 
BRANCH  16  17
ATOM     17  C   UNL     1     -10.873  21.918  19.324  1.00  0.00    -0.000 C 
BRANCH  17  18
ATOM     18  C   UNL     1     -11.044  23.450  19.390  1.00  0.00    -0.000 C 
BRANCH  18  19
ATOM     19  C   UNL     1     -10.066  24.185  18.460  1.00  0.00    -0.003 C 
ATOM     20  C   UNL     1      -9.875  25.636  18.898  1.00  0.00     0.004 C 
ENDBRANCH  18  19
ENDBRANCH  17  18
ENDBRANCH  16  17
ENDBRANCH  15  16
ENDBRANCH  14  15
ENDBRANCH  13  14
ENDBRANCH  12  13
ENDBRANCH   1  12
TORSDOF 16
ENDMDL
MODEL 2
REMARK VINA RESULT:    -4.158      1.125      2.379
REMARK INTER + INTRA:         -10.038
REMARK INTER:                  -8.311
REMARK INTRA:                  -1.726
REMARK UNBOUND:                -1.991
REMARK SMILES CCCCCCCCCCCCCCCCCC(=O)[O-]
REMARK SMILES IDX 10 1 11 2 12 3 13 4 14 5 15 6 16 7 17 8 18 9 19 10 20 11
REMARK SMILES IDX 9 12 8 13 7 14 6 15 5 16 4 17 3 18 2 19 1 20
REMARK H PARENT
REMARK Flexibility Score: inf
ROOT
ATOM      1  C   UNL     1      -7.581  25.984  22.603  1.00  0.00     0.000 C 
ENDROOT
BRANCH   1   2
ATOM      2  C   UNL     1      -8.642  25.329  23.510  1.00  0.00     0.000 C 
BRANCH   2   3
ATOM      3  C   UNL     1      -8.647  25.824  24.970  1.00  0.00     0.000 C 
BRANCH   3   4
ATOM      4  C   UNL     1     -10.041  25.951  25.612  1.00  0.00     0.000 C 
BRANCH   4   5
ATOM      5  C   UNL     1     -10.111  27.064  26.671  1.00  0.00     0.000 C 
BRANCH   5   6
ATOM      6  C   UNL     1     -10.809  28.331  26.152  1.00  0.00     0.000 C 
BRANCH   6   7
ATOM      7  C   UNL     1     -11.125  28.262  24.648  1.00  0.00     0.006 C 
BRANCH   7   8
ATOM      8  C   UNL     1     -10.934  29.628  23.985  1.00  0.00     0.053 C 
BRANCH   8   9
ATOM      9  C   UNL     1     -10.093  29.504  22.755  1.00  0.00     0.041 C 
ATOM     10  O   UNL     1      -8.846  29.664  22.822  1.00  0.00    -0.550 OA
ATOM     11  O   UNL     1     -10.681  29.175  21.539  1.00  0.00    -0.550 OA
ENDBRANCH   8   9
ENDBRANCH   7   8
ENDBRANCH   6   7
ENDBRANCH   5   6
ENDBRANCH   4   5
ENDBRANCH   3   4
ENDBRANCH   2   3
ENDBRANCH   1   2
BRANCH   1  12
ATOM     12  C   UNL     1      -8.138  26.684  21.347  1.00  0.00     0.000 C 
BRANCH  12  13
ATOM     13  C   UNL     1      -9.296  25.947  20.648  1.00  0.00    -0.000 C 
BRANCH  13  14
ATOM     14  C   UNL     1      -8.812  24.841  19.694  1.00  0.00    -0.000 C 
BRANCH  14  15
ATOM     15  C   UNL     1      -9.894  24.419  18.687  1.00  0.00    -0.000 C 
BRANCH  15  16
ATOM     16  C   UNL     1     -10.992  23.553  19.328  1.00  0.00    -0.000 C 
BRANCH  16  17
ATOM     17  C   UNL     1     -10.644  22.054  19.328  1.00  0.00    -0.000 C 
BRANCH  17  18
ATOM     18  C   UNL     1     -10.779  21.386  20.713  1.00  0.00    -0.000 C 
BRANCH  18  19
ATOM     19  C   UNL     1     -10.417  22.343  21.858  1.00  0.00    -0.003 C 
ATOM     20  C   UNL     1      -8.958  22.175  22.276  1.00  0.00     0.004 C 
ENDBRANCH  18  19
ENDBRANCH  17  18
ENDBRANCH  16  17
ENDBRANCH  15  16
ENDBRANCH  14  15
ENDBRANCH  13  14
ENDBRANCH  12  13
ENDBRANCH   1  12
TORSDOF 16
ENDMDL
MODEL 3
REMARK VINA RESULT:    -3.994      2.196      6.553
REMARK INTER + INTRA:          -9.719
REMARK INTER:                  -8.033
REMARK INTRA:                  -1.686
REMARK UNBOUND:                -1.991
REMARK SMILES CCCCCCCCCCCCCCCCCC(=O)[O-]
REMARK SMILES IDX 10 1 11 2 12 3 13 4 14 5 15 6 16 7 17 8 18 9 19 10 20 11
REMARK SMILES IDX 9 12 8 13 7 14 6 15 5 16 4 17 3 18 2 19 1 20
REMARK H PARENT
REMARK Flexibility Score: inf
ROOT
ATOM      1  C   UNL     1      -7.733  25.833  22.411  1.00  0.00     0.000 C 
ENDROOT
BRANCH   1   2
ATOM      2  C   UNL     1      -8.619  27.000  21.934  1.00  0.00     0.000 C 
BRANCH   2   3
ATOM      3  C   UNL     1      -9.877  26.585  21.145  1.00  0.00     0.000 C 
BRANCH   3   4
ATOM      4  C   UNL     1      -9.602  25.893  19.797  1.00  0.00     0.000 C 
BRANCH   4   5
ATOM      5  C   UNL     1     -10.823  25.902  18.862  1.00  0.00     0.000 C 
BRANCH   5   6
ATOM      6  C   UNL     1     -11.119  24.518  18.262  1.00  0.00     0.000 C 
BRANCH   6   7
ATOM      7  C   UNL     1     -10.251  23.407  18.876  1.00  0.00     0.006 C 
BRANCH   7   8
ATOM      8  C   UNL     1     -11.122  22.331  19.531  1.00  0.00     0.053 C 
BRANCH   8   9
ATOM      9  C   UNL     1     -10.639  22.035  20.916  1.00  0.00     0.041 C 
ATOM     10  O   UNL     1      -9.892  21.043  21.126  1.00  0.00    -0.550 OA
ATOM     11  O   UNL     1     -10.984  22.874  21.969  1.00  0.00    -0.550 OA
ENDBRANCH   8   9
ENDBRANCH   7   8
ENDBRANCH   6   7
ENDBRANCH   5   6
ENDBRANCH   4   5
ENDBRANCH   3   4
ENDBRANCH   2   3
ENDBRANCH   1   2
BRANCH   1  12
ATOM     12  C   UNL     1      -7.139  25.999  23.825  1.00  0.00     0.000 C 
BRANCH  12  13
ATOM     13  C   UNL     1      -8.130  26.493  24.896  1.00  0.00    -0.000 C 
BRANCH  13  14
ATOM     14  C   UNL     1      -9.266  25.491  25.166  1.00  0.00    -0.000 C 
BRANCH  14  15
ATOM     15  C   UNL     1     -10.142  25.904  26.360  1.00  0.00    -0.000 C 
BRANCH  15  16
ATOM     16  C   UNL     1      -9.893  27.357  26.800  1.00  0.00    -0.000 C 
BRANCH  16  17
ATOM     17  C   UNL     1     -11.042  28.303  26.409  1.00  0.00    -0.000 C 
BRANCH  17  18
ATOM     18  C   UNL     1     -11.024  28.721  24.923  1.00  0.00    -0.000 C 
BRANCH  18  19
ATOM     19  C   UNL     1     -10.363  30.092  24.714  1.00  0.00    -0.003 C 
ATOM     20  C   UNL     1      -8.969  29.944  24.108  1.00  0.00     0.004 C 
ENDBRANCH  18  19
ENDBRANCH  17  18
ENDBRANCH  16  17
ENDBRANCH  15  16
ENDBRANCH  14  15
ENDBRANCH  13  14
ENDBRANCH  12  13
ENDBRANCH   1  12
TORSDOF 16
ENDMDL
MODEL 4
REMARK VINA RESULT:    -3.763      1.860      6.319
REMARK INTER + INTRA:          -9.273
REMARK INTER:                  -7.106
REMARK INTRA:                  -2.167
REMARK UNBOUND:                -1.991
REMARK SMILES CCCCCCCCCCCCCCCCCC(=O)[O-]
REMARK SMILES IDX 10 1 11 2 12 3 13 4 14 5 15 6 16 7 17 8 18 9 19 10 20 11
REMARK SMILES IDX 9 12 8 13 7 14 6 15 5 16 4 17 3 18 2 19 1 20
REMARK H PARENT
REMARK Flexibility Score: inf
ROOT
ATOM      1  C   UNL     1      -7.687  25.500  22.817  1.00  0.00     0.000 C 
ENDROOT
BRANCH   1   2
ATOM      2  C   UNL     1      -7.981  24.505  21.678  1.00  0.00     0.000 C 
BRANCH   2   3
ATOM      3  C   UNL     1      -8.433  23.104  22.136  1.00  0.00     0.000 C 
BRANCH   3   4
ATOM      4  C   UNL     1      -9.827  23.048  22.786  1.00  0.00     0.000 C 
BRANCH   4   5
ATOM      5  C   UNL     1     -10.951  22.799  21.767  1.00  0.00     0.000 C 
BRANCH   5   6
ATOM      6  C   UNL     1     -10.468  22.023  20.530  1.00  0.00     0.000 C 
BRANCH   6   7
ATOM      7  C   UNL     1     -11.100  22.533  19.225  1.00  0.00     0.006 C 
BRANCH   7   8
ATOM      8  C   UNL     1     -11.125  24.064  19.191  1.00  0.00     0.053 C 
BRANCH   8   9
ATOM      9  C   UNL     1     -10.163  24.583  18.170  1.00  0.00     0.041 C 
ATOM     10  O   UNL     1     -10.567  25.339  17.247  1.00  0.00    -0.550 OA
ATOM     11  O   UNL     1      -8.813  24.263  18.257  1.00  0.00    -0.550 OA
ENDBRANCH   8   9
ENDBRANCH   7   8
ENDBRANCH   6   7
ENDBRANCH   5   6
ENDBRANCH   4   5
ENDBRANCH   3   4
ENDBRANCH   2   3
ENDBRANCH   1   2
BRANCH   1  12
ATOM     12  C   UNL     1      -8.620  26.727  22.871  1.00  0.00     0.000 C 
BRANCH  12  13
ATOM     13  C   UNL     1      -9.954  26.566  22.117  1.00  0.00    -0.000 C 
BRANCH  13  14
ATOM     14  C   UNL     1     -10.681  27.904  21.896  1.00  0.00    -0.000 C 
BRANCH  14  15
ATOM     15  C   UNL     1     -10.003  29.070  22.634  1.00  0.00    -0.000 C 
BRANCH  15  16
ATOM     16  C   UNL     1     -10.938  29.749  23.650  1.00  0.00    -0.000 C 
BRANCH  16  17
ATOM     17  C   UNL     1     -10.659  29.314  25.100  1.00  0.00    -0.000 C 
BRANCH  17  18
ATOM     18  C   UNL     1     -11.124  27.878  25.418  1.00  0.00    -0.000 C 
BRANCH  18  19
ATOM     19  C   UNL     1     -10.324  27.248  26.568  1.00  0.00    -0.003 C 
ATOM     20  C   UNL     1      -9.777  25.878  26.173  1.00  0.00     0.004 C 
ENDBRANCH  18  19
ENDBRANCH  17  18
ENDBRANCH  16  17
ENDBRANCH  15  16
ENDBRANCH  14  15
ENDBRANCH  13  14
ENDBRANCH  12  13
ENDBRANCH   1  12
TORSDOF 16
ENDMDL
MODEL 5
REMARK VINA RESULT:    -3.674      1.551      5.852
REMARK INTER + INTRA:          -9.102
REMARK INTER:                  -7.410
REMARK INTRA:                  -1.692
REMARK UNBOUND:                -1.991
REMARK SMILES CCCCCCCCCCCCCCCCCC(=O)[O-]
REMARK SMILES IDX 10 1 11 2 12 3 13 4 14 5 15 6 16 7 17 8 18 9 19 10 20 11
REMARK SMILES IDX 9 12 8 13 7 14 6 15 5 16 4 17 3 18 2 19 1 20
REMARK H PARENT
REMARK Flexibility Score: inf
ROOT
ATOM      1  C   UNL     1      -7.430  26.422  24.707  1.00  0.00     0.000 C 
ENDROOT
BRANCH   1   2
ATOM      2  C   UNL     1      -8.027  26.351  23.287  1.00  0.00     0.000 C 
BRANCH   2   3
ATOM      3  C   UNL     1      -7.193  25.549  22.268  1.00  0.00     0.000 C 
BRANCH   3   4
ATOM      4  C   UNL     1      -7.971  24.468  21.496  1.00  0.00     0.000 C 
BRANCH   4   5
ATOM      5  C   UNL     1      -9.163  23.909  22.289  1.00  0.00     0.000 C 
BRANCH   5   6
ATOM      6  C   UNL     1      -9.928  22.819  21.521  1.00  0.00     0.000 C 
BRANCH   6   7
ATOM      7  C   UNL     1     -11.106  23.381  20.708  1.00  0.00     0.006 C 
BRANCH   7   8
ATOM      8  C   UNL     1     -10.758  23.453  19.218  1.00  0.00     0.053 C 
BRANCH   8   9
ATOM      9  C   UNL     1     -10.504  24.868  18.805  1.00  0.00     0.041 C 
ATOM     10  O   UNL     1      -9.955  25.114  17.699  1.00  0.00    -0.550 OA
ATOM     11  O   UNL     1     -10.906  25.916  19.624  1.00  0.00    -0.550 OA
ENDBRANCH   8   9
ENDBRANCH   7   8
ENDBRANCH   6   7
ENDBRANCH   5   6
ENDBRANCH   4   5
ENDBRANCH   3   4
ENDBRANCH   2   3
ENDBRANCH   1   2
BRANCH   1  12
ATOM     12  C   UNL     1      -8.438  26.763  25.823  1.00  0.00     0.000 C 
BRANCH  12  13
ATOM     13  C   UNL     1      -9.381  25.613  26.225  1.00  0.00    -0.000 C 
BRANCH  13  14
ATOM     14  C   UNL     1     -10.867  26.004  26.151  1.00  0.00    -0.000 C 
BRANCH  14  15
ATOM     15  C   UNL     1     -11.125  27.148  25.157  1.00  0.00    -0.000 C 
BRANCH  15  16
ATOM     16  C   UNL     1     -11.039  28.535  25.818  1.00  0.00    -0.000 C 
BRANCH  16  17
ATOM     17  C   UNL     1     -10.903  29.675  24.793  1.00  0.00    -0.000 C 
BRANCH  17  18
ATOM     18  C   UNL     1      -9.536  29.709  24.078  1.00  0.00    -0.000 C 
BRANCH  18  19
ATOM     19  C   UNL     1      -9.679  29.713  22.549  1.00  0.00    -0.003 C 
ATOM     20  C   UNL     1     -11.091  29.311  22.127  1.00  0.00     0.004 C 
ENDBRANCH  18  19
ENDBRANCH  17  18
ENDBRANCH  16  17
ENDBRANCH  15  16
ENDBRANCH  14  15
ENDBRANCH  13  14
ENDBRANCH  12  13
ENDBRANCH   1  12
TORSDOF 16
ENDMDL
MODEL 6
REMARK VINA RESULT:    -3.595      2.159      7.035
REMARK INTER + INTRA:          -8.947
REMARK INTER:                  -7.441
REMARK INTRA:                  -1.506
REMARK UNBOUND:                -1.991
REMARK SMILES CCCCCCCCCCCCCCCCCC(=O)[O-]
REMARK SMILES IDX 10 1 11 2 12 3 13 4 14 5 15 6 16 7 17 8 18 9 19 10 20 11
REMARK SMILES IDX 9 12 8 13 7 14 6 15 5 16 4 17 3 18 2 19 1 20
REMARK H PARENT
REMARK Flexibility Score: inf
ROOT
ATOM      1  C   UNL     1      -9.423  27.095  21.501  1.00  0.00     0.000 C 
ENDROOT
BRANCH   1   2
ATOM      2  C   UNL     1      -9.000  26.205  20.316  1.00  0.00     0.000 C 
BRANCH   2   3
ATOM      3  C   UNL     1     -10.140  25.812  19.356  1.00  0.00     0.000 C 
BRANCH   3   4
ATOM      4  C   UNL     1     -10.007  24.416  18.720  1.00  0.00     0.000 C 
BRANCH   4   5
ATOM      5  C   UNL     1     -11.114  23.448  19.170  1.00  0.00     0.000 C 
BRANCH   5   6
ATOM      6  C   UNL     1     -10.774  21.979  18.867  1.00  0.00     0.000 C 
BRANCH   6   7
ATOM      7  C   UNL     1     -11.104  21.040  20.039  1.00  0.00     0.006 C 
BRANCH   7   8
ATOM      8  C   UNL     1      -9.927  20.948  21.014  1.00  0.00     0.053 C 
BRANCH   8   9
ATOM      9  C   UNL     1      -9.805  22.206  21.813  1.00  0.00     0.041 C 
ATOM     10  O   UNL     1     -10.802  22.662  22.432  1.00  0.00    -0.550 OA
ATOM     11  O   UNL     1      -8.581  22.858  21.904  1.00  0.00    -0.550 OA
ENDBRANCH   8   9
ENDBRANCH   7   8
ENDBRANCH   6   7
ENDBRANCH   5   6
ENDBRANCH   4   5
ENDBRANCH   3   4
ENDBRANCH   2   3
ENDBRANCH   1   2
BRANCH   1  12
ATOM     12  C   UNL     1     -10.538  28.114  21.188  1.00  0.00     0.000 C 
BRANCH  12  13
ATOM     13  C   UNL     1     -10.386  29.481  21.881  1.00  0.00    -0.000 C 
BRANCH  13  14
ATOM     14  C   UNL     1      -9.421  29.441  23.079  1.00  0.00    -0.000 C 
BRANCH  14  15
ATOM     15  C   UNL     1     -10.110  29.818  24.400  1.00  0.00    -0.000 C 
BRANCH  15  16
ATOM     16  C   UNL     1     -11.125  28.758  24.860  1.00  0.00    -0.000 C 
BRANCH  16  17
ATOM     17  C   UNL     1     -10.501  27.697  25.784  1.00  0.00    -0.000 C 
BRANCH  17  18
ATOM     18  C   UNL     1     -10.150  26.376  25.066  1.00  0.00    -0.000 C 
BRANCH  18  19
ATOM     19  C   UNL     1      -8.728  25.898  25.391  1.00  0.00    -0.003 C 
ATOM     20  C   UNL     1      -7.682  26.780  24.713  1.00  0.00     0.004 C 
ENDBRANCH  18  19
ENDBRANCH  17  18
ENDBRANCH  16  17
ENDBRANCH  15  16
ENDBRANCH  14  15
ENDBRANCH  13  14
ENDBRANCH  12  13
ENDBRANCH   1  12
TORSDOF 16
ENDMDL
MODEL 7
REMARK VINA RESULT:    -3.174      2.524      6.587
REMARK INTER + INTRA:          -8.134
REMARK INTER:                  -6.471
REMARK INTRA:                  -1.663
REMARK UNBOUND:                -1.991
REMARK SMILES CCCCCCCCCCCCCCCCCC(=O)[O-]
REMARK SMILES IDX 10 1 11 2 12 3 13 4 14 5 15 6 16 7 17 8 18 9 19 10 20 11
REMARK SMILES IDX 9 12 8 13 7 14 6 15 5 16 4 17 3 18 2 19 1 20
REMARK H PARENT
REMARK Flexibility Score: inf
ROOT
ATOM      1  C   UNL     1      -9.249  29.209  23.364  1.00  0.00     0.000 C 
ENDROOT
BRANCH   1   2
ATOM      2  C   UNL     1     -10.264  28.195  22.800  1.00  0.00     0.000 C 
BRANCH   2   3
ATOM      3  C   UNL     1     -10.455  28.244  21.271  1.00  0.00     0.000 C 
BRANCH   3   4
ATOM      4  C   UNL     1      -9.946  27.007  20.509  1.00  0.00     0.000 C 
BRANCH   4   5
ATOM      5  C   UNL     1     -10.999  26.419  19.555  1.00  0.00     0.000 C 
BRANCH   5   6
ATOM      6  C   UNL     1     -10.990  24.882  19.538  1.00  0.00     0.000 C 
BRANCH   6   7
ATOM      7  C   UNL     1      -9.924  24.285  20.471  1.00  0.00     0.006 C 
BRANCH   7   8
ATOM      8  C   UNL     1     -10.483  23.088  21.245  1.00  0.00     0.053 C 
BRANCH   8   9
ATOM      9  C   UNL     1     -10.373  21.837  20.432  1.00  0.00     0.041 C 
ATOM     10  O   UNL     1     -10.066  20.748  20.984  1.00  0.00    -0.550 OA
ATOM     11  O   UNL     1     -10.646  21.866  19.069  1.00  0.00    -0.550 OA
ENDBRANCH   8   9
ENDBRANCH   7   8
ENDBRANCH   6   7
ENDBRANCH   5   6
ENDBRANCH   4   5
ENDBRANCH   3   4
ENDBRANCH   2   3
ENDBRANCH   1   2
BRANCH   1  12
ATOM     12  C   UNL     1      -9.865  30.371  24.170  1.00  0.00     0.000 C 
BRANCH  12  13
ATOM     13  C   UNL     1     -11.125  30.008  24.979  1.00  0.00    -0.000 C 
BRANCH  13  14
ATOM     14  C   UNL     1     -10.798  29.404  26.355  1.00  0.00    -0.000 C 
BRANCH  14  15
ATOM     15  C   UNL     1     -11.042  27.887  26.404  1.00  0.00    -0.000 C 
BRANCH  15  16
ATOM     16  C   UNL     1      -9.734  27.080  26.471  1.00  0.00    -0.000 C 
BRANCH  16  17
ATOM     17  C   UNL     1      -9.897  25.637  25.960  1.00  0.00    -0.000 C 
BRANCH  17  18
ATOM     18  C   UNL     1      -8.700  25.135  25.125  1.00  0.00    -0.000 C 
BRANCH  18  19
ATOM     19  C   UNL     1      -7.817  26.288  24.624  1.00  0.00    -0.003 C 
ATOM     20  C   UNL     1      -7.311  26.019  23.209  1.00  0.00     0.004 C 
ENDBRANCH  18  19
ENDBRANCH  17  18
ENDBRANCH  16  17
ENDBRANCH  15  16
ENDBRANCH  14  15
ENDBRANCH  13  14
ENDBRANCH  12  13
ENDBRANCH   1  12
TORSDOF 16
ENDMDL
