MODEL 1
REMARK VINA RESULT:    -3.106      0.000      0.000
REMARK INTER + INTRA:          -6.772
REMARK INTER:                  -5.830
REMARK INTRA:                  -0.942
REMARK UNBOUND:                -0.942
REMARK SMILES O=C([O-])CCCCCCCCCCCCCCC(=O)[O-]
REMARK SMILES IDX 10 1 9 2 8 3 7 4 6 5 5 6 4 7 2 8 1 9 3 10 11 11 12 12 13 13
REMARK SMILES IDX 14 14 15 15 16 16 17 17 18 18 19 19 20 20
REMARK H PARENT
REMARK Flexibility Score: inf
ROOT
ATOM      1  C   UNL     1       4.777 -34.289  21.737  1.00  0.00     0.000 C 
ENDROOT
BRANCH   1   2
ATOM      2  C   UNL     1       6.065 -34.804  21.082  1.00  0.00     0.000 C 
BRANCH   2   3
ATOM      3  C   UNL     1       5.840 -35.351  19.660  1.00  0.00     0.000 C 
BRANCH   3   4
ATOM      4  C   UNL     1       4.991 -36.633  19.587  1.00  0.00     0.000 C 
BRANCH   4   5
ATOM      5  C   UNL     1       3.640 -36.414  18.884  1.00  0.00     0.000 C 
BRANCH   5   6
ATOM      6  C   UNL     1       3.610 -37.005  17.466  1.00  0.00     0.006 C 
BRANCH   6   7
ATOM      7  C   UNL     1       2.930 -36.071  16.455  1.00  0.00     0.053 C 
BRANCH   7   8
ATOM      8  C   UNL     1       3.329 -36.433  15.059  1.00  0.00     0.041 C 
ATOM      9  O   UNL     1       2.982 -35.704  14.093  1.00  0.00    -0.550 OA
ATOM     10  O   UNL     1       4.039 -37.602  14.819  1.00  0.00    -0.550 OA
ENDBRANCH   7   8
ENDBRANCH   6   7
ENDBRANCH   5   6
ENDBRANCH   4   5
ENDBRANCH   3   4
ENDBRANCH   2   3
ENDBRANCH   1   2
BRANCH   1  11
ATOM     11  C   UNL     1       4.953 -34.144  23.257  1.00  0.00     0.000 C 
BRANCH  11  12
ATOM     12  C   UNL     1       6.124 -34.978  23.807  1.00  0.00     0.000 C 
BRANCH  12  13
ATOM     13  C   UNL     1       5.994 -35.395  25.283  1.00  0.00     0.000 C 
BRANCH  13  14
ATOM     14  C   UNL     1       4.872 -36.420  25.519  1.00  0.00     0.000 C 
BRANCH  14  15
ATOM     15  C   UNL     1       5.409 -37.798  25.941  1.00  0.00     0.000 C 
BRANCH  15  16
ATOM     16  C   UNL     1       5.143 -38.887  24.889  1.00  0.00     0.006 C 
BRANCH  16  17
ATOM     17  C   UNL     1       5.407 -38.357  23.476  1.00  0.00     0.053 C 
BRANCH  17  18
ATOM     18  C   UNL     1       5.775 -39.478  22.556  1.00  0.00     0.041 C 
ATOM     19  O   UNL     1       6.035 -39.246  21.346  1.00  0.00    -0.550 OA
ATOM     20  O   UNL     1       5.782 -40.787  23.023  1.00  0.00    -0.550 OA
ENDBRANCH  17  18
ENDBRANCH  16  17
ENDBRANCH  15  16
ENDBRANCH  14  15
ENDBRANCH  13  14
ENDBRANCH  12  13
ENDBRANCH  11  12
ENDBRANCH   1  11
TORSDOF 15
ENDMDL
MODEL 2
REMARK VINA RESULT:    -2.997      0.938      7.135
REMARK INTER + INTRA:          -6.567
REMARK INTER:                  -5.825
REMARK INTRA:                  -0.742
REMARK UNBOUND:                -0.942
REMARK SMILES O=C([O-])CCCCCCCCCCCCCCC(=O)[O-]
REMARK SMILES IDX 10 1 9 2 8 3 7 4 6 5 5 6 4 7 2 8 1 9 3 10 11 11 12 12 13 13
REMARK SMILES IDX 14 14 15 15 16 16 17 17 18 18 19 19 20 20
REMARK H PARENT
REMARK Flexibility Score: inf
ROOT
ATOM      1  C   UNL     1       5.358 -35.179  22.742  1.00  0.00     0.000 C 
ENDROOT
BRANCH   1   2
ATOM      2  C   UNL     1       6.032 -34.865  24.085  1.00  0.00     0.000 C 
BRANCH   2   3
ATOM      3  C   UNL     1       5.280 -35.459  25.289  1.00  0.00     0.000 C 
BRANCH   3   4
ATOM      4  C   UNL     1       6.089 -36.465  26.127  1.00  0.00     0.000 C 
BRANCH   4   5
ATOM      5  C   UNL     1       5.657 -37.923  25.890  1.00  0.00     0.000 C 
BRANCH   5   6
ATOM      6  C   UNL     1       5.077 -38.146  24.485  1.00  0.00     0.006 C 
BRANCH   6   7
ATOM      7  C   UNL     1       5.375 -39.550  23.942  1.00  0.00     0.053 C 
BRANCH   7   8
ATOM      8  C   UNL     1       5.765 -39.481  22.499  1.00  0.00     0.041 C 
ATOM      9  O   UNL     1       5.752 -38.377  21.893  1.00  0.00    -0.550 OA
ATOM     10  O   UNL     1       6.091 -40.642  21.810  1.00  0.00    -0.550 OA
ENDBRANCH   7   8
ENDBRANCH   6   7
ENDBRANCH   5   6
ENDBRANCH   4   5
ENDBRANCH   3   4
ENDBRANCH   2   3
ENDBRANCH   1   2
BRANCH   1  11
ATOM     11  C   UNL     1       6.098 -34.496  21.582  1.00  0.00     0.000 C 
BRANCH  11  12
ATOM     12  C   UNL     1       5.423 -34.731  20.218  1.00  0.00     0.000 C 
BRANCH  12  13
ATOM     13  C   UNL     1       4.269 -35.749  20.225  1.00  0.00     0.000 C 
BRANCH  13  14
ATOM     14  C   UNL     1       4.223 -36.611  18.953  1.00  0.00     0.000 C 
BRANCH  14  15
ATOM     15  C   UNL     1       2.787 -36.952  18.522  1.00  0.00     0.000 C 
BRANCH  15  16
ATOM     16  C   UNL     1       2.473 -36.496  17.088  1.00  0.00     0.006 C 
BRANCH  16  17
ATOM     17  C   UNL     1       3.762 -36.318  16.278  1.00  0.00     0.053 C 
BRANCH  17  18
ATOM     18  C   UNL     1       3.448 -36.154  14.824  1.00  0.00     0.041 C 
ATOM     19  O   UNL     1       4.262 -36.554  13.951  1.00  0.00    -0.550 OA
ATOM     20  O   UNL     1       2.279 -35.513  14.433  1.00  0.00    -0.550 OA
ENDBRANCH  17  18
ENDBRANCH  16  17
ENDBRANCH  15  16
ENDBRANCH  14  15
ENDBRANCH  13  14
ENDBRANCH  12  13
ENDBRANCH  11  12
ENDBRANCH   1  11
TORSDOF 15
ENDMDL
MODEL 3
REMARK VINA RESULT:    -1.303      2.151      3.631
REMARK INTER + INTRA:          -3.388
REMARK INTER:                  -5.357
REMARK INTRA:                   1.969
REMARK UNBOUND:                -0.942
REMARK SMILES O=C([O-])CCCCCCCCCCCCCCC(=O)[O-]
REMARK SMILES IDX 10 1 9 2 8 3 7 4 6 5 5 6 4 7 2 8 1 9 3 10 11 11 12 12 13 13
REMARK SMILES IDX 14 14 15 15 16 16 17 17 18 18 19 19 20 20
REMARK H PARENT
REMARK Flexibility Score: inf
ROOT
ATOM      1  C   UNL     1       4.024 -36.988  20.189  1.00  0.00     0.000 C 
ENDROOT
BRANCH   1   2
ATOM      2  C   UNL     1       3.163 -36.917  18.920  1.00  0.00     0.000 C 
BRANCH   2   3
ATOM      3  C   UNL     1       1.686 -37.269  19.176  1.00  0.00     0.000 C 
BRANCH   3   4
ATOM      4  C   UNL     1       0.718 -36.857  18.052  1.00  0.00     0.000 C 
BRANCH   4   5
ATOM      5  C   UNL     1       1.446 -36.377  16.784  1.00  0.00     0.000 C 
BRANCH   5   6
ATOM      6  C   UNL     1       2.973 -36.492  16.900  1.00  0.00     0.006 C 
BRANCH   6   7
ATOM      7  C   UNL     1       3.607 -37.155  15.669  1.00  0.00     0.053 C 
BRANCH   7   8
ATOM      8  C   UNL     1       3.692 -36.181  14.537  1.00  0.00     0.041 C 
ATOM      9  O   UNL     1       4.758 -36.071  13.875  1.00  0.00    -0.550 OA
ATOM     10  O   UNL     1       2.612 -35.357  14.245  1.00  0.00    -0.550 OA
ENDBRANCH   7   8
ENDBRANCH   6   7
ENDBRANCH   5   6
ENDBRANCH   4   5
ENDBRANCH   3   4
ENDBRANCH   2   3
ENDBRANCH   1   2
BRANCH   1  11
ATOM     11  C   UNL     1       5.424 -36.408  19.935  1.00  0.00     0.000 C 
BRANCH  11  12
ATOM     12  C   UNL     1       5.747 -35.204  20.838  1.00  0.00     0.000 C 
BRANCH  12  13
ATOM     13  C   UNL     1       4.523 -34.432  21.363  1.00  0.00     0.000 C 
BRANCH  13  14
ATOM     14  C   UNL     1       4.706 -33.927  22.804  1.00  0.00     0.000 C 
BRANCH  14  15
ATOM     15  C   UNL     1       5.982 -34.475  23.465  1.00  0.00     0.000 C 
BRANCH  15  16
ATOM     16  C   UNL     1       5.733 -35.010  24.884  1.00  0.00     0.006 C 
BRANCH  16  17
ATOM     17  C   UNL     1       6.092 -36.497  24.978  1.00  0.00     0.053 C 
BRANCH  17  18
ATOM     18  C   UNL     1       5.297 -37.161  26.057  1.00  0.00     0.041 C 
ATOM     19  O   UNL     1       4.056 -36.963  26.143  1.00  0.00    -0.550 OA
ATOM     20  O   UNL     1       5.933 -37.959  27.000  1.00  0.00    -0.550 OA
ENDBRANCH  17  18
ENDBRANCH  16  17
ENDBRANCH  15  16
ENDBRANCH  14  15
ENDBRANCH  13  14
ENDBRANCH  12  13
ENDBRANCH  11  12
ENDBRANCH   1  11
TORSDOF 15
ENDMDL
MODEL 4
REMARK VINA RESULT:    -1.164      2.137      8.010
REMARK INTER + INTRA:          -3.127
REMARK INTER:                  -1.927
REMARK INTRA:                  -1.200
REMARK UNBOUND:                -0.942
REMARK SMILES O=C([O-])CCCCCCCCCCCCCCC(=O)[O-]
REMARK SMILES IDX 10 1 9 2 8 3 7 4 6 5 5 6 4 7 2 8 1 9 3 10 11 11 12 12 13 13
REMARK SMILES IDX 14 14 15 15 16 16 17 17 18 18 19 19 20 20
REMARK H PARENT
REMARK Flexibility Score: inf
ROOT
ATOM      1  C   UNL     1       5.917 -34.683  20.627  1.00  0.00     0.000 C 
ENDROOT
BRANCH   1   2
ATOM      2  C   UNL     1       4.451 -34.975  20.977  1.00  0.00     0.000 C 
BRANCH   2   3
ATOM      3  C   UNL     1       4.118 -36.478  20.965  1.00  0.00     0.000 C 
BRANCH   3   4
ATOM      4  C   UNL     1       5.321 -37.406  20.719  1.00  0.00     0.000 C 
BRANCH   4   5
ATOM      5  C   UNL     1       5.722 -38.209  21.970  1.00  0.00     0.000 C 
BRANCH   5   6
ATOM      6  C   UNL     1       5.731 -37.351  23.244  1.00  0.00     0.006 C 
BRANCH   6   7
ATOM      7  C   UNL     1       5.219 -38.117  24.472  1.00  0.00     0.053 C 
BRANCH   7   8
ATOM      8  C   UNL     1       5.279 -37.250  25.690  1.00  0.00     0.041 C 
ATOM      9  O   UNL     1       4.769 -36.099  25.673  1.00  0.00    -0.550 OA
ATOM     10  O   UNL     1       5.942 -37.693  26.828  1.00  0.00    -0.550 OA
ENDBRANCH   7   8
ENDBRANCH   6   7
ENDBRANCH   5   6
ENDBRANCH   4   5
ENDBRANCH   3   4
ENDBRANCH   2   3
ENDBRANCH   1   2
BRANCH   1  11
ATOM     11  C   UNL     1       6.125 -34.657  19.105  1.00  0.00     0.000 C 
BRANCH  11  12
ATOM     12  C   UNL     1       5.064 -33.819  18.369  1.00  0.00     0.000 C 
BRANCH  12  13
ATOM     13  C   UNL     1       4.473 -34.473  17.107  1.00  0.00     0.000 C 
BRANCH  13  14
ATOM     14  C   UNL     1       3.872 -35.863  17.379  1.00  0.00     0.000 C 
BRANCH  14  15
ATOM     15  C   UNL     1       2.570 -36.106  16.597  1.00  0.00     0.000 C 
BRANCH  15  16
ATOM     16  C   UNL     1       2.578 -35.442  15.211  1.00  0.00     0.006 C 
BRANCH  16  17
ATOM     17  C   UNL     1       2.779 -36.486  14.107  1.00  0.00     0.053 C 
BRANCH  17  18
ATOM     18  C   UNL     1       4.203 -36.944  14.073  1.00  0.00     0.041 C 
ATOM     19  O   UNL     1       4.484 -38.155  14.269  1.00  0.00    -0.550 OA
ATOM     20  O   UNL     1       5.226 -36.024  13.875  1.00  0.00    -0.550 OA
ENDBRANCH  17  18
ENDBRANCH  16  17
ENDBRANCH  15  16
ENDBRANCH  14  15
ENDBRANCH  13  14
ENDBRANCH  12  13
ENDBRANCH  11  12
ENDBRANCH   1  11
TORSDOF 15
ENDMDL
MODEL 5
REMARK VINA RESULT:    -1.046      2.641      7.518
REMARK INTER + INTRA:          -2.904
REMARK INTER:                  -1.950
REMARK INTRA:                  -0.954
REMARK UNBOUND:                -0.942
REMARK SMILES O=C([O-])CCCCCCCCCCCCCCC(=O)[O-]
REMARK SMILES IDX 10 1 9 2 8 3 7 4 6 5 5 6 4 7 2 8 1 9 3 10 11 11 12 12 13 13
REMARK SMILES IDX 14 14 15 15 16 16 17 17 18 18 19 19 20 20
REMARK H PARENT
REMARK Flexibility Score: inf
ROOT
ATOM      1  C   UNL     1       4.877 -35.681  20.202  1.00  0.00     0.000 C 
ENDROOT
BRANCH   1   2
ATOM      2  C   UNL     1       5.360 -37.124  19.999  1.00  0.00     0.000 C 
BRANCH   2   3
ATOM      3  C   UNL     1       6.095 -37.690  21.227  1.00  0.00     0.000 C 
BRANCH   3   4
ATOM      4  C   UNL     1       6.021 -39.221  21.378  1.00  0.00     0.000 C 
BRANCH   4   5
ATOM      5  C   UNL     1       5.656 -39.663  22.806  1.00  0.00     0.000 C 
BRANCH   5   6
ATOM      6  C   UNL     1       5.017 -38.534  23.629  1.00  0.00     0.006 C 
BRANCH   6   7
ATOM      7  C   UNL     1       5.321 -38.656  25.128  1.00  0.00     0.053 C 
BRANCH   7   8
ATOM      8  C   UNL     1       5.645 -37.313  25.705  1.00  0.00     0.041 C 
ATOM      9  O   UNL     1       6.125 -37.223  26.866  1.00  0.00    -0.550 OA
ATOM     10  O   UNL     1       5.368 -36.160  24.983  1.00  0.00    -0.550 OA
ENDBRANCH   7   8
ENDBRANCH   6   7
ENDBRANCH   5   6
ENDBRANCH   4   5
ENDBRANCH   3   4
ENDBRANCH   2   3
ENDBRANCH   1   2
BRANCH   1  11
ATOM     11  C   UNL     1       6.042 -34.688  20.075  1.00  0.00     0.000 C 
BRANCH  11  12
ATOM     12  C   UNL     1       6.014 -33.895  18.754  1.00  0.00     0.000 C 
BRANCH  12  13
ATOM     13  C   UNL     1       4.659 -33.889  18.024  1.00  0.00     0.000 C 
BRANCH  13  14
ATOM     14  C   UNL     1       4.531 -35.020  16.989  1.00  0.00     0.000 C 
BRANCH  14  15
ATOM     15  C   UNL     1       3.258 -34.898  16.135  1.00  0.00     0.000 C 
BRANCH  15  16
ATOM     16  C   UNL     1       2.254 -36.031  16.401  1.00  0.00     0.006 C 
BRANCH  16  17
ATOM     17  C   UNL     1       2.695 -36.881  17.598  1.00  0.00     0.053 C 
BRANCH  17  18
ATOM     18  C   UNL     1       1.566 -37.049  18.565  1.00  0.00     0.041 C 
ATOM     19  O   UNL     1       0.419 -37.365  18.151  1.00  0.00    -0.550 OA
ATOM     20  O   UNL     1       1.767 -36.808  19.918  1.00  0.00    -0.550 OA
ENDBRANCH  17  18
ENDBRANCH  16  17
ENDBRANCH  15  16
ENDBRANCH  14  15
ENDBRANCH  13  14
ENDBRANCH  12  13
ENDBRANCH  11  12
ENDBRANCH   1  11
TORSDOF 15
ENDMDL
MODEL 6
REMARK VINA RESULT:    -0.989      2.479      7.817
REMARK INTER + INTRA:          -2.799
REMARK INTER:                  -2.691
REMARK INTRA:                  -0.107
REMARK UNBOUND:                -0.942
REMARK SMILES O=C([O-])CCCCCCCCCCCCCCC(=O)[O-]
REMARK SMILES IDX 10 1 9 2 8 3 7 4 6 5 5 6 4 7 2 8 1 9 3 10 11 11 12 12 13 13
REMARK SMILES IDX 14 14 15 15 16 16 17 17 18 18 19 19 20 20
REMARK H PARENT
REMARK Flexibility Score: inf
ROOT
ATOM      1  C   UNL     1       5.614 -34.031  19.678  1.00  0.00     0.000 C 
ENDROOT
BRANCH   1   2
ATOM      2  C   UNL     1       5.129 -35.478  19.842  1.00  0.00     0.000 C 
BRANCH   2   3
ATOM      3  C   UNL     1       5.295 -36.010  21.277  1.00  0.00     0.000 C 
BRANCH   3   4
ATOM      4  C   UNL     1       6.125 -35.109  22.209  1.00  0.00     0.000 C 
BRANCH   4   5
ATOM      5  C   UNL     1       5.324 -34.609  23.425  1.00  0.00     0.000 C 
BRANCH   5   6
ATOM      6  C   UNL     1       6.027 -34.906  24.758  1.00  0.00     0.006 C 
BRANCH   6   7
ATOM      7  C   UNL     1       5.144 -35.710  25.721  1.00  0.00     0.053 C 
BRANCH   7   8
ATOM      8  C   UNL     1       5.414 -37.175  25.578  1.00  0.00     0.041 C 
ATOM      9  O   UNL     1       5.706 -37.658  24.452  1.00  0.00    -0.550 OA
ATOM     10  O   UNL     1       5.293 -38.016  26.677  1.00  0.00    -0.550 OA
ENDBRANCH   7   8
ENDBRANCH   6   7
ENDBRANCH   5   6
ENDBRANCH   4   5
ENDBRANCH   3   4
ENDBRANCH   2   3
ENDBRANCH   1   2
BRANCH   1  11
ATOM     11  C   UNL     1       5.478 -33.567  18.220  1.00  0.00     0.000 C 
BRANCH  11  12
ATOM     12  C   UNL     1       5.062 -34.702  17.265  1.00  0.00     0.000 C 
BRANCH  12  13
ATOM     13  C   UNL     1       3.722 -34.488  16.540  1.00  0.00     0.000 C 
BRANCH  13  14
ATOM     14  C   UNL     1       3.620 -35.280  15.225  1.00  0.00     0.000 C 
BRANCH  14  15
ATOM     15  C   UNL     1       2.326 -36.106  15.132  1.00  0.00     0.000 C 
BRANCH  15  16
ATOM     16  C   UNL     1       1.565 -36.170  16.466  1.00  0.00     0.006 C 
BRANCH  16  17
ATOM     17  C   UNL     1       2.434 -36.802  17.559  1.00  0.00     0.053 C 
BRANCH  17  18
ATOM     18  C   UNL     1       1.612 -37.101  18.774  1.00  0.00     0.041 C 
ATOM     19  O   UNL     1       0.359 -37.186  18.686  1.00  0.00    -0.550 OA
ATOM     20  O   UNL     1       2.226 -37.234  20.013  1.00  0.00    -0.550 OA
ENDBRANCH  17  18
ENDBRANCH  16  17
ENDBRANCH  15  16
ENDBRANCH  14  15
ENDBRANCH  13  14
ENDBRANCH  12  13
ENDBRANCH  11  12
ENDBRANCH   1  11
TORSDOF 15
ENDMDL
