MODEL 1
REMARK VINA RESULT:     4.682      0.000      0.000
REMARK INTER + INTRA:           7.686
REMARK INTER:                   8.515
REMARK INTRA:                  -0.829
REMARK UNBOUND:                -0.829
REMARK SMILES CCCCCCCCCCCCCCCC(=O)[O-]
REMARK SMILES IDX 9 1 10 2 11 3 12 4 13 5 14 6 15 7 16 8 17 9 18 10 8 11 7 12
REMARK SMILES IDX 6 13 5 14 4 15 3 16 2 17 1 18
REMARK H PARENT
REMARK Flexibility Score: inf
ROOT
ATOM      1  C   UNL     1     -38.508  24.147   7.166  1.00  0.00     0.000 C 
ENDROOT
BRANCH   1   2
ATOM      2  C   UNL     1     -38.645  23.276   8.427  1.00  0.00     0.000 C 
BRANCH   2   3
ATOM      3  C   UNL     1     -40.074  23.287   8.998  1.00  0.00     0.000 C 
BRANCH   3   4
ATOM      4  C   UNL     1     -40.749  21.907   8.927  1.00  0.00     0.000 C 
BRANCH   4   5
ATOM      5  C   UNL     1     -41.920  21.864   7.928  1.00  0.00     0.000 C 
BRANCH   5   6
ATOM      6  C   UNL     1     -42.125  23.149   7.100  1.00  0.00     0.006 C 
BRANCH   6   7
ATOM      7  C   UNL     1     -41.411  23.151   5.738  1.00  0.00     0.053 C 
BRANCH   7   8
ATOM      8  C   UNL     1     -41.510  24.480   5.056  1.00  0.00     0.041 C 
ATOM      9  O   UNL     1     -41.913  25.490   5.690  1.00  0.00    -0.550 OA
ATOM     10  O   UNL     1     -41.122  24.611   3.727  1.00  0.00    -0.550 OA
ENDBRANCH   7   8
ENDBRANCH   6   7
ENDBRANCH   5   6
ENDBRANCH   4   5
ENDBRANCH   3   4
ENDBRANCH   2   3
ENDBRANCH   1   2
BRANCH   1  11
ATOM     11  C   UNL     1     -37.110  24.777   7.034  1.00  0.00     0.000 C 
BRANCH  11  12
ATOM     12  C   UNL     1     -37.114  26.287   7.328  1.00  0.00    -0.000 C 
BRANCH  12  13
ATOM     13  C   UNL     1     -35.698  26.864   7.515  1.00  0.00    -0.000 C 
BRANCH  13  14
ATOM     14  C   UNL     1     -34.593  25.820   7.760  1.00  0.00    -0.000 C 
BRANCH  14  15
ATOM     15  C   UNL     1     -33.906  25.982   9.124  1.00  0.00    -0.000 C 
BRANCH  15  16
ATOM     16  C   UNL     1     -32.460  25.476   9.075  1.00  0.00    -0.000 C 
BRANCH  16  17
ATOM     17  C   UNL     1     -32.155  24.809   7.729  1.00  0.00    -0.003 C 
ATOM     18  C   UNL     1     -30.782  25.223   7.208  1.00  0.00     0.004 C 
ENDBRANCH  16  17
ENDBRANCH  15  16
ENDBRANCH  14  15
ENDBRANCH  13  14
ENDBRANCH  12  13
ENDBRANCH  11  12
ENDBRANCH   1  11
TORSDOF 14
ENDMDL
MODEL 2
REMARK VINA RESULT:     4.986      3.490      7.899
REMARK INTER + INTRA:           8.237
REMARK INTER:                   9.110
REMARK INTRA:                  -0.873
REMARK UNBOUND:                -0.829
REMARK SMILES CCCCCCCCCCCCCCCC(=O)[O-]
REMARK SMILES IDX 9 1 10 2 11 3 12 4 13 5 14 6 15 7 16 8 17 9 18 10 8 11 7 12
REMARK SMILES IDX 6 13 5 14 4 15 3 16 2 17 1 18
REMARK H PARENT
REMARK Flexibility Score: inf
ROOT
ATOM      1  C   UNL     1     -38.556  23.335   8.263  1.00  0.00     0.000 C 
ENDROOT
BRANCH   1   2
ATOM      2  C   UNL     1     -38.260  24.148   6.990  1.00  0.00     0.000 C 
BRANCH   2   3
ATOM      3  C   UNL     1     -37.482  25.442   7.285  1.00  0.00     0.000 C 
BRANCH   3   4
ATOM      4  C   UNL     1     -36.166  25.533   6.494  1.00  0.00     0.000 C 
BRANCH   4   5
ATOM      5  C   UNL     1     -35.041  26.231   7.281  1.00  0.00     0.000 C 
BRANCH   5   6
ATOM      6  C   UNL     1     -34.556  25.480   8.538  1.00  0.00     0.006 C 
BRANCH   6   7
ATOM      7  C   UNL     1     -33.060  25.654   8.848  1.00  0.00     0.053 C 
BRANCH   7   8
ATOM      8  C   UNL     1     -32.197  24.892   7.890  1.00  0.00     0.041 C 
ATOM      9  O   UNL     1     -31.250  25.468   7.294  1.00  0.00    -0.550 OA
ATOM     10  O   UNL     1     -32.417  23.535   7.682  1.00  0.00    -0.550 OA
ENDBRANCH   7   8
ENDBRANCH   6   7
ENDBRANCH   5   6
ENDBRANCH   4   5
ENDBRANCH   3   4
ENDBRANCH   2   3
ENDBRANCH   1   2
BRANCH   1  11
ATOM     11  C   UNL     1     -39.521  22.166   8.003  1.00  0.00     0.000 C 
BRANCH  11  12
ATOM     12  C   UNL     1     -40.788  22.242   8.872  1.00  0.00    -0.000 C 
BRANCH  12  13
ATOM     13  C   UNL     1     -41.511  23.596   8.759  1.00  0.00    -0.000 C 
BRANCH  13  14
ATOM     14  C   UNL     1     -42.125  23.898   7.380  1.00  0.00    -0.000 C 
BRANCH  14  15
ATOM     15  C   UNL     1     -41.669  25.245   6.801  1.00  0.00    -0.000 C 
BRANCH  15  16
ATOM     16  C   UNL     1     -41.819  25.268   5.275  1.00  0.00    -0.000 C 
BRANCH  16  17
ATOM     17  C   UNL     1     -41.024  24.129   4.627  1.00  0.00    -0.003 C 
ATOM     18  C   UNL     1     -41.792  22.813   4.693  1.00  0.00     0.004 C 
ENDBRANCH  16  17
ENDBRANCH  15  16
ENDBRANCH  14  15
ENDBRANCH  13  14
ENDBRANCH  12  13
ENDBRANCH  11  12
ENDBRANCH   1  11
TORSDOF 14
ENDMDL
MODEL 3
REMARK VINA RESULT:     5.437      3.780      8.214
REMARK INTER + INTRA:           9.057
REMARK INTER:                   9.525
REMARK INTRA:                  -0.469
REMARK UNBOUND:                -0.829
REMARK SMILES CCCCCCCCCCCCCCCC(=O)[O-]
REMARK SMILES IDX 9 1 10 2 11 3 12 4 13 5 14 6 15 7 16 8 17 9 18 10 8 11 7 12
REMARK SMILES IDX 6 13 5 14 4 15 3 16 2 17 1 18
REMARK H PARENT
REMARK Flexibility Score: inf
ROOT
ATOM      1  C   UNL     1     -38.739  23.602   6.857  1.00  0.00     0.000 C 
ENDROOT
BRANCH   1   2
ATOM      2  C   UNL     1     -37.728  24.652   6.364  1.00  0.00     0.000 C 
BRANCH   2   3
ATOM      3  C   UNL     1     -37.248  25.583   7.492  1.00  0.00     0.000 C 
BRANCH   3   4
ATOM      4  C   UNL     1     -36.062  26.464   7.065  1.00  0.00     0.000 C 
BRANCH   4   5
ATOM      5  C   UNL     1     -34.738  25.685   6.973  1.00  0.00     0.000 C 
BRANCH   5   6
ATOM      6  C   UNL     1     -33.963  25.549   8.300  1.00  0.00     0.006 C 
BRANCH   6   7
ATOM      7  C   UNL     1     -32.726  24.638   8.227  1.00  0.00     0.053 C 
BRANCH   7   8
ATOM      8  C   UNL     1     -31.479  25.409   7.923  1.00  0.00     0.041 C 
ATOM      9  O   UNL     1     -30.864  25.218   6.841  1.00  0.00    -0.550 OA
ATOM     10  O   UNL     1     -31.015  26.365   8.819  1.00  0.00    -0.550 OA
ENDBRANCH   7   8
ENDBRANCH   6   7
ENDBRANCH   5   6
ENDBRANCH   4   5
ENDBRANCH   3   4
ENDBRANCH   2   3
ENDBRANCH   1   2
BRANCH   1  11
ATOM     11  C   UNL     1     -38.775  23.493   8.391  1.00  0.00     0.000 C 
BRANCH  11  12
ATOM     12  C   UNL     1     -40.198  23.276   8.934  1.00  0.00    -0.000 C 
BRANCH  12  13
ATOM     13  C   UNL     1     -41.291  23.740   7.953  1.00  0.00    -0.000 C 
BRANCH  13  14
ATOM     14  C   UNL     1     -42.119  22.610   7.315  1.00  0.00    -0.000 C 
BRANCH  14  15
ATOM     15  C   UNL     1     -42.107  22.650   5.780  1.00  0.00    -0.000 C 
BRANCH  15  16
ATOM     16  C   UNL     1     -41.176  23.754   5.266  1.00  0.00    -0.000 C 
BRANCH  16  17
ATOM     17  C   UNL     1     -41.978  24.918   4.672  1.00  0.00    -0.003 C 
ATOM     18  C   UNL     1     -42.124  26.056   5.678  1.00  0.00     0.004 C 
ENDBRANCH  16  17
ENDBRANCH  15  16
ENDBRANCH  14  15
ENDBRANCH  13  14
ENDBRANCH  12  13
ENDBRANCH  11  12
ENDBRANCH   1  11
TORSDOF 14
ENDMDL
MODEL 4
REMARK VINA RESULT:     6.011      3.555      8.061
REMARK INTER + INTRA:          10.101
REMARK INTER:                  11.460
REMARK INTRA:                  -1.359
REMARK UNBOUND:                -0.829
REMARK SMILES CCCCCCCCCCCCCCCC(=O)[O-]
REMARK SMILES IDX 9 1 10 2 11 3 12 4 13 5 14 6 15 7 16 8 17 9 18 10 8 11 7 12
REMARK SMILES IDX 6 13 5 14 4 15 3 16 2 17 1 18
REMARK H PARENT
REMARK Flexibility Score: inf
ROOT
ATOM      1  C   UNL     1     -38.354  24.425   7.249  1.00  0.00     0.000 C 
ENDROOT
BRANCH   1   2
ATOM      2  C   UNL     1     -37.012  24.794   6.593  1.00  0.00     0.000 C 
BRANCH   2   3
ATOM      3  C   UNL     1     -36.612  26.257   6.852  1.00  0.00     0.000 C 
BRANCH   3   4
ATOM      4  C   UNL     1     -35.189  26.388   7.422  1.00  0.00     0.000 C 
BRANCH   4   5
ATOM      5  C   UNL     1     -35.065  25.840   8.855  1.00  0.00     0.000 C 
BRANCH   5   6
ATOM      6  C   UNL     1     -33.810  24.984   9.125  1.00  0.00     0.006 C 
BRANCH   6   7
ATOM      7  C   UNL     1     -32.477  25.707   8.869  1.00  0.00     0.053 C 
BRANCH   7   8
ATOM      8  C   UNL     1     -31.735  25.121   7.709  1.00  0.00     0.041 C 
ATOM      9  O   UNL     1     -32.179  24.099   7.123  1.00  0.00    -0.550 OA
ATOM     10  O   UNL     1     -30.570  25.725   7.250  1.00  0.00    -0.550 OA
ENDBRANCH   7   8
ENDBRANCH   6   7
ENDBRANCH   5   6
ENDBRANCH   4   5
ENDBRANCH   3   4
ENDBRANCH   2   3
ENDBRANCH   1   2
BRANCH   1  11
ATOM     11  C   UNL     1     -38.174  23.636   8.557  1.00  0.00     0.000 C 
BRANCH  11  12
ATOM     12  C   UNL     1     -39.420  22.815   8.928  1.00  0.00    -0.000 C 
BRANCH  12  13
ATOM     13  C   UNL     1     -40.735  23.503   8.518  1.00  0.00    -0.000 C 
BRANCH  13  14
ATOM     14  C   UNL     1     -41.759  22.593   7.815  1.00  0.00    -0.000 C 
BRANCH  14  15
ATOM     15  C   UNL     1     -42.111  23.068   6.397  1.00  0.00    -0.000 C 
BRANCH  15  16
ATOM     16  C   UNL     1     -42.122  24.600   6.317  1.00  0.00    -0.000 C 
BRANCH  16  17
ATOM     17  C   UNL     1     -41.733  25.081   4.914  1.00  0.00    -0.003 C 
ATOM     18  C   UNL     1     -40.806  24.083   4.227  1.00  0.00     0.004 C 
ENDBRANCH  16  17
ENDBRANCH  15  16
ENDBRANCH  14  15
ENDBRANCH  13  14
ENDBRANCH  12  13
ENDBRANCH  11  12
ENDBRANCH   1  11
TORSDOF 14
ENDMDL
MODEL 5
REMARK VINA RESULT:     6.318      2.136      3.223
REMARK INTER + INTRA:          10.660
REMARK INTER:                   9.653
REMARK INTRA:                   1.007
REMARK UNBOUND:                -0.829
REMARK SMILES CCCCCCCCCCCCCCCC(=O)[O-]
REMARK SMILES IDX 9 1 10 2 11 3 12 4 13 5 14 6 15 7 16 8 17 9 18 10 8 11 7 12
REMARK SMILES IDX 6 13 5 14 4 15 3 16 2 17 1 18
REMARK H PARENT
REMARK Flexibility Score: inf
ROOT
ATOM      1  C   UNL     1     -40.022  21.517   7.993  1.00  0.00     0.000 C 
ENDROOT
BRANCH   1   2
ATOM      2  C   UNL     1     -41.330  21.862   8.727  1.00  0.00     0.000 C 
BRANCH   2   3
ATOM      3  C   UNL     1     -42.089  23.024   8.064  1.00  0.00     0.000 C 
BRANCH   3   4
ATOM      4  C   UNL     1     -41.463  24.394   8.378  1.00  0.00     0.000 C 
BRANCH   4   5
ATOM      5  C   UNL     1     -41.456  25.342   7.165  1.00  0.00     0.000 C 
BRANCH   5   6
ATOM      6  C   UNL     1     -42.125  24.784   5.891  1.00  0.00     0.006 C 
BRANCH   6   7
ATOM      7  C   UNL     1     -41.401  23.581   5.264  1.00  0.00     0.053 C 
BRANCH   7   8
ATOM      8  C   UNL     1     -40.509  23.992   4.133  1.00  0.00     0.041 C 
ATOM      9  O   UNL     1     -40.965  24.686   3.187  1.00  0.00    -0.550 OA
ATOM     10  O   UNL     1     -39.165  23.636   4.141  1.00  0.00    -0.550 OA
ENDBRANCH   7   8
ENDBRANCH   6   7
ENDBRANCH   5   6
ENDBRANCH   4   5
ENDBRANCH   3   4
ENDBRANCH   2   3
ENDBRANCH   1   2
BRANCH   1  11
ATOM     11  C   UNL     1     -38.886  22.504   8.317  1.00  0.00     0.000 C 
BRANCH  11  12
ATOM     12  C   UNL     1     -38.846  23.696   7.346  1.00  0.00    -0.000 C 
BRANCH  12  13
ATOM     13  C   UNL     1     -37.536  24.500   7.438  1.00  0.00    -0.000 C 
BRANCH  13  14
ATOM     14  C   UNL     1     -36.855  24.798   6.091  1.00  0.00    -0.000 C 
BRANCH  14  15
ATOM     15  C   UNL     1     -35.542  25.581   6.242  1.00  0.00    -0.000 C 
BRANCH  15  16
ATOM     16  C   UNL     1     -35.720  26.779   7.182  1.00  0.00    -0.000 C 
BRANCH  16  17
ATOM     17  C   UNL     1     -35.742  28.096   6.398  1.00  0.00    -0.003 C 
ATOM     18  C   UNL     1     -35.383  27.871   4.932  1.00  0.00     0.004 C 
ENDBRANCH  16  17
ENDBRANCH  15  16
ENDBRANCH  14  15
ENDBRANCH  13  14
ENDBRANCH  12  13
ENDBRANCH  11  12
ENDBRANCH   1  11
TORSDOF 14
ENDMDL
MODEL 6
REMARK VINA RESULT:     6.776      2.836      7.356
REMARK INTER + INTRA:          11.492
REMARK INTER:                  10.665
REMARK INTRA:                   0.828
REMARK UNBOUND:                -0.829
REMARK SMILES CCCCCCCCCCCCCCCC(=O)[O-]
REMARK SMILES IDX 9 1 10 2 11 3 12 4 13 5 14 6 15 7 16 8 17 9 18 10 8 11 7 12
REMARK SMILES IDX 6 13 5 14 4 15 3 16 2 17 1 18
REMARK H PARENT
REMARK Flexibility Score: inf
ROOT
ATOM      1  C   UNL     1     -39.793  23.732   8.142  1.00  0.00     0.000 C 
ENDROOT
BRANCH   1   2
ATOM      2  C   UNL     1     -38.518  23.640   7.285  1.00  0.00     0.000 C 
BRANCH   2   3
ATOM      3  C   UNL     1     -38.032  25.018   6.804  1.00  0.00     0.000 C 
BRANCH   3   4
ATOM      4  C   UNL     1     -36.548  25.012   6.400  1.00  0.00     0.000 C 
BRANCH   4   5
ATOM      5  C   UNL     1     -35.631  25.624   7.474  1.00  0.00     0.000 C 
BRANCH   5   6
ATOM      6  C   UNL     1     -35.886  27.114   7.783  1.00  0.00     0.006 C 
BRANCH   6   7
ATOM      7  C   UNL     1     -36.275  27.962   6.561  1.00  0.00     0.053 C 
BRANCH   7   8
ATOM      8  C   UNL     1     -35.305  27.797   5.433  1.00  0.00     0.041 C 
ATOM      9  O   UNL     1     -34.069  27.916   5.637  1.00  0.00    -0.550 OA
ATOM     10  O   UNL     1     -35.765  27.478   4.160  1.00  0.00    -0.550 OA
ENDBRANCH   7   8
ENDBRANCH   6   7
ENDBRANCH   5   6
ENDBRANCH   4   5
ENDBRANCH   3   4
ENDBRANCH   2   3
ENDBRANCH   1   2
BRANCH   1  11
ATOM     11  C   UNL     1     -39.941  22.543   9.108  1.00  0.00     0.000 C 
BRANCH  11  12
ATOM     12  C   UNL     1     -41.368  21.971   9.125  1.00  0.00    -0.000 C 
BRANCH  12  13
ATOM     13  C   UNL     1     -42.012  21.923   7.727  1.00  0.00    -0.000 C 
BRANCH  13  14
ATOM     14  C   UNL     1     -41.887  23.219   6.905  1.00  0.00    -0.000 C 
BRANCH  14  15
ATOM     15  C   UNL     1     -42.025  22.986   5.393  1.00  0.00    -0.000 C 
BRANCH  15  16
ATOM     16  C   UNL     1     -41.163  23.978   4.603  1.00  0.00    -0.000 C 
BRANCH  16  17
ATOM     17  C   UNL     1     -41.969  25.225   4.220  1.00  0.00    -0.003 C 
ATOM     18  C   UNL     1     -42.125  26.167   5.410  1.00  0.00     0.004 C 
ENDBRANCH  16  17
ENDBRANCH  15  16
ENDBRANCH  14  15
ENDBRANCH  13  14
ENDBRANCH  12  13
ENDBRANCH  11  12
ENDBRANCH   1  11
TORSDOF 14
ENDMDL
