MODEL 1
REMARK VINA RESULT:    -3.965      0.000      0.000
REMARK INTER + INTRA:          -5.552
REMARK INTER:                  -5.124
REMARK INTRA:                  -0.428
REMARK UNBOUND:                -0.428
REMARK SMILES CO[C@@]1(CO)O[C@H](CO)[C@@H](O)[C@H]1O
REMARK SMILES IDX 3 1 12 2 10 3 7 4 6 5 2 6 1 7 4 8 5 9 13 11 11 13 8 15 9 16
REMARK H PARENT 5 10 13 12 11 14 9 17
REMARK Flexibility Score: inf
ROOT
ATOM      1  C   UNL     1       6.615  -3.338  -1.636  1.00  0.00     0.221 C 
ATOM      2  C   UNL     1       7.381  -4.060  -0.518  1.00  0.00     0.207 C 
ATOM      3  C   UNL     1       8.260  -5.026  -1.279  1.00  0.00     0.180 C 
ATOM      4  C   UNL     1       7.430  -5.285  -2.544  1.00  0.00     0.179 C 
ATOM      5  O   UNL     1       6.426  -4.294  -2.666  1.00  0.00    -0.337 OA
ENDROOT
BRANCH   1   6
ATOM      6  O   UNL     1       7.377  -2.220  -2.090  1.00  0.00    -0.349 OA
ATOM      7  C   UNL     1       6.611  -1.294  -2.835  1.00  0.00     0.198 C 
ENDBRANCH   1   6
BRANCH   1   8
ATOM      8  C   UNL     1       5.239  -2.866  -1.118  1.00  0.00     0.224 C 
BRANCH   8   9
ATOM      9  O   UNL     1       5.090  -3.204   0.233  1.00  0.00    -0.391 OA
ATOM     10  H   UNL     1       5.930  -2.922   0.682  1.00  0.00     0.210 HD
ENDBRANCH   8   9
ENDBRANCH   1   8
BRANCH   2  11
ATOM     11  O   UNL     1       8.083  -3.205   0.357  1.00  0.00    -0.385 OA
ATOM     12  H   UNL     1       7.554  -3.074   1.184  1.00  0.00     0.211 HD
ENDBRANCH   2  11
BRANCH   3  13
ATOM     13  O   UNL     1       9.487  -4.441  -1.638  1.00  0.00    -0.387 OA
ATOM     14  H   UNL     1       9.576  -4.538  -2.621  1.00  0.00     0.211 HD
ENDBRANCH   3  13
BRANCH   4  15
ATOM     15  C   UNL     1       6.756  -6.666  -2.519  1.00  0.00     0.191 C 
BRANCH  15  16
ATOM     16  O   UNL     1       7.257  -7.447  -1.466  1.00  0.00    -0.394 OA
ATOM     17  H   UNL     1       8.215  -7.206  -1.364  1.00  0.00     0.210 HD
ENDBRANCH  15  16
ENDBRANCH   4  15
TORSDOF 7
ENDMDL
MODEL 2
REMARK VINA RESULT:    -3.781      1.974      4.023
REMARK INTER + INTRA:          -5.315
REMARK INTER:                  -4.844
REMARK INTRA:                  -0.470
REMARK UNBOUND:                -0.428
REMARK SMILES CO[C@@]1(CO)O[C@H](CO)[C@@H](O)[C@H]1O
REMARK SMILES IDX 3 1 12 2 10 3 7 4 6 5 2 6 1 7 4 8 5 9 13 11 11 13 8 15 9 16
REMARK H PARENT 5 10 13 12 11 14 9 17
REMARK Flexibility Score: inf
ROOT
ATOM      1  C   UNL     1       8.483  -5.527  -1.951  1.00  0.00     0.221 C 
ATOM      2  C   UNL     1       8.621  -4.320  -1.010  1.00  0.00     0.207 C 
ATOM      3  C   UNL     1       8.908  -3.181  -1.962  1.00  0.00     0.180 C 
ATOM      4  C   UNL     1       9.609  -3.900  -3.122  1.00  0.00     0.179 C 
ATOM      5  O   UNL     1       9.380  -5.295  -3.024  1.00  0.00    -0.337 OA
ENDROOT
BRANCH   1   6
ATOM      6  O   UNL     1       7.134  -5.624  -2.406  1.00  0.00    -0.349 OA
ATOM      7  C   UNL     1       6.571  -6.904  -2.198  1.00  0.00     0.198 C 
ENDBRANCH   1   6
BRANCH   1   8
ATOM      8  C   UNL     1       8.890  -6.822  -1.217  1.00  0.00     0.224 C 
BRANCH   8   9
ATOM      9  O   UNL     1      10.224  -6.741  -0.796  1.00  0.00    -0.391 OA
ATOM     10  H   UNL     1      10.578  -5.890  -1.167  1.00  0.00     0.210 HD
ENDBRANCH   8   9
ENDBRANCH   1   8
BRANCH   2  11
ATOM     11  O   UNL     1       7.511  -4.106  -0.168  1.00  0.00    -0.385 OA
ATOM     12  H   UNL     1       6.858  -3.519  -0.627  1.00  0.00     0.211 HD
ENDBRANCH   2  11
BRANCH   3  13
ATOM     13  O   UNL     1       7.724  -2.584  -2.429  1.00  0.00    -0.387 OA
ATOM     14  H   UNL     1       7.993  -1.830  -3.016  1.00  0.00     0.211 HD
ENDBRANCH   3  13
BRANCH   4  15
ATOM     15  C   UNL     1      11.125  -3.650  -3.125  1.00  0.00     0.191 C 
BRANCH  15  16
ATOM     16  O   UNL     1      11.793  -4.620  -2.361  1.00  0.00    -0.394 OA
ATOM     17  H   UNL     1      12.588  -4.897  -2.888  1.00  0.00     0.210 HD
ENDBRANCH  15  16
ENDBRANCH   4  15
TORSDOF 7
ENDMDL
MODEL 3
REMARK VINA RESULT:    -3.769      1.396      3.935
REMARK INTER + INTRA:          -5.298
REMARK INTER:                  -4.858
REMARK INTRA:                  -0.440
REMARK UNBOUND:                -0.428
REMARK SMILES CO[C@@]1(CO)O[C@H](CO)[C@@H](O)[C@H]1O
REMARK SMILES IDX 3 1 12 2 10 3 7 4 6 5 2 6 1 7 4 8 5 9 13 11 11 13 8 15 9 16
REMARK H PARENT 5 10 13 12 11 14 9 17
REMARK Flexibility Score: inf
ROOT
ATOM      1  C   UNL     1       7.939  -4.573  -1.983  1.00  0.00     0.221 C 
ATOM      2  C   UNL     1       7.922  -3.382  -1.013  1.00  0.00     0.207 C 
ATOM      3  C   UNL     1       6.446  -3.094  -0.856  1.00  0.00     0.180 C 
ATOM      4  C   UNL     1       5.882  -3.571  -2.201  1.00  0.00     0.179 C 
ATOM      5  O   UNL     1       6.838  -4.386  -2.856  1.00  0.00    -0.337 OA
ENDROOT
BRANCH   1   6
ATOM      6  O   UNL     1       7.824  -5.789  -1.245  1.00  0.00    -0.349 OA
ATOM      7  C   UNL     1       8.790  -6.753  -1.615  1.00  0.00     0.198 C 
ENDBRANCH   1   6
BRANCH   1   8
ATOM      8  C   UNL     1       9.247  -4.571  -2.803  1.00  0.00     0.224 C 
BRANCH   8   9
ATOM      9  O   UNL     1      10.080  -3.525  -2.382  1.00  0.00    -0.391 OA
ATOM     10  H   UNL     1      10.586  -3.236  -3.187  1.00  0.00     0.210 HD
ENDBRANCH   8   9
ENDBRANCH   1   8
BRANCH   2  11
ATOM     11  O   UNL     1       8.600  -3.608   0.203  1.00  0.00    -0.385 OA
ATOM     12  H   UNL     1       7.940  -3.781   0.920  1.00  0.00     0.211 HD
ENDBRANCH   2  11
BRANCH   3  13
ATOM     13  O   UNL     1       5.877  -3.851   0.183  1.00  0.00    -0.387 OA
ATOM     14  H   UNL     1       5.768  -3.240   0.958  1.00  0.00     0.211 HD
ENDBRANCH   3  13
BRANCH   4  15
ATOM     15  C   UNL     1       5.523  -2.396  -3.125  1.00  0.00     0.191 C 
BRANCH  15  16
ATOM     16  O   UNL     1       5.143  -1.271  -2.377  1.00  0.00    -0.394 OA
ATOM     17  H   UNL     1       4.467  -0.785  -2.919  1.00  0.00     0.210 HD
ENDBRANCH  15  16
ENDBRANCH   4  15
TORSDOF 7
ENDMDL
MODEL 4
REMARK VINA RESULT:    -3.479      1.654      2.132
REMARK INTER + INTRA:          -4.924
REMARK INTER:                  -4.651
REMARK INTRA:                  -0.273
REMARK UNBOUND:                -0.428
REMARK SMILES CO[C@@]1(CO)O[C@H](CO)[C@@H](O)[C@H]1O
REMARK SMILES IDX 3 1 12 2 10 3 7 4 6 5 2 6 1 7 4 8 5 9 13 11 11 13 8 15 9 16
REMARK H PARENT 5 10 13 12 11 14 9 17
REMARK Flexibility Score: inf
ROOT
ATOM      1  C   UNL     1       6.699  -3.501  -2.339  1.00  0.00     0.221 C 
ATOM      2  C   UNL     1       6.772  -4.112  -0.932  1.00  0.00     0.207 C 
ATOM      3  C   UNL     1       8.251  -4.076  -0.623  1.00  0.00     0.180 C 
ATOM      4  C   UNL     1       8.874  -4.176  -2.022  1.00  0.00     0.179 C 
ATOM      5  O   UNL     1       7.890  -3.894  -3.001  1.00  0.00    -0.337 OA
ENDROOT
BRANCH   1   6
ATOM      6  O   UNL     1       6.599  -2.082  -2.236  1.00  0.00    -0.349 OA
ATOM      7  C   UNL     1       5.487  -1.554  -2.933  1.00  0.00     0.198 C 
ENDBRANCH   1   6
BRANCH   1   8
ATOM      8  C   UNL     1       5.481  -4.066  -3.101  1.00  0.00     0.224 C 
BRANCH   8   9
ATOM      9  O   UNL     1       5.529  -5.466  -3.119  1.00  0.00    -0.391 OA
ATOM     10  H   UNL     1       4.691  -5.764  -3.561  1.00  0.00     0.210 HD
ENDBRANCH   8   9
ENDBRANCH   1   8
BRANCH   2  11
ATOM     11  O   UNL     1       5.964  -3.469   0.028  1.00  0.00    -0.385 OA
ATOM     12  H   UNL     1       6.397  -2.622   0.307  1.00  0.00     0.211 HD
ENDBRANCH   2  11
BRANCH   3  13
ATOM     13  O   UNL     1       8.629  -2.858  -0.030  1.00  0.00    -0.387 OA
ATOM     14  H   UNL     1       9.371  -2.490  -0.576  1.00  0.00     0.211 HD
ENDBRANCH   3  13
BRANCH   4  15
ATOM     15  C   UNL     1       9.454  -5.572  -2.297  1.00  0.00     0.191 C 
BRANCH  15  16
ATOM     16  O   UNL     1       9.726  -6.245  -1.096  1.00  0.00    -0.394 OA
ATOM     17  H   UNL     1      10.360  -6.977  -1.317  1.00  0.00     0.210 HD
ENDBRANCH  15  16
ENDBRANCH   4  15
TORSDOF 7
ENDMDL
MODEL 5
REMARK VINA RESULT:    -3.354      1.848      4.046
REMARK INTER + INTRA:          -4.763
REMARK INTER:                  -4.336
REMARK INTRA:                  -0.426
REMARK UNBOUND:                -0.428
REMARK SMILES CO[C@@]1(CO)O[C@H](CO)[C@@H](O)[C@H]1O
REMARK SMILES IDX 3 1 12 2 10 3 7 4 6 5 2 6 1 7 4 8 5 9 13 11 11 13 8 15 9 16
REMARK H PARENT 5 10 13 12 11 14 9 17
REMARK Flexibility Score: inf
ROOT
ATOM      1  C   UNL     1       7.530  -6.166  -1.989  1.00  0.00     0.221 C 
ATOM      2  C   UNL     1       8.886  -5.873  -2.648  1.00  0.00     0.207 C 
ATOM      3  C   UNL     1       9.575  -4.993  -1.630  1.00  0.00     0.180 C 
ATOM      4  C   UNL     1       8.386  -4.306  -0.944  1.00  0.00     0.179 C 
ATOM      5  O   UNL     1       7.192  -5.004  -1.250  1.00  0.00    -0.337 OA
ENDROOT
BRANCH   1   6
ATOM      6  O   UNL     1       7.649  -7.309  -1.144  1.00  0.00    -0.349 OA
ATOM      7  C   UNL     1       6.618  -8.256  -1.346  1.00  0.00     0.198 C 
ENDBRANCH   1   6
BRANCH   1   8
ATOM      8  C   UNL     1       6.457  -6.414  -3.070  1.00  0.00     0.224 C 
BRANCH   8   9
ATOM      9  O   UNL     1       5.566  -5.333  -3.123  1.00  0.00    -0.391 OA
ATOM     10  H   UNL     1       6.117  -4.533  -3.333  1.00  0.00     0.210 HD
ENDBRANCH   8   9
ENDBRANCH   1   8
BRANCH   2  11
ATOM     11  O   UNL     1       9.620  -7.021  -3.011  1.00  0.00    -0.385 OA
ATOM     12  H   UNL     1       9.471  -7.733  -2.338  1.00  0.00     0.211 HD
ENDBRANCH   2  11
BRANCH   3  13
ATOM     13  O   UNL     1      10.285  -5.752  -0.683  1.00  0.00    -0.387 OA
ATOM     14  H   UNL     1      10.791  -6.440  -1.187  1.00  0.00     0.211 HD
ENDBRANCH   3  13
BRANCH   4  15
ATOM     15  C   UNL     1       8.229  -2.844  -1.392  1.00  0.00     0.191 C 
BRANCH  15  16
ATOM     16  O   UNL     1       7.022  -2.660  -2.084  1.00  0.00    -0.394 OA
ATOM     17  H   UNL     1       6.309  -2.586  -1.396  1.00  0.00     0.210 HD
ENDBRANCH  15  16
ENDBRANCH   4  15
TORSDOF 7
ENDMDL
MODEL 6
REMARK VINA RESULT:    -3.267      1.350      4.193
REMARK INTER + INTRA:          -4.650
REMARK INTER:                  -4.223
REMARK INTRA:                  -0.426
REMARK UNBOUND:                -0.428
REMARK SMILES CO[C@@]1(CO)O[C@H](CO)[C@@H](O)[C@H]1O
REMARK SMILES IDX 3 1 12 2 10 3 7 4 6 5 2 6 1 7 4 8 5 9 13 11 11 13 8 15 9 16
REMARK H PARENT 5 10 13 12 11 14 9 17
REMARK Flexibility Score: inf
ROOT
ATOM      1  C   UNL     1       6.865  -3.882  -1.773  1.00  0.00     0.221 C 
ATOM      2  C   UNL     1       6.060  -3.111  -0.715  1.00  0.00     0.207 C 
ATOM      3  C   UNL     1       5.008  -2.404  -1.538  1.00  0.00     0.180 C 
ATOM      4  C   UNL     1       5.721  -2.227  -2.886  1.00  0.00     0.179 C 
ATOM      5  O   UNL     1       6.853  -3.077  -2.940  1.00  0.00    -0.337 OA
ENDROOT
BRANCH   1   6
ATOM      6  O   UNL     1       6.253  -5.150  -2.004  1.00  0.00    -0.349 OA
ATOM      7  C   UNL     1       7.148  -6.233  -1.841  1.00  0.00     0.198 C 
ENDBRANCH   1   6
BRANCH   1   8
ATOM      8  C   UNL     1       8.321  -4.073  -1.298  1.00  0.00     0.224 C 
BRANCH   8   9
ATOM      9  O   UNL     1       8.464  -3.613   0.018  1.00  0.00    -0.391 OA
ATOM     10  H   UNL     1       9.391  -3.845   0.291  1.00  0.00     0.210 HD
ENDBRANCH   8   9
ENDBRANCH   1   8
BRANCH   2  11
ATOM     11  O   UNL     1       5.541  -3.912   0.323  1.00  0.00    -0.385 OA
ATOM     12  H   UNL     1       4.618  -4.190   0.094  1.00  0.00     0.211 HD
ENDBRANCH   2  11
BRANCH   3  13
ATOM     13  O   UNL     1       3.864  -3.202  -1.716  1.00  0.00    -0.387 OA
ATOM     14  H   UNL     1       3.752  -3.733  -0.885  1.00  0.00     0.211 HD
ENDBRANCH   3  13
BRANCH   4  15
ATOM     15  C   UNL     1       6.183  -0.778  -3.109  1.00  0.00     0.191 C 
BRANCH  15  16
ATOM     16  O   UNL     1       5.554   0.091  -2.204  1.00  0.00    -0.394 OA
ATOM     17  H   UNL     1       5.578   0.995  -2.615  1.00  0.00     0.210 HD
ENDBRANCH  15  16
ENDBRANCH   4  15
TORSDOF 7
ENDMDL
MODEL 7
REMARK VINA RESULT:    -3.203      1.334      3.145
REMARK INTER + INTRA:          -4.567
REMARK INTER:                  -4.453
REMARK INTRA:                  -0.114
REMARK UNBOUND:                -0.428
REMARK SMILES CO[C@@]1(CO)O[C@H](CO)[C@@H](O)[C@H]1O
REMARK SMILES IDX 3 1 12 2 10 3 7 4 6 5 2 6 1 7 4 8 5 9 13 11 11 13 8 15 9 16
REMARK H PARENT 5 10 13 12 11 14 9 17
REMARK Flexibility Score: inf
ROOT
ATOM      1  C   UNL     1       7.340  -3.910  -1.683  1.00  0.00     0.221 C 
ATOM      2  C   UNL     1       7.193  -4.965  -2.789  1.00  0.00     0.207 C 
ATOM      3  C   UNL     1       8.006  -6.125  -2.261  1.00  0.00     0.180 C 
ATOM      4  C   UNL     1       9.054  -5.414  -1.395  1.00  0.00     0.179 C 
ATOM      5  O   UNL     1       8.640  -4.084  -1.143  1.00  0.00    -0.337 OA
ENDROOT
BRANCH   1   6
ATOM      6  O   UNL     1       6.330  -4.113  -0.695  1.00  0.00    -0.349 OA
ATOM      7  C   UNL     1       5.374  -3.071  -0.661  1.00  0.00     0.198 C 
ENDBRANCH   1   6
BRANCH   1   8
ATOM      8  C   UNL     1       7.221  -2.492  -2.281  1.00  0.00     0.224 C 
BRANCH   8   9
ATOM      9  O   UNL     1       8.364  -1.741  -1.975  1.00  0.00    -0.391 OA
ATOM     10  H   UNL     1       8.037  -0.891  -1.581  1.00  0.00     0.210 HD
ENDBRANCH   8   9
ENDBRANCH   1   8
BRANCH   2  11
ATOM     11  O   UNL     1       5.860  -5.291  -3.113  1.00  0.00    -0.385 OA
ATOM     12  H   UNL     1       5.573  -6.073  -2.576  1.00  0.00     0.211 HD
ENDBRANCH   2  11
BRANCH   3  13
ATOM     13  O   UNL     1       7.231  -6.976  -1.453  1.00  0.00    -0.387 OA
ATOM     14  H   UNL     1       7.360  -7.897  -1.799  1.00  0.00     0.211 HD
ENDBRANCH   3  13
BRANCH   4  15
ATOM     15  C   UNL     1      10.434  -5.379  -2.072  1.00  0.00     0.191 C 
BRANCH  15  16
ATOM     16  O   UNL     1      11.450  -5.678  -1.151  1.00  0.00    -0.394 OA
ATOM     17  H   UNL     1      11.369  -6.645  -0.942  1.00  0.00     0.210 HD
ENDBRANCH  15  16
ENDBRANCH   4  15
TORSDOF 7
ENDMDL
