MODEL 1
REMARK VINA RESULT:    -8.341      0.000      0.000
REMARK INTER + INTRA:         -10.153
REMARK INTER:                 -10.047
REMARK INTRA:                  -0.106
REMARK UNBOUND:                -0.106
REMARK SMILES O=c1c(O)c(-c2ccc(O)cc2O)oc2cc(O)cc(O)c12
REMARK SMILES IDX 5 1 3 2 2 3 1 4 22 5 20 6 19 7 17 8 16 9 15 10 14 11 6 12
REMARK SMILES IDX 8 13 7 14 9 15 11 16 12 17 10 18 13 20 4 22 21 24 18 26
REMARK H PARENT 10 19 13 21 4 23 21 25 18 27
REMARK Flexibility Score: inf
ROOT
ATOM      1  C   UNL     1      17.309  22.613  40.442  1.00  0.00     0.184 A 
ATOM      2  C   UNL     1      16.945  23.645  39.555  1.00  0.00     0.208 A 
ATOM      3  C   UNL     1      15.828  24.439  39.859  1.00  0.00     0.238 A 
ATOM      4  O   UNL     1      15.498  25.370  39.077  1.00  0.00    -0.285 OA
ATOM      5  C   UNL     1      15.088  24.179  41.032  1.00  0.00     0.111 A 
ATOM      6  C   UNL     1      13.949  24.931  41.410  1.00  0.00     0.134 A 
ATOM      7  C   UNL     1      13.261  24.606  42.588  1.00  0.00     0.093 A 
ATOM      8  C   UNL     1      13.691  23.546  43.395  1.00  0.00     0.123 A 
ATOM      9  C   UNL     1      14.814  22.803  43.027  1.00  0.00     0.094 A 
ATOM     10  C   UNL     1      15.514  23.112  41.856  1.00  0.00     0.146 A 
ATOM     11  O   UNL     1      16.582  22.391  41.532  1.00  0.00    -0.451 OA
ENDROOT
BRANCH   1  12
ATOM     12  C   UNL     1      18.485  21.749  40.192  1.00  0.00     0.063 A 
ATOM     13  C   UNL     1      20.809  21.492  39.515  1.00  0.00     0.047 A 
ATOM     14  C   UNL     1      19.691  22.303  39.723  1.00  0.00     0.020 A 
ATOM     15  C   UNL     1      20.745  20.122  39.780  1.00  0.00     0.119 A 
ATOM     16  C   UNL     1      19.555  19.563  40.261  1.00  0.00     0.093 A 
ATOM     17  C   UNL     1      18.427  20.368  40.471  1.00  0.00     0.130 A 
BRANCH  15  18
ATOM     18  O   UNL     1      21.869  19.327  39.567  1.00  0.00    -0.508 OA
ATOM     19  H   UNL     1      22.054  18.902  38.666  1.00  0.00     0.293 HD
ENDBRANCH  15  18
BRANCH  17  20
ATOM     20  O   UNL     1      17.244  19.797  40.944  1.00  0.00    -0.507 OA
ATOM     21  H   UNL     1      17.091  19.635  41.933  1.00  0.00     0.293 HD
ENDBRANCH  17  20
ENDBRANCH   1  12
BRANCH   2  22
ATOM     22  O   UNL     1      17.672  23.852  38.381  1.00  0.00    -0.502 OA
ATOM     23  H   UNL     1      17.858  24.778  38.015  1.00  0.00     0.293 HD
ENDBRANCH   2  22
BRANCH   6  24
ATOM     24  O   UNL     1      13.496  25.993  40.626  1.00  0.00    -0.507 OA
ATOM     25  H   UNL     1      13.785  26.103  39.661  1.00  0.00     0.293 HD
ENDBRANCH   6  24
BRANCH   8  26
ATOM     26  O   UNL     1      13.008  23.222  44.565  1.00  0.00    -0.508 OA
ATOM     27  H   UNL     1      12.892  23.894  45.314  1.00  0.00     0.293 HD
ENDBRANCH   8  26
TORSDOF 6
ENDMDL
MODEL 2
REMARK VINA RESULT:    -7.741      1.231      6.357
REMARK INTER + INTRA:          -9.430
REMARK INTER:                  -9.599
REMARK INTRA:                   0.169
REMARK UNBOUND:                -0.106
REMARK SMILES O=c1c(O)c(-c2ccc(O)cc2O)oc2cc(O)cc(O)c12
REMARK SMILES IDX 5 1 3 2 2 3 1 4 22 5 20 6 19 7 17 8 16 9 15 10 14 11 6 12
REMARK SMILES IDX 8 13 7 14 9 15 11 16 12 17 10 18 13 20 4 22 21 24 18 26
REMARK H PARENT 10 19 13 21 4 23 21 25 18 27
REMARK Flexibility Score: inf
ROOT
ATOM      1  C   UNL     1      16.354  23.331  40.724  1.00  0.00     0.184 A 
ATOM      2  C   UNL     1      16.841  24.186  39.717  1.00  0.00     0.208 A 
ATOM      3  C   UNL     1      17.974  23.798  38.987  1.00  0.00     0.238 A 
ATOM      4  O   UNL     1      18.414  24.552  38.077  1.00  0.00    -0.285 OA
ATOM      5  C   UNL     1      18.609  22.575  39.285  1.00  0.00     0.111 A 
ATOM      6  C   UNL     1      19.758  22.112  38.599  1.00  0.00     0.134 A 
ATOM      7  C   UNL     1      20.337  20.887  38.959  1.00  0.00     0.093 A 
ATOM      8  C   UNL     1      19.789  20.116  39.991  1.00  0.00     0.123 A 
ATOM      9  C   UNL     1      18.657  20.568  40.670  1.00  0.00     0.094 A 
ATOM     10  C   UNL     1      18.064  21.786  40.325  1.00  0.00     0.146 A 
ATOM     11  O   UNL     1      16.984  22.190  40.985  1.00  0.00    -0.451 OA
ENDROOT
BRANCH   1  12
ATOM     12  C   UNL     1      15.152  23.669  41.521  1.00  0.00     0.063 A 
ATOM     13  C   UNL     1      12.972  24.737  41.703  1.00  0.00     0.047 A 
ATOM     14  C   UNL     1      14.119  24.442  40.961  1.00  0.00     0.020 A 
ATOM     15  C   UNL     1      12.835  24.258  43.008  1.00  0.00     0.119 A 
ATOM     16  C   UNL     1      13.852  23.476  43.570  1.00  0.00     0.093 A 
ATOM     17  C   UNL     1      15.006  23.176  42.834  1.00  0.00     0.130 A 
BRANCH  15  18
ATOM     18  O   UNL     1      11.687  24.561  43.735  1.00  0.00    -0.508 OA
ATOM     19  H   UNL     1      11.661  25.336  44.387  1.00  0.00     0.293 HD
ENDBRANCH  15  18
BRANCH  17  20
ATOM     20  O   UNL     1      16.014  22.401  43.409  1.00  0.00    -0.507 OA
ATOM     21  H   UNL     1      15.956  21.389  43.438  1.00  0.00     0.293 HD
ENDBRANCH  17  20
ENDBRANCH   1  12
BRANCH   2  22
ATOM     22  O   UNL     1      16.215  25.411  39.472  1.00  0.00    -0.502 OA
ATOM     23  H   UNL     1      15.338  25.481  38.970  1.00  0.00     0.293 HD
ENDBRANCH   2  22
BRANCH   6  24
ATOM     24  O   UNL     1      20.327  22.858  37.566  1.00  0.00    -0.507 OA
ATOM     25  H   UNL     1      20.179  22.620  36.592  1.00  0.00     0.293 HD
ENDBRANCH   6  24
BRANCH   8  26
ATOM     26  O   UNL     1      20.365  18.899  40.350  1.00  0.00    -0.508 OA
ATOM     27  H   UNL     1      21.304  18.651  40.062  1.00  0.00     0.293 HD
ENDBRANCH   8  26
TORSDOF 6
ENDMDL
MODEL 3
REMARK VINA RESULT:    -7.635      0.998      1.573
REMARK INTER + INTRA:          -9.303
REMARK INTER:                  -9.209
REMARK INTRA:                  -0.095
REMARK UNBOUND:                -0.106
REMARK SMILES O=c1c(O)c(-c2ccc(O)cc2O)oc2cc(O)cc(O)c12
REMARK SMILES IDX 5 1 3 2 2 3 1 4 22 5 20 6 19 7 17 8 16 9 15 10 14 11 6 12
REMARK SMILES IDX 8 13 7 14 9 15 11 16 12 17 10 18 13 20 4 22 21 24 18 26
REMARK H PARENT 10 19 13 21 4 23 21 25 18 27
REMARK Flexibility Score: inf
ROOT
ATOM      1  C   UNL     1      16.705  22.587  40.870  1.00  0.00     0.184 A 
ATOM      2  C   UNL     1      16.322  23.604  39.975  1.00  0.00     0.208 A 
ATOM      3  C   UNL     1      15.260  24.452  40.325  1.00  0.00     0.238 A 
ATOM      4  O   UNL     1      14.915  25.371  39.535  1.00  0.00    -0.285 OA
ATOM      5  C   UNL     1      14.592  24.261  41.552  1.00  0.00     0.111 A 
ATOM      6  C   UNL     1      13.511  25.070  41.979  1.00  0.00     0.134 A 
ATOM      7  C   UNL     1      12.892  24.811  43.211  1.00  0.00     0.093 A 
ATOM      8  C   UNL     1      13.334  23.760  44.023  1.00  0.00     0.123 A 
ATOM      9  C   UNL     1      14.400  22.960  43.607  1.00  0.00     0.094 A 
ATOM     10  C   UNL     1      15.030  23.203  42.383  1.00  0.00     0.146 A 
ATOM     11  O   UNL     1      16.045  22.429  42.013  1.00  0.00    -0.451 OA
ENDROOT
BRANCH   1  12
ATOM     12  C   UNL     1      17.827  21.667  40.573  1.00  0.00     0.063 A 
ATOM     13  C   UNL     1      18.662  19.413  40.186  1.00  0.00     0.047 A 
ATOM     14  C   UNL     1      17.609  20.279  40.494  1.00  0.00     0.020 A 
ATOM     15  C   UNL     1      19.940  19.918  39.942  1.00  0.00     0.119 A 
ATOM     16  C   UNL     1      20.165  21.300  40.003  1.00  0.00     0.093 A 
ATOM     17  C   UNL     1      19.116  22.176  40.314  1.00  0.00     0.130 A 
BRANCH  15  18
ATOM     18  O   UNL     1      20.980  19.042  39.636  1.00  0.00    -0.508 OA
ATOM     19  H   UNL     1      20.800  18.089  39.344  1.00  0.00     0.293 HD
ENDBRANCH  15  18
BRANCH  17  20
ATOM     20  O   UNL     1      19.354  23.549  40.378  1.00  0.00    -0.507 OA
ATOM     21  H   UNL     1      20.284  23.921  40.532  1.00  0.00     0.293 HD
ENDBRANCH  17  20
ENDBRANCH   1  12
BRANCH   2  22
ATOM     22  O   UNL     1      16.976  23.744  38.748  1.00  0.00    -0.502 OA
ATOM     23  H   UNL     1      16.583  24.278  37.983  1.00  0.00     0.293 HD
ENDBRANCH   2  22
BRANCH   6  24
ATOM     24  O   UNL     1      13.048  26.125  41.191  1.00  0.00    -0.507 OA
ATOM     25  H   UNL     1      13.681  26.805  40.787  1.00  0.00     0.293 HD
ENDBRANCH   6  24
BRANCH   8  26
ATOM     26  O   UNL     1      12.719  23.502  45.246  1.00  0.00    -0.508 OA
ATOM     27  H   UNL     1      12.017  22.779  45.344  1.00  0.00     0.293 HD
ENDBRANCH   8  26
TORSDOF 6
ENDMDL
MODEL 4
REMARK VINA RESULT:    -7.406      1.518      6.928
REMARK INTER + INTRA:          -9.027
REMARK INTER:                  -8.580
REMARK INTRA:                  -0.447
REMARK UNBOUND:                -0.106
REMARK SMILES O=c1c(O)c(-c2ccc(O)cc2O)oc2cc(O)cc(O)c12
REMARK SMILES IDX 5 1 3 2 2 3 1 4 22 5 20 6 19 7 17 8 16 9 15 10 14 11 6 12
REMARK SMILES IDX 8 13 7 14 9 15 11 16 12 17 10 18 13 20 4 22 21 24 18 26
REMARK H PARENT 10 19 13 21 4 23 21 25 18 27
REMARK Flexibility Score: inf
ROOT
ATOM      1  C   UNL     1      17.004  22.333  40.963  1.00  0.00     0.184 A 
ATOM      2  C   UNL     1      17.110  20.942  40.774  1.00  0.00     0.208 A 
ATOM      3  C   UNL     1      18.313  20.413  40.282  1.00  0.00     0.238 A 
ATOM      4  O   UNL     1      18.422  19.168  40.117  1.00  0.00    -0.285 OA
ATOM      5  C   UNL     1      19.381  21.282  39.974  1.00  0.00     0.111 A 
ATOM      6  C   UNL     1      20.625  20.830  39.472  1.00  0.00     0.134 A 
ATOM      7  C   UNL     1      21.636  21.759  39.182  1.00  0.00     0.093 A 
ATOM      8  C   UNL     1      21.426  23.127  39.386  1.00  0.00     0.123 A 
ATOM      9  C   UNL     1      20.202  23.577  39.881  1.00  0.00     0.094 A 
ATOM     10  C   UNL     1      19.181  22.668  40.177  1.00  0.00     0.146 A 
ATOM     11  O   UNL     1      18.027  23.122  40.652  1.00  0.00    -0.451 OA
ENDROOT
BRANCH   1  12
ATOM     12  C   UNL     1      15.770  22.956  41.495  1.00  0.00     0.063 A 
ATOM     13  C   UNL     1      14.221  23.335  43.334  1.00  0.00     0.047 A 
ATOM     14  C   UNL     1      15.370  22.725  42.823  1.00  0.00     0.020 A 
ATOM     15  C   UNL     1      13.464  24.192  42.533  1.00  0.00     0.119 A 
ATOM     16  C   UNL     1      13.861  24.441  41.213  1.00  0.00     0.093 A 
ATOM     17  C   UNL     1      15.011  23.831  40.691  1.00  0.00     0.130 A 
BRANCH  15  18
ATOM     18  O   UNL     1      12.321  24.793  43.056  1.00  0.00    -0.508 OA
ATOM     19  H   UNL     1      12.273  25.086  44.024  1.00  0.00     0.293 HD
ENDBRANCH  15  18
BRANCH  17  20
ATOM     20  O   UNL     1      15.392  24.082  39.373  1.00  0.00    -0.507 OA
ATOM     21  H   UNL     1      16.053  23.487  38.887  1.00  0.00     0.293 HD
ENDBRANCH  17  20
ENDBRANCH   1  12
BRANCH   2  22
ATOM     22  O   UNL     1      16.022  20.110  41.049  1.00  0.00    -0.502 OA
ATOM     23  H   UNL     1      15.122  20.228  40.599  1.00  0.00     0.293 HD
ENDBRANCH   2  22
BRANCH   6  24
ATOM     24  O   UNL     1      20.864  19.472  39.258  1.00  0.00    -0.507 OA
ATOM     25  H   UNL     1      21.068  19.106  38.336  1.00  0.00     0.293 HD
ENDBRANCH   6  24
BRANCH   8  26
ATOM     26  O   UNL     1      22.430  24.050  39.097  1.00  0.00    -0.508 OA
ATOM     27  H   UNL     1      22.837  24.633  39.819  1.00  0.00     0.293 HD
ENDBRANCH   8  26
TORSDOF 6
ENDMDL
MODEL 5
REMARK VINA RESULT:    -7.316      1.394      6.443
REMARK INTER + INTRA:          -8.918
REMARK INTER:                  -8.990
REMARK INTRA:                   0.071
REMARK UNBOUND:                -0.106
REMARK SMILES O=c1c(O)c(-c2ccc(O)cc2O)oc2cc(O)cc(O)c12
REMARK SMILES IDX 5 1 3 2 2 3 1 4 22 5 20 6 19 7 17 8 16 9 15 10 14 11 6 12
REMARK SMILES IDX 8 13 7 14 9 15 11 16 12 17 10 18 13 20 4 22 21 24 18 26
REMARK H PARENT 10 19 13 21 4 23 21 25 18 27
REMARK Flexibility Score: inf
ROOT
ATOM      1  C   UNL     1      15.010  23.685  41.688  1.00  0.00     0.184 A 
ATOM      2  C   UNL     1      15.121  24.672  40.690  1.00  0.00     0.208 A 
ATOM      3  C   UNL     1      16.143  24.560  39.735  1.00  0.00     0.238 A 
ATOM      4  O   UNL     1      16.246  25.434  38.832  1.00  0.00    -0.285 OA
ATOM      5  C   UNL     1      17.043  23.477  39.803  1.00  0.00     0.111 A 
ATOM      6  C   UNL     1      18.102  23.292  38.881  1.00  0.00     0.134 A 
ATOM      7  C   UNL     1      18.961  22.192  39.020  1.00  0.00     0.093 A 
ATOM      8  C   UNL     1      18.780  21.274  40.060  1.00  0.00     0.123 A 
ATOM      9  C   UNL     1      17.737  21.451  40.971  1.00  0.00     0.094 A 
ATOM     10  C   UNL     1      16.870  22.541  40.849  1.00  0.00     0.146 A 
ATOM     11  O   UNL     1      15.883  22.683  41.726  1.00  0.00    -0.451 OA
ENDROOT
BRANCH   1  12
ATOM     12  C   UNL     1      13.945  23.731  42.716  1.00  0.00     0.063 A 
ATOM     13  C   UNL     1      11.657  24.254  43.363  1.00  0.00     0.047 A 
ATOM     14  C   UNL     1      12.670  24.237  42.401  1.00  0.00     0.020 A 
ATOM     15  C   UNL     1      11.896  23.759  44.646  1.00  0.00     0.119 A 
ATOM     16  C   UNL     1      13.157  23.240  44.967  1.00  0.00     0.093 A 
ATOM     17  C   UNL     1      14.180  23.220  44.009  1.00  0.00     0.130 A 
BRANCH  15  18
ATOM     18  O   UNL     1      10.876  23.783  45.594  1.00  0.00    -0.508 OA
ATOM     19  H   UNL     1       9.902  23.852  45.323  1.00  0.00     0.293 HD
ENDBRANCH  15  18
BRANCH  17  20
ATOM     20  O   UNL     1      15.434  22.706  44.343  1.00  0.00    -0.507 OA
ATOM     21  H   UNL     1      15.964  23.065  45.128  1.00  0.00     0.293 HD
ENDBRANCH  17  20
ENDBRANCH   1  12
BRANCH   2  22
ATOM     22  O   UNL     1      14.240  25.757  40.673  1.00  0.00    -0.502 OA
ATOM     23  H   UNL     1      14.510  26.669  40.325  1.00  0.00     0.293 HD
ENDBRANCH   2  22
BRANCH   6  24
ATOM     24  O   UNL     1      18.308  24.191  37.833  1.00  0.00    -0.507 OA
ATOM     25  H   UNL     1      18.034  25.164  37.905  1.00  0.00     0.293 HD
ENDBRANCH   6  24
BRANCH   8  26
ATOM     26  O   UNL     1      19.633  20.181  40.199  1.00  0.00    -0.508 OA
ATOM     27  H   UNL     1      20.640  20.292  40.204  1.00  0.00     0.293 HD
ENDBRANCH   8  26
TORSDOF 6
ENDMDL
MODEL 6
REMARK VINA RESULT:    -7.216      2.085      6.887
REMARK INTER + INTRA:          -8.798
REMARK INTER:                  -8.323
REMARK INTRA:                  -0.475
REMARK UNBOUND:                -0.106
REMARK SMILES O=c1c(O)c(-c2ccc(O)cc2O)oc2cc(O)cc(O)c12
REMARK SMILES IDX 5 1 3 2 2 3 1 4 22 5 20 6 19 7 17 8 16 9 15 10 14 11 6 12
REMARK SMILES IDX 8 13 7 14 9 15 11 16 12 17 10 18 13 20 4 22 21 24 18 26
REMARK H PARENT 10 19 13 21 4 23 21 25 18 27
REMARK Flexibility Score: inf
ROOT
ATOM      1  C   UNL     1      13.875  23.931  42.962  1.00  0.00     0.184 A 
ATOM      2  C   UNL     1      13.657  25.033  42.114  1.00  0.00     0.208 A 
ATOM      3  C   UNL     1      14.414  25.146  40.938  1.00  0.00     0.238 A 
ATOM      4  O   UNL     1      14.221  26.125  40.167  1.00  0.00    -0.285 OA
ATOM      5  C   UNL     1      15.384  24.167  40.638  1.00  0.00     0.111 A 
ATOM      6  C   UNL     1      16.192  24.209  39.475  1.00  0.00     0.134 A 
ATOM      7  C   UNL     1      17.141  23.201  39.252  1.00  0.00     0.093 A 
ATOM      8  C   UNL     1      17.297  22.154  40.167  1.00  0.00     0.123 A 
ATOM      9  C   UNL     1      16.504  22.108  41.314  1.00  0.00     0.094 A 
ATOM     10  C   UNL     1      15.551  23.103  41.555  1.00  0.00     0.146 A 
ATOM     11  O   UNL     1      14.806  23.033  42.652  1.00  0.00    -0.451 OA
ENDROOT
BRANCH   1  12
ATOM     12  C   UNL     1      13.100  23.740  44.209  1.00  0.00     0.063 A 
ATOM     13  C   UNL     1      11.036  23.109  45.335  1.00  0.00     0.047 A 
ATOM     14  C   UNL     1      11.759  23.316  44.158  1.00  0.00     0.020 A 
ATOM     15  C   UNL     1      11.641  23.309  46.577  1.00  0.00     0.119 A 
ATOM     16  C   UNL     1      12.980  23.717  46.641  1.00  0.00     0.093 A 
ATOM     17  C   UNL     1      13.713  23.930  45.465  1.00  0.00     0.130 A 
BRANCH  15  18
ATOM     18  O   UNL     1      10.907  23.098  47.742  1.00  0.00    -0.508 OA
ATOM     19  H   UNL     1      10.828  22.178  48.159  1.00  0.00     0.293 HD
ENDBRANCH  15  18
BRANCH  17  20
ATOM     20  O   UNL     1      15.044  24.342  45.541  1.00  0.00    -0.507 OA
ATOM     21  H   UNL     1      15.806  23.727  45.282  1.00  0.00     0.293 HD
ENDBRANCH  17  20
ENDBRANCH   1  12
BRANCH   2  22
ATOM     22  O   UNL     1      12.718  26.009  42.457  1.00  0.00    -0.502 OA
ATOM     23  H   UNL     1      11.721  25.864  42.349  1.00  0.00     0.293 HD
ENDBRANCH   2  22
BRANCH   6  24
ATOM     24  O   UNL     1      16.059  25.240  38.545  1.00  0.00    -0.507 OA
ATOM     25  H   UNL     1      15.394  25.187  37.782  1.00  0.00     0.293 HD
ENDBRANCH   6  24
BRANCH   8  26
ATOM     26  O   UNL     1      18.241  21.153  39.946  1.00  0.00    -0.508 OA
ATOM     27  H   UNL     1      18.057  20.187  40.191  1.00  0.00     0.293 HD
ENDBRANCH   8  26
TORSDOF 6
ENDMDL
MODEL 7
REMARK VINA RESULT:    -7.097      1.085      1.227
REMARK INTER + INTRA:          -8.655
REMARK INTER:                  -9.189
REMARK INTRA:                   0.535
REMARK UNBOUND:                -0.106
REMARK SMILES O=c1c(O)c(-c2ccc(O)cc2O)oc2cc(O)cc(O)c12
REMARK SMILES IDX 5 1 3 2 2 3 1 4 22 5 20 6 19 7 17 8 16 9 15 10 14 11 6 12
REMARK SMILES IDX 8 13 7 14 9 15 11 16 12 17 10 18 13 20 4 22 21 24 18 26
REMARK H PARENT 10 19 13 21 4 23 21 25 18 27
REMARK Flexibility Score: inf
ROOT
ATOM      1  C   UNL     1      18.216  22.816  39.729  1.00  0.00     0.184 A 
ATOM      2  C   UNL     1      17.891  23.919  38.917  1.00  0.00     0.208 A 
ATOM      3  C   UNL     1      16.734  24.659  39.208  1.00  0.00     0.238 A 
ATOM      4  O   UNL     1      16.438  25.653  38.493  1.00  0.00    -0.285 OA
ATOM      5  C   UNL     1      15.917  24.275  40.292  1.00  0.00     0.111 A 
ATOM      6  C   UNL     1      14.733  24.965  40.650  1.00  0.00     0.134 A 
ATOM      7  C   UNL     1      13.970  24.517  41.737  1.00  0.00     0.093 A 
ATOM      8  C   UNL     1      14.367  23.395  42.473  1.00  0.00     0.123 A 
ATOM      9  C   UNL     1      15.533  22.712  42.124  1.00  0.00     0.094 A 
ATOM     10  C   UNL     1      16.309  23.143  41.044  1.00  0.00     0.146 A 
ATOM     11  O   UNL     1      17.416  22.478  40.736  1.00  0.00    -0.451 OA
ENDROOT
BRANCH   1  12
ATOM     12  C   UNL     1      19.430  22.002  39.491  1.00  0.00     0.063 A 
ATOM     13  C   UNL     1      21.574  21.685  38.382  1.00  0.00     0.047 A 
ATOM     14  C   UNL     1      20.416  22.439  38.587  1.00  0.00     0.020 A 
ATOM     15  C   UNL     1      21.771  20.493  39.083  1.00  0.00     0.119 A 
ATOM     16  C   UNL     1      20.804  20.056  39.996  1.00  0.00     0.093 A 
ATOM     17  C   UNL     1      19.637  20.804  40.206  1.00  0.00     0.130 A 
BRANCH  15  18
ATOM     18  O   UNL     1      22.932  19.753  38.868  1.00  0.00    -0.508 OA
ATOM     19  H   UNL     1      23.491  19.875  38.032  1.00  0.00     0.293 HD
ENDBRANCH  15  18
BRANCH  17  20
ATOM     20  O   UNL     1      18.678  20.355  41.114  1.00  0.00    -0.507 OA
ATOM     21  H   UNL     1      17.697  20.294  40.865  1.00  0.00     0.293 HD
ENDBRANCH  17  20
ENDBRANCH   1  12
BRANCH   2  22
ATOM     22  O   UNL     1      18.697  24.250  37.825  1.00  0.00    -0.502 OA
ATOM     23  H   UNL     1      19.550  24.788  37.925  1.00  0.00     0.293 HD
ENDBRANCH   2  22
BRANCH   6  24
ATOM     24  O   UNL     1      14.312  26.087  39.936  1.00  0.00    -0.507 OA
ATOM     25  H   UNL     1      13.434  26.098  39.430  1.00  0.00     0.293 HD
ENDBRANCH   6  24
BRANCH   8  26
ATOM     26  O   UNL     1      13.608  22.949  43.553  1.00  0.00    -0.508 OA
ATOM     27  H   UNL     1      13.991  22.910  44.490  1.00  0.00     0.293 HD
ENDBRANCH   8  26
TORSDOF 6
ENDMDL
MODEL 8
REMARK VINA RESULT:    -6.351      1.792      6.755
REMARK INTER + INTRA:          -7.756
REMARK INTER:                  -7.749
REMARK INTRA:                  -0.007
REMARK UNBOUND:                -0.106
REMARK SMILES O=c1c(O)c(-c2ccc(O)cc2O)oc2cc(O)cc(O)c12
REMARK SMILES IDX 5 1 3 2 2 3 1 4 22 5 20 6 19 7 17 8 16 9 15 10 14 11 6 12
REMARK SMILES IDX 8 13 7 14 9 15 11 16 12 17 10 18 13 20 4 22 21 24 18 26
REMARK H PARENT 10 19 13 21 4 23 21 25 18 27
REMARK Flexibility Score: inf
ROOT
ATOM      1  C   UNL     1      16.525  23.099  40.707  1.00  0.00     0.184 A 
ATOM      2  C   UNL     1      17.136  21.833  40.625  1.00  0.00     0.208 A 
ATOM      3  C   UNL     1      18.233  21.663  39.765  1.00  0.00     0.238 A 
ATOM      4  O   UNL     1      18.792  20.537  39.690  1.00  0.00    -0.285 OA
ATOM      5  C   UNL     1      18.688  22.753  38.994  1.00  0.00     0.111 A 
ATOM      6  C   UNL     1      19.784  22.665  38.102  1.00  0.00     0.134 A 
ATOM      7  C   UNL     1      20.172  23.792  37.364  1.00  0.00     0.093 A 
ATOM      8  C   UNL     1      19.486  25.005  37.501  1.00  0.00     0.123 A 
ATOM      9  C   UNL     1      18.406  25.096  38.380  1.00  0.00     0.094 A 
ATOM     10  C   UNL     1      18.004  23.984  39.126  1.00  0.00     0.146 A 
ATOM     11  O   UNL     1      16.975  24.100  39.958  1.00  0.00    -0.451 OA
ENDROOT
BRANCH   1  12
ATOM     12  C   UNL     1      15.376  23.353  41.606  1.00  0.00     0.063 A 
ATOM     13  C   UNL     1      14.242  23.005  43.732  1.00  0.00     0.047 A 
ATOM     14  C   UNL     1      15.312  22.743  42.872  1.00  0.00     0.020 A 
ATOM     15  C   UNL     1      13.229  23.885  43.347  1.00  0.00     0.119 A 
ATOM     16  C   UNL     1      13.289  24.509  42.094  1.00  0.00     0.093 A 
ATOM     17  C   UNL     1      14.358  24.251  41.224  1.00  0.00     0.130 A 
BRANCH  15  18
ATOM     18  O   UNL     1      12.168  24.136  44.215  1.00  0.00    -0.508 OA
ATOM     19  H   UNL     1      11.873  25.080  44.431  1.00  0.00     0.293 HD
ENDBRANCH  15  18
BRANCH  17  20
ATOM     20  O   UNL     1      14.404  24.874  39.976  1.00  0.00    -0.507 OA
ATOM     21  H   UNL     1      13.559  25.142  39.485  1.00  0.00     0.293 HD
ENDBRANCH  17  20
ENDBRANCH   1  12
BRANCH   2  22
ATOM     22  O   UNL     1      16.638  20.761  41.370  1.00  0.00    -0.502 OA
ATOM     23  H   UNL     1      16.456  19.854  40.959  1.00  0.00     0.293 HD
ENDBRANCH   2  22
BRANCH   6  24
ATOM     24  O   UNL     1      20.487  21.470  37.944  1.00  0.00    -0.507 OA
ATOM     25  H   UNL     1      20.149  20.729  37.341  1.00  0.00     0.293 HD
ENDBRANCH   6  24
BRANCH   8  26
ATOM     26  O   UNL     1      19.870  26.125  36.767  1.00  0.00    -0.508 OA
ATOM     27  H   UNL     1      20.012  27.025  37.210  1.00  0.00     0.293 HD
ENDBRANCH   8  26
TORSDOF 6
ENDMDL
MODEL 9
REMARK VINA RESULT:    -5.413      1.828      7.408
REMARK INTER + INTRA:          -6.627
REMARK INTER:                  -7.201
REMARK INTRA:                   0.574
REMARK UNBOUND:                -0.106
REMARK SMILES O=c1c(O)c(-c2ccc(O)cc2O)oc2cc(O)cc(O)c12
REMARK SMILES IDX 5 1 3 2 2 3 1 4 22 5 20 6 19 7 17 8 16 9 15 10 14 11 6 12
REMARK SMILES IDX 8 13 7 14 9 15 11 16 12 17 10 18 13 20 4 22 21 24 18 26
REMARK H PARENT 10 19 13 21 4 23 21 25 18 27
REMARK Flexibility Score: inf
ROOT
ATOM      1  C   UNL     1      18.110  22.334  39.805  1.00  0.00     0.184 A 
ATOM      2  C   UNL     1      18.119  21.181  40.612  1.00  0.00     0.208 A 
ATOM      3  C   UNL     1      19.210  20.303  40.530  1.00  0.00     0.238 A 
ATOM      4  O   UNL     1      19.232  19.272  41.255  1.00  0.00    -0.285 OA
ATOM      5  C   UNL     1      20.263  20.583  39.634  1.00  0.00     0.111 A 
ATOM      6  C   UNL     1      21.397  19.747  39.488  1.00  0.00     0.134 A 
ATOM      7  C   UNL     1      22.399  20.090  38.569  1.00  0.00     0.093 A 
ATOM      8  C   UNL     1      22.289  21.251  37.795  1.00  0.00     0.123 A 
ATOM      9  C   UNL     1      21.174  22.077  37.936  1.00  0.00     0.094 A 
ATOM     10  C   UNL     1      20.164  21.754  38.847  1.00  0.00     0.146 A 
ATOM     11  O   UNL     1      19.115  22.560  38.964  1.00  0.00    -0.451 OA
ENDROOT
BRANCH   1  12
ATOM     12  C   UNL     1      17.000  23.313  39.853  1.00  0.00     0.063 A 
ATOM     13  C   UNL     1      14.817  23.988  40.694  1.00  0.00     0.047 A 
ATOM     14  C   UNL     1      15.853  23.053  40.625  1.00  0.00     0.020 A 
ATOM     15  C   UNL     1      14.914  25.198  40.003  1.00  0.00     0.119 A 
ATOM     16  C   UNL     1      16.058  25.474  39.243  1.00  0.00     0.093 A 
ATOM     17  C   UNL     1      17.101  24.540  39.167  1.00  0.00     0.130 A 
BRANCH  15  18
ATOM     18  O   UNL     1      13.873  26.120  40.081  1.00  0.00    -0.508 OA
ATOM     19  H   UNL     1      13.004  25.981  39.581  1.00  0.00     0.293 HD
ENDBRANCH  15  18
BRANCH  17  20
ATOM     20  O   UNL     1      18.232  24.824  38.400  1.00  0.00    -0.507 OA
ATOM     21  H   UNL     1      18.603  24.159  37.733  1.00  0.00     0.293 HD
ENDBRANCH  17  20
ENDBRANCH   1  12
BRANCH   2  22
ATOM     22  O   UNL     1      17.043  20.909  41.461  1.00  0.00    -0.502 OA
ATOM     23  H   UNL     1      16.356  21.612  41.708  1.00  0.00     0.293 HD
ENDBRANCH   2  22
BRANCH   6  24
ATOM     24  O   UNL     1      21.535  18.584  40.246  1.00  0.00    -0.507 OA
ATOM     25  H   UNL     1      22.343  17.980  40.153  1.00  0.00     0.293 HD
ENDBRANCH   6  24
BRANCH   8  26
ATOM     26  O   UNL     1      23.285  21.592  36.881  1.00  0.00    -0.508 OA
ATOM     27  H   UNL     1      23.501  20.999  36.088  1.00  0.00     0.293 HD
ENDBRANCH   8  26
TORSDOF 6
ENDMDL
