MODEL 1
REMARK VINA RESULT:    -4.895      0.000      0.000
REMARK INTER + INTRA:          -5.684
REMARK INTER:                  -5.610
REMARK INTRA:                  -0.073
REMARK UNBOUND:                -0.073
REMARK SMILES CC(C)[C@@H]([NH3+])C(=O)[O-]
REMARK SMILES IDX 4 1 5 2 6 6 7 7 8 8 2 9 1 10 3 11
REMARK H PARENT 5 3 5 4 5 5
REMARK Flexibility Score: inf
ROOT
ATOM      1  C   UNL     1     -19.743  68.505  -0.883  1.00  0.00     0.230 C 
ENDROOT
BRANCH   1   2
ATOM      2  N   UNL     1     -18.529  69.335  -0.850  1.00  0.00    -0.350 N 
ATOM      3  H   UNL     1     -18.470  69.869   0.048  1.00  0.00     0.345 HD
ATOM      4  H   UNL     1     -17.678  68.732  -0.943  1.00  0.00     0.345 HD
ATOM      5  H   UNL     1     -18.524  70.001  -1.654  1.00  0.00     0.345 HD
ENDBRANCH   1   2
BRANCH   1   6
ATOM      6  C   UNL     1     -19.389  67.081  -0.530  1.00  0.00     0.099 C 
ATOM      7  O   UNL     1     -18.994  66.792   0.630  1.00  0.00    -0.544 OA
ATOM      8  O   UNL     1     -19.504  66.080  -1.486  1.00  0.00    -0.544 OA
ENDBRANCH   1   6
BRANCH   1   9
ATOM      9  C   UNL     1     -20.849  69.055   0.069  1.00  0.00     0.047 C 
ATOM     10  C   UNL     1     -20.960  70.587  -0.004  1.00  0.00     0.014 C 
ATOM     11  C   UNL     1     -22.221  68.435  -0.254  1.00  0.00     0.014 C 
ENDBRANCH   1   9
TORSDOF 3
ENDMDL
MODEL 2
REMARK VINA RESULT:    -4.869      2.729      3.710
REMARK INTER + INTRA:          -5.654
REMARK INTER:                  -5.579
REMARK INTRA:                  -0.076
REMARK UNBOUND:                -0.073
REMARK SMILES CC(C)[C@@H]([NH3+])C(=O)[O-]
REMARK SMILES IDX 4 1 5 2 6 6 7 7 8 8 2 9 1 10 3 11
REMARK H PARENT 5 3 5 4 5 5
REMARK Flexibility Score: inf
ROOT
ATOM      1  C   UNL     1     -21.643  68.642  -0.458  1.00  0.00     0.230 C 
ENDROOT
BRANCH   1   2
ATOM      2  N   UNL     1     -22.930  67.931  -0.503  1.00  0.00    -0.350 N 
ATOM      3  H   UNL     1     -23.045  67.319   0.339  1.00  0.00     0.345 HD
ATOM      4  H   UNL     1     -23.720  68.617  -0.536  1.00  0.00     0.345 HD
ATOM      5  H   UNL     1     -22.992  67.349  -1.369  1.00  0.00     0.345 HD
ENDBRANCH   1   2
BRANCH   1   6
ATOM      6  C   UNL     1     -21.487  69.314   0.883  1.00  0.00     0.099 C 
ATOM      7  O   UNL     1     -21.586  70.566   0.984  1.00  0.00    -0.544 OA
ATOM      8  O   UNL     1     -21.238  68.552   2.017  1.00  0.00    -0.544 OA
ENDBRANCH   1   6
BRANCH   1   9
ATOM      9  C   UNL     1     -20.442  67.690  -0.747  1.00  0.00     0.047 C 
ATOM     10  C   UNL     1     -20.696  66.801  -1.976  1.00  0.00     0.014 C 
ATOM     11  C   UNL     1     -19.141  68.484  -0.960  1.00  0.00     0.014 C 
ENDBRANCH   1   9
TORSDOF 3
ENDMDL
MODEL 3
REMARK VINA RESULT:    -4.711      0.517      1.769
REMARK INTER + INTRA:          -5.473
REMARK INTER:                  -5.629
REMARK INTRA:                   0.156
REMARK UNBOUND:                -0.073
REMARK SMILES CC(C)[C@@H]([NH3+])C(=O)[O-]
REMARK SMILES IDX 4 1 5 2 6 6 7 7 8 8 2 9 1 10 3 11
REMARK H PARENT 5 3 5 4 5 5
REMARK Flexibility Score: inf
ROOT
ATOM      1  C   UNL     1     -19.677  68.520  -1.402  1.00  0.00     0.230 C 
ENDROOT
BRANCH   1   2
ATOM      2  N   UNL     1     -18.570  69.390  -0.979  1.00  0.00    -0.350 N 
ATOM      3  H   UNL     1     -18.682  69.670   0.023  1.00  0.00     0.345 HD
ATOM      4  H   UNL     1     -17.656  68.892  -1.094  1.00  0.00     0.345 HD
ATOM      5  H   UNL     1     -18.531  70.245  -1.579  1.00  0.00     0.345 HD
ENDBRANCH   1   2
BRANCH   1   6
ATOM      6  C   UNL     1     -19.502  67.151  -0.794  1.00  0.00     0.099 C 
ATOM      7  O   UNL     1     -19.656  66.116  -1.496  1.00  0.00    -0.544 OA
ATOM      8  O   UNL     1     -19.161  67.025   0.547  1.00  0.00    -0.544 OA
ENDBRANCH   1   6
BRANCH   1   9
ATOM      9  C   UNL     1     -21.066  69.121  -1.026  1.00  0.00     0.047 C 
ATOM     10  C   UNL     1     -22.038  68.046  -0.514  1.00  0.00     0.014 C 
ATOM     11  C   UNL     1     -20.926  70.222   0.041  1.00  0.00     0.014 C 
ENDBRANCH   1   9
TORSDOF 3
ENDMDL
MODEL 4
REMARK VINA RESULT:    -4.593      2.972      3.617
REMARK INTER + INTRA:          -5.337
REMARK INTER:                  -5.276
REMARK INTRA:                  -0.062
REMARK UNBOUND:                -0.073
REMARK SMILES CC(C)[C@@H]([NH3+])C(=O)[O-]
REMARK SMILES IDX 4 1 5 2 6 6 7 7 8 8 2 9 1 10 3 11
REMARK H PARENT 5 3 5 4 5 5
REMARK Flexibility Score: inf
ROOT
ATOM      1  C   UNL     1     -21.653  68.856  -0.771  1.00  0.00     0.230 C 
ENDROOT
BRANCH   1   2
ATOM      2  N   UNL     1     -22.725  67.988  -0.259  1.00  0.00    -0.350 N 
ATOM      3  H   UNL     1     -22.858  67.158  -0.882  1.00  0.00     0.345 HD
ATOM      4  H   UNL     1     -22.490  67.656   0.706  1.00  0.00     0.345 HD
ATOM      5  H   UNL     1     -23.621  68.522  -0.190  1.00  0.00     0.345 HD
ENDBRANCH   1   2
BRANCH   1   6
ATOM      6  C   UNL     1     -21.406  69.979   0.205  1.00  0.00     0.099 C 
ATOM      7  O   UNL     1     -21.951  69.969   1.340  1.00  0.00    -0.544 OA
ATOM      8  O   UNL     1     -20.567  71.030  -0.143  1.00  0.00    -0.544 OA
ENDBRANCH   1   6
BRANCH   1   9
ATOM      9  C   UNL     1     -20.341  68.058  -1.045  1.00  0.00     0.047 C 
ATOM     10  C   UNL     1     -19.679  67.576   0.257  1.00  0.00     0.014 C 
ATOM     11  C   UNL     1     -20.606  66.845  -1.954  1.00  0.00     0.014 C 
ENDBRANCH   1   9
TORSDOF 3
ENDMDL
MODEL 5
REMARK VINA RESULT:    -4.476      1.927      2.253
REMARK INTER + INTRA:          -5.204
REMARK INTER:                  -5.147
REMARK INTRA:                  -0.057
REMARK UNBOUND:                -0.073
REMARK SMILES CC(C)[C@@H]([NH3+])C(=O)[O-]
REMARK SMILES IDX 4 1 5 2 6 6 7 7 8 8 2 9 1 10 3 11
REMARK H PARENT 5 3 5 4 5 5
REMARK Flexibility Score: inf
ROOT
ATOM      1  C   UNL     1     -20.575  69.318  -0.644  1.00  0.00     0.230 C 
ENDROOT
BRANCH   1   2
ATOM      2  N   UNL     1     -20.840  70.639  -0.053  1.00  0.00    -0.350 N 
ATOM      3  H   UNL     1     -20.487  71.401  -0.678  1.00  0.00     0.345 HD
ATOM      4  H   UNL     1     -21.868  70.768   0.094  1.00  0.00     0.345 HD
ATOM      5  H   UNL     1     -20.383  70.715   0.884  1.00  0.00     0.345 HD
ENDBRANCH   1   2
BRANCH   1   6
ATOM      6  C   UNL     1     -19.087  69.084  -0.706  1.00  0.00     0.099 C 
ATOM      7  O   UNL     1     -18.305  70.027  -1.000  1.00  0.00    -0.544 OA
ATOM      8  O   UNL     1     -18.569  67.824  -0.432  1.00  0.00    -0.544 OA
ENDBRANCH   1   6
BRANCH   1   9
ATOM      9  C   UNL     1     -21.286  68.175   0.145  1.00  0.00     0.047 C 
ATOM     10  C   UNL     1     -21.412  68.503   1.642  1.00  0.00     0.014 C 
ATOM     11  C   UNL     1     -22.686  67.890  -0.427  1.00  0.00     0.014 C 
ENDBRANCH   1   9
TORSDOF 3
ENDMDL
MODEL 6
REMARK VINA RESULT:    -4.466      1.867      2.306
REMARK INTER + INTRA:          -5.192
REMARK INTER:                  -5.122
REMARK INTRA:                  -0.070
REMARK UNBOUND:                -0.073
REMARK SMILES CC(C)[C@@H]([NH3+])C(=O)[O-]
REMARK SMILES IDX 4 1 5 2 6 6 7 7 8 8 2 9 1 10 3 11
REMARK H PARENT 5 3 5 4 5 5
REMARK Flexibility Score: inf
ROOT
ATOM      1  C   UNL     1     -20.230  67.558  -0.518  1.00  0.00     0.230 C 
ENDROOT
BRANCH   1   2
ATOM      2  N   UNL     1     -20.470  67.106  -1.897  1.00  0.00    -0.350 N 
ATOM      3  H   UNL     1     -20.068  67.785  -2.584  1.00  0.00     0.345 HD
ATOM      4  H   UNL     1     -20.032  66.168  -2.050  1.00  0.00     0.345 HD
ATOM      5  H   UNL     1     -21.495  66.999  -2.070  1.00  0.00     0.345 HD
ENDBRANCH   1   2
BRANCH   1   6
ATOM      6  C   UNL     1     -18.894  68.254  -0.442  1.00  0.00     0.099 C 
ATOM      7  O   UNL     1     -17.898  67.668   0.059  1.00  0.00    -0.544 OA
ATOM      8  O   UNL     1     -18.755  69.546  -0.933  1.00  0.00    -0.544 OA
ENDBRANCH   1   6
BRANCH   1   9
ATOM      9  C   UNL     1     -21.372  68.488  -0.004  1.00  0.00     0.047 C 
ATOM     10  C   UNL     1     -22.756  68.011  -0.473  1.00  0.00     0.014 C 
ATOM     11  C   UNL     1     -21.365  68.582   1.532  1.00  0.00     0.014 C 
ENDBRANCH   1   9
TORSDOF 3
ENDMDL
MODEL 7
REMARK VINA RESULT:    -4.410      2.623      3.484
REMARK INTER + INTRA:          -5.128
REMARK INTER:                  -5.077
REMARK INTRA:                  -0.050
REMARK UNBOUND:                -0.073
REMARK SMILES CC(C)[C@@H]([NH3+])C(=O)[O-]
REMARK SMILES IDX 4 1 5 2 6 6 7 7 8 8 2 9 1 10 3 11
REMARK H PARENT 5 3 5 4 5 5
REMARK Flexibility Score: inf
ROOT
ATOM      1  C   UNL     1     -20.858  68.260  -1.207  1.00  0.00     0.230 C 
ENDROOT
BRANCH   1   2
ATOM      2  N   UNL     1     -20.792  66.931  -1.834  1.00  0.00    -0.350 N 
ATOM      3  H   UNL     1     -21.734  66.640  -2.184  1.00  0.00     0.345 HD
ATOM      4  H   UNL     1     -20.120  66.945  -2.636  1.00  0.00     0.345 HD
ATOM      5  H   UNL     1     -20.439  66.224  -1.150  1.00  0.00     0.345 HD
ENDBRANCH   1   2
BRANCH   1   6
ATOM      6  C   UNL     1     -22.173  68.410  -0.483  1.00  0.00     0.099 C 
ATOM      7  O   UNL     1     -23.132  67.633  -0.736  1.00  0.00    -0.544 OA
ATOM      8  O   UNL     1     -22.330  69.405   0.473  1.00  0.00    -0.544 OA
ENDBRANCH   1   6
BRANCH   1   9
ATOM      9  C   UNL     1     -19.660  68.506  -0.239  1.00  0.00     0.047 C 
ATOM     10  C   UNL     1     -18.995  67.191   0.199  1.00  0.00     0.014 C 
ATOM     11  C   UNL     1     -18.599  69.414  -0.886  1.00  0.00     0.014 C 
ENDBRANCH   1   9
TORSDOF 3
ENDMDL
MODEL 8
REMARK VINA RESULT:    -4.401      2.309      3.226
REMARK INTER + INTRA:          -5.118
REMARK INTER:                  -5.052
REMARK INTRA:                  -0.066
REMARK UNBOUND:                -0.073
REMARK SMILES CC(C)[C@@H]([NH3+])C(=O)[O-]
REMARK SMILES IDX 4 1 5 2 6 6 7 7 8 8 2 9 1 10 3 11
REMARK H PARENT 5 3 5 4 5 5
REMARK Flexibility Score: inf
ROOT
ATOM      1  C   UNL     1     -20.858  69.046   0.424  1.00  0.00     0.230 C 
ENDROOT
BRANCH   1   2
ATOM      2  N   UNL     1     -21.103  70.425  -0.027  1.00  0.00    -0.350 N 
ATOM      3  H   UNL     1     -20.289  70.785  -0.577  1.00  0.00     0.345 HD
ATOM      4  H   UNL     1     -21.961  70.460  -0.626  1.00  0.00     0.345 HD
ATOM      5  H   UNL     1     -21.275  71.049   0.793  1.00  0.00     0.345 HD
ENDBRANCH   1   2
BRANCH   1   6
ATOM      6  C   UNL     1     -22.156  68.277   0.419  1.00  0.00     0.099 C 
ATOM      7  O   UNL     1     -22.639  67.848  -0.662  1.00  0.00    -0.544 OA
ATOM      8  O   UNL     1     -22.823  68.033   1.613  1.00  0.00    -0.544 OA
ENDBRANCH   1   6
BRANCH   1   9
ATOM      9  C   UNL     1     -19.785  68.330  -0.452  1.00  0.00     0.047 C 
ATOM     10  C   UNL     1     -18.677  69.295  -0.906  1.00  0.00     0.014 C 
ATOM     11  C   UNL     1     -19.146  67.150   0.303  1.00  0.00     0.014 C 
ENDBRANCH   1   9
TORSDOF 3
ENDMDL
MODEL 9
REMARK VINA RESULT:    -4.340      2.411      3.301
REMARK INTER + INTRA:          -5.048
REMARK INTER:                  -5.019
REMARK INTRA:                  -0.029
REMARK UNBOUND:                -0.073
REMARK SMILES CC(C)[C@@H]([NH3+])C(=O)[O-]
REMARK SMILES IDX 4 1 5 2 6 6 7 7 8 8 2 9 1 10 3 11
REMARK H PARENT 5 3 5 4 5 5
REMARK Flexibility Score: inf
ROOT
ATOM      1  C   UNL     1     -19.683  69.076  -0.172  1.00  0.00     0.230 C 
ENDROOT
BRANCH   1   2
ATOM      2  N   UNL     1     -18.841  69.456  -1.317  1.00  0.00    -0.350 N 
ATOM      3  H   UNL     1     -17.996  69.985  -0.995  1.00  0.00     0.345 HD
ATOM      4  H   UNL     1     -18.531  68.601  -1.834  1.00  0.00     0.345 HD
ATOM      5  H   UNL     1     -19.385  70.043  -1.988  1.00  0.00     0.345 HD
ENDBRANCH   1   2
BRANCH   1   6
ATOM      6  C   UNL     1     -20.904  69.961  -0.131  1.00  0.00     0.099 C 
ATOM      7  O   UNL     1     -20.783  71.211  -0.045  1.00  0.00    -0.544 OA
ATOM      8  O   UNL     1     -22.173  69.397  -0.194  1.00  0.00    -0.544 OA
ENDBRANCH   1   6
BRANCH   1   9
ATOM      9  C   UNL     1     -20.088  67.571  -0.222  1.00  0.00     0.047 C 
ATOM     10  C   UNL     1     -20.142  67.038  -1.664  1.00  0.00     0.014 C 
ATOM     11  C   UNL     1     -19.114  66.705   0.598  1.00  0.00     0.014 C 
ENDBRANCH   1   9
TORSDOF 3
ENDMDL
