MODEL 1
REMARK VINA RESULT:    -7.227      0.000      0.000
REMARK INTER + INTRA:         -14.397
REMARK INTER:                 -12.508
REMARK INTRA:                  -1.889
REMARK UNBOUND:                -1.889
REMARK SMILES OC[C@@H]1O[C@@H](O[C@H]2[C@H](O)[C@@H](O)[C@@H](O)O[C@@H]2CO)[C@@H](O)[C@@H](O)[C@H]1O[C@@H]1O[C@H](CO)[C@H](O)[C@@H](O)[C@H]1O
REMARK SMILES IDX 22 1 3 2 4 3 5 4 18 5 20 6 23 7 24 8 26 9 29 10 25 11 31 12
REMARK SMILES IDX 33 13 27 14 28 15 30 17 32 19 34 21 2 23 1 24 21 26 19 28
REMARK SMILES IDX 6 30 7 31 15 32 8 33 14 34 10 35 12 36 16 37 17 38 9 40
REMARK SMILES IDX 11 42 13 44
REMARK H PARENT 28 16 30 18 32 20 34 22 1 25 21 27 19 29 17 39 9 41 11 43
REMARK H PARENT 13 45
REMARK Flexibility Score: inf
ROOT
ATOM      1  C   UNL     1      19.843  13.671  35.700  1.00  0.00     0.184 C 
ATOM      2  C   UNL     1      18.650  13.196  36.605  1.00  0.00     0.178 C 
ATOM      3  O   UNL     1      18.472  11.784  36.663  1.00  0.00    -0.341 OA
ATOM      4  C   UNL     1      18.309  11.207  35.377  1.00  0.00     0.282 C 
ATOM      5  C   UNL     1      19.603  11.388  34.587  1.00  0.00     0.202 C 
ATOM      6  C   UNL     1      19.870  12.886  34.350  1.00  0.00     0.180 C 
ENDROOT
BRANCH   1   7
ATOM      7  O   UNL     1      19.677  15.087  35.587  1.00  0.00    -0.341 OA
BRANCH   7   8
ATOM      8  C   UNL     1      20.156  15.701  34.403  1.00  0.00     0.282 C 
ATOM      9  C   UNL     1      21.853  17.061  33.533  1.00  0.00     0.178 C 
ATOM     10  C   UNL     1      20.840  18.027  32.842  1.00  0.00     0.177 C 
ATOM     11  O   UNL     1      21.302  16.490  34.712  1.00  0.00    -0.341 OA
ATOM     12  C   UNL     1      19.478  17.326  32.605  1.00  0.00     0.179 C 
ATOM     13  C   UNL     1      19.021  16.612  33.886  1.00  0.00     0.202 C 
BRANCH   9  14
ATOM     14  C   UNL     1      23.200  17.754  33.858  1.00  0.00     0.191 C 
BRANCH  14  15
ATOM     15  O   UNL     1      23.456  18.769  32.933  1.00  0.00    -0.394 OA
ATOM     16  H   UNL     1      24.267  18.493  32.433  1.00  0.00     0.210 HD
ENDBRANCH  14  15
ENDBRANCH   9  14
BRANCH  10  17
ATOM     17  O   UNL     1      20.689  19.223  33.561  1.00  0.00    -0.387 OA
ATOM     18  H   UNL     1      21.092  19.099  34.455  1.00  0.00     0.211 HD
ENDBRANCH  10  17
BRANCH  12  19
ATOM     19  O   UNL     1      19.619  16.394  31.557  1.00  0.00    -0.387 OA
ATOM     20  H   UNL     1      20.000  15.568  31.959  1.00  0.00     0.211 HD
ENDBRANCH  12  19
BRANCH  13  21
ATOM     21  O   UNL     1      17.848  15.871  33.639  1.00  0.00    -0.385 OA
ATOM     22  H   UNL     1      17.299  15.927  34.470  1.00  0.00     0.211 HD
ENDBRANCH  13  21
ENDBRANCH   7   8
ENDBRANCH   1   7
BRANCH   2  23
ATOM     23  C   UNL     1      18.853  13.709  38.043  1.00  0.00     0.191 C 
BRANCH  23  24
ATOM     24  O   UNL     1      20.189  14.088  38.247  1.00  0.00    -0.394 OA
ATOM     25  H   UNL     1      20.207  15.079  38.232  1.00  0.00     0.210 HD
ENDBRANCH  23  24
ENDBRANCH   2  23
BRANCH   6  26
ATOM     26  O   UNL     1      18.922  13.420  33.460  1.00  0.00    -0.387 OA
ATOM     27  H   UNL     1      19.173  13.126  32.549  1.00  0.00     0.211 HD
ENDBRANCH   6  26
BRANCH   5  28
ATOM     28  O   UNL     1      19.585  10.658  33.384  1.00  0.00    -0.385 OA
ATOM     29  H   UNL     1      18.831  10.990  32.828  1.00  0.00     0.211 HD
ENDBRANCH   5  28
BRANCH   4  30
ATOM     30  O   UNL     1      17.238  11.793  34.659  1.00  0.00    -0.341 OA
BRANCH  30  31
ATOM     31  C   UNL     1      16.023  11.064  34.732  1.00  0.00     0.184 C 
ATOM     32  C   UNL     1      15.175  11.375  33.457  1.00  0.00     0.178 C 
ATOM     33  C   UNL     1      15.310  11.510  36.032  1.00  0.00     0.180 C 
ATOM     34  O   UNL     1      14.627  12.691  33.353  1.00  0.00    -0.342 OA
ATOM     35  C   UNL     1      14.292  12.649  35.802  1.00  0.00     0.201 C 
ATOM     36  C   UNL     1      14.651  13.465  34.547  1.00  0.00     0.279 C 
BRANCH  32  37
ATOM     37  C   UNL     1      14.083  10.319  33.174  1.00  0.00     0.191 C 
BRANCH  37  38
ATOM     38  O   UNL     1      14.169   9.247  34.073  1.00  0.00    -0.394 OA
ATOM     39  H   UNL     1      13.615   9.472  34.871  1.00  0.00     0.210 HD
ENDBRANCH  37  38
ENDBRANCH  32  37
BRANCH  33  40
ATOM     40  O   UNL     1      14.730  10.416  36.699  1.00  0.00    -0.387 OA
ATOM     41  H   UNL     1      15.429   9.982  37.252  1.00  0.00     0.211 HD
ENDBRANCH  33  40
BRANCH  35  42
ATOM     42  O   UNL     1      14.250  13.497  36.921  1.00  0.00    -0.385 OA
ATOM     43  H   UNL     1      13.538  14.165  36.747  1.00  0.00     0.211 HD
ENDBRANCH  35  42
BRANCH  36  44
ATOM     44  O   UNL     1      15.900  14.097  34.681  1.00  0.00    -0.366 OA
ATOM     45  H   UNL     1      15.938  14.820  34.003  1.00  0.00     0.213 HD
ENDBRANCH  36  44
ENDBRANCH  30  31
ENDBRANCH   4  30
TORSDOF 18
ENDMDL
MODEL 2
REMARK VINA RESULT:    -7.175      1.607      2.105
REMARK INTER + INTRA:         -14.307
REMARK INTER:                 -11.697
REMARK INTRA:                  -2.610
REMARK UNBOUND:                -1.889
REMARK SMILES OC[C@@H]1O[C@@H](O[C@H]2[C@H](O)[C@@H](O)[C@@H](O)O[C@@H]2CO)[C@@H](O)[C@@H](O)[C@H]1O[C@@H]1O[C@H](CO)[C@H](O)[C@@H](O)[C@H]1O
REMARK SMILES IDX 22 1 3 2 4 3 5 4 18 5 20 6 23 7 24 8 26 9 29 10 25 11 31 12
REMARK SMILES IDX 33 13 27 14 28 15 30 17 32 19 34 21 2 23 1 24 21 26 19 28
REMARK SMILES IDX 6 30 7 31 15 32 8 33 14 34 10 35 12 36 16 37 17 38 9 40
REMARK SMILES IDX 11 42 13 44
REMARK H PARENT 28 16 30 18 32 20 34 22 1 25 21 27 19 29 17 39 9 41 11 43
REMARK H PARENT 13 45
REMARK Flexibility Score: inf
ROOT
ATOM      1  C   UNL     1      18.933  14.015  35.020  1.00  0.00     0.184 C 
ATOM      2  C   UNL     1      18.425  13.662  36.464  1.00  0.00     0.178 C 
ATOM      3  O   UNL     1      18.103  12.289  36.664  1.00  0.00    -0.341 OA
ATOM      4  C   UNL     1      17.144  11.817  35.731  1.00  0.00     0.282 C 
ATOM      5  C   UNL     1      17.756  11.859  34.332  1.00  0.00     0.202 C 
ATOM      6  C   UNL     1      18.059  13.315  33.932  1.00  0.00     0.180 C 
ENDROOT
BRANCH   1   7
ATOM      7  O   UNL     1      18.946  15.445  34.974  1.00  0.00    -0.341 OA
BRANCH   7   8
ATOM      8  C   UNL     1      19.826  16.052  34.044  1.00  0.00     0.282 C 
ATOM      9  C   UNL     1      22.067  16.201  33.383  1.00  0.00     0.178 C 
ATOM     10  C   UNL     1      22.055  17.762  33.396  1.00  0.00     0.177 C 
ATOM     11  O   UNL     1      21.165  15.668  34.343  1.00  0.00    -0.341 OA
ATOM     12  C   UNL     1      20.612  18.307  33.251  1.00  0.00     0.179 C 
ATOM     13  C   UNL     1      19.671  17.579  34.222  1.00  0.00     0.202 C 
BRANCH   9  14
ATOM     14  C   UNL     1      23.486  15.620  33.608  1.00  0.00     0.191 C 
BRANCH  14  15
ATOM     15  O   UNL     1      23.603  14.376  32.983  1.00  0.00    -0.394 OA
ATOM     16  H   UNL     1      23.906  14.557  32.055  1.00  0.00     0.210 HD
ENDBRANCH  14  15
ENDBRANCH   9  14
BRANCH  10  17
ATOM     17  O   UNL     1      22.691  18.276  34.538  1.00  0.00    -0.387 OA
ATOM     18  H   UNL     1      22.057  18.878  35.000  1.00  0.00     0.211 HD
ENDBRANCH  10  17
BRANCH  12  19
ATOM     19  O   UNL     1      20.181  18.111  31.923  1.00  0.00    -0.387 OA
ATOM     20  H   UNL     1      20.539  18.871  31.391  1.00  0.00     0.211 HD
ENDBRANCH  12  19
BRANCH  13  21
ATOM     21  O   UNL     1      18.339  17.983  34.004  1.00  0.00    -0.385 OA
ATOM     22  H   UNL     1      17.912  18.044  34.904  1.00  0.00     0.211 HD
ENDBRANCH  13  21
ENDBRANCH   7   8
ENDBRANCH   1   7
BRANCH   2  23
ATOM     23  C   UNL     1      19.494  14.056  37.501  1.00  0.00     0.191 C 
BRANCH  23  24
ATOM     24  O   UNL     1      20.751  14.179  36.890  1.00  0.00    -0.394 OA
ATOM     25  H   UNL     1      21.149  13.272  36.876  1.00  0.00     0.210 HD
ENDBRANCH  23  24
ENDBRANCH   2  23
BRANCH   6  26
ATOM     26  O   UNL     1      16.864  14.029  33.736  1.00  0.00    -0.387 OA
ATOM     27  H   UNL     1      16.167  13.599  34.292  1.00  0.00     0.211 HD
ENDBRANCH   6  26
BRANCH   5  28
ATOM     28  O   UNL     1      16.939  11.210  33.387  1.00  0.00    -0.385 OA
ATOM     29  H   UNL     1      16.947  11.743  32.548  1.00  0.00     0.211 HD
ENDBRANCH   5  28
BRANCH   4  30
ATOM     30  O   UNL     1      15.958  12.591  35.743  1.00  0.00    -0.341 OA
BRANCH  30  31
ATOM     31  C   UNL     1      14.876  11.981  36.429  1.00  0.00     0.184 C 
ATOM     32  C   UNL     1      14.594  10.587  35.781  1.00  0.00     0.178 C 
ATOM     33  C   UNL     1      13.667  12.941  36.304  1.00  0.00     0.180 C 
ATOM     34  O   UNL     1      14.036  10.591  34.466  1.00  0.00    -0.342 OA
ATOM     35  C   UNL     1      12.745  12.597  35.113  1.00  0.00     0.201 C 
ATOM     36  C   UNL     1      13.517  11.837  34.018  1.00  0.00     0.279 C 
BRANCH  32  37
ATOM     37  C   UNL     1      13.793   9.636  36.698  1.00  0.00     0.191 C 
BRANCH  37  38
ATOM     38  O   UNL     1      12.772   8.987  35.990  1.00  0.00    -0.394 OA
ATOM     39  H   UNL     1      13.145   8.699  35.111  1.00  0.00     0.210 HD
ENDBRANCH  37  38
ENDBRANCH  32  37
BRANCH  33  40
ATOM     40  O   UNL     1      12.952  13.025  37.512  1.00  0.00    -0.387 OA
ATOM     41  H   UNL     1      13.555  12.753  38.250  1.00  0.00     0.211 HD
ENDBRANCH  33  40
BRANCH  35  42
ATOM     42  O   UNL     1      12.191  13.769  34.572  1.00  0.00    -0.385 OA
ATOM     43  H   UNL     1      12.160  13.644  33.589  1.00  0.00     0.211 HD
ENDBRANCH  35  42
BRANCH  36  44
ATOM     44  O   UNL     1      14.553  12.620  33.479  1.00  0.00    -0.366 OA
ATOM     45  H   UNL     1      15.403  12.296  33.875  1.00  0.00     0.213 HD
ENDBRANCH  36  44
ENDBRANCH  30  31
ENDBRANCH   4  30
TORSDOF 18
ENDMDL
MODEL 3
REMARK VINA RESULT:    -7.110      1.937      7.839
REMARK INTER + INTRA:         -14.195
REMARK INTER:                 -11.679
REMARK INTRA:                  -2.516
REMARK UNBOUND:                -1.889
REMARK SMILES OC[C@@H]1O[C@@H](O[C@H]2[C@H](O)[C@@H](O)[C@@H](O)O[C@@H]2CO)[C@@H](O)[C@@H](O)[C@H]1O[C@@H]1O[C@H](CO)[C@H](O)[C@@H](O)[C@H]1O
REMARK SMILES IDX 22 1 3 2 4 3 5 4 18 5 20 6 23 7 24 8 26 9 29 10 25 11 31 12
REMARK SMILES IDX 33 13 27 14 28 15 30 17 32 19 34 21 2 23 1 24 21 26 19 28
REMARK SMILES IDX 6 30 7 31 15 32 8 33 14 34 10 35 12 36 16 37 17 38 9 40
REMARK SMILES IDX 11 42 13 44
REMARK H PARENT 28 16 30 18 32 20 34 22 1 25 21 27 19 29 17 39 9 41 11 43
REMARK H PARENT 13 45
REMARK Flexibility Score: inf
ROOT
ATOM      1  C   UNL     1      16.930  12.148  35.757  1.00  0.00     0.184 C 
ATOM      2  C   UNL     1      17.339  12.238  34.243  1.00  0.00     0.178 C 
ATOM      3  O   UNL     1      18.590  11.635  33.927  1.00  0.00    -0.341 OA
ATOM      4  C   UNL     1      19.654  12.160  34.704  1.00  0.00     0.282 C 
ATOM      5  C   UNL     1      19.422  11.794  36.169  1.00  0.00     0.202 C 
ATOM      6  C   UNL     1      18.141  12.475  36.686  1.00  0.00     0.180 C 
ENDROOT
BRANCH   1   7
ATOM      7  O   UNL     1      15.801  13.017  35.885  1.00  0.00    -0.341 OA
BRANCH   7   8
ATOM      8  C   UNL     1      14.664  12.504  36.557  1.00  0.00     0.282 C 
ATOM      9  C   UNL     1      13.762  10.585  37.550  1.00  0.00     0.178 C 
ATOM     10  C   UNL     1      12.426  10.698  36.751  1.00  0.00     0.177 C 
ATOM     11  O   UNL     1      14.854  11.115  36.810  1.00  0.00    -0.341 OA
ATOM     12  C   UNL     1      12.190  12.151  36.267  1.00  0.00     0.179 C 
ATOM     13  C   UNL     1      13.462  12.701  35.606  1.00  0.00     0.202 C 
BRANCH   9  14
ATOM     14  C   UNL     1      14.070   9.129  37.981  1.00  0.00     0.191 C 
BRANCH  14  15
ATOM     15  O   UNL     1      12.881   8.421  38.176  1.00  0.00    -0.394 OA
ATOM     16  H   UNL     1      12.658   8.511  39.138  1.00  0.00     0.210 HD
ENDBRANCH  14  15
ENDBRANCH   9  14
BRANCH  10  17
ATOM     17  O   UNL     1      12.377   9.782  35.688  1.00  0.00    -0.387 OA
ATOM     18  H   UNL     1      12.703   8.909  36.016  1.00  0.00     0.211 HD
ENDBRANCH  10  17
BRANCH  12  19
ATOM     19  O   UNL     1      11.835  12.950  37.372  1.00  0.00    -0.387 OA
ATOM     20  H   UNL     1      12.341  12.598  38.153  1.00  0.00     0.211 HD
ENDBRANCH  12  19
BRANCH  13  21
ATOM     21  O   UNL     1      13.292  14.061  35.279  1.00  0.00    -0.385 OA
ATOM     22  H   UNL     1      12.570  14.096  34.589  1.00  0.00     0.211 HD
ENDBRANCH  13  21
ENDBRANCH   7   8
ENDBRANCH   1   7
BRANCH   2  23
ATOM     23  C   UNL     1      16.257  11.572  33.372  1.00  0.00     0.191 C 
BRANCH  23  24
ATOM     24  O   UNL     1      15.613  10.548  34.084  1.00  0.00    -0.394 OA
ATOM     25  H   UNL     1      16.156   9.730  33.956  1.00  0.00     0.210 HD
ENDBRANCH  23  24
ENDBRANCH   2  23
BRANCH   6  26
ATOM     26  O   UNL     1      18.325  13.867  36.771  1.00  0.00    -0.387 OA
ATOM     27  H   UNL     1      17.829  14.182  37.568  1.00  0.00     0.211 HD
ENDBRANCH   6  26
BRANCH   5  28
ATOM     28  O   UNL     1      20.541  12.100  36.965  1.00  0.00    -0.385 OA
ATOM     29  H   UNL     1      20.912  11.249  37.323  1.00  0.00     0.211 HD
ENDBRANCH   5  28
BRANCH   4  30
ATOM     30  O   UNL     1      19.761  13.567  34.588  1.00  0.00    -0.341 OA
BRANCH  30  31
ATOM     31  C   UNL     1      20.905  14.005  33.871  1.00  0.00     0.184 C 
ATOM     32  C   UNL     1      21.646  15.085  34.724  1.00  0.00     0.178 C 
ATOM     33  C   UNL     1      20.400  14.570  32.521  1.00  0.00     0.180 C 
ATOM     34  O   UNL     1      20.994  16.347  34.872  1.00  0.00    -0.342 OA
ATOM     35  C   UNL     1      20.177  16.099  32.553  1.00  0.00     0.201 C 
ATOM     36  C   UNL     1      19.906  16.588  33.987  1.00  0.00     0.279 C 
BRANCH  32  37
ATOM     37  C   UNL     1      23.119  15.291  34.304  1.00  0.00     0.191 C 
BRANCH  37  38
ATOM     38  O   UNL     1      23.569  14.240  33.494  1.00  0.00    -0.394 OA
ATOM     39  H   UNL     1      22.992  14.212  32.681  1.00  0.00     0.210 HD
ENDBRANCH  37  38
ENDBRANCH  32  37
BRANCH  33  40
ATOM     40  O   UNL     1      21.239  14.186  31.459  1.00  0.00    -0.387 OA
ATOM     41  H   UNL     1      22.168  14.133  31.800  1.00  0.00     0.211 HD
ENDBRANCH  33  40
BRANCH  35  42
ATOM     42  O   UNL     1      19.099  16.450  31.723  1.00  0.00    -0.385 OA
ATOM     43  H   UNL     1      19.250  16.000  30.852  1.00  0.00     0.211 HD
ENDBRANCH  35  42
BRANCH  36  44
ATOM     44  O   UNL     1      18.730  16.024  34.512  1.00  0.00    -0.366 OA
ATOM     45  H   UNL     1      18.938  15.711  35.430  1.00  0.00     0.213 HD
ENDBRANCH  36  44
ENDBRANCH  30  31
ENDBRANCH   4  30
TORSDOF 18
ENDMDL
MODEL 4
REMARK VINA RESULT:    -7.103      2.427      4.734
REMARK INTER + INTRA:         -14.183
REMARK INTER:                 -11.780
REMARK INTRA:                  -2.404
REMARK UNBOUND:                -1.889
REMARK SMILES OC[C@@H]1O[C@@H](O[C@H]2[C@H](O)[C@@H](O)[C@@H](O)O[C@@H]2CO)[C@@H](O)[C@@H](O)[C@H]1O[C@@H]1O[C@H](CO)[C@H](O)[C@@H](O)[C@H]1O
REMARK SMILES IDX 22 1 3 2 4 3 5 4 18 5 20 6 23 7 24 8 26 9 29 10 25 11 31 12
REMARK SMILES IDX 33 13 27 14 28 15 30 17 32 19 34 21 2 23 1 24 21 26 19 28
REMARK SMILES IDX 6 30 7 31 15 32 8 33 14 34 10 35 12 36 16 37 17 38 9 40
REMARK SMILES IDX 11 42 13 44
REMARK H PARENT 28 16 30 18 32 20 34 22 1 25 21 27 19 29 17 39 9 41 11 43
REMARK H PARENT 13 45
REMARK Flexibility Score: inf
ROOT
ATOM      1  C   UNL     1      21.963  16.406  33.299  1.00  0.00     0.184 C 
ATOM      2  C   UNL     1      22.671  15.419  34.297  1.00  0.00     0.178 C 
ATOM      3  O   UNL     1      22.959  14.133  33.758  1.00  0.00    -0.341 OA
ATOM      4  C   UNL     1      21.803  13.490  33.246  1.00  0.00     0.282 C 
ATOM      5  C   UNL     1      21.283  14.287  32.052  1.00  0.00     0.202 C 
ATOM      6  C   UNL     1      20.826  15.685  32.509  1.00  0.00     0.180 C 
ENDROOT
BRANCH   1   7
ATOM      7  O   UNL     1      21.548  17.511  34.107  1.00  0.00    -0.341 OA
BRANCH   7   8
ATOM      8  C   UNL     1      21.351  18.752  33.452  1.00  0.00     0.282 C 
ATOM      9  C   UNL     1      20.282  19.784  31.642  1.00  0.00     0.178 C 
ATOM     10  C   UNL     1      21.591  20.482  31.158  1.00  0.00     0.177 C 
ATOM     11  O   UNL     1      20.561  18.547  32.284  1.00  0.00    -0.341 OA
ATOM     12  C   UNL     1      22.613  20.609  32.316  1.00  0.00     0.179 C 
ATOM     13  C   UNL     1      22.751  19.266  33.049  1.00  0.00     0.202 C 
BRANCH   9  14
ATOM     14  C   UNL     1      19.268  19.568  30.491  1.00  0.00     0.191 C 
BRANCH  14  15
ATOM     15  O   UNL     1      17.968  19.504  30.998  1.00  0.00    -0.394 OA
ATOM     16  H   UNL     1      17.538  20.370  30.774  1.00  0.00     0.210 HD
ENDBRANCH  14  15
ENDBRANCH   9  14
BRANCH  10  17
ATOM     17  O   UNL     1      22.147  19.829  30.045  1.00  0.00    -0.387 OA
ATOM     18  H   UNL     1      22.597  20.506  29.483  1.00  0.00     0.211 HD
ENDBRANCH  10  17
BRANCH  12  19
ATOM     19  O   UNL     1      22.170  21.604  33.210  1.00  0.00    -0.387 OA
ATOM     20  H   UNL     1      22.899  21.738  33.872  1.00  0.00     0.211 HD
ENDBRANCH  12  19
BRANCH  13  21
ATOM     21  O   UNL     1      23.583  19.411  34.177  1.00  0.00    -0.385 OA
ATOM     22  H   UNL     1      24.168  18.603  34.201  1.00  0.00     0.211 HD
ENDBRANCH  13  21
ENDBRANCH   7   8
ENDBRANCH   1   7
BRANCH   2  23
ATOM     23  C   UNL     1      23.994  16.037  34.787  1.00  0.00     0.191 C 
BRANCH  23  24
ATOM     24  O   UNL     1      23.752  16.974  35.805  1.00  0.00    -0.394 OA
ATOM     25  H   UNL     1      23.124  17.642  35.431  1.00  0.00     0.210 HD
ENDBRANCH  23  24
ENDBRANCH   2  23
BRANCH   6  26
ATOM     26  O   UNL     1      19.670  15.587  33.304  1.00  0.00    -0.387 OA
ATOM     27  H   UNL     1      18.960  15.184  32.745  1.00  0.00     0.211 HD
ENDBRANCH   6  26
BRANCH   5  28
ATOM     28  O   UNL     1      20.267  13.596  31.367  1.00  0.00    -0.385 OA
ATOM     29  H   UNL     1      19.875  14.208  30.689  1.00  0.00     0.211 HD
ENDBRANCH   5  28
BRANCH   4  30
ATOM     30  O   UNL     1      20.776  13.381  34.215  1.00  0.00    -0.341 OA
BRANCH  30  31
ATOM     31  C   UNL     1      20.671  12.096  34.807  1.00  0.00     0.184 C 
ATOM     32  C   UNL     1      20.443  11.041  33.676  1.00  0.00     0.178 C 
ATOM     33  C   UNL     1      19.486  12.154  35.801  1.00  0.00     0.180 C 
ATOM     34  O   UNL     1      19.178  11.073  33.013  1.00  0.00    -0.342 OA
ATOM     35  C   UNL     1      18.154  11.674  35.180  1.00  0.00     0.201 C 
ATOM     36  C   UNL     1      18.166  11.842  33.650  1.00  0.00     0.279 C 
BRANCH  32  37
ATOM     37  C   UNL     1      20.783   9.597  34.107  1.00  0.00     0.191 C 
BRANCH  37  38
ATOM     38  O   UNL     1      21.307   8.858  33.038  1.00  0.00    -0.394 OA
ATOM     39  H   UNL     1      22.183   9.263  32.786  1.00  0.00     0.210 HD
ENDBRANCH  37  38
ENDBRANCH  32  37
BRANCH  33  40
ATOM     40  O   UNL     1      19.783  11.472  36.995  1.00  0.00    -0.387 OA
ATOM     41  H   UNL     1      19.932  12.145  37.707  1.00  0.00     0.211 HD
ENDBRANCH  33  40
BRANCH  35  42
ATOM     42  O   UNL     1      17.077  12.391  35.727  1.00  0.00    -0.385 OA
ATOM     43  H   UNL     1      17.060  12.187  36.697  1.00  0.00     0.211 HD
ENDBRANCH  35  42
BRANCH  36  44
ATOM     44  O   UNL     1      18.288  13.193  33.280  1.00  0.00    -0.366 OA
ATOM     45  H   UNL     1      17.714  13.720  33.895  1.00  0.00     0.213 HD
ENDBRANCH  36  44
ENDBRANCH  30  31
ENDBRANCH   4  30
TORSDOF 18
ENDMDL
MODEL 5
REMARK VINA RESULT:    -7.062      1.909      2.838
REMARK INTER + INTRA:         -14.112
REMARK INTER:                 -11.649
REMARK INTRA:                  -2.463
REMARK UNBOUND:                -1.889
REMARK SMILES OC[C@@H]1O[C@@H](O[C@H]2[C@H](O)[C@@H](O)[C@@H](O)O[C@@H]2CO)[C@@H](O)[C@@H](O)[C@H]1O[C@@H]1O[C@H](CO)[C@H](O)[C@@H](O)[C@H]1O
REMARK SMILES IDX 22 1 3 2 4 3 5 4 18 5 20 6 23 7 24 8 26 9 29 10 25 11 31 12
REMARK SMILES IDX 33 13 27 14 28 15 30 17 32 19 34 21 2 23 1 24 21 26 19 28
REMARK SMILES IDX 6 30 7 31 15 32 8 33 14 34 10 35 12 36 16 37 17 38 9 40
REMARK SMILES IDX 11 42 13 44
REMARK H PARENT 28 16 30 18 32 20 34 22 1 25 21 27 19 29 17 39 9 41 11 43
REMARK H PARENT 13 45
REMARK Flexibility Score: inf
ROOT
ATOM      1  C   UNL     1      18.954  12.892  35.612  1.00  0.00     0.184 C 
ATOM      2  C   UNL     1      18.252  12.159  36.812  1.00  0.00     0.178 C 
ATOM      3  O   UNL     1      17.581  10.954  36.463  1.00  0.00    -0.341 OA
ATOM      4  C   UNL     1      16.617  11.148  35.440  1.00  0.00     0.282 C 
ATOM      5  C   UNL     1      17.336  11.559  34.157  1.00  0.00     0.202 C 
ATOM      6  C   UNL     1      18.029  12.921  34.354  1.00  0.00     0.180 C 
ENDROOT
BRANCH   1   7
ATOM      7  O   UNL     1      19.331  14.170  36.130  1.00  0.00    -0.341 OA
BRANCH   7   8
ATOM      8  C   UNL     1      20.283  14.913  35.389  1.00  0.00     0.282 C 
ATOM      9  C   UNL     1      20.542  16.389  33.589  1.00  0.00     0.178 C 
ATOM     10  C   UNL     1      21.677  15.534  32.943  1.00  0.00     0.177 C 
ATOM     11  O   UNL     1      19.627  15.574  34.310  1.00  0.00    -0.341 OA
ATOM     12  C   UNL     1      22.362  14.631  34.000  1.00  0.00     0.179 C 
ATOM     13  C   UNL     1      21.302  13.894  34.832  1.00  0.00     0.202 C 
BRANCH   9  14
ATOM     14  C   UNL     1      19.782  17.245  32.546  1.00  0.00     0.191 C 
BRANCH  14  15
ATOM     15  O   UNL     1      18.792  16.479  31.922  1.00  0.00    -0.394 OA
ATOM     16  H   UNL     1      19.097  15.536  31.972  1.00  0.00     0.210 HD
ENDBRANCH  14  15
ENDBRANCH   9  14
BRANCH  10  17
ATOM     17  O   UNL     1      21.208  14.788  31.849  1.00  0.00    -0.387 OA
ATOM     18  H   UNL     1      21.667  13.913  31.853  1.00  0.00     0.211 HD
ENDBRANCH  10  17
BRANCH  12  19
ATOM     19  O   UNL     1      23.162  15.433  34.838  1.00  0.00    -0.387 OA
ATOM     20  H   UNL     1      22.901  16.376  34.664  1.00  0.00     0.211 HD
ENDBRANCH  12  19
BRANCH  13  21
ATOM     21  O   UNL     1      21.917  13.171  35.874  1.00  0.00    -0.385 OA
ATOM     22  H   UNL     1      21.294  13.215  36.653  1.00  0.00     0.211 HD
ENDBRANCH  13  21
ENDBRANCH   7   8
ENDBRANCH   1   7
BRANCH   2  23
ATOM     23  C   UNL     1      19.294  11.827  37.897  1.00  0.00     0.191 C 
BRANCH  23  24
ATOM     24  O   UNL     1      20.490  11.382  37.313  1.00  0.00    -0.394 OA
ATOM     25  H   UNL     1      21.042  12.188  37.149  1.00  0.00     0.210 HD
ENDBRANCH  23  24
ENDBRANCH   2  23
BRANCH   6  26
ATOM     26  O   UNL     1      17.073  13.945  34.480  1.00  0.00    -0.387 OA
ATOM     27  H   UNL     1      17.421  14.735  33.997  1.00  0.00     0.211 HD
ENDBRANCH   6  26
BRANCH   5  28
ATOM     28  O   UNL     1      16.466  11.564  33.051  1.00  0.00    -0.385 OA
ATOM     29  H   UNL     1      16.995  11.350  32.237  1.00  0.00     0.211 HD
ENDBRANCH   5  28
BRANCH   4  30
ATOM     30  O   UNL     1      15.667  12.141  35.780  1.00  0.00    -0.341 OA
BRANCH  30  31
ATOM     31  C   UNL     1      14.421  11.625  36.220  1.00  0.00     0.184 C 
ATOM     32  C   UNL     1      13.853  10.677  35.115  1.00  0.00     0.178 C 
ATOM     33  C   UNL     1      13.497  12.840  36.479  1.00  0.00     0.180 C 
ATOM     34  O   UNL     1      13.411  11.292  33.904  1.00  0.00    -0.342 OA
ATOM     35  C   UNL     1      12.609  13.192  35.265  1.00  0.00     0.201 C 
ATOM     36  C   UNL     1      13.249  12.704  33.953  1.00  0.00     0.279 C 
BRANCH  32  37
ATOM     37  C   UNL     1      12.778   9.699  35.640  1.00  0.00     0.191 C 
BRANCH  37  38
ATOM     38  O   UNL     1      13.272   8.919  36.694  1.00  0.00    -0.394 OA
ATOM     39  H   UNL     1      14.267   8.910  36.629  1.00  0.00     0.210 HD
ENDBRANCH  37  38
ENDBRANCH  32  37
BRANCH  33  40
ATOM     40  O   UNL     1      12.738  12.667  37.650  1.00  0.00    -0.387 OA
ATOM     41  H   UNL     1      12.916  11.759  38.004  1.00  0.00     0.211 HD
ENDBRANCH  33  40
BRANCH  35  42
ATOM     42  O   UNL     1      12.401  14.580  35.201  1.00  0.00    -0.385 OA
ATOM     43  H   UNL     1      11.503  14.717  34.804  1.00  0.00     0.211 HD
ENDBRANCH  35  42
BRANCH  36  44
ATOM     44  O   UNL     1      14.482  13.335  33.713  1.00  0.00    -0.366 OA
ATOM     45  H   UNL     1      14.421  14.253  34.086  1.00  0.00     0.213 HD
ENDBRANCH  36  44
ENDBRANCH  30  31
ENDBRANCH   4  30
TORSDOF 18
ENDMDL
MODEL 6
REMARK VINA RESULT:    -7.017      2.458      4.036
REMARK INTER + INTRA:         -14.034
REMARK INTER:                 -11.016
REMARK INTRA:                  -3.018
REMARK UNBOUND:                -1.889
REMARK SMILES OC[C@@H]1O[C@@H](O[C@H]2[C@H](O)[C@@H](O)[C@@H](O)O[C@@H]2CO)[C@@H](O)[C@@H](O)[C@H]1O[C@@H]1O[C@H](CO)[C@H](O)[C@@H](O)[C@H]1O
REMARK SMILES IDX 22 1 3 2 4 3 5 4 18 5 20 6 23 7 24 8 26 9 29 10 25 11 31 12
REMARK SMILES IDX 33 13 27 14 28 15 30 17 32 19 34 21 2 23 1 24 21 26 19 28
REMARK SMILES IDX 6 30 7 31 15 32 8 33 14 34 10 35 12 36 16 37 17 38 9 40
REMARK SMILES IDX 11 42 13 44
REMARK H PARENT 28 16 30 18 32 20 34 22 1 25 21 27 19 29 17 39 9 41 11 43
REMARK H PARENT 13 45
REMARK Flexibility Score: inf
ROOT
ATOM      1  C   UNL     1      19.487  13.012  35.611  1.00  0.00     0.184 C 
ATOM      2  C   UNL     1      19.029  11.548  35.271  1.00  0.00     0.178 C 
ATOM      3  O   UNL     1      18.307  11.418  34.051  1.00  0.00    -0.341 OA
ATOM      4  C   UNL     1      17.166  12.260  34.005  1.00  0.00     0.282 C 
ATOM      5  C   UNL     1      17.626  13.716  34.013  1.00  0.00     0.202 C 
ATOM      6  C   UNL     1      18.339  14.036  35.341  1.00  0.00     0.180 C 
ENDROOT
BRANCH   1   7
ATOM      7  O   UNL     1      19.951  12.948  36.963  1.00  0.00    -0.341 OA
BRANCH   7   8
ATOM      8  C   UNL     1      21.175  13.598  37.256  1.00  0.00     0.282 C 
ATOM      9  C   UNL     1      23.045  14.630  36.296  1.00  0.00     0.178 C 
ATOM     10  C   UNL     1      24.050  13.781  37.135  1.00  0.00     0.177 C 
ATOM     11  O   UNL     1      21.846  13.910  36.039  1.00  0.00    -0.341 OA
ATOM     12  C   UNL     1      23.376  13.233  38.419  1.00  0.00     0.179 C 
ATOM     13  C   UNL     1      22.021  12.598  38.076  1.00  0.00     0.202 C 
BRANCH   9  14
ATOM     14  C   UNL     1      23.661  15.126  34.963  1.00  0.00     0.191 C 
BRANCH  14  15
ATOM     15  O   UNL     1      23.571  14.129  33.989  1.00  0.00    -0.394 OA
ATOM     16  H   UNL     1      23.192  13.331  34.441  1.00  0.00     0.210 HD
ENDBRANCH  14  15
ENDBRANCH   9  14
BRANCH  10  17
ATOM     17  O   UNL     1      24.624  12.751  36.372  1.00  0.00    -0.387 OA
ATOM     18  H   UNL     1      25.367  13.135  35.844  1.00  0.00     0.211 HD
ENDBRANCH  10  17
BRANCH  12  19
ATOM     19  O   UNL     1      23.196  14.295  39.329  1.00  0.00    -0.387 OA
ATOM     20  H   UNL     1      23.219  15.134  38.797  1.00  0.00     0.211 HD
ENDBRANCH  12  19
BRANCH  13  21
ATOM     21  O   UNL     1      21.351  12.214  39.254  1.00  0.00    -0.385 OA
ATOM     22  H   UNL     1      22.038  12.207  39.979  1.00  0.00     0.211 HD
ENDBRANCH  13  21
ENDBRANCH   7   8
ENDBRANCH   1   7
BRANCH   2  23
ATOM     23  C   UNL     1      20.258  10.623  35.198  1.00  0.00     0.191 C 
BRANCH  23  24
ATOM     24  O   UNL     1      21.383  11.333  34.747  1.00  0.00    -0.394 OA
ATOM     25  H   UNL     1      22.133  11.081  35.342  1.00  0.00     0.210 HD
ENDBRANCH  23  24
ENDBRANCH   2  23
BRANCH   6  26
ATOM     26  O   UNL     1      17.421  14.027  36.406  1.00  0.00    -0.387 OA
ATOM     27  H   UNL     1      16.533  13.805  36.029  1.00  0.00     0.211 HD
ENDBRANCH   6  26
BRANCH   5  28
ATOM     28  O   UNL     1      16.562  14.600  33.759  1.00  0.00    -0.385 OA
ATOM     29  H   UNL     1      16.568  14.826  32.791  1.00  0.00     0.211 HD
ENDBRANCH   5  28
BRANCH   4  30
ATOM     30  O   UNL     1      16.294  12.041  35.100  1.00  0.00    -0.341 OA
BRANCH  30  31
ATOM     31  C   UNL     1      15.209  11.174  34.812  1.00  0.00     0.184 C 
ATOM     32  C   UNL     1      14.426  11.741  33.583  1.00  0.00     0.178 C 
ATOM     33  C   UNL     1      14.332  11.113  36.087  1.00  0.00     0.180 C 
ATOM     34  O   UNL     1      13.686  12.944  33.792  1.00  0.00    -0.342 OA
ATOM     35  C   UNL     1      13.167  12.128  36.066  1.00  0.00     0.201 C 
ATOM     36  C   UNL     1      13.490  13.322  35.149  1.00  0.00     0.279 C 
BRANCH  32  37
ATOM     37  C   UNL     1      13.544  10.686  32.879  1.00  0.00     0.191 C 
BRANCH  37  38
ATOM     38  O   UNL     1      13.893   9.387  33.272  1.00  0.00    -0.394 OA
ATOM     39  H   UNL     1      13.839   9.343  34.267  1.00  0.00     0.210 HD
ENDBRANCH  37  38
ENDBRANCH  32  37
BRANCH  33  40
ATOM     40  O   UNL     1      13.882   9.805  36.338  1.00  0.00    -0.387 OA
ATOM     41  H   UNL     1      13.003   9.861  36.794  1.00  0.00     0.211 HD
ENDBRANCH  33  40
BRANCH  35  42
ATOM     42  O   UNL     1      12.901  12.589  37.366  1.00  0.00    -0.385 OA
ATOM     43  H   UNL     1      12.581  13.524  37.278  1.00  0.00     0.211 HD
ENDBRANCH  35  42
BRANCH  36  44
ATOM     44  O   UNL     1      14.608  14.040  35.611  1.00  0.00    -0.366 OA
ATOM     45  H   UNL     1      14.283  14.928  35.912  1.00  0.00     0.213 HD
ENDBRANCH  36  44
ENDBRANCH  30  31
ENDBRANCH   4  30
TORSDOF 18
ENDMDL
MODEL 7
REMARK VINA RESULT:    -6.837      1.698      7.469
REMARK INTER + INTRA:         -13.722
REMARK INTER:                 -11.903
REMARK INTRA:                  -1.819
REMARK UNBOUND:                -1.889
REMARK SMILES OC[C@@H]1O[C@@H](O[C@H]2[C@H](O)[C@@H](O)[C@@H](O)O[C@@H]2CO)[C@@H](O)[C@@H](O)[C@H]1O[C@@H]1O[C@H](CO)[C@H](O)[C@@H](O)[C@H]1O
REMARK SMILES IDX 22 1 3 2 4 3 5 4 18 5 20 6 23 7 24 8 26 9 29 10 25 11 31 12
REMARK SMILES IDX 33 13 27 14 28 15 30 17 32 19 34 21 2 23 1 24 21 26 19 28
REMARK SMILES IDX 6 30 7 31 15 32 8 33 14 34 10 35 12 36 16 37 17 38 9 40
REMARK SMILES IDX 11 42 13 44
REMARK H PARENT 28 16 30 18 32 20 34 22 1 25 21 27 19 29 17 39 9 41 11 43
REMARK H PARENT 13 45
REMARK Flexibility Score: inf
ROOT
ATOM      1  C   UNL     1      18.612  12.021  35.262  1.00  0.00     0.184 C 
ATOM      2  C   UNL     1      19.988  12.123  34.510  1.00  0.00     0.178 C 
ATOM      3  O   UNL     1      21.122  12.260  35.360  1.00  0.00    -0.341 OA
ATOM      4  C   UNL     1      21.012  13.374  36.232  1.00  0.00     0.282 C 
ATOM      5  C   UNL     1      19.851  13.133  37.195  1.00  0.00     0.202 C 
ATOM      6  C   UNL     1      18.524  13.070  36.415  1.00  0.00     0.180 C 
ENDROOT
BRANCH   1   7
ATOM      7  O   UNL     1      17.623  12.148  34.237  1.00  0.00    -0.341 OA
BRANCH   7   8
ATOM      8  C   UNL     1      16.280  12.322  34.653  1.00  0.00     0.282 C 
ATOM      9  C   UNL     1      14.229  11.226  34.926  1.00  0.00     0.178 C 
ATOM     10  C   UNL     1      13.441  12.326  34.148  1.00  0.00     0.177 C 
ATOM     11  O   UNL     1      15.562  11.108  34.449  1.00  0.00    -0.341 OA
ATOM     12  C   UNL     1      14.215  13.669  34.152  1.00  0.00     0.179 C 
ATOM     13  C   UNL     1      15.682  13.436  33.764  1.00  0.00     0.202 C 
BRANCH   9  14
ATOM     14  C   UNL     1      13.523   9.847  34.874  1.00  0.00     0.191 C 
BRANCH  14  15
ATOM     15  O   UNL     1      13.688   9.268  33.613  1.00  0.00    -0.394 OA
ATOM     16  H   UNL     1      12.807   9.330  33.160  1.00  0.00     0.210 HD
ENDBRANCH  14  15
ENDBRANCH   9  14
BRANCH  10  17
ATOM     17  O   UNL     1      13.124  11.914  32.843  1.00  0.00    -0.387 OA
ATOM     18  H   UNL     1      12.384  12.479  32.512  1.00  0.00     0.211 HD
ENDBRANCH  10  17
BRANCH  12  19
ATOM     19  O   UNL     1      14.139  14.236  35.440  1.00  0.00    -0.387 OA
ATOM     20  H   UNL     1      14.681  15.069  35.417  1.00  0.00     0.211 HD
ENDBRANCH  12  19
BRANCH  13  21
ATOM     21  O   UNL     1      16.415  14.632  33.889  1.00  0.00    -0.385 OA
ATOM     22  H   UNL     1      15.963  15.167  34.601  1.00  0.00     0.211 HD
ENDBRANCH  13  21
ENDBRANCH   7   8
ENDBRANCH   1   7
BRANCH   2  23
ATOM     23  C   UNL     1      20.197  10.870  33.638  1.00  0.00     0.191 C 
BRANCH  23  24
ATOM     24  O   UNL     1      19.341  10.898  32.525  1.00  0.00    -0.394 OA
ATOM     25  H   UNL     1      19.076   9.959  32.350  1.00  0.00     0.210 HD
ENDBRANCH  23  24
ENDBRANCH   2  23
BRANCH   6  26
ATOM     26  O   UNL     1      18.199  14.336  35.896  1.00  0.00    -0.387 OA
ATOM     27  H   UNL     1      18.796  14.996  36.330  1.00  0.00     0.211 HD
ENDBRANCH   6  26
BRANCH   5  28
ATOM     28  O   UNL     1      19.816  14.097  38.220  1.00  0.00    -0.385 OA
ATOM     29  H   UNL     1      20.735  14.198  38.585  1.00  0.00     0.211 HD
ENDBRANCH   5  28
BRANCH   4  30
ATOM     30  O   UNL     1      20.792  14.584  35.532  1.00  0.00    -0.341 OA
BRANCH  30  31
ATOM     31  C   UNL     1      21.963  15.138  34.951  1.00  0.00     0.184 C 
ATOM     32  C   UNL     1      21.722  16.662  34.697  1.00  0.00     0.178 C 
ATOM     33  C   UNL     1      22.225  14.360  33.639  1.00  0.00     0.180 C 
ATOM     34  O   UNL     1      20.793  17.004  33.667  1.00  0.00    -0.342 OA
ATOM     35  C   UNL     1      21.616  15.050  32.397  1.00  0.00     0.201 C 
ATOM     36  C   UNL     1      20.427  15.945  32.790  1.00  0.00     0.279 C 
BRANCH  32  37
ATOM     37  C   UNL     1      23.029  17.468  34.525  1.00  0.00     0.191 C 
BRANCH  37  38
ATOM     38  O   UNL     1      23.322  18.212  35.676  1.00  0.00    -0.394 OA
ATOM     39  H   UNL     1      23.134  19.171  35.478  1.00  0.00     0.210 HD
ENDBRANCH  37  38
ENDBRANCH  32  37
BRANCH  33  40
ATOM     40  O   UNL     1      23.594  14.089  33.468  1.00  0.00    -0.387 OA
ATOM     41  H   UNL     1      23.684  13.202  33.036  1.00  0.00     0.211 HD
ENDBRANCH  33  40
BRANCH  35  42
ATOM     42  O   UNL     1      21.194  14.087  31.464  1.00  0.00    -0.385 OA
ATOM     43  H   UNL     1      20.659  14.566  30.781  1.00  0.00     0.211 HD
ENDBRANCH  35  42
BRANCH  36  44
ATOM     44  O   UNL     1      19.381  15.196  33.356  1.00  0.00    -0.366 OA
ATOM     45  H   UNL     1      19.550  15.145  34.332  1.00  0.00     0.213 HD
ENDBRANCH  36  44
ENDBRANCH  30  31
ENDBRANCH   4  30
TORSDOF 18
ENDMDL
MODEL 8
REMARK VINA RESULT:    -6.791      3.340      9.195
REMARK INTER + INTRA:         -13.643
REMARK INTER:                 -11.008
REMARK INTRA:                  -2.635
REMARK UNBOUND:                -1.889
REMARK SMILES OC[C@@H]1O[C@@H](O[C@H]2[C@H](O)[C@@H](O)[C@@H](O)O[C@@H]2CO)[C@@H](O)[C@@H](O)[C@H]1O[C@@H]1O[C@H](CO)[C@H](O)[C@@H](O)[C@H]1O
REMARK SMILES IDX 22 1 3 2 4 3 5 4 18 5 20 6 23 7 24 8 26 9 29 10 25 11 31 12
REMARK SMILES IDX 33 13 27 14 28 15 30 17 32 19 34 21 2 23 1 24 21 26 19 28
REMARK SMILES IDX 6 30 7 31 15 32 8 33 14 34 10 35 12 36 16 37 17 38 9 40
REMARK SMILES IDX 11 42 13 44
REMARK H PARENT 28 16 30 18 32 20 34 22 1 25 21 27 19 29 17 39 9 41 11 43
REMARK H PARENT 13 45
REMARK Flexibility Score: inf
ROOT
ATOM      1  C   UNL     1      13.043  11.390  35.384  1.00  0.00     0.184 C 
ATOM      2  C   UNL     1      13.885  12.706  35.555  1.00  0.00     0.178 C 
ATOM      3  O   UNL     1      14.300  13.310  34.334  1.00  0.00    -0.341 OA
ATOM      4  C   UNL     1      15.036  12.418  33.512  1.00  0.00     0.282 C 
ATOM      5  C   UNL     1      14.117  11.280  33.072  1.00  0.00     0.202 C 
ATOM      6  C   UNL     1      13.669  10.461  34.297  1.00  0.00     0.180 C 
ENDROOT
BRANCH   1   7
ATOM      7  O   UNL     1      12.959  10.833  36.698  1.00  0.00    -0.341 OA
BRANCH   7   8
ATOM      8  C   UNL     1      11.858   9.985  36.972  1.00  0.00     0.282 C 
ATOM      9  C   UNL     1       9.761   9.886  38.010  1.00  0.00     0.178 C 
ATOM     10  C   UNL     1      10.118   8.586  38.795  1.00  0.00     0.177 C 
ATOM     11  O   UNL     1      10.914  10.685  37.779  1.00  0.00    -0.341 OA
ATOM     12  C   UNL     1      11.267   7.815  38.099  1.00  0.00     0.179 C 
ATOM     13  C   UNL     1      12.415   8.775  37.754  1.00  0.00     0.202 C 
BRANCH   9  14
ATOM     14  C   UNL     1       8.670  10.725  38.722  1.00  0.00     0.191 C 
BRANCH  14  15
ATOM     15  O   UNL     1       7.878   9.902  39.528  1.00  0.00    -0.394 OA
ATOM     16  H   UNL     1       7.236   9.451  38.920  1.00  0.00     0.210 HD
ENDBRANCH  14  15
ENDBRANCH   9  14
BRANCH  10  17
ATOM     17  O   UNL     1      10.415   8.856  40.141  1.00  0.00    -0.387 OA
ATOM     18  H   UNL     1       9.578   8.793  40.662  1.00  0.00     0.211 HD
ENDBRANCH  10  17
BRANCH  12  19
ATOM     19  O   UNL     1      10.770   7.214  36.925  1.00  0.00    -0.387 OA
ATOM     20  H   UNL     1      11.454   7.358  36.219  1.00  0.00     0.211 HD
ENDBRANCH  12  19
BRANCH  13  21
ATOM     21  O   UNL     1      13.405   8.102  37.009  1.00  0.00    -0.385 OA
ATOM     22  H   UNL     1      14.270   8.557  37.216  1.00  0.00     0.211 HD
ENDBRANCH  13  21
ENDBRANCH   7   8
ENDBRANCH   1   7
BRANCH   2  23
ATOM     23  C   UNL     1      13.069  13.745  36.347  1.00  0.00     0.191 C 
BRANCH  23  24
ATOM     24  O   UNL     1      11.715  13.378  36.392  1.00  0.00    -0.394 OA
ATOM     25  H   UNL     1      11.198  14.166  36.087  1.00  0.00     0.210 HD
ENDBRANCH  23  24
ENDBRANCH   2  23
BRANCH   6  26
ATOM     26  O   UNL     1      14.756   9.749  34.835  1.00  0.00    -0.387 OA
ATOM     27  H   UNL     1      15.321  10.398  35.324  1.00  0.00     0.211 HD
ENDBRANCH   6  26
BRANCH   5  28
ATOM     28  O   UNL     1      14.719  10.475  32.088  1.00  0.00    -0.385 OA
ATOM     29  H   UNL     1      15.705  10.585  32.155  1.00  0.00     0.211 HD
ENDBRANCH   5  28
BRANCH   4  30
ATOM     30  O   UNL     1      16.160  11.875  34.182  1.00  0.00    -0.341 OA
BRANCH  30  31
ATOM     31  C   UNL     1      17.373  12.569  33.934  1.00  0.00     0.184 C 
ATOM     32  C   UNL     1      18.553  11.545  33.979  1.00  0.00     0.178 C 
ATOM     33  C   UNL     1      17.499  13.657  35.028  1.00  0.00     0.180 C 
ATOM     34  O   UNL     1      18.880  10.997  35.257  1.00  0.00    -0.342 OA
ATOM     35  C   UNL     1      18.334  13.195  36.244  1.00  0.00     0.201 C 
ATOM     36  C   UNL     1      18.312  11.662  36.378  1.00  0.00     0.279 C 
BRANCH  32  37
ATOM     37  C   UNL     1      19.831  12.052  33.273  1.00  0.00     0.191 C 
BRANCH  37  38
ATOM     38  O   UNL     1      19.538  13.087  32.375  1.00  0.00    -0.394 OA
ATOM     39  H   UNL     1      20.060  13.891  32.654  1.00  0.00     0.210 HD
ENDBRANCH  37  38
ENDBRANCH  32  37
BRANCH  33  40
ATOM     40  O   UNL     1      17.978  14.867  34.494  1.00  0.00    -0.387 OA
ATOM     41  H   UNL     1      18.431  14.670  33.635  1.00  0.00     0.211 HD
ENDBRANCH  33  40
BRANCH  35  42
ATOM     42  O   UNL     1      17.840  13.780  37.422  1.00  0.00    -0.385 OA
ATOM     43  H   UNL     1      17.422  13.052  37.949  1.00  0.00     0.211 HD
ENDBRANCH  35  42
BRANCH  36  44
ATOM     44  O   UNL     1      17.011  11.182  36.610  1.00  0.00    -0.366 OA
ATOM     45  H   UNL     1      16.474  11.943  36.952  1.00  0.00     0.213 HD
ENDBRANCH  36  44
ENDBRANCH  30  31
ENDBRANCH   4  30
TORSDOF 18
ENDMDL
MODEL 9
REMARK VINA RESULT:    -6.665      3.729      7.869
REMARK INTER + INTRA:         -13.424
REMARK INTER:                 -10.263
REMARK INTRA:                  -3.161
REMARK UNBOUND:                -1.889
REMARK SMILES OC[C@@H]1O[C@@H](O[C@H]2[C@H](O)[C@@H](O)[C@@H](O)O[C@@H]2CO)[C@@H](O)[C@@H](O)[C@H]1O[C@@H]1O[C@H](CO)[C@H](O)[C@@H](O)[C@H]1O
REMARK SMILES IDX 22 1 3 2 4 3 5 4 18 5 20 6 23 7 24 8 26 9 29 10 25 11 31 12
REMARK SMILES IDX 33 13 27 14 28 15 30 17 32 19 34 21 2 23 1 24 21 26 19 28
REMARK SMILES IDX 6 30 7 31 15 32 8 33 14 34 10 35 12 36 16 37 17 38 9 40
REMARK SMILES IDX 11 42 13 44
REMARK H PARENT 28 16 30 18 32 20 34 22 1 25 21 27 19 29 17 39 9 41 11 43
REMARK H PARENT 13 45
REMARK Flexibility Score: inf
ROOT
ATOM      1  C   UNL     1      21.357  12.614  38.349  1.00  0.00     0.184 C 
ATOM      2  C   UNL     1      20.344  12.211  37.218  1.00  0.00     0.178 C 
ATOM      3  O   UNL     1      20.949  11.798  35.997  1.00  0.00    -0.341 OA
ATOM      4  C   UNL     1      21.831  12.776  35.472  1.00  0.00     0.282 C 
ATOM      5  C   UNL     1      23.007  12.946  36.432  1.00  0.00     0.202 C 
ATOM      6  C   UNL     1      22.510  13.500  37.780  1.00  0.00     0.180 C 
ENDROOT
BRANCH   1   7
ATOM      7  O   UNL     1      20.553  13.225  39.363  1.00  0.00    -0.341 OA
BRANCH   7   8
ATOM      8  C   UNL     1      21.043  13.178  40.691  1.00  0.00     0.282 C 
ATOM      9  C   UNL     1      20.850  12.058  42.738  1.00  0.00     0.178 C 
ATOM     10  C   UNL     1      20.680  13.384  43.544  1.00  0.00     0.177 C 
ATOM     11  O   UNL     1      20.331  12.183  41.421  1.00  0.00    -0.341 OA
ATOM     12  C   UNL     1      21.271  14.586  42.764  1.00  0.00     0.179 C 
ATOM     13  C   UNL     1      20.776  14.568  41.310  1.00  0.00     0.202 C 
BRANCH   9  14
ATOM     14  C   UNL     1      20.198  10.847  43.453  1.00  0.00     0.191 C 
BRANCH  14  15
ATOM     15  O   UNL     1      20.199  11.045  44.836  1.00  0.00    -0.394 OA
ATOM     16  H   UNL     1      20.280  10.146  45.247  1.00  0.00     0.210 HD
ENDBRANCH  14  15
ENDBRANCH   9  14
BRANCH  10  17
ATOM     17  O   UNL     1      19.341  13.607  43.903  1.00  0.00    -0.387 OA
ATOM     18  H   UNL     1      18.770  13.373  43.131  1.00  0.00     0.211 HD
ENDBRANCH  10  17
BRANCH  12  19
ATOM     19  O   UNL     1      22.677  14.506  42.796  1.00  0.00    -0.387 OA
ATOM     20  H   UNL     1      22.942  13.845  42.103  1.00  0.00     0.211 HD
ENDBRANCH  12  19
BRANCH  13  21
ATOM     21  O   UNL     1      21.408  15.584  40.567  1.00  0.00    -0.385 OA
ATOM     22  H   UNL     1      21.572  15.208  39.657  1.00  0.00     0.211 HD
ENDBRANCH  13  21
ENDBRANCH   7   8
ENDBRANCH   1   7
BRANCH   2  23
ATOM     23  C   UNL     1      19.440  11.067  37.713  1.00  0.00     0.191 C 
BRANCH  23  24
ATOM     24  O   UNL     1      19.995  10.458  38.850  1.00  0.00    -0.394 OA
ATOM     25  H   UNL     1      20.666  11.092  39.210  1.00  0.00     0.210 HD
ENDBRANCH  23  24
ENDBRANCH   2  23
BRANCH   6  26
ATOM     26  O   UNL     1      22.074  14.829  37.634  1.00  0.00    -0.387 OA
ATOM     27  H   UNL     1      21.817  14.954  36.686  1.00  0.00     0.211 HD
ENDBRANCH   6  26
BRANCH   5  28
ATOM     28  O   UNL     1      24.023  13.744  35.875  1.00  0.00    -0.385 OA
ATOM     29  H   UNL     1      24.185  13.438  34.943  1.00  0.00     0.211 HD
ENDBRANCH   5  28
BRANCH   4  30
ATOM     30  O   UNL     1      21.196  14.028  35.288  1.00  0.00    -0.341 OA
BRANCH  30  31
ATOM     31  C   UNL     1      20.782  14.278  33.954  1.00  0.00     0.184 C 
ATOM     32  C   UNL     1      22.027  14.166  33.015  1.00  0.00     0.178 C 
ATOM     33  C   UNL     1      20.160  15.695  33.934  1.00  0.00     0.180 C 
ATOM     34  O   UNL     1      23.012  15.195  33.127  1.00  0.00    -0.342 OA
ATOM     35  C   UNL     1      21.171  16.793  33.534  1.00  0.00     0.201 C 
ATOM     36  C   UNL     1      22.614  16.355  33.847  1.00  0.00     0.279 C 
BRANCH  32  37
ATOM     37  C   UNL     1      21.657  13.942  31.531  1.00  0.00     0.191 C 
BRANCH  37  38
ATOM     38  O   UNL     1      20.323  13.534  31.396  1.00  0.00    -0.394 OA
ATOM     39  H   UNL     1      20.005  13.821  30.496  1.00  0.00     0.210 HD
ENDBRANCH  37  38
ENDBRANCH  32  37
BRANCH  33  40
ATOM     40  O   UNL     1      19.001  15.736  33.138  1.00  0.00    -0.387 OA
ATOM     41  H   UNL     1      19.083  16.499  32.510  1.00  0.00     0.211 HD
ENDBRANCH  33  40
BRANCH  35  42
ATOM     42  O   UNL     1      20.884  17.990  34.211  1.00  0.00    -0.385 OA
ATOM     43  H   UNL     1      21.433  17.990  35.036  1.00  0.00     0.211 HD
ENDBRANCH  35  42
BRANCH  36  44
ATOM     44  O   UNL     1      22.804  16.152  35.225  1.00  0.00    -0.366 OA
ATOM     45  H   UNL     1      21.914  15.964  35.620  1.00  0.00     0.213 HD
ENDBRANCH  36  44
ENDBRANCH  30  31
ENDBRANCH   4  30
TORSDOF 18
ENDMDL
