MODEL 1
REMARK VINA RESULT:    14.532      0.000      0.000
REMARK INTER + INTRA:          18.750
REMARK INTER:                  17.081
REMARK INTRA:                   1.670
REMARK UNBOUND:                 1.670
REMARK SMILES C=C(C)[C@@H]1CC[C@]2(C(=O)[O-])CC[C@]3(C)[C@H](CC[C@H]4[C@]5(C)C[C@@H](O)[C@H](O)C(C)(C)[C@H]5CC[C@@]43C)[C@@H]12
REMARK SMILES IDX 7 1 6 2 34 3 11 4 5 5 15 6 4 7 12 8 16 9 13 10 17 11 32 12
REMARK SMILES IDX 14 13 18 14 31 15 33 16 19 17 30 18 29 19 21 20 20 21 26 22
REMARK SMILES IDX 22 23 24 24 27 25 28 26 8 27 9 28 10 29 2 30 3 31 1 32 23 33
REMARK SMILES IDX 25 35
REMARK H PARENT 23 34 25 36
REMARK Flexibility Score: inf
ROOT
ATOM      1  C   UNL     1      20.218  33.185  37.375  1.00  0.00     0.014 C 
ATOM      2  C   UNL     1      19.212  32.426  36.508  1.00  0.00     0.014 C 
ATOM      3  C   UNL     1      19.661  32.920  38.784  1.00  0.00     0.012 C 
ATOM      4  C   UNL     1      21.666  32.643  37.341  1.00  0.00     0.014 C 
ATOM      5  C   UNL     1      17.849  32.687  37.175  1.00  0.00     0.009 C 
ATOM      6  C   UNL     1      20.447  33.719  39.860  1.00  0.00     0.000 C 
ATOM      7  C   UNL     1      18.137  33.096  38.643  1.00  0.00     0.018 C 
ATOM      8  C   UNL     1      22.542  33.400  38.378  1.00  0.00     0.008 C 
ATOM      9  C   UNL     1      19.837  33.571  41.283  1.00  0.00     0.005 C 
ATOM     10  C   UNL     1      21.996  33.370  39.861  1.00  0.00    -0.024 C 
ATOM     11  C   UNL     1      20.759  34.102  42.411  1.00  0.00     0.005 C 
ATOM     12  C   UNL     1      22.797  34.421  40.852  1.00  0.00    -0.024 C 
ATOM     13  C   UNL     1      22.171  31.875  40.338  1.00  0.00     0.012 C 
ATOM     14  C   UNL     1      21.774  35.125  41.848  1.00  0.00     0.002 C 
ATOM     15  C   UNL     1      23.480  35.599  40.083  1.00  0.00     0.008 C 
ATOM     16  C   UNL     1      23.939  33.653  41.595  1.00  0.00     0.012 C 
ATOM     17  C   UNL     1      22.335  36.214  42.856  1.00  0.00    -0.023 C 
ATOM     18  C   UNL     1      24.117  36.675  40.996  1.00  0.00     0.005 C 
ATOM     19  C   UNL     1      23.102  37.295  41.994  1.00  0.00     0.004 C 
ATOM     20  C   UNL     1      21.117  36.930  43.562  1.00  0.00     0.042 C 
ATOM     21  C   UNL     1      23.220  35.559  43.958  1.00  0.00     0.012 C 
ATOM     22  C   UNL     1      23.645  38.562  42.791  1.00  0.00    -0.003 C 
ATOM     23  C   UNL     1      21.298  38.441  43.843  1.00  0.00     0.144 C 
ATOM     24  C   UNL     1      22.771  38.835  44.069  1.00  0.00     0.149 C 
ATOM     25  C   UNL     1      23.591  39.799  41.847  1.00  0.00     0.014 C 
ATOM     26  C   UNL     1      25.122  38.404  43.239  1.00  0.00     0.014 C 
ENDROOT
BRANCH   1  27
ATOM     27  C   UNL     1      20.208  34.651  36.917  1.00  0.00     0.048 C 
ATOM     28  O   UNL     1      20.899  35.530  37.496  1.00  0.00    -0.550 OA
ATOM     29  O   UNL     1      19.335  35.055  35.912  1.00  0.00    -0.550 OA
ENDBRANCH   1  27
BRANCH   7  30
ATOM     30  C   UNL     1      17.318  32.281  39.644  1.00  0.00    -0.077 C 
ATOM     31  C   UNL     1      17.927  31.875  40.963  1.00  0.00     0.039 C 
ATOM     32  C   UNL     1      16.046  31.927  39.391  1.00  0.00     0.008 C 
ENDBRANCH   7  30
BRANCH  23  33
ATOM     33  O   UNL     1      20.497  38.831  44.931  1.00  0.00    -0.390 OA
ATOM     34  H   UNL     1      19.668  38.282  44.909  1.00  0.00     0.211 HD
ENDBRANCH  23  33
BRANCH  24  35
ATOM     35  O   UNL     1      22.824  40.188  44.456  1.00  0.00    -0.390 OA
ATOM     36  H   UNL     1      23.694  40.550  44.141  1.00  0.00     0.211 HD
ENDBRANCH  24  35
TORSDOF 4
ENDMDL
