MODEL 1
REMARK VINA RESULT:    14.182      0.000      0.000
REMARK INTER + INTRA:          18.630
REMARK INTER:                  19.156
REMARK INTRA:                  -0.526
REMARK UNBOUND:                -0.526
REMARK SMILES CC[C@@H](CC[C@H](C)[C@@H]1CC[C@H]2[C@H]3CC(=O)C4=CC(=O)CC[C@@]4(C)[C@@H]3CC[C@]21C)C(C)C
REMARK SMILES IDX 4 1 3 2 2 3 1 4 29 5 30 6 31 7 5 8 6 9 7 10 8 11 9 12 27 13
REMARK SMILES IDX 10 14 11 15 26 16 28 17 12 18 25 19 24 20 13 21 22 22 14 23
REMARK SMILES IDX 16 24 21 25 23 26 15 27 17 28 20 29 18 30 19 31
REMARK H PARENT
REMARK Flexibility Score: inf
ROOT
ATOM      1  C   UNL     1      28.944  27.149  25.902  1.00  0.00     0.004 C 
ENDROOT
BRANCH   1   2
ATOM      2  C   UNL     1      29.125  28.577  25.316  1.00  0.00    -0.009 C 
BRANCH   2   3
ATOM      3  C   UNL     1      29.021  29.681  26.414  1.00  0.00     0.000 C 
ATOM      4  C   UNL     1      28.885  29.183  27.859  1.00  0.00     0.004 C 
ENDBRANCH   2   3
BRANCH   2   5
ATOM      5  C   UNL     1      28.240  28.845  24.049  1.00  0.00    -0.014 C 
ATOM      6  C   UNL     1      26.772  29.176  24.353  1.00  0.00     0.007 C 
ATOM      7  C   UNL     1      28.846  29.933  23.145  1.00  0.00     0.007 C 
ENDBRANCH   2   5
ENDBRANCH   1   2
BRANCH   1   8
ATOM      8  C   UNL     1      29.125  26.030  24.853  1.00  0.00     0.004 C 
BRANCH   8   9
ATOM      9  C   UNL     1      29.015  24.598  25.469  1.00  0.00    -0.011 C 
ATOM     10  C   UNL     1      29.051  23.579  24.312  1.00  0.00     0.008 C 
BRANCH   9  11
ATOM     11  C   UNL     1      27.710  24.432  26.337  1.00  0.00    -0.002 C 
ATOM     12  C   UNL     1      27.604  23.064  27.013  1.00  0.00     0.005 C 
ATOM     13  C   UNL     1      26.306  24.625  25.646  1.00  0.00    -0.026 C 
ATOM     14  C   UNL     1      26.178  22.984  27.502  1.00  0.00     0.005 C 
ATOM     15  C   UNL     1      25.357  23.609  26.374  1.00  0.00    -0.001 C 
ATOM     16  C   UNL     1      25.786  26.089  25.798  1.00  0.00     0.007 C 
ATOM     17  C   UNL     1      26.325  24.255  24.140  1.00  0.00     0.012 C 
ATOM     18  C   UNL     1      23.993  24.215  26.809  1.00  0.00     0.004 C 
ATOM     19  C   UNL     1      25.276  26.420  27.210  1.00  0.00     0.005 C 
ATOM     20  C   UNL     1      24.147  25.470  27.717  1.00  0.00     0.003 C 
ATOM     21  C   UNL     1      23.092  23.165  27.475  1.00  0.00     0.085 C 
ATOM     22  C   UNL     1      22.764  26.182  27.998  1.00  0.00    -0.000 C 
ATOM     23  C   UNL     1      21.778  23.766  27.868  1.00  0.00     0.159 C 
ATOM     24  C   UNL     1      21.722  25.137  28.431  1.00  0.00     0.005 C 
ATOM     25  C   UNL     1      22.953  27.221  29.152  1.00  0.00     0.020 C 
ATOM     26  C   UNL     1      22.221  26.894  26.730  1.00  0.00     0.017 C 
ATOM     27  O   UNL     1      20.731  23.070  27.772  1.00  0.00    -0.295 OA
ATOM     28  C   UNL     1      20.703  25.466  29.249  1.00  0.00     0.055 C 
ATOM     29  C   UNL     1      21.634  27.844  29.626  1.00  0.00     0.081 C 
ATOM     30  C   UNL     1      20.599  26.792  29.874  1.00  0.00     0.156 C 
ATOM     31  O   UNL     1      19.612  27.054  30.611  1.00  0.00    -0.295 OA
ENDBRANCH   9  11
ENDBRANCH   8   9
ENDBRANCH   1   8
TORSDOF 6
ENDMDL
