MODEL 1
REMARK VINA RESULT:    -3.241      0.000      0.000
REMARK INTER + INTRA:          -3.930
REMARK INTER:                  -3.809
REMARK INTRA:                  -0.120
REMARK UNBOUND:                -0.120
REMARK SMILES O=C([O-])CCC(=O)[O-]
REMARK SMILES IDX 4 1 2 2 1 3 3 4 5 5 6 6 7 7 8 8
REMARK H PARENT
REMARK Flexibility Score: inf
ROOT
ATOM      1  C   UNL     1       4.323 -15.010 -18.322  1.00  0.00     0.059 C 
ENDROOT
BRANCH   1   2
ATOM      2  C   UNL     1       2.987 -15.043 -18.996  1.00  0.00     0.042 C 
ATOM      3  O   UNL     1       2.338 -16.119 -19.062  1.00  0.00    -0.550 OA
ATOM      4  O   UNL     1       2.439 -13.874 -19.508  1.00  0.00    -0.550 OA
ENDBRANCH   1   2
BRANCH   1   5
ATOM      5  C   UNL     1       4.396 -13.846 -17.333  1.00  0.00     0.059 C 
BRANCH   5   6
ATOM      6  C   UNL     1       5.504 -12.912 -17.704  1.00  0.00     0.042 C 
ATOM      7  O   UNL     1       5.456 -12.270 -18.787  1.00  0.00    -0.550 OA
ATOM      8  O   UNL     1       6.614 -12.788 -16.878  1.00  0.00    -0.550 OA
ENDBRANCH   5   6
ENDBRANCH   1   5
TORSDOF 3
ENDMDL
MODEL 2
REMARK VINA RESULT:    -3.217      8.946     10.494
REMARK INTER + INTRA:          -3.901
REMARK INTER:                  -3.860
REMARK INTRA:                  -0.041
REMARK UNBOUND:                -0.120
REMARK SMILES O=C([O-])CCC(=O)[O-]
REMARK SMILES IDX 4 1 2 2 1 3 3 4 5 5 6 6 7 7 8 8
REMARK H PARENT
REMARK Flexibility Score: inf
ROOT
ATOM      1  C   UNL     1      -5.384 -13.249 -23.609  1.00  0.00     0.059 C 
ENDROOT
BRANCH   1   2
ATOM      2  C   UNL     1      -6.246 -14.393 -24.038  1.00  0.00     0.042 C 
ATOM      3  O   UNL     1      -6.973 -14.988 -23.200  1.00  0.00    -0.550 OA
ATOM      4  O   UNL     1      -6.285 -14.772 -25.374  1.00  0.00    -0.550 OA
ENDBRANCH   1   2
BRANCH   1   5
ATOM      5  C   UNL     1      -5.070 -13.345 -22.115  1.00  0.00     0.059 C 
BRANCH   5   6
ATOM      6  C   UNL     1      -3.808 -12.609 -21.795  1.00  0.00     0.042 C 
ATOM      7  O   UNL     1      -3.450 -12.456 -20.598  1.00  0.00    -0.550 OA
ATOM      8  O   UNL     1      -3.053 -12.048 -22.817  1.00  0.00    -0.550 OA
ENDBRANCH   5   6
ENDBRANCH   1   5
TORSDOF 3
ENDMDL
MODEL 3
REMARK VINA RESULT:    -3.172      1.659      3.938
REMARK INTER + INTRA:          -3.849
REMARK INTER:                  -3.739
REMARK INTRA:                  -0.110
REMARK UNBOUND:                -0.120
REMARK SMILES O=C([O-])CCC(=O)[O-]
REMARK SMILES IDX 4 1 2 2 1 3 3 4 5 5 6 6 7 7 8 8
REMARK H PARENT
REMARK Flexibility Score: inf
ROOT
ATOM      1  C   UNL     1       3.761 -14.883 -19.056  1.00  0.00     0.059 C 
ENDROOT
BRANCH   1   2
ATOM      2  C   UNL     1       4.406 -13.937 -18.093  1.00  0.00     0.042 C 
ATOM      3  O   UNL     1       4.503 -14.242 -16.875  1.00  0.00    -0.550 OA
ATOM      4  O   UNL     1       4.943 -12.740 -18.548  1.00  0.00    -0.550 OA
ENDBRANCH   1   2
BRANCH   1   5
ATOM      5  C   UNL     1       2.251 -14.649 -19.108  1.00  0.00     0.059 C 
BRANCH   5   6
ATOM      6  C   UNL     1       1.869 -13.968 -20.384  1.00  0.00     0.042 C 
ATOM      7  O   UNL     1       2.283 -12.804 -20.628  1.00  0.00    -0.550 OA
ATOM      8  O   UNL     1       1.017 -14.599 -21.280  1.00  0.00    -0.550 OA
ENDBRANCH   5   6
ENDBRANCH   1   5
TORSDOF 3
ENDMDL
MODEL 4
REMARK VINA RESULT:    -3.030     16.661     17.148
REMARK INTER + INTRA:          -3.681
REMARK INTER:                  -3.642
REMARK INTRA:                  -0.039
REMARK UNBOUND:                -0.120
REMARK SMILES O=C([O-])CCC(=O)[O-]
REMARK SMILES IDX 4 1 2 2 1 3 3 4 5 5 6 6 7 7 8 8
REMARK H PARENT
REMARK Flexibility Score: inf
ROOT
ATOM      1  C   UNL     1       7.393 -10.458 -35.651  1.00  0.00     0.059 C 
ENDROOT
BRANCH   1   2
ATOM      2  C   UNL     1       6.724 -11.705 -36.137  1.00  0.00     0.042 C 
ATOM      3  O   UNL     1       7.396 -12.599 -36.714  1.00  0.00    -0.550 OA
ATOM      4  O   UNL     1       5.368 -11.900 -35.909  1.00  0.00    -0.550 OA
ENDBRANCH   1   2
BRANCH   1   5
ATOM      5  C   UNL     1       6.670  -9.907 -34.420  1.00  0.00     0.059 C 
BRANCH   5   6
ATOM      6  C   UNL     1       7.652  -9.325 -33.453  1.00  0.00     0.042 C 
ATOM      7  O   UNL     1       8.778  -8.929 -33.855  1.00  0.00    -0.550 OA
ATOM      8  O   UNL     1       7.343  -9.265 -32.100  1.00  0.00    -0.550 OA
ENDBRANCH   5   6
ENDBRANCH   1   5
TORSDOF 3
ENDMDL
MODEL 5
REMARK VINA RESULT:    -3.011      2.155      4.340
REMARK INTER + INTRA:          -3.659
REMARK INTER:                  -3.627
REMARK INTRA:                  -0.032
REMARK UNBOUND:                -0.120
REMARK SMILES O=C([O-])CCC(=O)[O-]
REMARK SMILES IDX 4 1 2 2 1 3 3 4 5 5 6 6 7 7 8 8
REMARK H PARENT
REMARK Flexibility Score: inf
ROOT
ATOM      1  C   UNL     1       2.694 -14.586 -19.086  1.00  0.00     0.059 C 
ENDROOT
BRANCH   1   2
ATOM      2  C   UNL     1       4.014 -14.348 -18.422  1.00  0.00     0.042 C 
ATOM      3  O   UNL     1       4.635 -15.304 -17.888  1.00  0.00    -0.550 OA
ATOM      4  O   UNL     1       4.580 -13.080 -18.435  1.00  0.00    -0.550 OA
ENDBRANCH   1   2
BRANCH   1   5
ATOM      5  C   UNL     1       2.451 -13.547 -20.183  1.00  0.00     0.059 C 
BRANCH   5   6
ATOM      6  C   UNL     1       1.153 -13.812 -20.877  1.00  0.00     0.042 C 
ATOM      7  O   UNL     1       0.339 -12.872 -21.078  1.00  0.00    -0.550 OA
ATOM      8  O   UNL     1       0.819 -15.105 -21.257  1.00  0.00    -0.550 OA
ENDBRANCH   5   6
ENDBRANCH   1   5
TORSDOF 3
ENDMDL
MODEL 6
REMARK VINA RESULT:    -3.008     16.729     17.307
REMARK INTER + INTRA:          -3.655
REMARK INTER:                  -3.609
REMARK INTRA:                  -0.046
REMARK UNBOUND:                -0.120
REMARK SMILES O=C([O-])CCC(=O)[O-]
REMARK SMILES IDX 4 1 2 2 1 3 3 4 5 5 6 6 7 7 8 8
REMARK H PARENT
REMARK Flexibility Score: inf
ROOT
ATOM      1  C   UNL     1      -7.491  -1.187 -18.384  1.00  0.00     0.059 C 
ENDROOT
BRANCH   1   2
ATOM      2  C   UNL     1      -8.801  -1.227 -19.105  1.00  0.00     0.042 C 
ATOM      3  O   UNL     1      -9.855  -0.860 -18.522  1.00  0.00    -0.550 OA
ATOM      4  O   UNL     1      -8.852  -1.623 -20.435  1.00  0.00    -0.550 OA
ENDBRANCH   1   2
BRANCH   1   5
ATOM      5  C   UNL     1      -6.349  -1.572 -19.327  1.00  0.00     0.059 C 
BRANCH   5   6
ATOM      6  C   UNL     1      -5.164  -0.687 -19.104  1.00  0.00     0.042 C 
ATOM      7  O   UNL     1      -4.900  -0.261 -17.948  1.00  0.00    -0.550 OA
ATOM      8  O   UNL     1      -4.381  -0.291 -20.179  1.00  0.00    -0.550 OA
ENDBRANCH   5   6
ENDBRANCH   1   5
TORSDOF 3
ENDMDL
MODEL 7
REMARK VINA RESULT:    -2.983      0.847      4.110
REMARK INTER + INTRA:          -3.626
REMARK INTER:                  -3.587
REMARK INTRA:                  -0.039
REMARK UNBOUND:                -0.120
REMARK SMILES O=C([O-])CCC(=O)[O-]
REMARK SMILES IDX 4 1 2 2 1 3 3 4 5 5 6 6 7 7 8 8
REMARK H PARENT
REMARK Flexibility Score: inf
ROOT
ATOM      1  C   UNL     1       4.495 -13.209 -18.856  1.00  0.00     0.059 C 
ENDROOT
BRANCH   1   2
ATOM      2  C   UNL     1       5.599 -12.727 -17.968  1.00  0.00     0.042 C 
ATOM      3  O   UNL     1       5.831 -13.307 -16.875  1.00  0.00    -0.550 OA
ATOM      4  O   UNL     1       6.402 -11.668 -18.371  1.00  0.00    -0.550 OA
ENDBRANCH   1   2
BRANCH   1   5
ATOM      5  C   UNL     1       3.894 -14.505 -18.308  1.00  0.00     0.059 C 
BRANCH   5   6
ATOM      6  C   UNL     1       2.685 -14.896 -19.097  1.00  0.00     0.042 C 
ATOM      7  O   UNL     1       2.280 -16.089 -19.086  1.00  0.00    -0.550 OA
ATOM      8  O   UNL     1       2.034 -13.955 -19.884  1.00  0.00    -0.550 OA
ENDBRANCH   5   6
ENDBRANCH   1   5
TORSDOF 3
ENDMDL
MODEL 8
REMARK VINA RESULT:    -2.955     16.666     17.626
REMARK INTER + INTRA:          -3.594
REMARK INTER:                  -3.551
REMARK INTRA:                  -0.043
REMARK UNBOUND:                -0.120
REMARK SMILES O=C([O-])CCC(=O)[O-]
REMARK SMILES IDX 4 1 2 2 1 3 3 4 5 5 6 6 7 7 8 8
REMARK H PARENT
REMARK Flexibility Score: inf
ROOT
ATOM      1  C   UNL     1      -6.611  -1.555 -19.349  1.00  0.00     0.059 C 
ENDROOT
BRANCH   1   2
ATOM      2  C   UNL     1      -5.351  -0.901 -18.877  1.00  0.00     0.042 C 
ATOM      3  O   UNL     1      -5.395  -0.001 -17.998  1.00  0.00    -0.550 OA
ATOM      4  O   UNL     1      -4.123  -1.321 -19.371  1.00  0.00    -0.550 OA
ENDBRANCH   1   2
BRANCH   1   5
ATOM      5  C   UNL     1      -7.772  -1.221 -18.410  1.00  0.00     0.059 C 
BRANCH   5   6
ATOM      6  C   UNL     1      -9.081  -1.516 -19.070  1.00  0.00     0.042 C 
ATOM      7  O   UNL     1     -10.125  -1.645 -18.377  1.00  0.00    -0.550 OA
ATOM      8  O   UNL     1      -9.141  -1.697 -20.446  1.00  0.00    -0.550 OA
ENDBRANCH   5   6
ENDBRANCH   1   5
TORSDOF 3
ENDMDL
