MODEL 1
REMARK VINA RESULT:    -2.936      0.000      0.000
REMARK INTER + INTRA:          -3.428
REMARK INTER:                  -3.451
REMARK INTRA:                   0.023
REMARK UNBOUND:                 0.023
REMARK SMILES CCCCC(=O)[O-]
REMARK SMILES IDX 4 1 5 2 6 3 7 4 3 5 2 6 1 7
REMARK H PARENT
REMARK Flexibility Score: inf
ROOT
ATOM      1  C   UNL     1       3.399   7.321  53.677  1.00  0.00     0.053 C 
ENDROOT
BRANCH   1   2
ATOM      2  C   UNL     1       3.790   7.063  55.099  1.00  0.00     0.041 C 
ATOM      3  O   UNL     1       4.050   8.024  55.871  1.00  0.00    -0.550 OA
ATOM      4  O   UNL     1       3.898   5.760  55.567  1.00  0.00    -0.550 OA
ENDBRANCH   1   2
BRANCH   1   5
ATOM      5  C   UNL     1       4.038   8.598  53.106  1.00  0.00     0.006 C 
BRANCH   5   6
ATOM      6  C   UNL     1       3.052   9.768  52.937  1.00  0.00    -0.003 C 
ATOM      7  C   UNL     1       2.780  10.519  54.240  1.00  0.00     0.004 C 
ENDBRANCH   5   6
ENDBRANCH   1   5
TORSDOF 3
ENDMDL
MODEL 2
REMARK VINA RESULT:    -2.631     14.169     14.870
REMARK INTER + INTRA:          -3.070
REMARK INTER:                  -3.053
REMARK INTRA:                  -0.017
REMARK UNBOUND:                 0.023
REMARK SMILES CCCCC(=O)[O-]
REMARK SMILES IDX 4 1 5 2 6 3 7 4 3 5 2 6 1 7
REMARK H PARENT
REMARK Flexibility Score: inf
ROOT
ATOM      1  C   UNL     1      11.310  19.918  55.345  1.00  0.00     0.053 C 
ENDROOT
BRANCH   1   2
ATOM      2  C   UNL     1      12.704  20.454  55.234  1.00  0.00     0.041 C 
ATOM      3  O   UNL     1      12.918  21.556  54.662  1.00  0.00    -0.550 OA
ATOM      4  O   UNL     1      13.773  19.723  55.736  1.00  0.00    -0.550 OA
ENDBRANCH   1   2
BRANCH   1   5
ATOM      5  C   UNL     1      10.371  20.860  56.118  1.00  0.00     0.006 C 
BRANCH   5   6
ATOM      6  C   UNL     1       8.900  20.408  56.123  1.00  0.00    -0.003 C 
ATOM      7  C   UNL     1       7.913  21.575  56.119  1.00  0.00     0.004 C 
ENDBRANCH   5   6
ENDBRANCH   1   5
TORSDOF 3
ENDMDL
MODEL 3
REMARK VINA RESULT:    -2.623     14.885     15.755
REMARK INTER + INTRA:          -3.060
REMARK INTER:                  -3.252
REMARK INTRA:                   0.192
REMARK UNBOUND:                 0.023
REMARK SMILES CCCCC(=O)[O-]
REMARK SMILES IDX 4 1 5 2 6 3 7 4 3 5 2 6 1 7
REMARK H PARENT
REMARK Flexibility Score: inf
ROOT
ATOM      1  C   UNL     1      13.043  19.947  55.880  1.00  0.00     0.053 C 
ENDROOT
BRANCH   1   2
ATOM      2  C   UNL     1      13.710  21.225  55.476  1.00  0.00     0.041 C 
ATOM      3  O   UNL     1      13.173  21.982  54.624  1.00  0.00    -0.550 OA
ATOM      4  O   UNL     1      14.942  21.569  56.018  1.00  0.00    -0.550 OA
ENDBRANCH   1   2
BRANCH   1   5
ATOM      5  C   UNL     1      11.566  19.887  55.454  1.00  0.00     0.006 C 
BRANCH   5   6
ATOM      6  C   UNL     1      10.680  20.953  56.123  1.00  0.00    -0.003 C 
ATOM      7  C   UNL     1       9.189  20.618  56.065  1.00  0.00     0.004 C 
ENDBRANCH   5   6
ENDBRANCH   1   5
TORSDOF 3
ENDMDL
MODEL 4
REMARK VINA RESULT:    -2.467     12.744     13.651
REMARK INTER + INTRA:          -2.877
REMARK INTER:                  -2.857
REMARK INTRA:                  -0.020
REMARK UNBOUND:                 0.023
REMARK SMILES CCCCC(=O)[O-]
REMARK SMILES IDX 4 1 5 2 6 3 7 4 3 5 2 6 1 7
REMARK H PARENT
REMARK Flexibility Score: inf
ROOT
ATOM      1  C   UNL     1       5.848  21.043  54.664  1.00  0.00     0.053 C 
ENDROOT
BRANCH   1   2
ATOM      2  C   UNL     1       4.373  21.071  54.404  1.00  0.00     0.041 C 
ATOM      3  O   UNL     1       3.827  22.113  53.954  1.00  0.00    -0.550 OA
ATOM      4  O   UNL     1       3.595  19.956  54.687  1.00  0.00    -0.550 OA
ENDBRANCH   1   2
BRANCH   1   5
ATOM      5  C   UNL     1       6.243  21.822  55.930  1.00  0.00     0.006 C 
BRANCH   5   6
ATOM      6  C   UNL     1       7.763  21.970  56.123  1.00  0.00    -0.003 C 
ATOM      7  C   UNL     1       8.520  20.652  55.962  1.00  0.00     0.004 C 
ENDBRANCH   5   6
ENDBRANCH   1   5
TORSDOF 3
ENDMDL
MODEL 5
REMARK VINA RESULT:    -2.364      2.298      2.855
REMARK INTER + INTRA:          -2.756
REMARK INTER:                  -3.076
REMARK INTRA:                   0.319
REMARK UNBOUND:                 0.023
REMARK SMILES CCCCC(=O)[O-]
REMARK SMILES IDX 4 1 5 2 6 3 7 4 3 5 2 6 1 7
REMARK H PARENT
REMARK Flexibility Score: inf
ROOT
ATOM      1  C   UNL     1       3.640   8.431  55.550  1.00  0.00     0.053 C 
ENDROOT
BRANCH   1   2
ATOM      2  C   UNL     1       3.508   9.922  55.516  1.00  0.00     0.041 C 
ATOM      3  O   UNL     1       4.337  10.649  56.124  1.00  0.00    -0.550 OA
ATOM      4  O   UNL     1       2.449  10.511  54.835  1.00  0.00    -0.550 OA
ENDBRANCH   1   2
BRANCH   1   5
ATOM      5  C   UNL     1       3.345   7.776  54.190  1.00  0.00     0.006 C 
BRANCH   5   6
ATOM      6  C   UNL     1       4.102   8.414  53.012  1.00  0.00    -0.003 C 
ATOM      7  C   UNL     1       3.205   9.258  52.107  1.00  0.00     0.004 C 
ENDBRANCH   5   6
ENDBRANCH   1   5
TORSDOF 3
ENDMDL
MODEL 6
REMARK VINA RESULT:    -2.245     15.365     16.434
REMARK INTER + INTRA:          -2.616
REMARK INTER:                  -2.571
REMARK INTRA:                  -0.046
REMARK UNBOUND:                 0.023
REMARK SMILES CCCCC(=O)[O-]
REMARK SMILES IDX 4 1 5 2 6 3 7 4 3 5 2 6 1 7
REMARK H PARENT
REMARK Flexibility Score: inf
ROOT
ATOM      1  C   UNL     1      12.892  20.587  54.876  1.00  0.00     0.053 C 
ENDROOT
BRANCH   1   2
ATOM      2  C   UNL     1      11.667  20.607  55.736  1.00  0.00     0.041 C 
ATOM      3  O   UNL     1      11.127  19.528  56.099  1.00  0.00    -0.550 OA
ATOM      4  O   UNL     1      11.101  21.818  56.115  1.00  0.00    -0.550 OA
ENDBRANCH   1   2
BRANCH   1   5
ATOM      5  C   UNL     1      13.727  21.873  55.001  1.00  0.00     0.006 C 
BRANCH   5   6
ATOM      6  C   UNL     1      14.898  21.763  55.994  1.00  0.00    -0.003 C 
ATOM      7  C   UNL     1      16.248  22.125  55.375  1.00  0.00     0.004 C 
ENDBRANCH   5   6
ENDBRANCH   1   5
TORSDOF 3
ENDMDL
MODEL 7
REMARK VINA RESULT:    -2.181      2.142      3.435
REMARK INTER + INTRA:          -2.541
REMARK INTER:                  -2.634
REMARK INTRA:                   0.093
REMARK UNBOUND:                 0.023
REMARK SMILES CCCCC(=O)[O-]
REMARK SMILES IDX 4 1 5 2 6 3 7 4 3 5 2 6 1 7
REMARK H PARENT
REMARK Flexibility Score: inf
ROOT
ATOM      1  C   UNL     1       3.802   9.368  53.286  1.00  0.00     0.053 C 
ENDROOT
BRANCH   1   2
ATOM      2  C   UNL     1       3.360  10.180  54.464  1.00  0.00     0.041 C 
ATOM      3  O   UNL     1       2.166  10.570  54.555  1.00  0.00    -0.550 OA
ATOM      4  O   UNL     1       4.273  10.532  55.450  1.00  0.00    -0.550 OA
ENDBRANCH   1   2
BRANCH   1   5
ATOM      5  C   UNL     1       3.650   7.854  53.516  1.00  0.00     0.006 C 
BRANCH   5   6
ATOM      6  C   UNL     1       3.458   7.463  54.992  1.00  0.00    -0.003 C 
ATOM      7  C   UNL     1       3.845   6.014  55.286  1.00  0.00     0.004 C 
ENDBRANCH   5   6
ENDBRANCH   1   5
TORSDOF 3
ENDMDL
MODEL 8
REMARK VINA RESULT:    -2.059     12.966     13.715
REMARK INTER + INTRA:          -2.398
REMARK INTER:                  -2.363
REMARK INTRA:                  -0.035
REMARK UNBOUND:                 0.023
REMARK SMILES CCCCC(=O)[O-]
REMARK SMILES IDX 4 1 5 2 6 3 7 4 3 5 2 6 1 7
REMARK H PARENT
REMARK Flexibility Score: inf
ROOT
ATOM      1  C   UNL     1       7.152  20.648  55.385  1.00  0.00     0.053 C 
ENDROOT
BRANCH   1   2
ATOM      2  C   UNL     1       8.532  20.939  55.887  1.00  0.00     0.041 C 
ATOM      3  O   UNL     1       8.886  22.124  56.125  1.00  0.00    -0.550 OA
ATOM      4  O   UNL     1       9.441  19.903  56.065  1.00  0.00    -0.550 OA
ENDBRANCH   1   2
BRANCH   1   5
ATOM      5  C   UNL     1       6.095  21.605  55.963  1.00  0.00     0.006 C 
BRANCH   5   6
ATOM      6  C   UNL     1       5.067  22.098  54.930  1.00  0.00    -0.003 C 
ATOM      7  C   UNL     1       4.343  20.960  54.211  1.00  0.00     0.004 C 
ENDBRANCH   5   6
ENDBRANCH   1   5
TORSDOF 3
ENDMDL
MODEL 9
REMARK VINA RESULT:    -2.057      2.387      3.231
REMARK INTER + INTRA:          -2.395
REMARK INTER:                  -2.779
REMARK INTRA:                   0.384
REMARK UNBOUND:                 0.023
REMARK SMILES CCCCC(=O)[O-]
REMARK SMILES IDX 4 1 5 2 6 3 7 4 3 5 2 6 1 7
REMARK H PARENT
REMARK Flexibility Score: inf
ROOT
ATOM      1  C   UNL     1       2.651   8.274  54.055  1.00  0.00     0.053 C 
ENDROOT
BRANCH   1   2
ATOM      2  C   UNL     1       3.332   9.039  52.963  1.00  0.00     0.041 C 
ATOM      3  O   UNL     1       4.492   8.717  52.590  1.00  0.00    -0.550 OA
ATOM      4  O   UNL     1       2.700  10.127  52.376  1.00  0.00    -0.550 OA
ENDBRANCH   1   2
BRANCH   1   5
ATOM      5  C   UNL     1       3.638   7.705  55.088  1.00  0.00     0.006 C 
BRANCH   5   6
ATOM      6  C   UNL     1       4.120   8.735  56.125  1.00  0.00    -0.003 C 
ATOM      7  C   UNL     1       3.793  10.177  55.736  1.00  0.00     0.004 C 
ENDBRANCH   5   6
ENDBRANCH   1   5
TORSDOF 3
ENDMDL
