MODEL 1
REMARK VINA RESULT:     2.331      0.000      0.000
REMARK INTER + INTRA:           2.283
REMARK INTER:                   2.808
REMARK INTRA:                  -0.525
REMARK UNBOUND:                -0.525
REMARK SMILES Oc1cc(O)c2c(c1)O[C@@H](c1ccc(O)c(O)c1)[C@H](O)C2
REMARK SMILES IDX 21 1 19 2 10 3 9 4 7 5 8 6 2 7 3 8 4 9 6 10 20 11 11 13
REMARK SMILES IDX 18 14 12 15 16 16 13 17 14 18 17 19 15 21 5 23 1 25
REMARK H PARENT 20 12 17 20 15 22 5 24 1 26
REMARK Flexibility Score: inf
ROOT
ATOM      1  C   UNL     1      20.779  42.881  24.257  1.00  0.00     0.079 C 
ATOM      2  C   UNL     1      21.890  41.818  24.403  1.00  0.00     0.164 C 
ATOM      3  C   UNL     1      22.682  41.983  25.721  1.00  0.00     0.232 C 
ATOM      4  O   UNL     1      23.125  43.334  25.881  1.00  0.00    -0.482 OA
ATOM      5  C   UNL     1      22.402  44.443  25.418  1.00  0.00     0.131 A 
ATOM      6  C   UNL     1      22.853  45.721  25.755  1.00  0.00     0.093 A 
ATOM      7  C   UNL     1      22.135  46.850  25.357  1.00  0.00     0.122 A 
ATOM      8  C   UNL     1      20.960  46.700  24.608  1.00  0.00     0.092 A 
ATOM      9  C   UNL     1      20.507  45.425  24.239  1.00  0.00     0.126 A 
ATOM     10  C   UNL     1      21.245  44.277  24.620  1.00  0.00     0.039 A 
ENDROOT
BRANCH   2  11
ATOM     11  O   UNL     1      22.759  41.862  23.296  1.00  0.00    -0.389 OA
ATOM     12  H   UNL     1      22.457  41.178  22.644  1.00  0.00     0.211 HD
ENDBRANCH   2  11
BRANCH   3  13
ATOM     13  C   UNL     1      21.900  41.517  26.938  1.00  0.00    -0.001 A 
ATOM     14  C   UNL     1      21.951  42.266  28.126  1.00  0.00     0.057 A 
ATOM     15  C   UNL     1      21.121  40.346  26.909  1.00  0.00     0.012 A 
ATOM     16  C   UNL     1      21.236  41.859  29.263  1.00  0.00     0.157 A 
ATOM     17  C   UNL     1      20.411  39.938  28.040  1.00  0.00     0.050 A 
ATOM     18  C   UNL     1      20.454  40.694  29.214  1.00  0.00     0.157 A 
BRANCH  16  19
ATOM     19  O   UNL     1      21.295  42.609  30.440  1.00  0.00    -0.504 OA
ATOM     20  H   UNL     1      22.127  42.632  31.034  1.00  0.00     0.293 HD
ENDBRANCH  16  19
BRANCH  18  21
ATOM     21  O   UNL     1      19.708  40.277  30.319  1.00  0.00    -0.504 OA
ATOM     22  H   UNL     1      20.036  39.565  30.951  1.00  0.00     0.293 HD
ENDBRANCH  18  21
ENDBRANCH   3  13
BRANCH   9  23
ATOM     23  O   UNL     1      19.320  45.340  23.510  1.00  0.00    -0.507 OA
ATOM     24  H   UNL     1      19.237  44.856  22.627  1.00  0.00     0.293 HD
ENDBRANCH   9  23
BRANCH   7  25
ATOM     25  O   UNL     1      22.595  48.119  25.713  1.00  0.00    -0.508 OA
ATOM     26  H   UNL     1      23.070  48.284  26.597  1.00  0.00     0.293 HD
ENDBRANCH   7  25
TORSDOF 6
ENDMDL
