MODEL 1
REMARK VINA RESULT:    -5.886      0.000      0.000
REMARK INTER + INTRA:         -13.237
REMARK INTER:                 -11.391
REMARK INTRA:                  -1.845
REMARK UNBOUND:                -1.845
REMARK SMILES CCCCCCCCCCCCCCCCCC(=O)[O-]
REMARK SMILES IDX 10 1 11 2 12 3 13 4 14 5 15 6 16 7 17 8 18 9 19 10 20 11
REMARK SMILES IDX 9 12 8 13 7 14 6 15 5 16 4 17 3 18 2 19 1 20
REMARK H PARENT
REMARK Flexibility Score: inf
ROOT
ATOM      1  C   UNL     1      15.474  22.636  16.645  1.00  0.00     0.000 C 
ENDROOT
BRANCH   1   2
ATOM      2  C   UNL     1      15.467  21.667  15.456  1.00  0.00     0.000 C 
BRANCH   2   3
ATOM      3  C   UNL     1      14.577  22.192  14.323  1.00  0.00     0.000 C 
BRANCH   3   4
ATOM      4  C   UNL     1      15.416  22.549  13.086  1.00  0.00     0.000 C 
BRANCH   4   5
ATOM      5  C   UNL     1      15.702  21.333  12.192  1.00  0.00     0.000 C 
BRANCH   5   6
ATOM      6  C   UNL     1      17.159  21.285  11.707  1.00  0.00     0.000 C 
BRANCH   6   7
ATOM      7  C   UNL     1      17.805  19.931  12.042  1.00  0.00     0.006 C 
BRANCH   7   8
ATOM      8  C   UNL     1      17.681  19.580  13.530  1.00  0.00     0.053 C 
BRANCH   8   9
ATOM      9  C   UNL     1      18.966  19.046  14.083  1.00  0.00     0.041 C 
ATOM     10  O   UNL     1      19.573  19.668  14.994  1.00  0.00    -0.550 OA
ATOM     11  O   UNL     1      19.478  17.843  13.613  1.00  0.00    -0.550 OA
ENDBRANCH   8   9
ENDBRANCH   7   8
ENDBRANCH   6   7
ENDBRANCH   5   6
ENDBRANCH   4   5
ENDBRANCH   3   4
ENDBRANCH   2   3
ENDBRANCH   1   2
BRANCH   1  12
ATOM     12  C   UNL     1      14.043  22.938  17.116  1.00  0.00     0.000 C 
BRANCH  12  13
ATOM     13  C   UNL     1      13.876  22.782  18.636  1.00  0.00    -0.000 C 
BRANCH  13  14
ATOM     14  C   UNL     1      14.029  21.327  19.103  1.00  0.00    -0.000 C 
BRANCH  14  15
ATOM     15  C   UNL     1      15.032  21.225  20.262  1.00  0.00    -0.000 C 
BRANCH  15  16
ATOM     16  C   UNL     1      16.021  20.058  20.096  1.00  0.00    -0.000 C 
BRANCH  16  17
ATOM     17  C   UNL     1      16.389  19.719  18.638  1.00  0.00    -0.000 C 
BRANCH  17  18
ATOM     18  C   UNL     1      16.002  18.300  18.177  1.00  0.00    -0.000 C 
BRANCH  18  19
ATOM     19  C   UNL     1      16.662  17.844  16.863  1.00  0.00    -0.003 C 
ATOM     20  C   UNL     1      17.954  17.061  17.088  1.00  0.00     0.004 C 
ENDBRANCH  18  19
ENDBRANCH  17  18
ENDBRANCH  16  17
ENDBRANCH  15  16
ENDBRANCH  14  15
ENDBRANCH  13  14
ENDBRANCH  12  13
ENDBRANCH   1  12
TORSDOF 16
ENDMDL
MODEL 2
REMARK VINA RESULT:    -5.759      1.184      4.784
REMARK INTER + INTRA:         -12.991
REMARK INTER:                 -10.789
REMARK INTRA:                  -2.202
REMARK UNBOUND:                -1.845
REMARK SMILES CCCCCCCCCCCCCCCCCC(=O)[O-]
REMARK SMILES IDX 10 1 11 2 12 3 13 4 14 5 15 6 16 7 17 8 18 9 19 10 20 11
REMARK SMILES IDX 9 12 8 13 7 14 6 15 5 16 4 17 3 18 2 19 1 20
REMARK H PARENT
REMARK Flexibility Score: inf
ROOT
ATOM      1  C   UNL     1      15.080  21.091  19.417  1.00  0.00     0.000 C 
ENDROOT
BRANCH   1   2
ATOM      2  C   UNL     1      15.117  19.576  19.648  1.00  0.00     0.000 C 
BRANCH   2   3
ATOM      3  C   UNL     1      14.497  18.822  18.465  1.00  0.00     0.000 C 
BRANCH   3   4
ATOM      4  C   UNL     1      15.453  17.739  17.942  1.00  0.00     0.000 C 
BRANCH   4   5
ATOM      5  C   UNL     1      16.752  18.324  17.364  1.00  0.00     0.000 C 
BRANCH   5   6
ATOM      6  C   UNL     1      16.506  19.210  16.134  1.00  0.00     0.000 C 
BRANCH   6   7
ATOM      7  C   UNL     1      17.705  20.135  15.875  1.00  0.00     0.006 C 
BRANCH   7   8
ATOM      8  C   UNL     1      18.563  19.659  14.696  1.00  0.00     0.053 C 
BRANCH   8   9
ATOM      9  C   UNL     1      19.762  18.890  15.157  1.00  0.00     0.041 C 
ATOM     10  O   UNL     1      20.718  19.483  15.722  1.00  0.00    -0.550 OA
ATOM     11  O   UNL     1      19.809  17.511  14.992  1.00  0.00    -0.550 OA
ENDBRANCH   8   9
ENDBRANCH   7   8
ENDBRANCH   6   7
ENDBRANCH   5   6
ENDBRANCH   4   5
ENDBRANCH   3   4
ENDBRANCH   2   3
ENDBRANCH   1   2
BRANCH   1  12
ATOM     12  C   UNL     1      13.933  21.475  18.469  1.00  0.00     0.000 C 
BRANCH  12  13
ATOM     13  C   UNL     1      14.159  22.832  17.785  1.00  0.00    -0.000 C 
BRANCH  13  14
ATOM     14  C   UNL     1      15.193  22.760  16.651  1.00  0.00    -0.000 C 
BRANCH  14  15
ATOM     15  C   UNL     1      14.550  22.245  15.355  1.00  0.00    -0.000 C 
BRANCH  15  16
ATOM     16  C   UNL     1      15.504  22.308  14.148  1.00  0.00    -0.000 C 
BRANCH  16  17
ATOM     17  C   UNL     1      15.289  21.205  13.092  1.00  0.00    -0.000 C 
BRANCH  17  18
ATOM     18  C   UNL     1      15.803  21.543  11.678  1.00  0.00    -0.000 C 
BRANCH  18  19
ATOM     19  C   UNL     1      17.315  21.339  11.474  1.00  0.00    -0.003 C 
ATOM     20  C   UNL     1      17.636  20.415  10.301  1.00  0.00     0.004 C 
ENDBRANCH  18  19
ENDBRANCH  17  18
ENDBRANCH  16  17
ENDBRANCH  15  16
ENDBRANCH  14  15
ENDBRANCH  13  14
ENDBRANCH  12  13
ENDBRANCH   1  12
TORSDOF 16
ENDMDL
MODEL 3
REMARK VINA RESULT:    -5.741      1.368      2.706
REMARK INTER + INTRA:         -12.957
REMARK INTER:                 -10.834
REMARK INTRA:                  -2.123
REMARK UNBOUND:                -1.845
REMARK SMILES CCCCCCCCCCCCCCCCCC(=O)[O-]
REMARK SMILES IDX 10 1 11 2 12 3 13 4 14 5 15 6 16 7 17 8 18 9 19 10 20 11
REMARK SMILES IDX 9 12 8 13 7 14 6 15 5 16 4 17 3 18 2 19 1 20
REMARK H PARENT
REMARK Flexibility Score: inf
ROOT
ATOM      1  C   UNL     1      14.666  21.101  13.659  1.00  0.00     0.000 C 
ENDROOT
BRANCH   1   2
ATOM      2  C   UNL     1      15.473  21.935  12.657  1.00  0.00     0.000 C 
BRANCH   2   3
ATOM      3  C   UNL     1      15.724  21.152  11.363  1.00  0.00     0.000 C 
BRANCH   3   4
ATOM      4  C   UNL     1      17.209  21.196  10.972  1.00  0.00     0.000 C 
BRANCH   4   5
ATOM      5  C   UNL     1      18.135  20.738  12.110  1.00  0.00     0.000 C 
BRANCH   5   6
ATOM      6  C   UNL     1      17.988  19.241  12.426  1.00  0.00     0.000 C 
BRANCH   6   7
ATOM      7  C   UNL     1      18.599  18.908  13.796  1.00  0.00     0.006 C 
BRANCH   7   8
ATOM      8  C   UNL     1      17.856  19.598  14.947  1.00  0.00     0.053 C 
BRANCH   8   9
ATOM      9  C   UNL     1      18.696  19.668  16.186  1.00  0.00     0.041 C 
ATOM     10  O   UNL     1      19.449  18.709  16.498  1.00  0.00    -0.550 OA
ATOM     11  O   UNL     1      18.671  20.809  16.978  1.00  0.00    -0.550 OA
ENDBRANCH   8   9
ENDBRANCH   7   8
ENDBRANCH   6   7
ENDBRANCH   5   6
ENDBRANCH   4   5
ENDBRANCH   3   4
ENDBRANCH   2   3
ENDBRANCH   1   2
BRANCH   1  12
ATOM     12  C   UNL     1      14.253  21.948  14.873  1.00  0.00     0.000 C 
BRANCH  12  13
ATOM     13  C   UNL     1      15.419  22.197  15.843  1.00  0.00    -0.000 C 
BRANCH  13  14
ATOM     14  C   UNL     1      15.020  23.085  17.032  1.00  0.00    -0.000 C 
BRANCH  14  15
ATOM     15  C   UNL     1      14.022  22.362  17.947  1.00  0.00    -0.000 C 
BRANCH  15  16
ATOM     16  C   UNL     1      14.709  21.573  19.076  1.00  0.00    -0.000 C 
BRANCH  16  17
ATOM     17  C   UNL     1      14.005  20.259  19.472  1.00  0.00    -0.000 C 
BRANCH  17  18
ATOM     18  C   UNL     1      13.977  19.175  18.376  1.00  0.00    -0.000 C 
BRANCH  18  19
ATOM     19  C   UNL     1      15.322  18.937  17.666  1.00  0.00    -0.003 C 
ATOM     20  C   UNL     1      16.265  18.040  18.465  1.00  0.00     0.004 C 
ENDBRANCH  18  19
ENDBRANCH  17  18
ENDBRANCH  16  17
ENDBRANCH  15  16
ENDBRANCH  14  15
ENDBRANCH  13  14
ENDBRANCH  12  13
ENDBRANCH   1  12
TORSDOF 16
ENDMDL
MODEL 4
REMARK VINA RESULT:    -5.727     14.985     17.298
REMARK INTER + INTRA:         -12.929
REMARK INTER:                 -10.380
REMARK INTRA:                  -2.549
REMARK UNBOUND:                -1.845
REMARK SMILES CCCCCCCCCCCCCCCCCC(=O)[O-]
REMARK SMILES IDX 10 1 11 2 12 3 13 4 14 5 15 6 16 7 17 8 18 9 19 10 20 11
REMARK SMILES IDX 9 12 8 13 7 14 6 15 5 16 4 17 3 18 2 19 1 20
REMARK H PARENT
REMARK Flexibility Score: inf
ROOT
ATOM      1  C   UNL     1      34.125  18.887   9.878  1.00  0.00     0.000 C 
ENDROOT
BRANCH   1   2
ATOM      2  C   UNL     1      32.846  18.042   9.816  1.00  0.00     0.000 C 
BRANCH   2   3
ATOM      3  C   UNL     1      32.842  17.139   8.577  1.00  0.00     0.000 C 
BRANCH   3   4
ATOM      4  C   UNL     1      33.024  17.964   7.294  1.00  0.00     0.000 C 
BRANCH   4   5
ATOM      5  C   UNL     1      32.218  17.406   6.111  1.00  0.00     0.000 C 
BRANCH   5   6
ATOM      6  C   UNL     1      30.866  18.112   5.930  1.00  0.00     0.000 C 
BRANCH   6   7
ATOM      7  C   UNL     1      29.703  17.128   6.125  1.00  0.00     0.006 C 
BRANCH   7   8
ATOM      8  C   UNL     1      28.449  17.548   5.346  1.00  0.00     0.053 C 
BRANCH   8   9
ATOM      9  C   UNL     1      27.273  17.742   6.252  1.00  0.00     0.041 C 
ATOM     10  O   UNL     1      27.395  17.582   7.495  1.00  0.00    -0.550 OA
ATOM     11  O   UNL     1      26.047  18.133   5.726  1.00  0.00    -0.550 OA
ENDBRANCH   8   9
ENDBRANCH   7   8
ENDBRANCH   6   7
ENDBRANCH   5   6
ENDBRANCH   4   5
ENDBRANCH   3   4
ENDBRANCH   2   3
ENDBRANCH   1   2
BRANCH   1  12
ATOM     12  C   UNL     1      34.040  19.930  11.003  1.00  0.00     0.000 C 
BRANCH  12  13
ATOM     13  C   UNL     1      34.024  21.372  10.473  1.00  0.00    -0.000 C 
BRANCH  13  14
ATOM     14  C   UNL     1      33.705  21.448   8.972  1.00  0.00    -0.000 C 
BRANCH  14  15
ATOM     15  C   UNL     1      32.408  22.233   8.726  1.00  0.00    -0.000 C 
BRANCH  15  16
ATOM     16  C   UNL     1      31.685  22.617  10.030  1.00  0.00    -0.000 C 
BRANCH  16  17
ATOM     17  C   UNL     1      30.285  21.995  10.205  1.00  0.00    -0.000 C 
BRANCH  17  18
ATOM     18  C   UNL     1      30.269  20.467  10.416  1.00  0.00    -0.000 C 
BRANCH  18  19
ATOM     19  C   UNL     1      29.751  19.655   9.216  1.00  0.00    -0.003 C 
ATOM     20  C   UNL     1      29.053  20.520   8.169  1.00  0.00     0.004 C 
ENDBRANCH  18  19
ENDBRANCH  17  18
ENDBRANCH  16  17
ENDBRANCH  15  16
ENDBRANCH  14  15
ENDBRANCH  13  14
ENDBRANCH  12  13
ENDBRANCH   1  12
TORSDOF 16
ENDMDL
MODEL 5
REMARK VINA RESULT:    -5.629      1.864      5.847
REMARK INTER + INTRA:         -12.740
REMARK INTER:                 -10.766
REMARK INTRA:                  -1.974
REMARK UNBOUND:                -1.845
REMARK SMILES CCCCCCCCCCCCCCCCCC(=O)[O-]
REMARK SMILES IDX 10 1 11 2 12 3 13 4 14 5 15 6 16 7 17 8 18 9 19 10 20 11
REMARK SMILES IDX 9 12 8 13 7 14 6 15 5 16 4 17 3 18 2 19 1 20
REMARK H PARENT
REMARK Flexibility Score: inf
ROOT
ATOM      1  C   UNL     1      15.300  22.041  16.113  1.00  0.00     0.000 C 
ENDROOT
BRANCH   1   2
ATOM      2  C   UNL     1      15.081  23.064  17.235  1.00  0.00     0.000 C 
BRANCH   2   3
ATOM      3  C   UNL     1      13.875  22.680  18.102  1.00  0.00     0.000 C 
BRANCH   3   4
ATOM      4  C   UNL     1      14.045  21.269  18.685  1.00  0.00     0.000 C 
BRANCH   4   5
ATOM      5  C   UNL     1      14.774  21.269  20.037  1.00  0.00     0.000 C 
BRANCH   5   6
ATOM      6  C   UNL     1      15.839  20.165  20.135  1.00  0.00     0.000 C 
BRANCH   6   7
ATOM      7  C   UNL     1      16.586  20.004  18.802  1.00  0.00     0.006 C 
BRANCH   7   8
ATOM      8  C   UNL     1      16.996  18.549  18.537  1.00  0.00     0.053 C 
BRANCH   8   9
ATOM      9  C   UNL     1      15.915  17.787  17.834  1.00  0.00     0.041 C 
ATOM     10  O   UNL     1      14.718  17.887  18.213  1.00  0.00    -0.550 OA
ATOM     11  O   UNL     1      16.226  16.992  16.738  1.00  0.00    -0.550 OA
ENDBRANCH   8   9
ENDBRANCH   7   8
ENDBRANCH   6   7
ENDBRANCH   5   6
ENDBRANCH   4   5
ENDBRANCH   3   4
ENDBRANCH   2   3
ENDBRANCH   1   2
BRANCH   1  12
ATOM     12  C   UNL     1      14.351  22.307  14.935  1.00  0.00     0.000 C 
BRANCH  12  13
ATOM     13  C   UNL     1      14.650  21.413  13.721  1.00  0.00    -0.000 C 
BRANCH  13  14
ATOM     14  C   UNL     1      15.477  22.133  12.644  1.00  0.00    -0.000 C 
BRANCH  14  15
ATOM     15  C   UNL     1      15.965  21.144  11.576  1.00  0.00    -0.000 C 
BRANCH  15  16
ATOM     16  C   UNL     1      17.480  21.241  11.319  1.00  0.00    -0.000 C 
BRANCH  16  17
ATOM     17  C   UNL     1      18.346  20.292  12.172  1.00  0.00    -0.000 C 
BRANCH  17  18
ATOM     18  C   UNL     1      17.610  19.059  12.732  1.00  0.00    -0.000 C 
BRANCH  18  19
ATOM     19  C   UNL     1      17.833  18.800  14.233  1.00  0.00    -0.003 C 
ATOM     20  C   UNL     1      18.048  20.084  15.032  1.00  0.00     0.004 C 
ENDBRANCH  18  19
ENDBRANCH  17  18
ENDBRANCH  16  17
ENDBRANCH  15  16
ENDBRANCH  14  15
ENDBRANCH  13  14
ENDBRANCH  12  13
ENDBRANCH   1  12
TORSDOF 16
ENDMDL
MODEL 6
REMARK VINA RESULT:    -5.628      1.823      4.935
REMARK INTER + INTRA:         -12.737
REMARK INTER:                 -10.735
REMARK INTRA:                  -2.002
REMARK UNBOUND:                -1.845
REMARK SMILES CCCCCCCCCCCCCCCCCC(=O)[O-]
REMARK SMILES IDX 10 1 11 2 12 3 13 4 14 5 15 6 16 7 17 8 18 9 19 10 20 11
REMARK SMILES IDX 9 12 8 13 7 14 6 15 5 16 4 17 3 18 2 19 1 20
REMARK H PARENT
REMARK Flexibility Score: inf
ROOT
ATOM      1  C   UNL     1      17.278  21.107  11.596  1.00  0.00     0.000 C 
ENDROOT
BRANCH   1   2
ATOM      2  C   UNL     1      17.320  19.578  11.703  1.00  0.00     0.000 C 
BRANCH   2   3
ATOM      3  C   UNL     1      17.520  19.133  13.157  1.00  0.00     0.000 C 
BRANCH   3   4
ATOM      4  C   UNL     1      18.917  19.525  13.664  1.00  0.00     0.000 C 
BRANCH   4   5
ATOM      5  C   UNL     1      19.004  19.555  15.198  1.00  0.00     0.000 C 
BRANCH   5   6
ATOM      6  C   UNL     1      17.707  20.051  15.855  1.00  0.00     0.000 C 
BRANCH   6   7
ATOM      7  C   UNL     1      17.922  20.331  17.350  1.00  0.00     0.006 C 
BRANCH   7   8
ATOM      8  C   UNL     1      18.285  19.063  18.133  1.00  0.00     0.053 C 
BRANCH   8   9
ATOM      9  C   UNL     1      17.233  18.007  17.997  1.00  0.00     0.041 C 
ATOM     10  O   UNL     1      16.183  18.063  18.690  1.00  0.00    -0.550 OA
ATOM     11  O   UNL     1      17.396  16.976  17.079  1.00  0.00    -0.550 OA
ENDBRANCH   8   9
ENDBRANCH   7   8
ENDBRANCH   6   7
ENDBRANCH   5   6
ENDBRANCH   4   5
ENDBRANCH   3   4
ENDBRANCH   2   3
ENDBRANCH   1   2
BRANCH   1  12
ATOM     12  C   UNL     1      15.840  21.629  11.746  1.00  0.00     0.000 C 
BRANCH  12  13
ATOM     13  C   UNL     1      15.567  22.217  13.139  1.00  0.00    -0.000 C 
BRANCH  13  14
ATOM     14  C   UNL     1      14.608  21.352  13.971  1.00  0.00    -0.000 C 
BRANCH  14  15
ATOM     15  C   UNL     1      14.012  22.157  15.135  1.00  0.00    -0.000 C 
BRANCH  15  16
ATOM     16  C   UNL     1      15.016  22.388  16.278  1.00  0.00    -0.000 C 
BRANCH  16  17
ATOM     17  C   UNL     1      14.499  23.274  17.429  1.00  0.00    -0.000 C 
BRANCH  17  18
ATOM     18  C   UNL     1      13.962  22.509  18.655  1.00  0.00    -0.000 C 
BRANCH  18  19
ATOM     19  C   UNL     1      14.659  21.165  18.934  1.00  0.00    -0.003 C 
ATOM     20  C   UNL     1      15.191  21.057  20.362  1.00  0.00     0.004 C 
ENDBRANCH  18  19
ENDBRANCH  17  18
ENDBRANCH  16  17
ENDBRANCH  15  16
ENDBRANCH  14  15
ENDBRANCH  13  14
ENDBRANCH  12  13
ENDBRANCH   1  12
TORSDOF 16
ENDMDL
MODEL 7
REMARK VINA RESULT:    -5.607      2.459      5.203
REMARK INTER + INTRA:         -12.696
REMARK INTER:                 -10.180
REMARK INTRA:                  -2.516
REMARK UNBOUND:                -1.845
REMARK SMILES CCCCCCCCCCCCCCCCCC(=O)[O-]
REMARK SMILES IDX 10 1 11 2 12 3 13 4 14 5 15 6 16 7 17 8 18 9 19 10 20 11
REMARK SMILES IDX 9 12 8 13 7 14 6 15 5 16 4 17 3 18 2 19 1 20
REMARK H PARENT
REMARK Flexibility Score: inf
ROOT
ATOM      1  C   UNL     1      17.540  19.654  11.196  1.00  0.00     0.000 C 
ENDROOT
BRANCH   1   2
ATOM      2  C   UNL     1      17.333  21.154  11.440  1.00  0.00     0.000 C 
BRANCH   2   3
ATOM      3  C   UNL     1      15.842  21.513  11.429  1.00  0.00     0.000 C 
BRANCH   3   4
ATOM      4  C   UNL     1      15.432  22.200  12.741  1.00  0.00     0.000 C 
BRANCH   4   5
ATOM      5  C   UNL     1      14.648  21.268  13.678  1.00  0.00     0.000 C 
BRANCH   5   6
ATOM      6  C   UNL     1      13.921  22.029  14.797  1.00  0.00     0.000 C 
BRANCH   6   7
ATOM      7  C   UNL     1      14.786  22.099  16.065  1.00  0.00     0.006 C 
BRANCH   7   8
ATOM      8  C   UNL     1      14.328  21.101  17.136  1.00  0.00     0.053 C 
BRANCH   8   9
ATOM      9  C   UNL     1      14.785  21.507  18.503  1.00  0.00     0.041 C 
ATOM     10  O   UNL     1      14.219  22.457  19.106  1.00  0.00    -0.550 OA
ATOM     11  O   UNL     1      15.815  20.813  19.126  1.00  0.00    -0.550 OA
ENDBRANCH   8   9
ENDBRANCH   7   8
ENDBRANCH   6   7
ENDBRANCH   5   6
ENDBRANCH   4   5
ENDBRANCH   3   4
ENDBRANCH   2   3
ENDBRANCH   1   2
BRANCH   1  12
ATOM     12  C   UNL     1      17.654  18.892  12.525  1.00  0.00     0.000 C 
BRANCH  12  13
ATOM     13  C   UNL     1      18.535  19.620  13.552  1.00  0.00    -0.000 C 
BRANCH  13  14
ATOM     14  C   UNL     1      17.767  20.001  14.827  1.00  0.00    -0.000 C 
BRANCH  14  15
ATOM     15  C   UNL     1      16.817  18.873  15.253  1.00  0.00    -0.000 C 
BRANCH  15  16
ATOM     16  C   UNL     1      16.954  18.505  16.741  1.00  0.00    -0.000 C 
BRANCH  16  17
ATOM     17  C   UNL     1      18.388  18.169  17.198  1.00  0.00    -0.000 C 
BRANCH  17  18
ATOM     18  C   UNL     1      18.972  16.865  16.621  1.00  0.00    -0.000 C 
BRANCH  18  19
ATOM     19  C   UNL     1      20.211  17.052  15.727  1.00  0.00    -0.003 C 
ATOM     20  C   UNL     1      20.946  18.363  15.996  1.00  0.00     0.004 C 
ENDBRANCH  18  19
ENDBRANCH  17  18
ENDBRANCH  16  17
ENDBRANCH  15  16
ENDBRANCH  14  15
ENDBRANCH  13  14
ENDBRANCH  12  13
ENDBRANCH   1  12
TORSDOF 16
ENDMDL
MODEL 8
REMARK VINA RESULT:    -5.606      1.787      4.443
REMARK INTER + INTRA:         -12.694
REMARK INTER:                 -10.489
REMARK INTRA:                  -2.206
REMARK UNBOUND:                -1.845
REMARK SMILES CCCCCCCCCCCCCCCCCC(=O)[O-]
REMARK SMILES IDX 10 1 11 2 12 3 13 4 14 5 15 6 16 7 17 8 18 9 19 10 20 11
REMARK SMILES IDX 9 12 8 13 7 14 6 15 5 16 4 17 3 18 2 19 1 20
REMARK H PARENT
REMARK Flexibility Score: inf
ROOT
ATOM      1  C   UNL     1      16.426  18.561  16.901  1.00  0.00     0.000 C 
ENDROOT
BRANCH   1   2
ATOM      2  C   UNL     1      17.291  17.333  17.216  1.00  0.00     0.000 C 
BRANCH   2   3
ATOM      3  C   UNL     1      18.688  17.471  16.600  1.00  0.00     0.000 C 
BRANCH   3   4
ATOM      4  C   UNL     1      19.132  18.942  16.568  1.00  0.00     0.000 C 
BRANCH   4   5
ATOM      5  C   UNL     1      19.794  19.332  15.237  1.00  0.00     0.000 C 
BRANCH   5   6
ATOM      6  C   UNL     1      19.051  18.764  14.018  1.00  0.00     0.000 C 
BRANCH   6   7
ATOM      7  C   UNL     1      17.905  19.695  13.591  1.00  0.00     0.006 C 
BRANCH   7   8
ATOM      8  C   UNL     1      17.573  19.561  12.099  1.00  0.00     0.053 C 
BRANCH   8   9
ATOM      9  C   UNL     1      16.929  20.802  11.562  1.00  0.00     0.041 C 
ATOM     10  O   UNL     1      17.636  21.781  11.206  1.00  0.00    -0.550 OA
ATOM     11  O   UNL     1      15.548  20.864  11.423  1.00  0.00    -0.550 OA
ENDBRANCH   8   9
ENDBRANCH   7   8
ENDBRANCH   6   7
ENDBRANCH   5   6
ENDBRANCH   4   5
ENDBRANCH   3   4
ENDBRANCH   2   3
ENDBRANCH   1   2
BRANCH   1  12
ATOM     12  C   UNL     1      15.476  18.876  18.067  1.00  0.00     0.000 C 
BRANCH  12  13
ATOM     13  C   UNL     1      16.174  19.626  19.213  1.00  0.00    -0.000 C 
BRANCH  13  14
ATOM     14  C   UNL     1      15.266  20.674  19.875  1.00  0.00    -0.000 C 
BRANCH  14  15
ATOM     15  C   UNL     1      14.084  21.031  18.962  1.00  0.00    -0.000 C 
BRANCH  15  16
ATOM     16  C   UNL     1      13.935  22.548  18.742  1.00  0.00    -0.000 C 
BRANCH  16  17
ATOM     17  C   UNL     1      14.268  23.033  17.317  1.00  0.00    -0.000 C 
BRANCH  17  18
ATOM     18  C   UNL     1      15.651  22.608  16.785  1.00  0.00    -0.000 C 
BRANCH  18  19
ATOM     19  C   UNL     1      15.617  21.756  15.504  1.00  0.00    -0.003 C 
ATOM     20  C   UNL     1      14.542  22.209  14.517  1.00  0.00     0.004 C 
ENDBRANCH  18  19
ENDBRANCH  17  18
ENDBRANCH  16  17
ENDBRANCH  15  16
ENDBRANCH  14  15
ENDBRANCH  13  14
ENDBRANCH  12  13
ENDBRANCH   1  12
TORSDOF 16
ENDMDL
MODEL 9
REMARK VINA RESULT:    -5.575      1.639      3.240
REMARK INTER + INTRA:         -12.635
REMARK INTER:                 -10.313
REMARK INTRA:                  -2.322
REMARK UNBOUND:                -1.845
REMARK SMILES CCCCCCCCCCCCCCCCCC(=O)[O-]
REMARK SMILES IDX 10 1 11 2 12 3 13 4 14 5 15 6 16 7 17 8 18 9 19 10 20 11
REMARK SMILES IDX 9 12 8 13 7 14 6 15 5 16 4 17 3 18 2 19 1 20
REMARK H PARENT
REMARK Flexibility Score: inf
ROOT
ATOM      1  C   UNL     1      14.156  21.164  18.272  1.00  0.00     0.000 C 
ENDROOT
BRANCH   1   2
ATOM      2  C   UNL     1      14.457  22.583  17.773  1.00  0.00     0.000 C 
BRANCH   2   3
ATOM      3  C   UNL     1      14.915  22.567  16.310  1.00  0.00     0.000 C 
BRANCH   3   4
ATOM      4  C   UNL     1      16.012  21.514  16.089  1.00  0.00     0.000 C 
BRANCH   4   5
ATOM      5  C   UNL     1      15.743  20.626  14.864  1.00  0.00     0.000 C 
BRANCH   5   6
ATOM      6  C   UNL     1      14.872  21.323  13.808  1.00  0.00     0.000 C 
BRANCH   6   7
ATOM      7  C   UNL     1      15.742  21.974  12.721  1.00  0.00     0.006 C 
BRANCH   7   8
ATOM      8  C   UNL     1      15.839  21.108  11.459  1.00  0.00     0.053 C 
BRANCH   8   9
ATOM      9  C   UNL     1      17.255  20.727  11.156  1.00  0.00     0.041 C 
ATOM     10  O   UNL     1      18.038  20.399  12.086  1.00  0.00    -0.550 OA
ATOM     11  O   UNL     1      17.703  20.703   9.841  1.00  0.00    -0.550 OA
ENDBRANCH   8   9
ENDBRANCH   7   8
ENDBRANCH   6   7
ENDBRANCH   5   6
ENDBRANCH   4   5
ENDBRANCH   3   4
ENDBRANCH   2   3
ENDBRANCH   1   2
BRANCH   1  12
ATOM     12  C   UNL     1      14.537  21.010  19.753  1.00  0.00     0.000 C 
BRANCH  12  13
ATOM     13  C   UNL     1      15.639  19.962  19.975  1.00  0.00    -0.000 C 
BRANCH  13  14
ATOM     14  C   UNL     1      16.985  20.380  19.365  1.00  0.00    -0.000 C 
BRANCH  14  15
ATOM     15  C   UNL     1      17.650  19.198  18.643  1.00  0.00    -0.000 C 
BRANCH  15  16
ATOM     16  C   UNL     1      16.630  18.205  18.057  1.00  0.00    -0.000 C 
BRANCH  16  17
ATOM     17  C   UNL     1      17.073  17.512  16.753  1.00  0.00    -0.000 C 
BRANCH  17  18
ATOM     18  C   UNL     1      18.596  17.460  16.522  1.00  0.00    -0.000 C 
BRANCH  18  19
ATOM     19  C   UNL     1      19.082  18.174  15.248  1.00  0.00    -0.003 C 
ATOM     20  C   UNL     1      19.431  19.641  15.485  1.00  0.00     0.004 C 
ENDBRANCH  18  19
ENDBRANCH  17  18
ENDBRANCH  16  17
ENDBRANCH  15  16
ENDBRANCH  14  15
ENDBRANCH  13  14
ENDBRANCH  12  13
ENDBRANCH   1  12
TORSDOF 16
ENDMDL
