MODEL 1
REMARK VINA RESULT:    10.495      0.000      0.000
REMARK INTER + INTRA:          21.818
REMARK INTER:                  22.765
REMARK INTRA:                  -0.947
REMARK UNBOUND:                -0.947
REMARK SMILES CCCCCCCCCCCCCCCCCCCCCC(=O)[O-]
REMARK SMILES IDX 12 1 11 2 10 3 9 4 8 5 7 6 6 7 5 8 4 9 3 10 2 11 1 12 13 13
REMARK SMILES IDX 14 14 15 15 16 16 17 17 18 18 19 19 20 20 21 21 22 22 23 23
REMARK SMILES IDX 24 24
REMARK H PARENT
REMARK Flexibility Score: inf
ROOT
ATOM      1  C   UNL     1     -30.217   7.188   1.809  1.00  0.00     0.000 C 
ENDROOT
BRANCH   1   2
ATOM      2  C   UNL     1     -31.601   7.119   1.139  1.00  0.00     0.000 C 
BRANCH   2   3
ATOM      3  C   UNL     1     -31.548   7.414  -0.372  1.00  0.00     0.000 C 
BRANCH   3   4
ATOM      4  C   UNL     1     -30.765   6.389  -1.218  1.00  0.00    -0.000 C 
BRANCH   4   5
ATOM      5  C   UNL     1     -29.683   6.985  -2.136  1.00  0.00    -0.000 C 
BRANCH   5   6
ATOM      6  C   UNL     1     -28.423   7.495  -1.411  1.00  0.00    -0.000 C 
BRANCH   6   7
ATOM      7  C   UNL     1     -27.543   8.428  -2.271  1.00  0.00    -0.000 C 
BRANCH   7   8
ATOM      8  C   UNL     1     -27.272   7.857  -3.674  1.00  0.00    -0.000 C 
BRANCH   8   9
ATOM      9  C   UNL     1     -27.693   8.821  -4.796  1.00  0.00    -0.000 C 
BRANCH   9  10
ATOM     10  C   UNL     1     -27.440   8.240  -6.198  1.00  0.00    -0.000 C 
BRANCH  10  11
ATOM     11  C   UNL     1     -25.959   7.906  -6.436  1.00  0.00    -0.003 C 
ATOM     12  C   UNL     1     -25.134   9.132  -6.826  1.00  0.00     0.004 C 
ENDBRANCH  10  11
ENDBRANCH   9  10
ENDBRANCH   8   9
ENDBRANCH   7   8
ENDBRANCH   6   7
ENDBRANCH   5   6
ENDBRANCH   4   5
ENDBRANCH   3   4
ENDBRANCH   2   3
ENDBRANCH   1   2
BRANCH   1  13
ATOM     13  C   UNL     1     -30.298   7.287   3.344  1.00  0.00     0.000 C 
BRANCH  13  14
ATOM     14  C   UNL     1     -29.003   7.741   4.042  1.00  0.00     0.000 C 
BRANCH  14  15
ATOM     15  C   UNL     1     -29.033   7.533   5.564  1.00  0.00     0.000 C 
BRANCH  15  16
ATOM     16  C   UNL     1     -27.671   7.044   6.078  1.00  0.00     0.000 C 
BRANCH  16  17
ATOM     17  C   UNL     1     -27.734   5.604   6.630  1.00  0.00     0.000 C 
BRANCH  17  18
ATOM     18  C   UNL     1     -26.956   5.409   7.947  1.00  0.00     0.000 C 
BRANCH  18  19
ATOM     19  C   UNL     1     -27.793   4.873   9.121  1.00  0.00     0.000 C 
BRANCH  19  20
ATOM     20  C   UNL     1     -27.167   5.187  10.491  1.00  0.00     0.006 C 
BRANCH  20  21
ATOM     21  C   UNL     1     -27.309   4.017  11.473  1.00  0.00     0.053 C 
BRANCH  21  22
ATOM     22  C   UNL     1     -28.732   3.570  11.606  1.00  0.00     0.041 C 
ATOM     23  O   UNL     1     -29.598   4.346  12.092  1.00  0.00    -0.550 OA
ATOM     24  O   UNL     1     -29.109   2.306  11.170  1.00  0.00    -0.550 OA
ENDBRANCH  21  22
ENDBRANCH  20  21
ENDBRANCH  19  20
ENDBRANCH  18  19
ENDBRANCH  17  18
ENDBRANCH  16  17
ENDBRANCH  15  16
ENDBRANCH  14  15
ENDBRANCH  13  14
ENDBRANCH   1  13
TORSDOF 20
ENDMDL
MODEL 2
REMARK VINA RESULT:    10.912      0.791      1.237
REMARK INTER + INTRA:          22.723
REMARK INTER:                  23.545
REMARK INTRA:                  -0.822
REMARK UNBOUND:                -0.947
REMARK SMILES CCCCCCCCCCCCCCCCCCCCCC(=O)[O-]
REMARK SMILES IDX 12 1 11 2 10 3 9 4 8 5 7 6 6 7 5 8 4 9 3 10 2 11 1 12 13 13
REMARK SMILES IDX 14 14 15 15 16 16 17 17 18 18 19 19 20 20 21 21 22 22 23 23
REMARK SMILES IDX 24 24
REMARK H PARENT
REMARK Flexibility Score: inf
ROOT
ATOM      1  C   UNL     1     -30.269   7.240   3.199  1.00  0.00     0.000 C 
ENDROOT
BRANCH   1   2
ATOM      2  C   UNL     1     -30.017   7.188   1.682  1.00  0.00     0.000 C 
BRANCH   2   3
ATOM      3  C   UNL     1     -31.313   7.293   0.857  1.00  0.00     0.000 C 
BRANCH   3   4
ATOM      4  C   UNL     1     -31.190   6.868  -0.622  1.00  0.00    -0.000 C 
BRANCH   4   5
ATOM      5  C   UNL     1     -29.751   6.688  -1.136  1.00  0.00    -0.000 C 
BRANCH   5   6
ATOM      6  C   UNL     1     -29.033   7.993  -1.531  1.00  0.00    -0.000 C 
BRANCH   6   7
ATOM      7  C   UNL     1     -27.514   7.828  -1.751  1.00  0.00    -0.000 C 
BRANCH   7   8
ATOM      8  C   UNL     1     -27.100   8.062  -3.215  1.00  0.00    -0.000 C 
BRANCH   8   9
ATOM      9  C   UNL     1     -28.287   8.456  -4.108  1.00  0.00    -0.000 C 
BRANCH   9  10
ATOM     10  C   UNL     1     -27.858   8.775  -5.551  1.00  0.00    -0.000 C 
BRANCH  10  11
ATOM     11  C   UNL     1     -26.626   7.967  -5.989  1.00  0.00    -0.003 C 
ATOM     12  C   UNL     1     -25.392   8.843  -6.204  1.00  0.00     0.004 C 
ENDBRANCH  10  11
ENDBRANCH   9  10
ENDBRANCH   8   9
ENDBRANCH   7   8
ENDBRANCH   6   7
ENDBRANCH   5   6
ENDBRANCH   4   5
ENDBRANCH   3   4
ENDBRANCH   2   3
ENDBRANCH   1   2
BRANCH   1  13
ATOM     13  C   UNL     1     -29.063   7.777   3.990  1.00  0.00     0.000 C 
BRANCH  13  14
ATOM     14  C   UNL     1     -29.048   7.422   5.489  1.00  0.00     0.000 C 
BRANCH  14  15
ATOM     15  C   UNL     1     -27.642   7.104   6.020  1.00  0.00     0.000 C 
BRANCH  15  16
ATOM     16  C   UNL     1     -27.530   5.627   6.427  1.00  0.00     0.000 C 
BRANCH  16  17
ATOM     17  C   UNL     1     -26.473   5.401   7.529  1.00  0.00     0.000 C 
BRANCH  17  18
ATOM     18  C   UNL     1     -27.071   5.229   8.939  1.00  0.00     0.000 C 
BRANCH  18  19
ATOM     19  C   UNL     1     -26.038   5.097  10.070  1.00  0.00     0.000 C 
BRANCH  19  20
ATOM     20  C   UNL     1     -26.684   4.787  11.432  1.00  0.00     0.006 C 
BRANCH  20  21
ATOM     21  C   UNL     1     -27.817   3.759  11.313  1.00  0.00     0.053 C 
BRANCH  21  22
ATOM     22  C   UNL     1     -29.123   4.310  11.795  1.00  0.00     0.041 C 
ATOM     23  O   UNL     1     -29.363   5.544  11.702  1.00  0.00    -0.550 OA
ATOM     24  O   UNL     1     -30.086   3.460  12.324  1.00  0.00    -0.550 OA
ENDBRANCH  21  22
ENDBRANCH  20  21
ENDBRANCH  19  20
ENDBRANCH  18  19
ENDBRANCH  17  18
ENDBRANCH  16  17
ENDBRANCH  15  16
ENDBRANCH  14  15
ENDBRANCH  13  14
ENDBRANCH   1  13
TORSDOF 20
ENDMDL
MODEL 3
REMARK VINA RESULT:    10.957      5.591     12.965
REMARK INTER + INTRA:          22.821
REMARK INTER:                  23.364
REMARK INTRA:                  -0.543
REMARK UNBOUND:                -0.947
REMARK SMILES CCCCCCCCCCCCCCCCCCCCCC(=O)[O-]
REMARK SMILES IDX 12 1 11 2 10 3 9 4 8 5 7 6 6 7 5 8 4 9 3 10 2 11 1 12 13 13
REMARK SMILES IDX 14 14 15 15 16 16 17 17 18 18 19 19 20 20 21 21 22 22 23 23
REMARK SMILES IDX 24 24
REMARK H PARENT
REMARK Flexibility Score: inf
ROOT
ATOM      1  C   UNL     1     -29.766   7.881   3.144  1.00  0.00     0.000 C 
ENDROOT
BRANCH   1   2
ATOM      2  C   UNL     1     -29.792   6.967   4.382  1.00  0.00     0.000 C 
BRANCH   2   3
ATOM      3  C   UNL     1     -29.043   7.568   5.585  1.00  0.00     0.000 C 
BRANCH   3   4
ATOM      4  C   UNL     1     -27.607   7.045   5.797  1.00  0.00    -0.000 C 
BRANCH   4   5
ATOM      5  C   UNL     1     -27.504   5.632   6.399  1.00  0.00    -0.000 C 
BRANCH   5   6
ATOM      6  C   UNL     1     -26.375   5.444   7.429  1.00  0.00    -0.000 C 
BRANCH   6   7
ATOM      7  C   UNL     1     -26.871   5.347   8.888  1.00  0.00    -0.000 C 
BRANCH   7   8
ATOM      8  C   UNL     1     -25.748   4.969   9.870  1.00  0.00    -0.000 C 
BRANCH   8   9
ATOM      9  C   UNL     1     -26.146   5.193  11.338  1.00  0.00    -0.000 C 
BRANCH   9  10
ATOM     10  C   UNL     1     -27.061   4.079  11.877  1.00  0.00    -0.000 C 
BRANCH  10  11
ATOM     11  C   UNL     1     -28.451   4.093  11.222  1.00  0.00    -0.003 C 
ATOM     12  C   UNL     1     -29.580   4.266  12.237  1.00  0.00     0.004 C 
ENDBRANCH  10  11
ENDBRANCH   9  10
ENDBRANCH   8   9
ENDBRANCH   7   8
ENDBRANCH   6   7
ENDBRANCH   5   6
ENDBRANCH   4   5
ENDBRANCH   3   4
ENDBRANCH   2   3
ENDBRANCH   1   2
BRANCH   1  13
ATOM     13  C   UNL     1     -30.076   7.130   1.836  1.00  0.00     0.000 C 
BRANCH  13  14
ATOM     14  C   UNL     1     -31.512   7.298   1.306  1.00  0.00     0.000 C 
BRANCH  14  15
ATOM     15  C   UNL     1     -31.598   7.251  -0.227  1.00  0.00     0.000 C 
BRANCH  15  16
ATOM     16  C   UNL     1     -30.467   6.393  -0.815  1.00  0.00     0.000 C 
BRANCH  16  17
ATOM     17  C   UNL     1     -29.732   7.104  -1.971  1.00  0.00     0.000 C 
BRANCH  17  18
ATOM     18  C   UNL     1     -28.352   7.667  -1.577  1.00  0.00     0.000 C 
BRANCH  18  19
ATOM     19  C   UNL     1     -27.662   8.512  -2.662  1.00  0.00     0.000 C 
BRANCH  19  20
ATOM     20  C   UNL     1     -27.488   7.752  -3.988  1.00  0.00     0.006 C 
BRANCH  20  21
ATOM     21  C   UNL     1     -27.843   8.620  -5.202  1.00  0.00     0.053 C 
BRANCH  21  22
ATOM     22  C   UNL     1     -26.742   8.637  -6.217  1.00  0.00     0.041 C 
ATOM     23  O   UNL     1     -25.967   7.649  -6.327  1.00  0.00    -0.550 OA
ATOM     24  O   UNL     1     -26.586   9.731  -7.059  1.00  0.00    -0.550 OA
ENDBRANCH  21  22
ENDBRANCH  20  21
ENDBRANCH  19  20
ENDBRANCH  18  19
ENDBRANCH  17  18
ENDBRANCH  16  17
ENDBRANCH  15  16
ENDBRANCH  14  15
ENDBRANCH  13  14
ENDBRANCH   1  13
TORSDOF 20
ENDMDL
MODEL 4
REMARK VINA RESULT:    11.551      5.621     12.803
REMARK INTER + INTRA:          24.110
REMARK INTER:                  24.888
REMARK INTRA:                  -0.778
REMARK UNBOUND:                -0.947
REMARK SMILES CCCCCCCCCCCCCCCCCCCCCC(=O)[O-]
REMARK SMILES IDX 12 1 11 2 10 3 9 4 8 5 7 6 6 7 5 8 4 9 3 10 2 11 1 12 13 13
REMARK SMILES IDX 14 14 15 15 16 16 17 17 18 18 19 19 20 20 21 21 22 22 23 23
REMARK SMILES IDX 24 24
REMARK H PARENT
REMARK Flexibility Score: inf
ROOT
ATOM      1  C   UNL     1     -30.187   7.195   1.850  1.00  0.00     0.000 C 
ENDROOT
BRANCH   1   2
ATOM      2  C   UNL     1     -30.347   7.591   3.328  1.00  0.00     0.000 C 
BRANCH   2   3
ATOM      3  C   UNL     1     -28.999   7.726   4.060  1.00  0.00     0.000 C 
BRANCH   3   4
ATOM      4  C   UNL     1     -29.089   7.826   5.597  1.00  0.00    -0.000 C 
BRANCH   4   5
ATOM      5  C   UNL     1     -27.883   7.253   6.364  1.00  0.00    -0.000 C 
BRANCH   5   6
ATOM      6  C   UNL     1     -27.908   5.727   6.569  1.00  0.00    -0.000 C 
BRANCH   6   7
ATOM      7  C   UNL     1     -26.846   5.214   7.566  1.00  0.00    -0.000 C 
BRANCH   7   8
ATOM      8  C   UNL     1     -27.438   4.900   8.951  1.00  0.00    -0.000 C 
BRANCH   8   9
ATOM      9  C   UNL     1     -26.447   5.176  10.094  1.00  0.00    -0.000 C 
BRANCH   9  10
ATOM     10  C   UNL     1     -26.908   4.570  11.431  1.00  0.00    -0.000 C 
BRANCH  10  11
ATOM     11  C   UNL     1     -28.256   3.842  11.312  1.00  0.00    -0.003 C 
ATOM     12  C   UNL     1     -29.402   4.612  11.967  1.00  0.00     0.004 C 
ENDBRANCH  10  11
ENDBRANCH   9  10
ENDBRANCH   8   9
ENDBRANCH   7   8
ENDBRANCH   6   7
ENDBRANCH   5   6
ENDBRANCH   4   5
ENDBRANCH   3   4
ENDBRANCH   2   3
ENDBRANCH   1   2
BRANCH   1  13
ATOM     13  C   UNL     1     -31.531   7.100   1.104  1.00  0.00     0.000 C 
BRANCH  13  14
ATOM     14  C   UNL     1     -31.458   7.334  -0.416  1.00  0.00     0.000 C 
BRANCH  14  15
ATOM     15  C   UNL     1     -30.748   6.197  -1.167  1.00  0.00     0.000 C 
BRANCH  15  16
ATOM     16  C   UNL     1     -29.774   6.756  -2.216  1.00  0.00     0.000 C 
BRANCH  16  17
ATOM     17  C   UNL     1     -28.956   7.950  -1.679  1.00  0.00     0.000 C 
BRANCH  17  18
ATOM     18  C   UNL     1     -27.431   7.760  -1.797  1.00  0.00     0.000 C 
BRANCH  18  19
ATOM     19  C   UNL     1     -26.804   8.323  -3.084  1.00  0.00     0.000 C 
BRANCH  19  20
ATOM     20  C   UNL     1     -27.758   8.255  -4.289  1.00  0.00     0.006 C 
BRANCH  20  21
ATOM     21  C   UNL     1     -27.082   7.653  -5.528  1.00  0.00     0.053 C 
BRANCH  21  22
ATOM     22  C   UNL     1     -26.276   8.672  -6.273  1.00  0.00     0.041 C 
ATOM     23  O   UNL     1     -25.019   8.670  -6.189  1.00  0.00    -0.550 OA
ATOM     24  O   UNL     1     -26.910   9.609  -7.080  1.00  0.00    -0.550 OA
ENDBRANCH  21  22
ENDBRANCH  20  21
ENDBRANCH  19  20
ENDBRANCH  18  19
ENDBRANCH  17  18
ENDBRANCH  16  17
ENDBRANCH  15  16
ENDBRANCH  14  15
ENDBRANCH  13  14
ENDBRANCH   1  13
TORSDOF 20
ENDMDL
