MODEL 1
REMARK VINA RESULT:     6.242      0.000      0.000
REMARK INTER + INTRA:           9.646
REMARK INTER:                  10.620
REMARK INTRA:                  -0.974
REMARK UNBOUND:                -0.974
REMARK SMILES CCCCCCCCCCCCCC(=O)[O-]
REMARK SMILES IDX 8 1 9 2 10 3 11 4 12 5 13 6 14 7 15 8 16 9 7 10 6 11 5 12
REMARK SMILES IDX 4 13 3 14 2 15 1 16
REMARK H PARENT
REMARK Flexibility Score: inf
ROOT
ATOM      1  C   UNL     1     -15.615  24.374 -17.902  1.00  0.00     0.000 C 
ENDROOT
BRANCH   1   2
ATOM      2  C   UNL     1     -15.290  23.278 -18.927  1.00  0.00     0.000 C 
BRANCH   2   3
ATOM      3  C   UNL     1     -16.442  23.031 -19.916  1.00  0.00     0.000 C 
BRANCH   3   4
ATOM      4  C   UNL     1     -16.022  23.251 -21.380  1.00  0.00     0.000 C 
BRANCH   4   5
ATOM      5  C   UNL     1     -14.553  22.875 -21.635  1.00  0.00     0.006 C 
BRANCH   5   6
ATOM      6  C   UNL     1     -14.125  23.131 -23.086  1.00  0.00     0.053 C 
BRANCH   6   7
ATOM      7  C   UNL     1     -12.797  23.820 -23.124  1.00  0.00     0.041 C 
ATOM      8  O   UNL     1     -11.734  23.146 -23.114  1.00  0.00    -0.550 OA
ATOM      9  O   UNL     1     -12.732  25.207 -23.120  1.00  0.00    -0.550 OA
ENDBRANCH   6   7
ENDBRANCH   5   6
ENDBRANCH   4   5
ENDBRANCH   3   4
ENDBRANCH   2   3
ENDBRANCH   1   2
BRANCH   1  10
ATOM     10  C   UNL     1     -17.089  24.797 -18.001  1.00  0.00     0.000 C 
BRANCH  10  11
ATOM     11  C   UNL     1     -17.285  26.312 -17.830  1.00  0.00    -0.000 C 
BRANCH  11  12
ATOM     12  C   UNL     1     -16.282  27.135 -18.655  1.00  0.00    -0.000 C 
BRANCH  12  13
ATOM     13  C   UNL     1     -16.930  27.802 -19.880  1.00  0.00    -0.000 C 
BRANCH  13  14
ATOM     14  C   UNL     1     -18.463  27.658 -19.892  1.00  0.00    -0.000 C 
BRANCH  14  15
ATOM     15  C   UNL     1     -19.125  28.517 -20.979  1.00  0.00    -0.003 C 
ATOM     16  C   UNL     1     -18.125  29.036 -22.012  1.00  0.00     0.004 C 
ENDBRANCH  14  15
ENDBRANCH  13  14
ENDBRANCH  12  13
ENDBRANCH  11  12
ENDBRANCH  10  11
ENDBRANCH   1  10
TORSDOF 12
ENDMDL
MODEL 2
REMARK VINA RESULT:     6.408      2.932      5.985
REMARK INTER + INTRA:           9.930
REMARK INTER:                  10.577
REMARK INTRA:                  -0.648
REMARK UNBOUND:                -0.974
REMARK SMILES CCCCCCCCCCCCCC(=O)[O-]
REMARK SMILES IDX 8 1 9 2 10 3 11 4 12 5 13 6 14 7 15 8 16 9 7 10 6 11 5 12
REMARK SMILES IDX 4 13 3 14 2 15 1 16
REMARK H PARENT
REMARK Flexibility Score: inf
ROOT
ATOM      1  C   UNL     1     -15.878  24.150 -18.349  1.00  0.00     0.000 C 
ENDROOT
BRANCH   1   2
ATOM      2  C   UNL     1     -16.894  24.818 -17.411  1.00  0.00     0.000 C 
BRANCH   2   3
ATOM      3  C   UNL     1     -16.796  26.353 -17.429  1.00  0.00     0.000 C 
BRANCH   3   4
ATOM      4  C   UNL     1     -17.624  26.986 -18.561  1.00  0.00     0.000 C 
BRANCH   4   5
ATOM      5  C   UNL     1     -16.746  27.648 -19.635  1.00  0.00     0.006 C 
BRANCH   5   6
ATOM      6  C   UNL     1     -17.304  27.457 -21.051  1.00  0.00     0.053 C 
BRANCH   6   7
ATOM      7  C   UNL     1     -18.305  28.524 -21.366  1.00  0.00     0.041 C 
ATOM      8  O   UNL     1     -19.321  28.673 -20.638  1.00  0.00    -0.550 OA
ATOM      9  O   UNL     1     -18.142  29.321 -22.492  1.00  0.00    -0.550 OA
ENDBRANCH   6   7
ENDBRANCH   5   6
ENDBRANCH   4   5
ENDBRANCH   3   4
ENDBRANCH   2   3
ENDBRANCH   1   2
BRANCH   1  10
ATOM     10  C   UNL     1     -16.477  22.894 -19.001  1.00  0.00     0.000 C 
BRANCH  10  11
ATOM     11  C   UNL     1     -16.403  22.928 -20.536  1.00  0.00    -0.000 C 
BRANCH  11  12
ATOM     12  C   UNL     1     -14.957  22.878 -21.059  1.00  0.00    -0.000 C 
BRANCH  12  13
ATOM     13  C   UNL     1     -14.501  24.217 -21.663  1.00  0.00    -0.000 C 
BRANCH  13  14
ATOM     14  C   UNL     1     -13.931  24.063 -23.084  1.00  0.00    -0.000 C 
BRANCH  14  15
ATOM     15  C   UNL     1     -12.403  24.215 -23.125  1.00  0.00    -0.003 C 
ATOM     16  C   UNL     1     -11.673  22.978 -22.602  1.00  0.00     0.004 C 
ENDBRANCH  14  15
ENDBRANCH  13  14
ENDBRANCH  12  13
ENDBRANCH  11  12
ENDBRANCH  10  11
ENDBRANCH   1  10
TORSDOF 12
ENDMDL
