MODEL 1
REMARK VINA RESULT:    -2.337      0.000      0.000
REMARK INTER + INTRA:          -2.683
REMARK INTER:                  -2.542
REMARK INTRA:                  -0.141
REMARK UNBOUND:                -0.141
REMARK SMILES CC1=CC[C@H](C(C)(C)O)CC1
REMARK SMILES IDX 6 1 7 2 8 3 5 4 1 5 2 6 3 7 11 8 4 9 10 10 9 11
REMARK H PARENT 9 12
REMARK Flexibility Score: inf
ROOT
ATOM      1  C   UNL     1     -40.954  22.194   8.201  1.00  0.00     0.062 C 
ATOM      2  C   UNL     1     -42.077  21.673   9.125  1.00  0.00     0.042 C 
ATOM      3  C   UNL     1     -39.737  22.559   9.074  1.00  0.00     0.042 C 
ENDROOT
BRANCH   1   4
ATOM      4  C   UNL     1     -41.461  23.404   7.332  1.00  0.00     0.024 C 
ATOM      5  C   UNL     1     -42.125  26.787   4.623  1.00  0.00     0.039 C 
ATOM      6  C   UNL     1     -41.752  25.618   5.492  1.00  0.00    -0.077 C 
ATOM      7  C   UNL     1     -41.204  25.850   6.704  1.00  0.00    -0.028 C 
ATOM      8  C   UNL     1     -42.120  24.220   5.036  1.00  0.00     0.031 C 
ATOM      9  C   UNL     1     -40.751  24.745   7.627  1.00  0.00     0.034 C 
ATOM     10  C   UNL     1     -41.384  23.125   5.817  1.00  0.00     0.011 C 
ENDBRANCH   1   4
BRANCH   1  11
ATOM     11  O   UNL     1     -40.554  21.144   7.352  1.00  0.00    -0.390 OA
ATOM     12  H   UNL     1     -41.274  20.999   6.682  1.00  0.00     0.211 HD
ENDBRANCH   1  11
TORSDOF 2
ENDMDL
MODEL 2
REMARK VINA RESULT:    -2.309      0.765      1.516
REMARK INTER + INTRA:          -2.653
REMARK INTER:                  -2.504
REMARK INTRA:                  -0.148
REMARK UNBOUND:                -0.141
REMARK SMILES CC1=CC[C@H](C(C)(C)O)CC1
REMARK SMILES IDX 6 1 7 2 8 3 5 4 1 5 2 6 3 7 11 8 4 9 10 10 9 11
REMARK H PARENT 9 12
REMARK Flexibility Score: inf
ROOT
ATOM      1  C   UNL     1     -40.755  22.645   8.019  1.00  0.00     0.062 C 
ATOM      2  C   UNL     1     -42.001  22.428   8.904  1.00  0.00     0.042 C 
ATOM      3  C   UNL     1     -39.517  22.732   8.934  1.00  0.00     0.042 C 
ENDROOT
BRANCH   1   4
ATOM      4  C   UNL     1     -40.928  23.919   7.111  1.00  0.00     0.024 C 
ATOM      5  C   UNL     1     -42.118  27.146   4.391  1.00  0.00     0.039 C 
ATOM      6  C   UNL     1     -41.852  25.976   5.299  1.00  0.00    -0.077 C 
ATOM      7  C   UNL     1     -41.300  24.858   4.782  1.00  0.00    -0.028 C 
ATOM      8  C   UNL     1     -42.091  26.135   6.787  1.00  0.00     0.031 C 
ATOM      9  C   UNL     1     -41.041  23.616   5.599  1.00  0.00     0.034 C 
ATOM     10  C   UNL     1     -42.125  24.795   7.532  1.00  0.00     0.011 C 
ENDBRANCH   1   4
BRANCH   1  11
ATOM     11  O   UNL     1     -40.587  21.510   7.202  1.00  0.00    -0.390 OA
ATOM     12  H   UNL     1     -39.630  21.243   7.237  1.00  0.00     0.211 HD
ENDBRANCH   1  11
TORSDOF 2
ENDMDL
