MODEL 1
REMARK VINA RESULT:    27.122      0.000      0.000
REMARK INTER + INTRA:          32.350
REMARK INTER:                  32.672
REMARK INTRA:                  -0.322
REMARK UNBOUND:                -0.322
REMARK SMILES O=c1c(O)c(-c2ccc(O)c(O)c2)oc2cc(O)cc(O)c12
REMARK SMILES IDX 5 1 3 2 2 3 1 4 22 5 20 6 19 7 17 8 16 9 15 10 14 11 6 12
REMARK SMILES IDX 7 13 8 14 9 15 13 16 11 17 10 18 12 20 4 22 21 24 18 26
REMARK H PARENT 10 19 12 21 4 23 21 25 18 27
REMARK Flexibility Score: inf
ROOT
ATOM      1  C   UNL     1      17.744  95.638   8.636  1.00  0.00     0.180 A 
ATOM      2  C   UNL     1      16.394  95.608   9.027  1.00  0.00     0.208 A 
ATOM      3  C   UNL     1      15.747  96.816   9.332  1.00  0.00     0.238 A 
ATOM      4  O   UNL     1      14.562  96.775   9.752  1.00  0.00    -0.285 OA
ATOM      5  C   UNL     1      16.440  98.043   9.188  1.00  0.00     0.111 A 
ATOM      6  C   UNL     1      15.869  99.331   9.426  1.00  0.00     0.134 A 
ATOM      7  C   UNL     1      16.681 100.469   9.355  1.00  0.00     0.093 A 
ATOM      8  C   UNL     1      18.024 100.375   8.993  1.00  0.00     0.123 A 
ATOM      9  C   UNL     1      18.578  99.128   8.705  1.00  0.00     0.094 A 
ATOM     10  C   UNL     1      17.804  97.969   8.805  1.00  0.00     0.146 A 
ATOM     11  O   UNL     1      18.377  96.801   8.542  1.00  0.00    -0.452 OA
ENDROOT
BRANCH   1  12
ATOM     12  C   UNL     1      18.498  94.405   8.313  1.00  0.00     0.025 A 
ATOM     13  C   UNL     1      18.554  93.901   7.002  1.00  0.00     0.016 A 
ATOM     14  C   UNL     1      19.252  92.723   6.727  1.00  0.00     0.051 A 
ATOM     15  C   UNL     1      19.894  92.024   7.758  1.00  0.00     0.157 A 
ATOM     16  C   UNL     1      19.126  93.689   9.347  1.00  0.00     0.062 A 
ATOM     17  C   UNL     1      19.826  92.509   9.075  1.00  0.00     0.158 A 
BRANCH  15  18
ATOM     18  O   UNL     1      20.592  90.849   7.480  1.00  0.00    -0.504 OA
ATOM     19  H   UNL     1      20.522  90.035   8.079  1.00  0.00     0.293 HD
ENDBRANCH  15  18
BRANCH  17  20
ATOM     20  O   UNL     1      20.447  91.832  10.125  1.00  0.00    -0.504 OA
ATOM     21  H   UNL     1      21.455  91.775  10.207  1.00  0.00     0.293 HD
ENDBRANCH  17  20
ENDBRANCH   1  12
BRANCH   2  22
ATOM     22  O   UNL     1      15.706  94.393   9.088  1.00  0.00    -0.502 OA
ATOM     23  H   UNL     1      15.272  94.057   9.939  1.00  0.00     0.293 HD
ENDBRANCH   2  22
BRANCH   6  24
ATOM     24  O   UNL     1      14.517  99.548   9.708  1.00  0.00    -0.507 OA
ATOM     25  H   UNL     1      13.803  98.835   9.703  1.00  0.00     0.293 HD
ENDBRANCH   6  24
BRANCH   8  26
ATOM     26  O   UNL     1      18.798 101.531   8.916  1.00  0.00    -0.508 OA
ATOM     27  H   UNL     1      19.101 101.907   8.025  1.00  0.00     0.293 HD
ENDBRANCH   8  26
TORSDOF 6
ENDMDL
MODEL 2
REMARK VINA RESULT:    27.276      0.663      1.432
REMARK INTER + INTRA:          32.535
REMARK INTER:                  32.866
REMARK INTRA:                  -0.331
REMARK UNBOUND:                -0.322
REMARK SMILES O=c1c(O)c(-c2ccc(O)c(O)c2)oc2cc(O)cc(O)c12
REMARK SMILES IDX 5 1 3 2 2 3 1 4 22 5 20 6 19 7 17 8 16 9 15 10 14 11 6 12
REMARK SMILES IDX 7 13 8 14 9 15 13 16 11 17 10 18 12 20 4 22 21 24 18 26
REMARK H PARENT 10 19 12 21 4 23 21 25 18 27
REMARK Flexibility Score: inf
ROOT
ATOM      1  C   UNL     1      17.671  95.648   9.085  1.00  0.00     0.180 A 
ATOM      2  C   UNL     1      16.286  95.672   9.325  1.00  0.00     0.208 A 
ATOM      3  C   UNL     1      15.635  96.911   9.428  1.00  0.00     0.238 A 
ATOM      4  O   UNL     1      14.410  96.926   9.717  1.00  0.00    -0.285 OA
ATOM      5  C   UNL     1      16.364  98.109   9.233  1.00  0.00     0.111 A 
ATOM      6  C   UNL     1      15.797  99.420   9.269  1.00  0.00     0.134 A 
ATOM      7  C   UNL     1      16.635 100.537   9.168  1.00  0.00     0.093 A 
ATOM      8  C   UNL     1      18.007 100.394   8.968  1.00  0.00     0.123 A 
ATOM      9  C   UNL     1      18.564  99.118   8.876  1.00  0.00     0.094 A 
ATOM     10  C   UNL     1      17.760  97.983   9.012  1.00  0.00     0.146 A 
ATOM     11  O   UNL     1      18.334  96.789   8.939  1.00  0.00    -0.452 OA
ENDROOT
BRANCH   1  12
ATOM     12  C   UNL     1      18.431  94.381   8.979  1.00  0.00     0.025 A 
ATOM     13  C   UNL     1      18.992  93.766  10.112  1.00  0.00     0.016 A 
ATOM     14  C   UNL     1      19.725  92.584   9.983  1.00  0.00     0.051 A 
ATOM     15  C   UNL     1      19.920  92.006   8.722  1.00  0.00     0.157 A 
ATOM     16  C   UNL     1      18.648  93.809   7.714  1.00  0.00     0.062 A 
ATOM     17  C   UNL     1      19.381  92.625   7.582  1.00  0.00     0.158 A 
BRANCH  15  18
ATOM     18  O   UNL     1      20.651  90.825   8.598  1.00  0.00    -0.504 OA
ATOM     19  H   UNL     1      21.457  90.635   9.182  1.00  0.00     0.293 HD
ENDBRANCH  15  18
BRANCH  17  20
ATOM     20  O   UNL     1      19.565  92.080   6.311  1.00  0.00    -0.504 OA
ATOM     21  H   UNL     1      18.816  92.035   5.631  1.00  0.00     0.293 HD
ENDBRANCH  17  20
ENDBRANCH   1  12
BRANCH   2  22
ATOM     22  O   UNL     1      15.572  94.476   9.439  1.00  0.00    -0.502 OA
ATOM     23  H   UNL     1      15.684  93.712   8.783  1.00  0.00     0.293 HD
ENDBRANCH   2  22
BRANCH   6  24
ATOM     24  O   UNL     1      14.427  99.678   9.375  1.00  0.00    -0.507 OA
ATOM     25  H   UNL     1      13.839  99.372  10.135  1.00  0.00     0.293 HD
ENDBRANCH   6  24
BRANCH   8  26
ATOM     26  O   UNL     1      18.808 101.528   8.854  1.00  0.00    -0.508 OA
ATOM     27  H   UNL     1      18.533 102.315   8.280  1.00  0.00     0.293 HD
ENDBRANCH   8  26
TORSDOF 6
ENDMDL
