MODEL 1
REMARK VINA RESULT:    -4.831      0.000      0.000
REMARK INTER + INTRA:          -6.307
REMARK INTER:                  -5.960
REMARK INTRA:                  -0.347
REMARK UNBOUND:                -0.347
REMARK SMILES Oc1cc(O)c2cc(O)c(-c3cc(O)c(O)c(O)c3)[o+]c2c1
REMARK SMILES IDX 10 1 20 2 21 3 22 4 2 5 3 6 4 7 6 8 7 9 8 10 11 11 12 12
REMARK SMILES IDX 13 13 19 14 15 15 17 16 14 17 16 19 18 21 9 23 1 25 5 27
REMARK H PARENT 14 18 16 20 18 22 9 24 1 26 5 28
REMARK Flexibility Score: inf
ROOT
ATOM      1  C   UNL     1     -99.641  42.980   9.231  1.00  0.00     0.402 A 
ATOM      2  O   UNL     1     -99.429  41.711   9.580  1.00  0.00    -0.202 OA
ATOM      3  C   UNL     1     -98.991  41.352  10.783  1.00  0.00     0.368 A 
ATOM      4  C   UNL     1     -98.797  39.997  11.070  1.00  0.00     0.162 A 
ATOM      5  C   UNL     1     -98.340  39.603  12.333  1.00  0.00     0.128 A 
ATOM      6  C   UNL     1     -98.075  40.570  13.312  1.00  0.00     0.093 A 
ATOM      7  C   UNL     1     -98.264  41.932  13.037  1.00  0.00     0.136 A 
ATOM      8  C   UNL     1     -98.724  42.328  11.767  1.00  0.00     0.125 A 
ATOM      9  C   UNL     1     -98.923  43.672  11.433  1.00  0.00     0.078 A 
ATOM     10  C   UNL     1     -99.374  44.012  10.154  1.00  0.00     0.223 A 
ENDROOT
BRANCH   1  11
ATOM     11  C   UNL     1    -100.139  43.256   7.864  1.00  0.00     0.091 A 
ATOM     12  C   UNL     1    -101.491  43.576   7.674  1.00  0.00     0.068 A 
ATOM     13  C   UNL     1    -101.986  43.862   6.397  1.00  0.00     0.162 A 
ATOM     14  C   UNL     1     -99.273  43.261   6.757  1.00  0.00     0.068 A 
ATOM     15  C   UNL     1    -101.120  43.844   5.290  1.00  0.00     0.200 A 
ATOM     16  C   UNL     1     -99.759  43.547   5.473  1.00  0.00     0.162 A 
BRANCH  13  17
ATOM     17  O   UNL     1    -103.339  44.160   6.248  1.00  0.00    -0.504 OA
ATOM     18  H   UNL     1    -104.027  43.910   6.948  1.00  0.00     0.293 HD
ENDBRANCH  13  17
BRANCH  15  19
ATOM     19  O   UNL     1    -101.622  44.127   4.019  1.00  0.00    -0.502 OA
ATOM     20  H   UNL     1    -101.283  44.905   3.466  1.00  0.00     0.293 HD
ENDBRANCH  15  19
BRANCH  16  21
ATOM     21  O   UNL     1     -98.892  43.543   4.381  1.00  0.00    -0.504 OA
ATOM     22  H   UNL     1     -99.225  43.705   3.439  1.00  0.00     0.293 HD
ENDBRANCH  16  21
ENDBRANCH   1  11
BRANCH  10  23
ATOM     23  O   UNL     1     -99.526  45.352   9.799  1.00  0.00    -0.500 OA
ATOM     24  H   UNL     1     -99.222  45.699   8.897  1.00  0.00     0.294 HD
ENDBRANCH  10  23
BRANCH   5  25
ATOM     25  O   UNL     1     -98.154  38.250  12.602  1.00  0.00    -0.507 OA
ATOM     26  H   UNL     1     -97.230  37.832  12.604  1.00  0.00     0.293 HD
ENDBRANCH   5  25
BRANCH   7  27
ATOM     27  O   UNL     1     -97.995  42.886  14.020  1.00  0.00    -0.507 OA
ATOM     28  H   UNL     1     -98.060  43.878  13.830  1.00  0.00     0.293 HD
ENDBRANCH   7  27
TORSDOF 7
ENDMDL
MODEL 2
REMARK VINA RESULT:    -4.712      1.226      7.152
REMARK INTER + INTRA:          -6.160
REMARK INTER:                  -5.780
REMARK INTRA:                  -0.381
REMARK UNBOUND:                -0.347
REMARK SMILES Oc1cc(O)c2cc(O)c(-c3cc(O)c(O)c(O)c3)[o+]c2c1
REMARK SMILES IDX 10 1 20 2 21 3 22 4 2 5 3 6 4 7 6 8 7 9 8 10 11 11 12 12
REMARK SMILES IDX 13 13 19 14 15 15 17 16 14 17 16 19 18 21 9 23 1 25 5 27
REMARK H PARENT 14 18 16 20 18 22 9 24 1 26 5 28
REMARK Flexibility Score: inf
ROOT
ATOM      1  C   UNL     1     -99.951  42.704   9.167  1.00  0.00     0.402 A 
ATOM      2  O   UNL     1     -99.213  42.825   8.063  1.00  0.00    -0.202 OA
ATOM      3  C   UNL     1     -99.721  43.167   6.883  1.00  0.00     0.368 A 
ATOM      4  C   UNL     1     -98.877  43.277   5.774  1.00  0.00     0.162 A 
ATOM      5  C   UNL     1     -99.397  43.640   4.527  1.00  0.00     0.128 A 
ATOM      6  C   UNL     1    -100.768  43.894   4.389  1.00  0.00     0.093 A 
ATOM      7  C   UNL     1    -101.626  43.788   5.493  1.00  0.00     0.136 A 
ATOM      8  C   UNL     1    -101.103  43.422   6.747  1.00  0.00     0.125 A 
ATOM      9  C   UNL     1    -101.912  43.292   7.882  1.00  0.00     0.078 A 
ATOM     10  C   UNL     1    -101.343  42.920   9.103  1.00  0.00     0.223 A 
ENDROOT
BRANCH   1  11
ATOM     11  C   UNL     1     -99.270  42.325  10.426  1.00  0.00     0.091 A 
ATOM     12  C   UNL     1     -98.954  40.978  10.661  1.00  0.00     0.068 A 
ATOM     13  C   UNL     1     -98.294  40.593  11.832  1.00  0.00     0.162 A 
ATOM     14  C   UNL     1     -98.882  43.293  11.368  1.00  0.00     0.068 A 
ATOM     15  C   UNL     1     -97.926  41.563  12.781  1.00  0.00     0.200 A 
ATOM     16  C   UNL     1     -98.218  42.916  12.544  1.00  0.00     0.162 A 
BRANCH  13  17
ATOM     17  O   UNL     1     -98.011  39.243  12.035  1.00  0.00    -0.504 OA
ATOM     18  H   UNL     1     -97.071  38.907  12.201  1.00  0.00     0.293 HD
ENDBRANCH  13  17
BRANCH  15  19
ATOM     19  O   UNL     1     -97.270  41.169  13.949  1.00  0.00    -0.502 OA
ATOM     20  H   UNL     1     -96.304  41.412  14.132  1.00  0.00     0.293 HD
ENDBRANCH  15  19
BRANCH  16  21
ATOM     21  O   UNL     1     -97.843  43.884  13.475  1.00  0.00    -0.504 OA
ATOM     22  H   UNL     1     -96.890  43.958  13.809  1.00  0.00     0.293 HD
ENDBRANCH  16  21
ENDBRANCH   1  11
BRANCH  10  23
ATOM     23  O   UNL     1    -102.151  42.739  10.225  1.00  0.00    -0.500 OA
ATOM     24  H   UNL     1    -101.868  43.067  11.141  1.00  0.00     0.294 HD
ENDBRANCH  10  23
BRANCH   5  25
ATOM     25  O   UNL     1     -98.542  43.745   3.433  1.00  0.00    -0.507 OA
ATOM     26  H   UNL     1     -97.535  43.793   3.549  1.00  0.00     0.293 HD
ENDBRANCH   5  25
BRANCH   7  27
ATOM     27  O   UNL     1    -102.990  44.042   5.343  1.00  0.00    -0.507 OA
ATOM     28  H   UNL     1    -103.606  44.129   6.142  1.00  0.00     0.293 HD
ENDBRANCH   7  27
TORSDOF 7
ENDMDL
MODEL 3
REMARK VINA RESULT:    -4.702      1.226      7.107
REMARK INTER + INTRA:          -6.148
REMARK INTER:                  -5.793
REMARK INTRA:                  -0.355
REMARK UNBOUND:                -0.347
REMARK SMILES Oc1cc(O)c2cc(O)c(-c3cc(O)c(O)c(O)c3)[o+]c2c1
REMARK SMILES IDX 10 1 20 2 21 3 22 4 2 5 3 6 4 7 6 8 7 9 8 10 11 11 12 12
REMARK SMILES IDX 13 13 19 14 15 15 17 16 14 17 16 19 18 21 9 23 1 25 5 27
REMARK H PARENT 14 18 16 20 18 22 9 24 1 26 5 28
REMARK Flexibility Score: inf
ROOT
ATOM      1  C   UNL     1     -99.914  42.646   9.143  1.00  0.00     0.402 A 
ATOM      2  O   UNL     1     -99.195  42.749   8.025  1.00  0.00    -0.202 OA
ATOM      3  C   UNL     1     -99.715  43.111   6.857  1.00  0.00     0.368 A 
ATOM      4  C   UNL     1     -98.890  43.199   5.731  1.00  0.00     0.162 A 
ATOM      5  C   UNL     1     -99.423  43.582   4.496  1.00  0.00     0.128 A 
ATOM      6  C   UNL     1    -100.788  43.878   4.386  1.00  0.00     0.093 A 
ATOM      7  C   UNL     1    -101.627  43.793   5.506  1.00  0.00     0.136 A 
ATOM      8  C   UNL     1    -101.091  43.407   6.749  1.00  0.00     0.125 A 
ATOM      9  C   UNL     1    -101.881  43.298   7.898  1.00  0.00     0.078 A 
ATOM     10  C   UNL     1    -101.300  42.904   9.107  1.00  0.00     0.223 A 
ENDROOT
BRANCH   1  11
ATOM     11  C   UNL     1     -99.221  42.242  10.387  1.00  0.00     0.091 A 
ATOM     12  C   UNL     1     -98.886  43.217  11.338  1.00  0.00     0.068 A 
ATOM     13  C   UNL     1     -98.248  42.864  12.532  1.00  0.00     0.162 A 
ATOM     14  C   UNL     1     -98.940  40.893  10.664  1.00  0.00     0.068 A 
ATOM     15  C   UNL     1     -97.951  41.515  12.794  1.00  0.00     0.200 A 
ATOM     16  C   UNL     1     -98.302  40.528  11.858  1.00  0.00     0.162 A 
BRANCH  13  17
ATOM     17  O   UNL     1     -97.918  43.865  13.443  1.00  0.00    -0.504 OA
ATOM     18  H   UNL     1     -98.475  44.704  13.549  1.00  0.00     0.293 HD
ENDBRANCH  13  17
BRANCH  15  19
ATOM     19  O   UNL     1     -97.312  41.171  13.986  1.00  0.00    -0.502 OA
ATOM     20  H   UNL     1     -97.431  41.708  14.837  1.00  0.00     0.293 HD
ENDBRANCH  15  19
BRANCH  16  21
ATOM     21  O   UNL     1     -98.023  39.187  12.120  1.00  0.00    -0.504 OA
ATOM     22  H   UNL     1     -97.411  38.911  12.878  1.00  0.00     0.293 HD
ENDBRANCH  16  21
ENDBRANCH   1  11
BRANCH  10  23
ATOM     23  O   UNL     1    -102.091  42.743  10.244  1.00  0.00    -0.500 OA
ATOM     24  H   UNL     1    -101.930  43.287  11.084  1.00  0.00     0.294 HD
ENDBRANCH  10  23
BRANCH   5  25
ATOM     25  O   UNL     1     -98.587  43.666   3.386  1.00  0.00    -0.507 OA
ATOM     26  H   UNL     1     -97.685  43.202   3.365  1.00  0.00     0.293 HD
ENDBRANCH   5  25
BRANCH   7  27
ATOM     27  O   UNL     1    -102.985  44.089   5.383  1.00  0.00    -0.507 OA
ATOM     28  H   UNL     1    -103.614  44.040   6.176  1.00  0.00     0.293 HD
ENDBRANCH   7  27
TORSDOF 7
ENDMDL
MODEL 4
REMARK VINA RESULT:    -4.628      3.827      6.781
REMARK INTER + INTRA:          -6.056
REMARK INTER:                  -5.807
REMARK INTRA:                  -0.249
REMARK UNBOUND:                -0.347
REMARK SMILES Oc1cc(O)c2cc(O)c(-c3cc(O)c(O)c(O)c3)[o+]c2c1
REMARK SMILES IDX 10 1 20 2 21 3 22 4 2 5 3 6 4 7 6 8 7 9 8 10 11 11 12 12
REMARK SMILES IDX 13 13 19 14 15 15 17 16 14 17 16 19 18 21 9 23 1 25 5 27
REMARK H PARENT 14 18 16 20 18 22 9 24 1 26 5 28
REMARK Flexibility Score: inf
ROOT
ATOM      1  C   UNL     1     -99.399  43.651   3.153  1.00  0.00     0.402 A 
ATOM      2  O   UNL     1     -99.589  44.214   4.345  1.00  0.00    -0.202 OA
ATOM      3  C   UNL     1     -99.951  43.528   5.425  1.00  0.00     0.368 A 
ATOM      4  C   UNL     1    -100.125  44.196   6.641  1.00  0.00     0.162 A 
ATOM      5  C   UNL     1    -100.503  43.486   7.786  1.00  0.00     0.128 A 
ATOM      6  C   UNL     1    -100.707  42.101   7.714  1.00  0.00     0.093 A 
ATOM      7  C   UNL     1    -100.536  41.419   6.500  1.00  0.00     0.136 A 
ATOM      8  C   UNL     1    -100.157  42.134   5.349  1.00  0.00     0.125 A 
ATOM      9  C   UNL     1     -99.980  41.508   4.110  1.00  0.00     0.078 A 
ATOM     10  C   UNL     1     -99.609  42.265   2.995  1.00  0.00     0.223 A 
ENDROOT
BRANCH   1  11
ATOM     11  C   UNL     1     -98.988  44.518   2.026  1.00  0.00     0.091 A 
ATOM     12  C   UNL     1     -99.826  45.567   1.620  1.00  0.00     0.068 A 
ATOM     13  C   UNL     1     -99.455  46.415   0.572  1.00  0.00     0.162 A 
ATOM     14  C   UNL     1     -97.747  44.349   1.387  1.00  0.00     0.068 A 
ATOM     15  C   UNL     1     -98.222  46.228  -0.078  1.00  0.00     0.200 A 
ATOM     16  C   UNL     1     -97.366  45.195   0.336  1.00  0.00     0.162 A 
BRANCH  13  17
ATOM     17  O   UNL     1    -100.324  47.436   0.190  1.00  0.00    -0.504 OA
ATOM     18  H   UNL     1    -100.952  47.885   0.845  1.00  0.00     0.293 HD
ENDBRANCH  13  17
BRANCH  15  19
ATOM     19  O   UNL     1     -97.861  47.077  -1.125  1.00  0.00    -0.502 OA
ATOM     20  H   UNL     1     -97.341  46.749  -1.930  1.00  0.00     0.293 HD
ENDBRANCH  15  19
BRANCH  16  21
ATOM     21  O   UNL     1     -96.135  45.014  -0.295  1.00  0.00    -0.504 OA
ATOM     22  H   UNL     1     -95.613  44.151  -0.202  1.00  0.00     0.293 HD
ENDBRANCH  16  21
ENDBRANCH   1  11
BRANCH  10  23
ATOM     23  O   UNL     1     -99.480  41.656   1.747  1.00  0.00    -0.500 OA
ATOM     24  H   UNL     1     -99.210  40.684   1.655  1.00  0.00     0.294 HD
ENDBRANCH  10  23
BRANCH   5  25
ATOM     25  O   UNL     1    -100.671  44.166   8.989  1.00  0.00    -0.507 OA
ATOM     26  H   UNL     1    -101.247  43.790   9.734  1.00  0.00     0.293 HD
ENDBRANCH   5  25
BRANCH   7  27
ATOM     27  O   UNL     1    -100.744  40.041   6.440  1.00  0.00    -0.507 OA
ATOM     28  H   UNL     1    -101.598  39.647   6.064  1.00  0.00     0.293 HD
ENDBRANCH   7  27
TORSDOF 7
ENDMDL
MODEL 5
REMARK VINA RESULT:    -4.587      1.166      2.552
REMARK INTER + INTRA:          -6.006
REMARK INTER:                  -5.624
REMARK INTRA:                  -0.382
REMARK UNBOUND:                -0.347
REMARK SMILES Oc1cc(O)c2cc(O)c(-c3cc(O)c(O)c(O)c3)[o+]c2c1
REMARK SMILES IDX 10 1 20 2 21 3 22 4 2 5 3 6 4 7 6 8 7 9 8 10 11 11 12 12
REMARK SMILES IDX 13 13 19 14 15 15 17 16 14 17 16 19 18 21 9 23 1 25 5 27
REMARK H PARENT 14 18 16 20 18 22 9 24 1 26 5 28
REMARK Flexibility Score: inf
ROOT
ATOM      1  C   UNL     1     -99.764  42.270   9.279  1.00  0.00     0.402 A 
ATOM      2  O   UNL     1     -99.187  43.051  10.191  1.00  0.00    -0.202 OA
ATOM      3  C   UNL     1     -98.898  42.640  11.422  1.00  0.00     0.368 A 
ATOM      4  C   UNL     1     -98.288  43.523  12.319  1.00  0.00     0.162 A 
ATOM      5  C   UNL     1     -97.975  43.104  13.616  1.00  0.00     0.128 A 
ATOM      6  C   UNL     1     -98.275  41.795  14.019  1.00  0.00     0.093 A 
ATOM      7  C   UNL     1     -98.887  40.900  13.130  1.00  0.00     0.136 A 
ATOM      8  C   UNL     1     -99.202  41.322  11.825  1.00  0.00     0.125 A 
ATOM      9  C   UNL     1     -99.820  40.476  10.898  1.00  0.00     0.078 A 
ATOM     10  C   UNL     1    -100.118  40.947   9.616  1.00  0.00     0.223 A 
ENDROOT
BRANCH   1  11
ATOM     11  C   UNL     1    -100.029  42.837   7.937  1.00  0.00     0.091 A 
ATOM     12  C   UNL     1    -101.181  43.610   7.729  1.00  0.00     0.068 A 
ATOM     13  C   UNL     1    -101.448  44.175   6.478  1.00  0.00     0.162 A 
ATOM     14  C   UNL     1     -99.121  42.666   6.878  1.00  0.00     0.068 A 
ATOM     15  C   UNL     1    -100.547  43.983   5.416  1.00  0.00     0.200 A 
ATOM     16  C   UNL     1     -99.378  43.230   5.620  1.00  0.00     0.162 A 
BRANCH  13  17
ATOM     17  O   UNL     1    -102.611  44.923   6.309  1.00  0.00    -0.504 OA
ATOM     18  H   UNL     1    -102.718  45.852   6.699  1.00  0.00     0.293 HD
ENDBRANCH  13  17
BRANCH  15  19
ATOM     19  O   UNL     1    -100.821  44.548   4.170  1.00  0.00    -0.502 OA
ATOM     20  H   UNL     1    -100.406  45.423   3.871  1.00  0.00     0.293 HD
ENDBRANCH  15  19
BRANCH  16  21
ATOM     21  O   UNL     1     -98.474  43.049   4.575  1.00  0.00    -0.504 OA
ATOM     22  H   UNL     1     -98.785  42.899   3.623  1.00  0.00     0.293 HD
ENDBRANCH  16  21
ENDBRANCH   1  11
BRANCH  10  23
ATOM     23  O   UNL     1    -100.780  40.125   8.705  1.00  0.00    -0.500 OA
ATOM     24  H   UNL     1    -101.419  39.400   9.010  1.00  0.00     0.294 HD
ENDBRANCH  10  23
BRANCH   5  25
ATOM     25  O   UNL     1     -97.367  43.995  14.496  1.00  0.00    -0.507 OA
ATOM     26  H   UNL     1     -96.613  44.604  14.197  1.00  0.00     0.293 HD
ENDBRANCH   5  25
BRANCH   7  27
ATOM     27  O   UNL     1     -99.182  39.600  13.543  1.00  0.00    -0.507 OA
ATOM     28  H   UNL     1     -99.323  39.371  14.520  1.00  0.00     0.293 HD
ENDBRANCH   7  27
TORSDOF 7
ENDMDL
MODEL 6
REMARK VINA RESULT:    -4.559      3.757      9.035
REMARK INTER + INTRA:          -5.972
REMARK INTER:                  -5.593
REMARK INTRA:                  -0.379
REMARK UNBOUND:                -0.347
REMARK SMILES Oc1cc(O)c2cc(O)c(-c3cc(O)c(O)c(O)c3)[o+]c2c1
REMARK SMILES IDX 10 1 20 2 21 3 22 4 2 5 3 6 4 7 6 8 7 9 8 10 11 11 12 12
REMARK SMILES IDX 13 13 19 14 15 15 17 16 14 17 16 19 18 21 9 23 1 25 5 27
REMARK H PARENT 14 18 16 20 18 22 9 24 1 26 5 28
REMARK Flexibility Score: inf
ROOT
ATOM      1  C   UNL     1     -99.956  43.988   3.582  1.00  0.00     0.402 A 
ATOM      2  O   UNL     1     -98.794  43.960   2.929  1.00  0.00    -0.202 OA
ATOM      3  C   UNL     1     -98.615  44.526   1.740  1.00  0.00     0.368 A 
ATOM      4  C   UNL     1     -97.362  44.455   1.123  1.00  0.00     0.162 A 
ATOM      5  C   UNL     1     -97.157  45.049  -0.127  1.00  0.00     0.128 A 
ATOM      6  C   UNL     1     -98.212  45.717  -0.763  1.00  0.00     0.093 A 
ATOM      7  C   UNL     1     -99.474  45.795  -0.157  1.00  0.00     0.136 A 
ATOM      8  C   UNL     1     -99.679  45.197   1.100  1.00  0.00     0.125 A 
ATOM      9  C   UNL     1    -100.918  45.236   1.749  1.00  0.00     0.078 A 
ATOM     10  C   UNL     1    -101.071  44.620   2.994  1.00  0.00     0.223 A 
ENDROOT
BRANCH   1  11
ATOM     11  C   UNL     1    -100.032  43.329   4.906  1.00  0.00     0.091 A 
ATOM     12  C   UNL     1     -99.839  44.091   6.068  1.00  0.00     0.068 A 
ATOM     13  C   UNL     1     -99.924  43.501   7.333  1.00  0.00     0.162 A 
ATOM     14  C   UNL     1    -100.349  41.965   5.028  1.00  0.00     0.068 A 
ATOM     15  C   UNL     1    -100.220  42.131   7.448  1.00  0.00     0.200 A 
ATOM     16  C   UNL     1    -100.438  41.364   6.291  1.00  0.00     0.162 A 
BRANCH  13  17
ATOM     17  O   UNL     1     -99.710  44.289   8.462  1.00  0.00    -0.504 OA
ATOM     18  H   UNL     1    -100.273  45.106   8.664  1.00  0.00     0.293 HD
ENDBRANCH  13  17
BRANCH  15  19
ATOM     19  O   UNL     1    -100.301  41.549   8.714  1.00  0.00    -0.502 OA
ATOM     20  H   UNL     1    -100.415  42.101   9.556  1.00  0.00     0.293 HD
ENDBRANCH  15  19
BRANCH  16  21
ATOM     21  O   UNL     1    -100.747  40.009   6.400  1.00  0.00    -0.504 OA
ATOM     22  H   UNL     1    -100.204  39.300   5.923  1.00  0.00     0.293 HD
ENDBRANCH  16  21
ENDBRANCH   1  11
BRANCH  10  23
ATOM     23  O   UNL     1    -102.316  44.611   3.623  1.00  0.00    -0.500 OA
ATOM     24  H   UNL     1    -102.403  44.528   4.629  1.00  0.00     0.294 HD
ENDBRANCH  10  23
BRANCH   5  25
ATOM     25  O   UNL     1     -95.903  44.970  -0.725  1.00  0.00    -0.507 OA
ATOM     26  H   UNL     1     -95.732  45.347  -1.651  1.00  0.00     0.293 HD
ENDBRANCH   5  25
BRANCH   7  27
ATOM     27  O   UNL     1    -100.517  46.461  -0.802  1.00  0.00    -0.507 OA
ATOM     28  H   UNL     1    -100.593  46.478  -1.812  1.00  0.00     0.293 HD
ENDBRANCH   7  27
TORSDOF 7
ENDMDL
MODEL 7
REMARK VINA RESULT:    -4.454      2.222      2.891
REMARK INTER + INTRA:          -5.842
REMARK INTER:                  -5.463
REMARK INTRA:                  -0.379
REMARK UNBOUND:                -0.347
REMARK SMILES Oc1cc(O)c2cc(O)c(-c3cc(O)c(O)c(O)c3)[o+]c2c1
REMARK SMILES IDX 10 1 20 2 21 3 22 4 2 5 3 6 4 7 6 8 7 9 8 10 11 11 12 12
REMARK SMILES IDX 13 13 19 14 15 15 17 16 14 17 16 19 18 21 9 23 1 25 5 27
REMARK H PARENT 14 18 16 20 18 22 9 24 1 26 5 28
REMARK Flexibility Score: inf
ROOT
ATOM      1  C   UNL     1     -99.922  42.603  10.829  1.00  0.00     0.402 A 
ATOM      2  O   UNL     1     -98.691  42.415  11.302  1.00  0.00    -0.202 OA
ATOM      3  C   UNL     1     -98.395  42.454  12.597  1.00  0.00     0.368 A 
ATOM      4  C   UNL     1     -97.077  42.242  13.012  1.00  0.00     0.162 A 
ATOM      5  C   UNL     1     -96.752  42.277  14.372  1.00  0.00     0.128 A 
ATOM      6  C   UNL     1     -97.751  42.525  15.323  1.00  0.00     0.093 A 
ATOM      7  C   UNL     1     -99.078  42.740  14.921  1.00  0.00     0.136 A 
ATOM      8  C   UNL     1     -99.404  42.705  13.552  1.00  0.00     0.125 A 
ATOM      9  C   UNL     1    -100.708  42.921  13.093  1.00  0.00     0.078 A 
ATOM     10  C   UNL     1    -100.978  42.882  11.722  1.00  0.00     0.223 A 
ENDROOT
BRANCH   1  11
ATOM     11  C   UNL     1    -100.130  42.527   9.365  1.00  0.00     0.091 A 
ATOM     12  C   UNL     1    -100.445  41.293   8.776  1.00  0.00     0.068 A 
ATOM     13  C   UNL     1    -100.666  41.194   7.398  1.00  0.00     0.162 A 
ATOM     14  C   UNL     1    -100.074  43.675   8.557  1.00  0.00     0.068 A 
ATOM     15  C   UNL     1    -100.588  42.342   6.592  1.00  0.00     0.200 A 
ATOM     16  C   UNL     1    -100.295  43.586   7.175  1.00  0.00     0.162 A 
BRANCH  13  17
ATOM     17  O   UNL     1    -100.961  39.947   6.850  1.00  0.00    -0.504 OA
ATOM     18  H   UNL     1    -101.836  39.471   7.031  1.00  0.00     0.293 HD
ENDBRANCH  13  17
BRANCH  15  19
ATOM     19  O   UNL     1    -100.807  42.234   5.218  1.00  0.00    -0.502 OA
ATOM     20  H   UNL     1    -100.637  41.374   4.710  1.00  0.00     0.293 HD
ENDBRANCH  15  19
BRANCH  16  21
ATOM     21  O   UNL     1    -100.231  44.731   6.382  1.00  0.00    -0.504 OA
ATOM     22  H   UNL     1    -100.915  44.914   5.658  1.00  0.00     0.293 HD
ENDBRANCH  16  21
ENDBRANCH   1  11
BRANCH  10  23
ATOM     23  O   UNL     1    -102.265  43.146  11.254  1.00  0.00    -0.500 OA
ATOM     24  H   UNL     1    -102.789  42.458  10.727  1.00  0.00     0.294 HD
ENDBRANCH  10  23
BRANCH   5  25
ATOM     25  O   UNL     1     -95.434  42.062  14.767  1.00  0.00    -0.507 OA
ATOM     26  H   UNL     1     -95.034  41.131  14.794  1.00  0.00     0.293 HD
ENDBRANCH   5  25
BRANCH   7  27
ATOM     27  O   UNL     1    -100.064  42.988  15.877  1.00  0.00    -0.507 OA
ATOM     28  H   UNL     1    -100.311  42.299  16.577  1.00  0.00     0.293 HD
ENDBRANCH   7  27
TORSDOF 7
ENDMDL
MODEL 8
REMARK VINA RESULT:    -4.432      2.200      7.224
REMARK INTER + INTRA:          -5.815
REMARK INTER:                  -5.457
REMARK INTRA:                  -0.358
REMARK UNBOUND:                -0.347
REMARK SMILES Oc1cc(O)c2cc(O)c(-c3cc(O)c(O)c(O)c3)[o+]c2c1
REMARK SMILES IDX 10 1 20 2 21 3 22 4 2 5 3 6 4 7 6 8 7 9 8 10 11 11 12 12
REMARK SMILES IDX 13 13 19 14 15 15 17 16 14 17 16 19 18 21 9 23 1 25 5 27
REMARK H PARENT 14 18 16 20 18 22 9 24 1 26 5 28
REMARK Flexibility Score: inf
ROOT
ATOM      1  C   UNL     1     -99.987  42.018   7.779  1.00  0.00     0.402 A 
ATOM      2  O   UNL     1     -99.462  42.828   6.860  1.00  0.00    -0.202 OA
ATOM      3  C   UNL     1     -99.623  42.646   5.553  1.00  0.00     0.368 A 
ATOM      4  C   UNL     1     -99.041  43.546   4.654  1.00  0.00     0.162 A 
ATOM      5  C   UNL     1     -99.206  43.369   3.276  1.00  0.00     0.128 A 
ATOM      6  C   UNL     1     -99.955  42.287   2.795  1.00  0.00     0.093 A 
ATOM      7  C   UNL     1    -100.544  41.377   3.686  1.00  0.00     0.136 A 
ATOM      8  C   UNL     1    -100.378  41.555   5.071  1.00  0.00     0.125 A 
ATOM      9  C   UNL     1    -100.934  40.675   6.006  1.00  0.00     0.078 A 
ATOM     10  C   UNL     1    -100.734  40.893   7.372  1.00  0.00     0.223 A 
ENDROOT
BRANCH   1  11
ATOM     11  C   UNL     1     -99.745  42.328   9.206  1.00  0.00     0.091 A 
ATOM     12  C   UNL     1    -100.572  43.254   9.861  1.00  0.00     0.068 A 
ATOM     13  C   UNL     1    -100.381  43.552  11.214  1.00  0.00     0.162 A 
ATOM     14  C   UNL     1     -98.739  41.673   9.938  1.00  0.00     0.068 A 
ATOM     15  C   UNL     1     -99.359  42.910  11.935  1.00  0.00     0.200 A 
ATOM     16  C   UNL     1     -98.541  41.965  11.294  1.00  0.00     0.162 A 
BRANCH  13  17
ATOM     17  O   UNL     1    -101.214  44.489  11.823  1.00  0.00    -0.504 OA
ATOM     18  H   UNL     1    -100.983  44.922  12.709  1.00  0.00     0.293 HD
ENDBRANCH  13  17
BRANCH  15  19
ATOM     19  O   UNL     1     -99.173  43.215  13.284  1.00  0.00    -0.502 OA
ATOM     20  H   UNL     1     -98.507  42.717  13.863  1.00  0.00     0.293 HD
ENDBRANCH  15  19
BRANCH  16  21
ATOM     21  O   UNL     1     -97.536  41.314  12.009  1.00  0.00    -0.504 OA
ATOM     22  H   UNL     1     -96.581  41.650  12.009  1.00  0.00     0.293 HD
ENDBRANCH  16  21
ENDBRANCH   1  11
BRANCH  10  23
ATOM     23  O   UNL     1    -101.243  39.992   8.307  1.00  0.00    -0.500 OA
ATOM     24  H   UNL     1    -101.999  40.246   8.932  1.00  0.00     0.294 HD
ENDBRANCH  10  23
BRANCH   5  25
ATOM     25  O   UNL     1     -98.621  44.275   2.395  1.00  0.00    -0.507 OA
ATOM     26  H   UNL     1     -97.667  44.158   2.071  1.00  0.00     0.293 HD
ENDBRANCH   5  25
BRANCH   7  27
ATOM     27  O   UNL     1    -101.287  40.303   3.194  1.00  0.00    -0.507 OA
ATOM     28  H   UNL     1    -102.214  40.093   3.544  1.00  0.00     0.293 HD
ENDBRANCH   7  27
TORSDOF 7
ENDMDL
MODEL 9
REMARK VINA RESULT:    -4.406      9.451     12.319
REMARK INTER + INTRA:          -5.783
REMARK INTER:                  -5.582
REMARK INTRA:                  -0.201
REMARK UNBOUND:                -0.347
REMARK SMILES Oc1cc(O)c2cc(O)c(-c3cc(O)c(O)c(O)c3)[o+]c2c1
REMARK SMILES IDX 10 1 20 2 21 3 22 4 2 5 3 6 4 7 6 8 7 9 8 10 11 11 12 12
REMARK SMILES IDX 13 13 19 14 15 15 17 16 14 17 16 19 18 21 9 23 1 25 5 27
REMARK H PARENT 14 18 16 20 18 22 9 24 1 26 5 28
REMARK Flexibility Score: inf
ROOT
ATOM      1  C   UNL     1    -100.376  50.677  15.075  1.00  0.00     0.402 A 
ATOM      2  O   UNL     1     -99.777  51.484  14.201  1.00  0.00    -0.202 OA
ATOM      3  C   UNL     1    -100.428  52.115  13.229  1.00  0.00     0.368 A 
ATOM      4  C   UNL     1     -99.725  52.948  12.353  1.00  0.00     0.162 A 
ATOM      5  C   UNL     1    -100.397  53.622  11.328  1.00  0.00     0.128 A 
ATOM      6  C   UNL     1    -101.781  53.459  11.177  1.00  0.00     0.093 A 
ATOM      7  C   UNL     1    -102.499  52.625  12.047  1.00  0.00     0.136 A 
ATOM      8  C   UNL     1    -101.822  51.949  13.078  1.00  0.00     0.125 A 
ATOM      9  C   UNL     1    -102.484  51.098  13.970  1.00  0.00     0.078 A 
ATOM     10  C   UNL     1    -101.763  50.444  14.973  1.00  0.00     0.223 A 
ENDROOT
BRANCH   1  11
ATOM     11  C   UNL     1     -99.545  50.037  16.121  1.00  0.00     0.091 A 
ATOM     12  C   UNL     1     -99.399  48.642  16.128  1.00  0.00     0.068 A 
ATOM     13  C   UNL     1     -98.606  48.010  17.091  1.00  0.00     0.162 A 
ATOM     14  C   UNL     1     -98.851  50.802  17.075  1.00  0.00     0.068 A 
ATOM     15  C   UNL     1     -97.931  48.778  18.056  1.00  0.00     0.200 A 
ATOM     16  C   UNL     1     -98.052  50.178  18.043  1.00  0.00     0.162 A 
BRANCH  13  17
ATOM     17  O   UNL     1     -98.500  46.621  17.073  1.00  0.00    -0.504 OA
ATOM     18  H   UNL     1     -99.281  46.022  16.834  1.00  0.00     0.293 HD
ENDBRANCH  13  17
BRANCH  15  19
ATOM     19  O   UNL     1     -97.143  48.141  19.015  1.00  0.00    -0.502 OA
ATOM     20  H   UNL     1     -96.223  47.774  18.800  1.00  0.00     0.293 HD
ENDBRANCH  15  19
BRANCH  16  21
ATOM     21  O   UNL     1     -97.373  50.946  18.988  1.00  0.00    -0.504 OA
ATOM     22  H   UNL     1     -97.852  51.634  19.556  1.00  0.00     0.293 HD
ENDBRANCH  16  21
ENDBRANCH   1  11
BRANCH  10  23
ATOM     23  O   UNL     1    -102.408  49.556  15.834  1.00  0.00    -0.500 OA
ATOM     24  H   UNL     1    -102.206  49.538  16.827  1.00  0.00     0.294 HD
ENDBRANCH  10  23
BRANCH   5  25
ATOM     25  O   UNL     1     -99.682  54.448  10.467  1.00  0.00    -0.507 OA
ATOM     26  H   UNL     1    -100.132  55.204   9.961  1.00  0.00     0.293 HD
ENDBRANCH   5  25
BRANCH   7  27
ATOM     27  O   UNL     1    -103.877  52.470  11.885  1.00  0.00    -0.507 OA
ATOM     28  H   UNL     1    -104.380  51.706  12.318  1.00  0.00     0.293 HD
ENDBRANCH   7  27
TORSDOF 7
ENDMDL
