MODEL 1
REMARK VINA RESULT:    -5.516      0.000      0.000
REMARK INTER + INTRA:         -12.626
REMARK INTER:                 -10.676
REMARK INTRA:                  -1.950
REMARK UNBOUND:                -1.950
REMARK SMILES CCCCCCCCCCCCCCCCCC(=O)[O-]
REMARK SMILES IDX 10 1 11 2 12 3 13 4 14 5 15 6 16 7 17 8 18 9 19 10 20 11
REMARK SMILES IDX 9 12 8 13 7 14 6 15 5 16 4 17 3 18 2 19 1 20
REMARK H PARENT
REMARK Flexibility Score: inf
ROOT
ATOM      1  C   UNL     1       8.451  22.271  -9.284  1.00  0.00     0.000 C 
ENDROOT
BRANCH   1   2
ATOM      2  C   UNL     1       7.605  21.940 -10.525  1.00  0.00     0.000 C 
BRANCH   2   3
ATOM      3  C   UNL     1       6.415  22.896 -10.701  1.00  0.00     0.000 C 
BRANCH   3   4
ATOM      4  C   UNL     1       5.087  22.277 -10.232  1.00  0.00     0.000 C 
BRANCH   4   5
ATOM      5  C   UNL     1       4.324  23.180  -9.247  1.00  0.00     0.000 C 
BRANCH   5   6
ATOM      6  C   UNL     1       3.945  22.511  -7.910  1.00  0.00     0.000 C 
BRANCH   6   7
ATOM      7  C   UNL     1       4.847  22.877  -6.717  1.00  0.00     0.006 C 
BRANCH   7   8
ATOM      8  C   UNL     1       6.032  23.766  -7.117  1.00  0.00     0.053 C 
BRANCH   8   9
ATOM      9  C   UNL     1       6.801  24.184  -5.905  1.00  0.00     0.041 C 
ATOM     10  O   UNL     1       7.547  23.359  -5.313  1.00  0.00    -0.550 OA
ATOM     11  O   UNL     1       6.656  25.469  -5.397  1.00  0.00    -0.550 OA
ENDBRANCH   8   9
ENDBRANCH   7   8
ENDBRANCH   6   7
ENDBRANCH   5   6
ENDBRANCH   4   5
ENDBRANCH   3   4
ENDBRANCH   2   3
ENDBRANCH   1   2
BRANCH   1  12
ATOM     12  C   UNL     1       9.352  23.505  -9.503  1.00  0.00     0.000 C 
BRANCH  12  13
ATOM     13  C   UNL     1      10.700  23.179 -10.176  1.00  0.00    -0.000 C 
BRANCH  13  14
ATOM     14  C   UNL     1      11.809  24.218  -9.942  1.00  0.00    -0.000 C 
BRANCH  14  15
ATOM     15  C   UNL     1      12.195  24.353  -8.462  1.00  0.00    -0.000 C 
BRANCH  15  16
ATOM     16  C   UNL     1      13.406  23.467  -8.128  1.00  0.00    -0.000 C 
BRANCH  16  17
ATOM     17  C   UNL     1      12.986  22.109  -7.525  1.00  0.00    -0.000 C 
BRANCH  17  18
ATOM     18  C   UNL     1      11.619  22.143  -6.822  1.00  0.00    -0.000 C 
BRANCH  18  19
ATOM     19  C   UNL     1      10.747  20.925  -7.154  1.00  0.00    -0.003 C 
ATOM     20  C   UNL     1      11.451  19.996  -8.139  1.00  0.00     0.004 C 
ENDBRANCH  18  19
ENDBRANCH  17  18
ENDBRANCH  16  17
ENDBRANCH  15  16
ENDBRANCH  14  15
ENDBRANCH  13  14
ENDBRANCH  12  13
ENDBRANCH   1  12
TORSDOF 16
ENDMDL
MODEL 2
REMARK VINA RESULT:    -5.492      2.268      3.809
REMARK INTER + INTRA:         -12.579
REMARK INTER:                 -10.276
REMARK INTRA:                  -2.303
REMARK UNBOUND:                -1.950
REMARK SMILES CCCCCCCCCCCCCCCCCC(=O)[O-]
REMARK SMILES IDX 10 1 11 2 12 3 13 4 14 5 15 6 16 7 17 8 18 9 19 10 20 11
REMARK SMILES IDX 9 12 8 13 7 14 6 15 5 16 4 17 3 18 2 19 1 20
REMARK H PARENT
REMARK Flexibility Score: inf
ROOT
ATOM      1  C   UNL     1       9.930  20.921  -7.240  1.00  0.00     0.000 C 
ENDROOT
BRANCH   1   2
ATOM      2  C   UNL     1       9.732  22.041  -6.204  1.00  0.00     0.000 C 
BRANCH   2   3
ATOM      3  C   UNL     1       8.558  21.765  -5.253  1.00  0.00     0.000 C 
BRANCH   3   4
ATOM      4  C   UNL     1       7.558  22.933  -5.196  1.00  0.00     0.000 C 
BRANCH   4   5
ATOM      5  C   UNL     1       7.694  23.893  -6.390  1.00  0.00     0.000 C 
BRANCH   5   6
ATOM      6  C   UNL     1       6.554  23.809  -7.426  1.00  0.00     0.000 C 
BRANCH   6   7
ATOM      7  C   UNL     1       6.983  24.018  -8.889  1.00  0.00     0.006 C 
BRANCH   7   8
ATOM      8  C   UNL     1       6.408  22.955  -9.835  1.00  0.00     0.053 C 
BRANCH   8   9
ATOM      9  C   UNL     1       4.922  23.087  -9.924  1.00  0.00     0.041 C 
ATOM     10  O   UNL     1       4.175  22.260  -9.336  1.00  0.00    -0.550 OA
ATOM     11  O   UNL     1       4.358  24.093 -10.700  1.00  0.00    -0.550 OA
ENDBRANCH   8   9
ENDBRANCH   7   8
ENDBRANCH   6   7
ENDBRANCH   5   6
ENDBRANCH   4   5
ENDBRANCH   3   4
ENDBRANCH   2   3
ENDBRANCH   1   2
BRANCH   1  12
ATOM     12  C   UNL     1       9.890  21.450  -8.689  1.00  0.00     0.000 C 
BRANCH  12  13
ATOM     13  C   UNL     1      10.261  22.940  -8.818  1.00  0.00    -0.000 C 
BRANCH  13  14
ATOM     14  C   UNL     1      10.967  23.321 -10.130  1.00  0.00    -0.000 C 
BRANCH  14  15
ATOM     15  C   UNL     1      12.056  24.385  -9.932  1.00  0.00    -0.000 C 
BRANCH  15  16
ATOM     16  C   UNL     1      12.444  24.504  -8.450  1.00  0.00    -0.000 C 
BRANCH  16  17
ATOM     17  C   UNL     1      13.776  23.788  -8.138  1.00  0.00    -0.000 C 
BRANCH  17  18
ATOM     18  C   UNL     1      13.595  22.362  -7.590  1.00  0.00    -0.000 C 
BRANCH  18  19
ATOM     19  C   UNL     1      13.440  22.323  -6.065  1.00  0.00    -0.003 C 
ATOM     20  C   UNL     1      14.503  23.179  -5.382  1.00  0.00     0.004 C 
ENDBRANCH  18  19
ENDBRANCH  17  18
ENDBRANCH  16  17
ENDBRANCH  15  16
ENDBRANCH  14  15
ENDBRANCH  13  14
ENDBRANCH  12  13
ENDBRANCH   1  12
TORSDOF 16
ENDMDL
MODEL 3
REMARK VINA RESULT:    -5.364      2.641      6.515
REMARK INTER + INTRA:         -12.332
REMARK INTER:                 -10.185
REMARK INTRA:                  -2.148
REMARK UNBOUND:                -1.950
REMARK SMILES CCCCCCCCCCCCCCCCCC(=O)[O-]
REMARK SMILES IDX 10 1 11 2 12 3 13 4 14 5 15 6 16 7 17 8 18 9 19 10 20 11
REMARK SMILES IDX 9 12 8 13 7 14 6 15 5 16 4 17 3 18 2 19 1 20
REMARK H PARENT
REMARK Flexibility Score: inf
ROOT
ATOM      1  C   UNL     1      10.771  21.009  -8.316  1.00  0.00     0.000 C 
ENDROOT
BRANCH   1   2
ATOM      2  C   UNL     1      10.037  21.933  -9.304  1.00  0.00     0.000 C 
BRANCH   2   3
ATOM      3  C   UNL     1      10.969  22.973  -9.944  1.00  0.00     0.000 C 
BRANCH   3   4
ATOM      4  C   UNL     1      11.302  24.133  -8.989  1.00  0.00     0.000 C 
BRANCH   4   5
ATOM      5  C   UNL     1      12.816  24.357  -8.828  1.00  0.00     0.000 C 
BRANCH   5   6
ATOM      6  C   UNL     1      13.570  23.218  -8.113  1.00  0.00     0.000 C 
BRANCH   6   7
ATOM      7  C   UNL     1      13.936  23.496  -6.644  1.00  0.00     0.006 C 
BRANCH   7   8
ATOM      8  C   UNL     1      13.402  22.425  -5.684  1.00  0.00     0.053 C 
BRANCH   8   9
ATOM      9  C   UNL     1      13.824  22.727  -4.282  1.00  0.00     0.041 C 
ATOM     10  O   UNL     1      15.001  23.104  -4.041  1.00  0.00    -0.550 OA
ATOM     11  O   UNL     1      12.933  22.541  -3.232  1.00  0.00    -0.550 OA
ENDBRANCH   8   9
ENDBRANCH   7   8
ENDBRANCH   6   7
ENDBRANCH   5   6
ENDBRANCH   4   5
ENDBRANCH   3   4
ENDBRANCH   2   3
ENDBRANCH   1   2
BRANCH   1  12
ATOM     12  C   UNL     1       9.976  20.800  -7.010  1.00  0.00     0.000 C 
BRANCH  12  13
ATOM     13  C   UNL     1       9.539  22.113  -6.331  1.00  0.00    -0.000 C 
BRANCH  13  14
ATOM     14  C   UNL     1       8.625  21.935  -5.107  1.00  0.00    -0.000 C 
BRANCH  14  15
ATOM     15  C   UNL     1       7.218  22.508  -5.327  1.00  0.00    -0.000 C 
BRANCH  15  16
ATOM     16  C   UNL     1       7.281  24.008  -5.653  1.00  0.00    -0.000 C 
BRANCH  16  17
ATOM     17  C   UNL     1       6.485  24.362  -6.928  1.00  0.00    -0.000 C 
BRANCH  17  18
ATOM     18  C   UNL     1       7.345  24.393  -8.203  1.00  0.00    -0.000 C 
BRANCH  18  19
ATOM     19  C   UNL     1       6.959  23.304  -9.211  1.00  0.00    -0.003 C 
ATOM     20  C   UNL     1       5.442  23.186  -9.339  1.00  0.00     0.004 C 
ENDBRANCH  18  19
ENDBRANCH  17  18
ENDBRANCH  16  17
ENDBRANCH  15  16
ENDBRANCH  14  15
ENDBRANCH  13  14
ENDBRANCH  12  13
ENDBRANCH   1  12
TORSDOF 16
ENDMDL
MODEL 4
REMARK VINA RESULT:    -5.304      1.196      4.666
REMARK INTER + INTRA:         -12.216
REMARK INTER:                 -10.122
REMARK INTRA:                  -2.094
REMARK UNBOUND:                -1.950
REMARK SMILES CCCCCCCCCCCCCCCCCC(=O)[O-]
REMARK SMILES IDX 10 1 11 2 12 3 13 4 14 5 15 6 16 7 17 8 18 9 19 10 20 11
REMARK SMILES IDX 9 12 8 13 7 14 6 15 5 16 4 17 3 18 2 19 1 20
REMARK H PARENT
REMARK Flexibility Score: inf
ROOT
ATOM      1  C   UNL     1      13.286  21.724  -7.617  1.00  0.00     0.000 C 
ENDROOT
BRANCH   1   2
ATOM      2  C   UNL     1      12.511  20.823  -8.595  1.00  0.00     0.000 C 
BRANCH   2   3
ATOM      3  C   UNL     1      11.573  19.841  -7.876  1.00  0.00     0.000 C 
BRANCH   3   4
ATOM      4  C   UNL     1      10.103  20.295  -7.914  1.00  0.00     0.000 C 
BRANCH   4   5
ATOM      5  C   UNL     1       9.516  20.531  -6.512  1.00  0.00     0.000 C 
BRANCH   5   6
ATOM      6  C   UNL     1       9.534  21.999  -6.037  1.00  0.00     0.000 C 
BRANCH   6   7
ATOM      7  C   UNL     1       8.186  22.538  -5.529  1.00  0.00     0.006 C 
BRANCH   7   8
ATOM      8  C   UNL     1       7.471  23.423  -6.559  1.00  0.00     0.053 C 
BRANCH   8   9
ATOM      9  C   UNL     1       6.306  24.117  -5.930  1.00  0.00     0.041 C 
ATOM     10  O   UNL     1       6.467  25.219  -5.341  1.00  0.00    -0.550 OA
ATOM     11  O   UNL     1       5.050  23.523  -5.948  1.00  0.00    -0.550 OA
ENDBRANCH   8   9
ENDBRANCH   7   8
ENDBRANCH   6   7
ENDBRANCH   5   6
ENDBRANCH   4   5
ENDBRANCH   3   4
ENDBRANCH   2   3
ENDBRANCH   1   2
BRANCH   1  12
ATOM     12  C   UNL     1      12.634  23.115  -7.462  1.00  0.00     0.000 C 
BRANCH  12  13
ATOM     13  C   UNL     1      12.921  24.071  -8.636  1.00  0.00    -0.000 C 
BRANCH  13  14
ATOM     14  C   UNL     1      11.765  24.234  -9.636  1.00  0.00    -0.000 C 
BRANCH  14  15
ATOM     15  C   UNL     1      10.399  23.881  -9.029  1.00  0.00    -0.000 C 
BRANCH  15  16
ATOM     16  C   UNL     1       9.569  23.030 -10.002  1.00  0.00    -0.000 C 
BRANCH  16  17
ATOM     17  C   UNL     1       8.097  22.900  -9.553  1.00  0.00    -0.000 C 
BRANCH  17  18
ATOM     18  C   UNL     1       7.225  22.091 -10.527  1.00  0.00    -0.000 C 
BRANCH  18  19
ATOM     19  C   UNL     1       5.858  22.738 -10.783  1.00  0.00    -0.003 C 
ATOM     20  C   UNL     1       5.063  22.875  -9.486  1.00  0.00     0.004 C 
ENDBRANCH  18  19
ENDBRANCH  17  18
ENDBRANCH  16  17
ENDBRANCH  15  16
ENDBRANCH  14  15
ENDBRANCH  13  14
ENDBRANCH  12  13
ENDBRANCH   1  12
TORSDOF 16
ENDMDL
MODEL 5
REMARK VINA RESULT:    -5.250      1.632      6.197
REMARK INTER + INTRA:         -12.110
REMARK INTER:                 -10.127
REMARK INTRA:                  -1.983
REMARK UNBOUND:                -1.950
REMARK SMILES CCCCCCCCCCCCCCCCCC(=O)[O-]
REMARK SMILES IDX 10 1 11 2 12 3 13 4 14 5 15 6 16 7 17 8 18 9 19 10 20 11
REMARK SMILES IDX 9 12 8 13 7 14 6 15 5 16 4 17 3 18 2 19 1 20
REMARK H PARENT
REMARK Flexibility Score: inf
ROOT
ATOM      1  C   UNL     1      12.121  24.463  -9.733  1.00  0.00     0.000 C 
ENDROOT
BRANCH   1   2
ATOM      2  C   UNL     1      12.757  24.366  -8.335  1.00  0.00     0.000 C 
BRANCH   2   3
ATOM      3  C   UNL     1      13.564  23.073  -8.142  1.00  0.00     0.000 C 
BRANCH   3   4
ATOM      4  C   UNL     1      12.900  22.107  -7.145  1.00  0.00     0.000 C 
BRANCH   4   5
ATOM      5  C   UNL     1      12.214  20.916  -7.836  1.00  0.00     0.000 C 
BRANCH   5   6
ATOM      6  C   UNL     1      10.713  20.756  -7.519  1.00  0.00     0.000 C 
BRANCH   6   7
ATOM      7  C   UNL     1      10.172  21.694  -6.426  1.00  0.00     0.006 C 
BRANCH   7   8
ATOM      8  C   UNL     1       8.817  21.240  -5.868  1.00  0.00     0.053 C 
BRANCH   8   9
ATOM      9  C   UNL     1       8.393  22.128  -4.742  1.00  0.00     0.041 C 
ATOM     10  O   UNL     1       7.645  23.117  -4.962  1.00  0.00    -0.550 OA
ATOM     11  O   UNL     1       8.866  21.895  -3.457  1.00  0.00    -0.550 OA
ENDBRANCH   8   9
ENDBRANCH   7   8
ENDBRANCH   6   7
ENDBRANCH   5   6
ENDBRANCH   4   5
ENDBRANCH   3   4
ENDBRANCH   2   3
ENDBRANCH   1   2
BRANCH   1  12
ATOM     12  C   UNL     1      10.876  23.561  -9.873  1.00  0.00     0.000 C 
BRANCH  12  13
ATOM     13  C   UNL     1       9.677  24.019  -9.020  1.00  0.00    -0.000 C 
BRANCH  13  14
ATOM     14  C   UNL     1       8.373  23.241  -9.265  1.00  0.00    -0.000 C 
BRANCH  14  15
ATOM     15  C   UNL     1       7.241  23.665  -8.318  1.00  0.00    -0.000 C 
BRANCH  15  16
ATOM     16  C   UNL     1       5.871  23.263  -8.885  1.00  0.00    -0.000 C 
BRANCH  16  17
ATOM     17  C   UNL     1       5.987  22.614 -10.282  1.00  0.00    -0.000 C 
BRANCH  17  18
ATOM     18  C   UNL     1       5.005  23.195 -11.314  1.00  0.00    -0.000 C 
BRANCH  18  19
ATOM     19  C   UNL     1       4.968  24.728 -11.307  1.00  0.00    -0.003 C 
ATOM     20  C   UNL     1       3.759  25.253 -12.077  1.00  0.00     0.004 C 
ENDBRANCH  18  19
ENDBRANCH  17  18
ENDBRANCH  16  17
ENDBRANCH  15  16
ENDBRANCH  14  15
ENDBRANCH  13  14
ENDBRANCH  12  13
ENDBRANCH   1  12
TORSDOF 16
ENDMDL
MODEL 6
REMARK VINA RESULT:    -5.238      2.721      6.705
REMARK INTER + INTRA:         -12.088
REMARK INTER:                 -10.387
REMARK INTRA:                  -1.701
REMARK UNBOUND:                -1.950
REMARK SMILES CCCCCCCCCCCCCCCCCC(=O)[O-]
REMARK SMILES IDX 10 1 11 2 12 3 13 4 14 5 15 6 16 7 17 8 18 9 19 10 20 11
REMARK SMILES IDX 9 12 8 13 7 14 6 15 5 16 4 17 3 18 2 19 1 20
REMARK H PARENT
REMARK Flexibility Score: inf
ROOT
ATOM      1  C   UNL     1      10.084  20.735  -7.452  1.00  0.00     0.000 C 
ENDROOT
BRANCH   1   2
ATOM      2  C   UNL     1      10.918  21.241  -8.642  1.00  0.00     0.000 C 
BRANCH   2   3
ATOM      3  C   UNL     1      10.119  22.168  -9.570  1.00  0.00     0.000 C 
BRANCH   3   4
ATOM      4  C   UNL     1      10.982  23.296 -10.162  1.00  0.00     0.000 C 
BRANCH   4   5
ATOM      5  C   UNL     1      11.377  24.355  -9.118  1.00  0.00     0.000 C 
BRANCH   5   6
ATOM      6  C   UNL     1      12.864  24.345  -8.710  1.00  0.00     0.000 C 
BRANCH   6   7
ATOM      7  C   UNL     1      13.217  23.399  -7.549  1.00  0.00     0.006 C 
BRANCH   7   8
ATOM      8  C   UNL     1      14.564  23.736  -6.895  1.00  0.00     0.053 C 
BRANCH   8   9
ATOM      9  C   UNL     1      14.690  23.044  -5.576  1.00  0.00     0.041 C 
ATOM     10  O   UNL     1      13.667  22.584  -5.001  1.00  0.00    -0.550 OA
ATOM     11  O   UNL     1      15.929  22.951  -4.954  1.00  0.00    -0.550 OA
ENDBRANCH   8   9
ENDBRANCH   7   8
ENDBRANCH   6   7
ENDBRANCH   5   6
ENDBRANCH   4   5
ENDBRANCH   3   4
ENDBRANCH   2   3
ENDBRANCH   1   2
BRANCH   1  12
ATOM     12  C   UNL     1      10.143  21.696  -6.245  1.00  0.00     0.000 C 
BRANCH  12  13
ATOM     13  C   UNL     1       8.767  22.243  -5.818  1.00  0.00    -0.000 C 
BRANCH  13  14
ATOM     14  C   UNL     1       8.155  23.278  -6.776  1.00  0.00    -0.000 C 
BRANCH  14  15
ATOM     15  C   UNL     1       6.671  23.551  -6.487  1.00  0.00    -0.000 C 
BRANCH  15  16
ATOM     16  C   UNL     1       5.861  23.611  -7.791  1.00  0.00    -0.000 C 
BRANCH  16  17
ATOM     17  C   UNL     1       6.762  23.808  -9.029  1.00  0.00    -0.000 C 
BRANCH  17  18
ATOM     18  C   UNL     1       6.588  22.717 -10.098  1.00  0.00    -0.000 C 
BRANCH  18  19
ATOM     19  C   UNL     1       5.188  22.713 -10.725  1.00  0.00    -0.003 C 
ATOM     20  C   UNL     1       4.929  24.003 -11.501  1.00  0.00     0.004 C 
ENDBRANCH  18  19
ENDBRANCH  17  18
ENDBRANCH  16  17
ENDBRANCH  15  16
ENDBRANCH  14  15
ENDBRANCH  13  14
ENDBRANCH  12  13
ENDBRANCH   1  12
TORSDOF 16
ENDMDL
MODEL 7
REMARK VINA RESULT:    -5.210      2.525      6.440
REMARK INTER + INTRA:         -12.034
REMARK INTER:                 -10.433
REMARK INTRA:                  -1.601
REMARK UNBOUND:                -1.950
REMARK SMILES CCCCCCCCCCCCCCCCCC(=O)[O-]
REMARK SMILES IDX 10 1 11 2 12 3 13 4 14 5 15 6 16 7 17 8 18 9 19 10 20 11
REMARK SMILES IDX 9 12 8 13 7 14 6 15 5 16 4 17 3 18 2 19 1 20
REMARK H PARENT
REMARK Flexibility Score: inf
ROOT
ATOM      1  C   UNL     1       7.441  22.221 -10.376  1.00  0.00     0.000 C 
ENDROOT
BRANCH   1   2
ATOM      2  C   UNL     1       8.334  23.044  -9.431  1.00  0.00     0.000 C 
BRANCH   2   3
ATOM      3  C   UNL     1       9.782  22.531  -9.392  1.00  0.00     0.000 C 
BRANCH   3   4
ATOM      4  C   UNL     1       9.945  21.294  -8.493  1.00  0.00     0.000 C 
BRANCH   4   5
ATOM      5  C   UNL     1      11.348  21.190  -7.870  1.00  0.00     0.000 C 
BRANCH   5   6
ATOM      6  C   UNL     1      11.547  22.006  -6.576  1.00  0.00     0.000 C 
BRANCH   6   7
ATOM      7  C   UNL     1      13.013  22.266  -6.186  1.00  0.00     0.006 C 
BRANCH   7   8
ATOM      8  C   UNL     1      13.918  22.508  -7.401  1.00  0.00     0.053 C 
BRANCH   8   9
ATOM      9  C   UNL     1      13.903  23.954  -7.781  1.00  0.00     0.041 C 
ATOM     10  O   UNL     1      13.017  24.395  -8.561  1.00  0.00    -0.550 OA
ATOM     11  O   UNL     1      14.897  24.806  -7.317  1.00  0.00    -0.550 OA
ENDBRANCH   8   9
ENDBRANCH   7   8
ENDBRANCH   6   7
ENDBRANCH   5   6
ENDBRANCH   4   5
ENDBRANCH   3   4
ENDBRANCH   2   3
ENDBRANCH   1   2
BRANCH   1  12
ATOM     12  C   UNL     1       6.014  22.800 -10.482  1.00  0.00     0.000 C 
BRANCH  12  13
ATOM     13  C   UNL     1       5.459  23.337  -9.149  1.00  0.00    -0.000 C 
BRANCH  13  14
ATOM     14  C   UNL     1       4.217  22.600  -8.620  1.00  0.00    -0.000 C 
BRANCH  14  15
ATOM     15  C   UNL     1       3.878  22.972  -7.169  1.00  0.00    -0.000 C 
BRANCH  15  16
ATOM     16  C   UNL     1       5.112  22.835  -6.265  1.00  0.00    -0.000 C 
BRANCH  16  17
ATOM     17  C   UNL     1       5.818  24.188  -6.034  1.00  0.00    -0.000 C 
BRANCH  17  18
ATOM     18  C   UNL     1       7.257  24.051  -5.508  1.00  0.00    -0.000 C 
BRANCH  18  19
ATOM     19  C   UNL     1       7.904  22.711  -5.880  1.00  0.00    -0.003 C 
ATOM     20  C   UNL     1       8.309  21.930  -4.632  1.00  0.00     0.004 C 
ENDBRANCH  18  19
ENDBRANCH  17  18
ENDBRANCH  16  17
ENDBRANCH  15  16
ENDBRANCH  14  15
ENDBRANCH  13  14
ENDBRANCH  12  13
ENDBRANCH   1  12
TORSDOF 16
ENDMDL
MODEL 8
REMARK VINA RESULT:    -5.196      1.361      5.557
REMARK INTER + INTRA:         -12.006
REMARK INTER:                 -10.161
REMARK INTRA:                  -1.845
REMARK UNBOUND:                -1.950
REMARK SMILES CCCCCCCCCCCCCCCCCC(=O)[O-]
REMARK SMILES IDX 10 1 11 2 12 3 13 4 14 5 15 6 16 7 17 8 18 9 19 10 20 11
REMARK SMILES IDX 9 12 8 13 7 14 6 15 5 16 4 17 3 18 2 19 1 20
REMARK H PARENT
REMARK Flexibility Score: inf
ROOT
ATOM      1  C   UNL     1      13.131  24.287  -8.254  1.00  0.00     0.000 C 
ENDROOT
BRANCH   1   2
ATOM      2  C   UNL     1      12.788  23.014  -7.460  1.00  0.00     0.000 C 
BRANCH   2   3
ATOM      3  C   UNL     1      13.621  21.801  -7.900  1.00  0.00     0.000 C 
BRANCH   3   4
ATOM      4  C   UNL     1      12.752  20.571  -8.216  1.00  0.00     0.000 C 
BRANCH   4   5
ATOM      5  C   UNL     1      11.247  20.894  -8.234  1.00  0.00     0.000 C 
BRANCH   5   6
ATOM      6  C   UNL     1      10.354  19.871  -7.503  1.00  0.00     0.000 C 
BRANCH   6   7
ATOM      7  C   UNL     1       9.178  20.476  -6.716  1.00  0.00     0.006 C 
BRANCH   7   8
ATOM      8  C   UNL     1       9.529  21.815  -6.055  1.00  0.00     0.053 C 
BRANCH   8   9
ATOM      9  C   UNL     1       8.532  22.149  -4.992  1.00  0.00     0.041 C 
ATOM     10  O   UNL     1       8.732  21.792  -3.801  1.00  0.00    -0.550 OA
ATOM     11  O   UNL     1       7.355  22.809  -5.325  1.00  0.00    -0.550 OA
ENDBRANCH   8   9
ENDBRANCH   7   8
ENDBRANCH   6   7
ENDBRANCH   5   6
ENDBRANCH   4   5
ENDBRANCH   3   4
ENDBRANCH   2   3
ENDBRANCH   1   2
BRANCH   1  12
ATOM     12  C   UNL     1      12.126  24.552  -9.396  1.00  0.00     0.000 C 
BRANCH  12  13
ATOM     13  C   UNL     1      10.681  24.133  -9.063  1.00  0.00    -0.000 C 
BRANCH  13  14
ATOM     14  C   UNL     1      10.071  23.096 -10.021  1.00  0.00    -0.000 C 
BRANCH  14  15
ATOM     15  C   UNL     1       8.580  22.845  -9.754  1.00  0.00    -0.000 C 
BRANCH  15  16
ATOM     16  C   UNL     1       8.028  23.852  -8.733  1.00  0.00    -0.000 C 
BRANCH  16  17
ATOM     17  C   UNL     1       6.518  23.654  -8.476  1.00  0.00    -0.000 C 
BRANCH  17  18
ATOM     18  C   UNL     1       5.773  23.003  -9.654  1.00  0.00    -0.000 C 
BRANCH  18  19
ATOM     19  C   UNL     1       4.306  22.692  -9.333  1.00  0.00    -0.003 C 
ATOM     20  C   UNL     1       4.067  22.660  -7.826  1.00  0.00     0.004 C 
ENDBRANCH  18  19
ENDBRANCH  17  18
ENDBRANCH  16  17
ENDBRANCH  15  16
ENDBRANCH  14  15
ENDBRANCH  13  14
ENDBRANCH  12  13
ENDBRANCH   1  12
TORSDOF 16
ENDMDL
MODEL 9
REMARK VINA RESULT:    -5.086      3.033      7.177
REMARK INTER + INTRA:         -11.794
REMARK INTER:                 -10.251
REMARK INTRA:                  -1.542
REMARK UNBOUND:                -1.950
REMARK SMILES CCCCCCCCCCCCCCCCCC(=O)[O-]
REMARK SMILES IDX 10 1 11 2 12 3 13 4 14 5 15 6 16 7 17 8 18 9 19 10 20 11
REMARK SMILES IDX 9 12 8 13 7 14 6 15 5 16 4 17 3 18 2 19 1 20
REMARK H PARENT
REMARK Flexibility Score: inf
ROOT
ATOM      1  C   UNL     1       9.046  23.293  -9.280  1.00  0.00     0.000 C 
ENDROOT
BRANCH   1   2
ATOM      2  C   UNL     1      10.479  22.938  -9.712  1.00  0.00     0.000 C 
BRANCH   2   3
ATOM      3  C   UNL     1      11.403  24.165  -9.758  1.00  0.00     0.000 C 
BRANCH   3   4
ATOM      4  C   UNL     1      12.526  24.096  -8.709  1.00  0.00     0.000 C 
BRANCH   4   5
ATOM      5  C   UNL     1      12.359  22.919  -7.732  1.00  0.00     0.000 C 
BRANCH   5   6
ATOM      6  C   UNL     1      13.679  22.302  -7.225  1.00  0.00     0.000 C 
BRANCH   6   7
ATOM      7  C   UNL     1      14.126  22.771  -5.829  1.00  0.00     0.006 C 
BRANCH   7   8
ATOM      8  C   UNL     1      15.581  23.255  -5.802  1.00  0.00     0.053 C 
BRANCH   8   9
ATOM      9  C   UNL     1      15.783  24.356  -6.794  1.00  0.00     0.041 C 
ATOM     10  O   UNL     1      16.584  24.205  -7.754  1.00  0.00    -0.550 OA
ATOM     11  O   UNL     1      15.124  25.568  -6.631  1.00  0.00    -0.550 OA
ENDBRANCH   8   9
ENDBRANCH   7   8
ENDBRANCH   6   7
ENDBRANCH   5   6
ENDBRANCH   4   5
ENDBRANCH   3   4
ENDBRANCH   2   3
ENDBRANCH   1   2
BRANCH   1  12
ATOM     12  C   UNL     1       8.043  22.163  -9.596  1.00  0.00     0.000 C 
BRANCH  12  13
ATOM     13  C   UNL     1       7.026  22.524 -10.697  1.00  0.00    -0.000 C 
BRANCH  13  14
ATOM     14  C   UNL     1       5.553  22.306 -10.313  1.00  0.00    -0.000 C 
BRANCH  14  15
ATOM     15  C   UNL     1       5.053  23.321  -9.275  1.00  0.00    -0.000 C 
BRANCH  15  16
ATOM     16  C   UNL     1       4.443  22.607  -8.059  1.00  0.00    -0.000 C 
BRANCH  16  17
ATOM     17  C   UNL     1       4.981  23.167  -6.724  1.00  0.00    -0.000 C 
BRANCH  17  18
ATOM     18  C   UNL     1       6.286  23.967  -6.873  1.00  0.00    -0.000 C 
BRANCH  18  19
ATOM     19  C   UNL     1       7.113  24.007  -5.582  1.00  0.00    -0.003 C 
ATOM     20  C   UNL     1       7.840  22.684  -5.353  1.00  0.00     0.004 C 
ENDBRANCH  18  19
ENDBRANCH  17  18
ENDBRANCH  16  17
ENDBRANCH  15  16
ENDBRANCH  14  15
ENDBRANCH  13  14
ENDBRANCH  12  13
ENDBRANCH   1  12
TORSDOF 16
ENDMDL
