MODEL 1
REMARK VINA RESULT:    -3.761      0.000      0.000
REMARK INTER + INTRA:          -5.688
REMARK INTER:                  -5.080
REMARK INTRA:                  -0.607
REMARK UNBOUND:                -0.607
REMARK SMILES O=C[C@@H](O)[C@H](O)[C@H](O)CO
REMARK SMILES IDX 7 1 9 2 10 3 5 5 3 6 2 7 1 8 4 9 6 11 8 13
REMARK H PARENT 10 4 4 10 6 12 8 14
REMARK Flexibility Score: inf
ROOT
ATOM      1  C   UNL     1      61.546  -5.428  -4.118  1.00  0.00     0.171 C 
ENDROOT
BRANCH   1   2
ATOM      2  C   UNL     1      62.826  -6.176  -3.691  1.00  0.00     0.190 C 
BRANCH   2   3
ATOM      3  O   UNL     1      63.681  -5.323  -2.983  1.00  0.00    -0.394 OA
ATOM      4  H   UNL     1      64.338  -5.908  -2.523  1.00  0.00     0.210 HD
ENDBRANCH   2   3
ENDBRANCH   1   2
BRANCH   1   5
ATOM      5  C   UNL     1      61.774  -4.345  -5.214  1.00  0.00     0.181 C 
BRANCH   5   6
ATOM      6  C   UNL     1      60.512  -4.021  -6.050  1.00  0.00     0.209 C 
BRANCH   6   7
ATOM      7  C   UNL     1      60.777  -4.120  -7.530  1.00  0.00     0.258 C 
ATOM      8  O   UNL     1      60.672  -5.190  -8.109  1.00  0.00    -0.300 OA
ENDBRANCH   6   7
BRANCH   6   9
ATOM      9  O   UNL     1      59.459  -4.885  -5.703  1.00  0.00    -0.383 OA
ATOM     10  H   UNL     1      59.516  -5.685  -6.289  1.00  0.00     0.211 HD
ENDBRANCH   6   9
ENDBRANCH   5   6
BRANCH   5  11
ATOM     11  O   UNL     1      62.802  -4.747  -6.087  1.00  0.00    -0.387 OA
ATOM     12  H   UNL     1      63.664  -4.612  -5.611  1.00  0.00     0.211 HD
ENDBRANCH   5  11
ENDBRANCH   1   5
BRANCH   1  13
ATOM     13  O   UNL     1      60.930  -4.844  -2.996  1.00  0.00    -0.388 OA
ATOM     14  H   UNL     1      61.141  -3.873  -3.004  1.00  0.00     0.211 HD
ENDBRANCH   1  13
TORSDOF 8
ENDMDL
MODEL 2
REMARK VINA RESULT:    -3.718      0.730      3.871
REMARK INTER + INTRA:          -5.630
REMARK INTER:                  -5.019
REMARK INTRA:                  -0.611
REMARK UNBOUND:                -0.607
REMARK SMILES O=C[C@@H](O)[C@H](O)[C@H](O)CO
REMARK SMILES IDX 7 1 9 2 10 3 5 5 3 6 2 7 1 8 4 9 6 11 8 13
REMARK H PARENT 10 4 4 10 6 12 8 14
REMARK Flexibility Score: inf
ROOT
ATOM      1  C   UNL     1      60.147  -4.420  -6.020  1.00  0.00     0.171 C 
ENDROOT
BRANCH   1   2
ATOM      2  C   UNL     1      60.066  -4.542  -7.557  1.00  0.00     0.190 C 
BRANCH   2   3
ATOM      3  O   UNL     1      61.350  -4.580  -8.114  1.00  0.00    -0.394 OA
ATOM      4  H   UNL     1      61.325  -3.983  -8.907  1.00  0.00     0.210 HD
ENDBRANCH   2   3
ENDBRANCH   1   2
BRANCH   1   5
ATOM      5  C   UNL     1      61.570  -4.661  -5.435  1.00  0.00     0.181 C 
BRANCH   5   6
ATOM      6  C   UNL     1      61.577  -5.470  -4.115  1.00  0.00     0.209 C 
BRANCH   6   7
ATOM      7  C   UNL     1      62.974  -5.856  -3.699  1.00  0.00     0.258 C 
ATOM      8  O   UNL     1      63.633  -5.121  -2.982  1.00  0.00    -0.300 OA
ENDBRANCH   6   7
BRANCH   6   9
ATOM      9  O   UNL     1      60.968  -4.733  -3.084  1.00  0.00    -0.383 OA
ATOM     10  H   UNL     1      60.652  -3.874  -3.471  1.00  0.00     0.211 HD
ENDBRANCH   6   9
ENDBRANCH   5   6
BRANCH   5  11
ATOM     11  O   UNL     1      62.220  -3.433  -5.214  1.00  0.00    -0.387 OA
ATOM     12  H   UNL     1      62.405  -3.032  -6.104  1.00  0.00     0.211 HD
ENDBRANCH   5  11
ENDBRANCH   1   5
BRANCH   1  13
ATOM     13  O   UNL     1      59.230  -5.299  -5.416  1.00  0.00    -0.388 OA
ATOM     14  H   UNL     1      58.686  -5.714  -6.137  1.00  0.00     0.211 HD
ENDBRANCH   1  13
TORSDOF 8
ENDMDL
MODEL 3
REMARK VINA RESULT:    -3.683      1.854      4.103
REMARK INTER + INTRA:          -5.583
REMARK INTER:                  -4.882
REMARK INTRA:                  -0.701
REMARK UNBOUND:                -0.607
REMARK SMILES O=C[C@@H](O)[C@H](O)[C@H](O)CO
REMARK SMILES IDX 7 1 9 2 10 3 5 5 3 6 2 7 1 8 4 9 6 11 8 13
REMARK H PARENT 10 4 4 10 6 12 8 14
REMARK Flexibility Score: inf
ROOT
ATOM      1  C   UNL     1      61.990  -3.412  -7.454  1.00  0.00     0.171 C 
ENDROOT
BRANCH   1   2
ATOM      2  C   UNL     1      63.025  -2.767  -8.401  1.00  0.00     0.190 C 
BRANCH   2   3
ATOM      3  O   UNL     1      63.493  -1.560  -7.867  1.00  0.00    -0.394 OA
ATOM      4  H   UNL     1      62.758  -0.903  -7.984  1.00  0.00     0.210 HD
ENDBRANCH   2   3
ENDBRANCH   1   2
BRANCH   1   5
ATOM      5  C   UNL     1      62.564  -3.823  -6.065  1.00  0.00     0.181 C 
BRANCH   5   6
ATOM      6  C   UNL     1      61.654  -4.792  -5.271  1.00  0.00     0.209 C 
BRANCH   6   7
ATOM      7  C   UNL     1      62.128  -4.971  -3.852  1.00  0.00     0.258 C 
ATOM      8  O   UNL     1      61.859  -4.141  -2.999  1.00  0.00    -0.300 OA
ENDBRANCH   6   7
BRANCH   6   9
ATOM      9  O   UNL     1      60.327  -4.327  -5.268  1.00  0.00    -0.383 OA
ATOM     10  H   UNL     1      60.300  -3.483  -5.793  1.00  0.00     0.211 HD
ENDBRANCH   6   9
ENDBRANCH   5   6
BRANCH   5  11
ATOM     11  O   UNL     1      62.800  -2.680  -5.279  1.00  0.00    -0.387 OA
ATOM     12  H   UNL     1      61.921  -2.253  -5.107  1.00  0.00     0.211 HD
ENDBRANCH   5  11
ENDBRANCH   1   5
BRANCH   1  13
ATOM     13  O   UNL     1      61.398  -4.528  -8.072  1.00  0.00    -0.388 OA
ATOM     14  H   UNL     1      61.203  -4.286  -9.015  1.00  0.00     0.211 HD
ENDBRANCH   1  13
TORSDOF 8
ENDMDL
MODEL 4
REMARK VINA RESULT:    -3.639      1.271      4.526
REMARK INTER + INTRA:          -5.523
REMARK INTER:                  -4.840
REMARK INTRA:                  -0.683
REMARK UNBOUND:                -0.607
REMARK SMILES O=C[C@@H](O)[C@H](O)[C@H](O)CO
REMARK SMILES IDX 7 1 9 2 10 3 5 5 3 6 2 7 1 8 4 9 6 11 8 13
REMARK H PARENT 10 4 4 10 6 12 8 14
REMARK Flexibility Score: inf
ROOT
ATOM      1  C   UNL     1      60.127  -4.709  -7.549  1.00  0.00     0.171 C 
ENDROOT
BRANCH   1   2
ATOM      2  C   UNL     1      58.726  -4.753  -8.194  1.00  0.00     0.190 C 
BRANCH   2   3
ATOM      3  O   UNL     1      58.075  -5.950  -7.872  1.00  0.00    -0.394 OA
ATOM      4  H   UNL     1      57.574  -6.221  -8.686  1.00  0.00     0.210 HD
ENDBRANCH   2   3
ENDBRANCH   1   2
BRANCH   1   5
ATOM      5  C   UNL     1      60.121  -4.359  -6.031  1.00  0.00     0.181 C 
BRANCH   5   6
ATOM      6  C   UNL     1      61.520  -4.405  -5.370  1.00  0.00     0.209 C 
BRANCH   6   7
ATOM      7  C   UNL     1      61.510  -5.194  -4.087  1.00  0.00     0.258 C 
ATOM      8  O   UNL     1      61.079  -4.699  -3.058  1.00  0.00    -0.300 OA
ENDBRANCH   6   7
BRANCH   6   9
ATOM      9  O   UNL     1      62.462  -4.960  -6.255  1.00  0.00    -0.383 OA
ATOM     10  H   UNL     1      63.284  -4.402  -6.213  1.00  0.00     0.211 HD
ENDBRANCH   6   9
ENDBRANCH   5   6
BRANCH   5  11
ATOM     11  O   UNL     1      59.265  -5.233  -5.335  1.00  0.00    -0.387 OA
ATOM     12  H   UNL     1      59.374  -5.044  -4.366  1.00  0.00     0.211 HD
ENDBRANCH   5  11
ENDBRANCH   1   5
BRANCH   1  13
ATOM     13  O   UNL     1      60.950  -3.801  -8.242  1.00  0.00    -0.388 OA
ATOM     14  H   UNL     1      60.769  -2.893  -7.884  1.00  0.00     0.211 HD
ENDBRANCH   1  13
TORSDOF 8
ENDMDL
MODEL 5
REMARK VINA RESULT:    -3.621      1.840      3.574
REMARK INTER + INTRA:          -5.498
REMARK INTER:                  -4.798
REMARK INTRA:                  -0.700
REMARK UNBOUND:                -0.607
REMARK SMILES O=C[C@@H](O)[C@H](O)[C@H](O)CO
REMARK SMILES IDX 7 1 9 2 10 3 5 5 3 6 2 7 1 8 4 9 6 11 8 13
REMARK H PARENT 10 4 4 10 6 12 8 14
REMARK Flexibility Score: inf
ROOT
ATOM      1  C   UNL     1      63.260  -3.613  -5.272  1.00  0.00     0.171 C 
ENDROOT
BRANCH   1   2
ATOM      2  C   UNL     1      63.758  -3.143  -6.655  1.00  0.00     0.190 C 
BRANCH   2   3
ATOM      3  O   UNL     1      62.827  -2.279  -7.244  1.00  0.00    -0.394 OA
ATOM      4  H   UNL     1      63.297  -1.415  -7.378  1.00  0.00     0.210 HD
ENDBRANCH   2   3
ENDBRANCH   1   2
BRANCH   1   5
ATOM      5  C   UNL     1      61.837  -4.245  -5.286  1.00  0.00     0.181 C 
BRANCH   5   6
ATOM      6  C   UNL     1      61.558  -5.192  -4.093  1.00  0.00     0.209 C 
BRANCH   6   7
ATOM      7  C   UNL     1      62.688  -6.163  -3.870  1.00  0.00     0.258 C 
ATOM      8  O   UNL     1      63.039  -6.922  -4.759  1.00  0.00    -0.300 OA
ENDBRANCH   6   7
BRANCH   6   9
ATOM      9  O   UNL     1      61.338  -4.450  -2.919  1.00  0.00    -0.383 OA
ATOM     10  H   UNL     1      60.955  -5.064  -2.239  1.00  0.00     0.211 HD
ENDBRANCH   6   9
ENDBRANCH   5   6
BRANCH   5  11
ATOM     11  O   UNL     1      61.632  -4.956  -6.483  1.00  0.00    -0.387 OA
ATOM     12  H   UNL     1      60.983  -4.438  -7.027  1.00  0.00     0.211 HD
ENDBRANCH   5  11
ENDBRANCH   1   5
BRANCH   1  13
ATOM     13  O   UNL     1      63.296  -2.545  -4.357  1.00  0.00    -0.388 OA
ATOM     14  H   UNL     1      63.590  -2.906  -3.480  1.00  0.00     0.211 HD
ENDBRANCH   1  13
TORSDOF 8
ENDMDL
MODEL 6
REMARK VINA RESULT:    -3.615     15.638     16.973
REMARK INTER + INTRA:          -5.491
REMARK INTER:                  -5.361
REMARK INTRA:                  -0.130
REMARK UNBOUND:                -0.607
REMARK SMILES O=C[C@@H](O)[C@H](O)[C@H](O)CO
REMARK SMILES IDX 7 1 9 2 10 3 5 5 3 6 2 7 1 8 4 9 6 11 8 13
REMARK H PARENT 10 4 4 10 6 12 8 14
REMARK Flexibility Score: inf
ROOT
ATOM      1  C   UNL     1      46.473  -6.533   0.748  1.00  0.00     0.171 C 
ENDROOT
BRANCH   1   2
ATOM      2  C   UNL     1      45.126  -6.460   1.498  1.00  0.00     0.190 C 
BRANCH   2   3
ATOM      3  O   UNL     1      44.861  -5.147   1.904  1.00  0.00    -0.394 OA
ATOM      4  H   UNL     1      44.120  -4.823   1.328  1.00  0.00     0.210 HD
ENDBRANCH   2   3
ENDBRANCH   1   2
BRANCH   1   5
ATOM      5  C   UNL     1      47.620  -7.205   1.559  1.00  0.00     0.181 C 
BRANCH   5   6
ATOM      6  C   UNL     1      47.176  -7.762   2.933  1.00  0.00     0.209 C 
BRANCH   6   7
ATOM      7  C   UNL     1      47.116  -9.268   2.937  1.00  0.00     0.258 C 
ATOM      8  O   UNL     1      46.846  -9.875   3.960  1.00  0.00    -0.300 OA
ENDBRANCH   6   7
BRANCH   6   9
ATOM      9  O   UNL     1      48.049  -7.325   3.945  1.00  0.00    -0.383 OA
ATOM     10  H   UNL     1      48.874  -7.875   3.893  1.00  0.00     0.211 HD
ENDBRANCH   6   9
ENDBRANCH   5   6
BRANCH   5  11
ATOM     11  O   UNL     1      48.672  -6.292   1.762  1.00  0.00    -0.387 OA
ATOM     12  H   UNL     1      49.521  -6.773   1.577  1.00  0.00     0.211 HD
ENDBRANCH   5  11
ENDBRANCH   1   5
BRANCH   1  13
ATOM     13  O   UNL     1      46.870  -5.246   0.341  1.00  0.00    -0.388 OA
ATOM     14  H   UNL     1      46.087  -4.805  -0.081  1.00  0.00     0.211 HD
ENDBRANCH   1  13
TORSDOF 8
ENDMDL
MODEL 7
REMARK VINA RESULT:    -3.613     15.048     16.145
REMARK INTER + INTRA:          -5.487
REMARK INTER:                  -4.984
REMARK INTRA:                  -0.503
REMARK UNBOUND:                -0.607
REMARK SMILES O=C[C@@H](O)[C@H](O)[C@H](O)CO
REMARK SMILES IDX 7 1 9 2 10 3 5 5 3 6 2 7 1 8 4 9 6 11 8 13
REMARK H PARENT 10 4 4 10 6 12 8 14
REMARK Flexibility Score: inf
ROOT
ATOM      1  C   UNL     1      47.545  -8.190   0.539  1.00  0.00     0.171 C 
ENDROOT
BRANCH   1   2
ATOM      2  C   UNL     1      48.905  -8.906   0.673  1.00  0.00     0.190 C 
BRANCH   2   3
ATOM      3  O   UNL     1      49.862  -8.301  -0.152  1.00  0.00    -0.394 OA
ATOM      4  H   UNL     1      49.514  -8.373  -1.078  1.00  0.00     0.210 HD
ENDBRANCH   2   3
ENDBRANCH   1   2
BRANCH   1   5
ATOM      5  C   UNL     1      47.377  -6.956   1.476  1.00  0.00     0.181 C 
BRANCH   5   6
ATOM      6  C   UNL     1      46.160  -6.066   1.130  1.00  0.00     0.209 C 
BRANCH   6   7
ATOM      7  C   UNL     1      45.005  -6.301   2.070  1.00  0.00     0.258 C 
ATOM      8  O   UNL     1      44.930  -7.336   2.712  1.00  0.00    -0.300 OA
ENDBRANCH   6   7
BRANCH   6   9
ATOM      9  O   UNL     1      46.521  -4.707   1.163  1.00  0.00    -0.383 OA
ATOM     10  H   UNL     1      47.168  -4.547   0.426  1.00  0.00     0.211 HD
ENDBRANCH   6   9
ENDBRANCH   5   6
BRANCH   5  11
ATOM     11  O   UNL     1      48.539  -6.163   1.448  1.00  0.00    -0.387 OA
ATOM     12  H   UNL     1      48.505  -5.619   0.618  1.00  0.00     0.211 HD
ENDBRANCH   5  11
ENDBRANCH   1   5
BRANCH   1  13
ATOM     13  O   UNL     1      46.495  -9.100   0.760  1.00  0.00    -0.388 OA
ATOM     14  H   UNL     1      46.318  -9.128   1.737  1.00  0.00     0.211 HD
ENDBRANCH   1  13
TORSDOF 8
ENDMDL
MODEL 8
REMARK VINA RESULT:    -3.599      1.609      3.969
REMARK INTER + INTRA:          -5.469
REMARK INTER:                  -4.545
REMARK INTRA:                  -0.924
REMARK UNBOUND:                -0.607
REMARK SMILES O=C[C@@H](O)[C@H](O)[C@H](O)CO
REMARK SMILES IDX 7 1 9 2 10 3 5 5 3 6 2 7 1 8 4 9 6 11 8 13
REMARK H PARENT 10 4 4 10 6 12 8 14
REMARK Flexibility Score: inf
ROOT
ATOM      1  C   UNL     1      61.388  -4.210  -7.107  1.00  0.00     0.171 C 
ENDROOT
BRANCH   1   2
ATOM      2  C   UNL     1      59.979  -4.081  -6.491  1.00  0.00     0.190 C 
BRANCH   2   3
ATOM      3  O   UNL     1      59.954  -4.634  -5.204  1.00  0.00    -0.394 OA
ATOM      4  H   UNL     1      60.549  -4.067  -4.648  1.00  0.00     0.210 HD
ENDBRANCH   2   3
ENDBRANCH   1   2
BRANCH   1   5
ATOM      5  C   UNL     1      62.485  -3.384  -6.371  1.00  0.00     0.181 C 
BRANCH   5   6
ATOM      6  C   UNL     1      63.265  -4.188  -5.302  1.00  0.00     0.209 C 
BRANCH   6   7
ATOM      7  C   UNL     1      63.063  -3.627  -3.918  1.00  0.00     0.258 C 
ATOM      8  O   UNL     1      62.157  -4.035  -3.210  1.00  0.00    -0.300 OA
ENDBRANCH   6   7
BRANCH   6   9
ATOM      9  O   UNL     1      62.875  -5.539  -5.323  1.00  0.00    -0.383 OA
ATOM     10  H   UNL     1      63.299  -5.990  -4.546  1.00  0.00     0.211 HD
ENDBRANCH   6   9
ENDBRANCH   5   6
BRANCH   5  11
ATOM     11  O   UNL     1      61.914  -2.254  -5.757  1.00  0.00    -0.387 OA
ATOM     12  H   UNL     1      61.058  -2.065  -6.225  1.00  0.00     0.211 HD
ENDBRANCH   5  11
ENDBRANCH   1   5
BRANCH   1  13
ATOM     13  O   UNL     1      61.356  -3.850  -8.467  1.00  0.00    -0.388 OA
ATOM     14  H   UNL     1      62.096  -4.328  -8.925  1.00  0.00     0.211 HD
ENDBRANCH   1  13
TORSDOF 8
ENDMDL
MODEL 9
REMARK VINA RESULT:    -3.583     16.188     17.453
REMARK INTER + INTRA:          -5.447
REMARK INTER:                  -4.718
REMARK INTRA:                  -0.729
REMARK UNBOUND:                -0.607
REMARK SMILES O=C[C@@H](O)[C@H](O)[C@H](O)CO
REMARK SMILES IDX 7 1 9 2 10 3 5 5 3 6 2 7 1 8 4 9 6 11 8 13
REMARK H PARENT 10 4 4 10 6 12 8 14
REMARK Flexibility Score: inf
ROOT
ATOM      1  C   UNL     1      45.764  -6.203   1.636  1.00  0.00     0.171 C 
ENDROOT
BRANCH   1   2
ATOM      2  C   UNL     1      45.750  -6.692   0.172  1.00  0.00     0.190 C 
BRANCH   2   3
ATOM      3  O   UNL     1      46.981  -7.267  -0.166  1.00  0.00    -0.394 OA
ATOM      4  H   UNL     1      47.665  -6.798   0.381  1.00  0.00     0.210 HD
ENDBRANCH   2   3
ENDBRANCH   1   2
BRANCH   1   5
ATOM      5  C   UNL     1      45.755  -7.348   2.692  1.00  0.00     0.181 C 
BRANCH   5   6
ATOM      6  C   UNL     1      47.140  -7.635   3.320  1.00  0.00     0.209 C 
BRANCH   6   7
ATOM      7  C   UNL     1      47.471  -9.105   3.304  1.00  0.00     0.258 C 
ATOM      8  O   UNL     1      46.876  -9.882   4.033  1.00  0.00    -0.300 OA
ENDBRANCH   6   7
BRANCH   6   9
ATOM      9  O   UNL     1      48.144  -6.921   2.641  1.00  0.00    -0.383 OA
ATOM     10  H   UNL     1      48.818  -7.576   2.319  1.00  0.00     0.211 HD
ENDBRANCH   6   9
ENDBRANCH   5   6
BRANCH   5  11
ATOM     11  O   UNL     1      45.266  -8.535   2.117  1.00  0.00    -0.387 OA
ATOM     12  H   UNL     1      45.206  -8.387   1.137  1.00  0.00     0.211 HD
ENDBRANCH   5  11
ENDBRANCH   1   5
BRANCH   1  13
ATOM     13  O   UNL     1      44.681  -5.336   1.867  1.00  0.00    -0.388 OA
ATOM     14  H   UNL     1      43.870  -5.892   2.004  1.00  0.00     0.211 HD
ENDBRANCH   1  13
TORSDOF 8
ENDMDL
