MODEL 1
REMARK VINA RESULT:    -4.436      0.000      0.000
REMARK INTER + INTRA:         -16.609
REMARK INTER:                 -11.696
REMARK INTRA:                  -4.913
REMARK UNBOUND:                -4.913
REMARK SMILES CCCCCCCCCCCCCCCCCCCCCCCCCCCCCC(=O)[O-]
REMARK SMILES IDX 16 1 17 2 18 3 19 4 20 5 21 6 22 7 23 8 24 9 25 10 26 11
REMARK SMILES IDX 27 12 28 13 29 14 30 15 31 16 32 17 15 18 14 19 13 20 12 21
REMARK SMILES IDX 11 22 10 23 9 24 8 25 7 26 6 27 5 28 4 29 3 30 2 31 1 32
REMARK H PARENT
REMARK Flexibility Score: inf
ROOT
ATOM      1  C   UNL     1     -10.078   0.362   3.729  1.00  0.00     0.000 C 
ENDROOT
BRANCH   1   2
ATOM      2  C   UNL     1      -8.979   0.061   2.694  1.00  0.00     0.000 C 
BRANCH   2   3
ATOM      3  C   UNL     1      -9.260  -1.217   1.875  1.00  0.00     0.000 C 
BRANCH   3   4
ATOM      4  C   UNL     1     -10.470  -2.029   2.375  1.00  0.00     0.000 C 
BRANCH   4   5
ATOM      5  C   UNL     1     -10.143  -3.444   2.879  1.00  0.00     0.000 C 
BRANCH   5   6
ATOM      6  C   UNL     1      -8.933  -3.476   3.826  1.00  0.00     0.000 C 
BRANCH   6   7
ATOM      7  C   UNL     1      -9.357  -3.188   5.275  1.00  0.00     0.000 C 
BRANCH   7   8
ATOM      8  C   UNL     1      -8.682  -4.137   6.288  1.00  0.00     0.000 C 
BRANCH   8   9
ATOM      9  C   UNL     1      -8.950  -5.628   6.019  1.00  0.00     0.000 C 
BRANCH   9  10
ATOM     10  C   UNL     1      -9.990  -6.233   6.971  1.00  0.00     0.000 C 
BRANCH  10  11
ATOM     11  C   UNL     1     -10.985  -7.124   6.214  1.00  0.00     0.000 C 
BRANCH  11  12
ATOM     12  C   UNL     1     -11.455  -6.440   4.920  1.00  0.00     0.000 C 
BRANCH  12  13
ATOM     13  C   UNL     1     -12.672  -5.524   5.138  1.00  0.00     0.006 C 
BRANCH  13  14
ATOM     14  C   UNL     1     -13.179  -4.834   3.861  1.00  0.00     0.053 C 
BRANCH  14  15
ATOM     15  C   UNL     1     -14.437  -5.460   3.341  1.00  0.00     0.041 C 
ATOM     16  O   UNL     1     -14.398  -6.588   2.782  1.00  0.00    -0.550 OA
ATOM     17  O   UNL     1     -15.651  -4.797   3.472  1.00  0.00    -0.550 OA
ENDBRANCH  14  15
ENDBRANCH  13  14
ENDBRANCH  12  13
ENDBRANCH  11  12
ENDBRANCH  10  11
ENDBRANCH   9  10
ENDBRANCH   8   9
ENDBRANCH   7   8
ENDBRANCH   6   7
ENDBRANCH   5   6
ENDBRANCH   4   5
ENDBRANCH   3   4
ENDBRANCH   2   3
ENDBRANCH   1   2
BRANCH   1  18
ATOM     18  C   UNL     1     -10.526   1.839   3.685  1.00  0.00     0.000 C 
BRANCH  18  19
ATOM     19  C   UNL     1     -11.403   2.178   2.467  1.00  0.00     0.000 C 
BRANCH  19  20
ATOM     20  C   UNL     1     -12.536   1.164   2.246  1.00  0.00     0.000 C 
BRANCH  20  21
ATOM     21  C   UNL     1     -13.888   1.748   2.670  1.00  0.00     0.000 C 
BRANCH  21  22
ATOM     22  C   UNL     1     -13.868   3.282   2.604  1.00  0.00     0.000 C 
BRANCH  22  23
ATOM     23  C   UNL     1     -14.897   3.936   3.542  1.00  0.00     0.000 C 
BRANCH  23  24
ATOM     24  C   UNL     1     -16.336   3.923   2.989  1.00  0.00    -0.000 C 
BRANCH  24  25
ATOM     25  C   UNL     1     -17.326   3.264   3.961  1.00  0.00    -0.000 C 
BRANCH  25  26
ATOM     26  C   UNL     1     -17.564   1.792   3.591  1.00  0.00    -0.000 C 
BRANCH  26  27
ATOM     27  C   UNL     1     -16.888   0.812   4.565  1.00  0.00    -0.000 C 
BRANCH  27  28
ATOM     28  C   UNL     1     -16.467   1.419   5.921  1.00  0.00    -0.000 C 
BRANCH  28  29
ATOM     29  C   UNL     1     -14.956   1.385   6.211  1.00  0.00    -0.000 C 
BRANCH  29  30
ATOM     30  C   UNL     1     -14.427  -0.035   6.460  1.00  0.00    -0.000 C 
BRANCH  30  31
ATOM     31  C   UNL     1     -13.240  -0.346   5.542  1.00  0.00    -0.003 C 
ATOM     32  C   UNL     1     -12.719  -1.761   5.772  1.00  0.00     0.004 C 
ENDBRANCH  30  31
ENDBRANCH  29  30
ENDBRANCH  28  29
ENDBRANCH  27  28
ENDBRANCH  26  27
ENDBRANCH  25  26
ENDBRANCH  24  25
ENDBRANCH  23  24
ENDBRANCH  22  23
ENDBRANCH  21  22
ENDBRANCH  20  21
ENDBRANCH  19  20
ENDBRANCH  18  19
ENDBRANCH   1  18
TORSDOF 28
ENDMDL
MODEL 2
REMARK VINA RESULT:    -4.408      2.597      7.477
REMARK INTER + INTRA:         -16.537
REMARK INTER:                 -11.444
REMARK INTRA:                  -5.093
REMARK UNBOUND:                -4.913
REMARK SMILES CCCCCCCCCCCCCCCCCCCCCCCCCCCCCC(=O)[O-]
REMARK SMILES IDX 16 1 17 2 18 3 19 4 20 5 21 6 22 7 23 8 24 9 25 10 26 11
REMARK SMILES IDX 27 12 28 13 29 14 30 15 31 16 32 17 15 18 14 19 13 20 12 21
REMARK SMILES IDX 11 22 10 23 9 24 8 25 7 26 6 27 5 28 4 29 3 30 2 31 1 32
REMARK H PARENT
REMARK Flexibility Score: inf
ROOT
ATOM      1  C   UNL     1     -10.170   0.848   3.336  1.00  0.00     0.000 C 
ENDROOT
BRANCH   1   2
ATOM      2  C   UNL     1     -11.127   1.033   2.144  1.00  0.00     0.000 C 
BRANCH   2   3
ATOM      3  C   UNL     1     -12.584   0.650   2.480  1.00  0.00     0.000 C 
BRANCH   3   4
ATOM      4  C   UNL     1     -12.758  -0.804   2.957  1.00  0.00     0.000 C 
BRANCH   4   5
ATOM      5  C   UNL     1     -13.576  -0.974   4.248  1.00  0.00     0.000 C 
BRANCH   5   6
ATOM      6  C   UNL     1     -12.706  -0.940   5.515  1.00  0.00     0.000 C 
BRANCH   6   7
ATOM      7  C   UNL     1     -13.465  -1.514   6.722  1.00  0.00     0.000 C 
BRANCH   7   8
ATOM      8  C   UNL     1     -14.017  -0.411   7.650  1.00  0.00     0.000 C 
BRANCH   8   9
ATOM      9  C   UNL     1     -15.468  -0.647   8.104  1.00  0.00     0.000 C 
BRANCH   9  10
ATOM     10  C   UNL     1     -16.453  -0.761   6.934  1.00  0.00     0.000 C 
BRANCH  10  11
ATOM     11  C   UNL     1     -16.698   0.605   6.277  1.00  0.00     0.000 C 
BRANCH  11  12
ATOM     12  C   UNL     1     -16.887   0.455   4.760  1.00  0.00     0.000 C 
BRANCH  12  13
ATOM     13  C   UNL     1     -16.057   1.468   3.951  1.00  0.00     0.006 C 
BRANCH  13  14
ATOM     14  C   UNL     1     -16.871   2.645   3.390  1.00  0.00     0.053 C 
BRANCH  14  15
ATOM     15  C   UNL     1     -15.993   3.772   2.937  1.00  0.00     0.041 C 
ATOM     16  O   UNL     1     -14.766   3.576   2.736  1.00  0.00    -0.550 OA
ATOM     17  O   UNL     1     -16.530   5.039   2.742  1.00  0.00    -0.550 OA
ENDBRANCH  14  15
ENDBRANCH  13  14
ENDBRANCH  12  13
ENDBRANCH  11  12
ENDBRANCH  10  11
ENDBRANCH   9  10
ENDBRANCH   8   9
ENDBRANCH   7   8
ENDBRANCH   6   7
ENDBRANCH   5   6
ENDBRANCH   4   5
ENDBRANCH   3   4
ENDBRANCH   2   3
ENDBRANCH   1   2
BRANCH   1  18
ATOM     18  C   UNL     1      -8.975  -0.064   2.983  1.00  0.00     0.000 C 
BRANCH  18  19
ATOM     19  C   UNL     1      -9.317  -1.148   1.946  1.00  0.00     0.000 C 
BRANCH  19  20
ATOM     20  C   UNL     1      -9.769  -2.467   2.588  1.00  0.00     0.000 C 
BRANCH  20  21
ATOM     21  C   UNL     1      -9.551  -2.445   4.106  1.00  0.00     0.000 C 
BRANCH  21  22
ATOM     22  C   UNL     1      -8.504  -3.487   4.525  1.00  0.00     0.000 C 
BRANCH  22  23
ATOM     23  C   UNL     1      -8.567  -3.831   6.022  1.00  0.00     0.000 C 
BRANCH  23  24
ATOM     24  C   UNL     1      -9.219  -5.198   6.317  1.00  0.00    -0.000 C 
BRANCH  24  25
ATOM     25  C   UNL     1      -9.469  -6.010   5.038  1.00  0.00    -0.000 C 
BRANCH  25  26
ATOM     26  C   UNL     1     -10.950  -6.398   4.912  1.00  0.00    -0.000 C 
BRANCH  26  27
ATOM     27  C   UNL     1     -11.900  -5.328   5.480  1.00  0.00    -0.000 C 
BRANCH  27  28
ATOM     28  C   UNL     1     -12.664  -4.502   4.424  1.00  0.00    -0.000 C 
BRANCH  28  29
ATOM     29  C   UNL     1     -13.451  -5.328   3.391  1.00  0.00    -0.000 C 
BRANCH  29  30
ATOM     30  C   UNL     1     -14.970  -5.271   3.613  1.00  0.00    -0.000 C 
BRANCH  30  31
ATOM     31  C   UNL     1     -15.325  -4.265   4.714  1.00  0.00    -0.003 C 
ATOM     32  C   UNL     1     -16.386  -3.277   4.239  1.00  0.00     0.004 C 
ENDBRANCH  30  31
ENDBRANCH  29  30
ENDBRANCH  28  29
ENDBRANCH  27  28
ENDBRANCH  26  27
ENDBRANCH  25  26
ENDBRANCH  24  25
ENDBRANCH  23  24
ENDBRANCH  22  23
ENDBRANCH  21  22
ENDBRANCH  20  21
ENDBRANCH  19  20
ENDBRANCH  18  19
ENDBRANCH   1  18
TORSDOF 28
ENDMDL
MODEL 3
REMARK VINA RESULT:    -4.397      2.294      7.199
REMARK INTER + INTRA:         -16.507
REMARK INTER:                 -11.339
REMARK INTRA:                  -5.168
REMARK UNBOUND:                -4.913
REMARK SMILES CCCCCCCCCCCCCCCCCCCCCCCCCCCCCC(=O)[O-]
REMARK SMILES IDX 16 1 17 2 18 3 19 4 20 5 21 6 22 7 23 8 24 9 25 10 26 11
REMARK SMILES IDX 27 12 28 13 29 14 30 15 31 16 32 17 15 18 14 19 13 20 12 21
REMARK SMILES IDX 11 22 10 23 9 24 8 25 7 26 6 27 5 28 4 29 3 30 2 31 1 32
REMARK H PARENT
REMARK Flexibility Score: inf
ROOT
ATOM      1  C   UNL     1      -8.623  -1.246   2.760  1.00  0.00     0.000 C 
ENDROOT
BRANCH   1   2
ATOM      2  C   UNL     1      -9.525  -0.162   2.143  1.00  0.00     0.000 C 
BRANCH   2   3
ATOM      3  C   UNL     1      -9.840   0.987   3.125  1.00  0.00     0.000 C 
BRANCH   3   4
ATOM      4  C   UNL     1     -11.297   1.483   3.066  1.00  0.00     0.000 C 
BRANCH   4   5
ATOM      5  C   UNL     1     -11.969   1.700   4.431  1.00  0.00     0.000 C 
BRANCH   5   6
ATOM      6  C   UNL     1     -13.221   0.830   4.625  1.00  0.00     0.000 C 
BRANCH   6   7
ATOM      7  C   UNL     1     -13.305  -0.265   3.549  1.00  0.00     0.000 C 
BRANCH   7   8
ATOM      8  C   UNL     1     -13.330  -1.686   4.153  1.00  0.00     0.000 C 
BRANCH   8   9
ATOM      9  C   UNL     1     -12.353  -1.882   5.325  1.00  0.00     0.000 C 
BRANCH   9  10
ATOM     10  C   UNL     1     -12.835  -2.927   6.341  1.00  0.00     0.000 C 
BRANCH  10  11
ATOM     11  C   UNL     1     -14.242  -2.593   6.856  1.00  0.00     0.000 C 
BRANCH  11  12
ATOM     12  C   UNL     1     -14.218  -1.328   7.727  1.00  0.00     0.000 C 
BRANCH  12  13
ATOM     13  C   UNL     1     -15.359  -0.350   7.392  1.00  0.00     0.006 C 
BRANCH  13  14
ATOM     14  C   UNL     1     -16.416  -0.920   6.432  1.00  0.00     0.053 C 
BRANCH  14  15
ATOM     15  C   UNL     1     -16.732   0.028   5.315  1.00  0.00     0.041 C 
ATOM     16  O   UNL     1     -16.943  -0.411   4.154  1.00  0.00    -0.550 OA
ATOM     17  O   UNL     1     -16.788   1.395   5.556  1.00  0.00    -0.550 OA
ENDBRANCH  14  15
ENDBRANCH  13  14
ENDBRANCH  12  13
ENDBRANCH  11  12
ENDBRANCH  10  11
ENDBRANCH   9  10
ENDBRANCH   8   9
ENDBRANCH   7   8
ENDBRANCH   6   7
ENDBRANCH   5   6
ENDBRANCH   4   5
ENDBRANCH   3   4
ENDBRANCH   2   3
ENDBRANCH   1   2
BRANCH   1  18
ATOM     18  C   UNL     1      -9.442  -2.423   3.335  1.00  0.00     0.000 C 
BRANCH  18  19
ATOM     19  C   UNL     1      -8.608  -3.384   4.199  1.00  0.00     0.000 C 
BRANCH  19  20
ATOM     20  C   UNL     1      -9.093  -3.453   5.654  1.00  0.00     0.000 C 
BRANCH  20  21
ATOM     21  C   UNL     1      -8.305  -4.501   6.449  1.00  0.00     0.000 C 
BRANCH  21  22
ATOM     22  C   UNL     1      -9.237  -5.598   6.984  1.00  0.00     0.000 C 
BRANCH  22  23
ATOM     23  C   UNL     1      -9.099  -6.926   6.220  1.00  0.00     0.000 C 
BRANCH  23  24
ATOM     24  C   UNL     1      -9.867  -6.953   4.882  1.00  0.00    -0.000 C 
BRANCH  24  25
ATOM     25  C   UNL     1     -11.349  -6.589   5.055  1.00  0.00    -0.000 C 
BRANCH  25  26
ATOM     26  C   UNL     1     -11.721  -5.373   4.194  1.00  0.00    -0.000 C 
BRANCH  26  27
ATOM     27  C   UNL     1     -13.115  -5.496   3.552  1.00  0.00    -0.000 C 
BRANCH  27  28
ATOM     28  C   UNL     1     -13.900  -6.771   3.927  1.00  0.00    -0.000 C 
BRANCH  28  29
ATOM     29  C   UNL     1     -15.055  -7.131   2.976  1.00  0.00    -0.000 C 
BRANCH  29  30
ATOM     30  C   UNL     1     -15.900  -5.913   2.575  1.00  0.00    -0.000 C 
BRANCH  30  31
ATOM     31  C   UNL     1     -16.765  -5.437   3.747  1.00  0.00    -0.003 C 
ATOM     32  C   UNL     1     -16.421  -4.005   4.142  1.00  0.00     0.004 C 
ENDBRANCH  30  31
ENDBRANCH  29  30
ENDBRANCH  28  29
ENDBRANCH  27  28
ENDBRANCH  26  27
ENDBRANCH  25  26
ENDBRANCH  24  25
ENDBRANCH  23  24
ENDBRANCH  22  23
ENDBRANCH  21  22
ENDBRANCH  20  21
ENDBRANCH  19  20
ENDBRANCH  18  19
ENDBRANCH   1  18
TORSDOF 28
ENDMDL
MODEL 4
REMARK VINA RESULT:    -4.333      2.795      6.897
REMARK INTER + INTRA:         -16.337
REMARK INTER:                 -10.942
REMARK INTRA:                  -5.395
REMARK UNBOUND:                -4.913
REMARK SMILES CCCCCCCCCCCCCCCCCCCCCCCCCCCCCC(=O)[O-]
REMARK SMILES IDX 16 1 17 2 18 3 19 4 20 5 21 6 22 7 23 8 24 9 25 10 26 11
REMARK SMILES IDX 27 12 28 13 29 14 30 15 31 16 32 17 15 18 14 19 13 20 12 21
REMARK SMILES IDX 11 22 10 23 9 24 8 25 7 26 6 27 5 28 4 29 3 30 2 31 1 32
REMARK H PARENT
REMARK Flexibility Score: inf
ROOT
ATOM      1  C   UNL     1     -11.087  -6.680   5.216  1.00  0.00     0.000 C 
ENDROOT
BRANCH   1   2
ATOM      2  C   UNL     1     -11.113  -6.403   6.730  1.00  0.00     0.000 C 
BRANCH   2   3
ATOM      3  C   UNL     1      -9.703  -6.195   7.325  1.00  0.00     0.000 C 
BRANCH   3   4
ATOM      4  C   UNL     1      -8.656  -5.710   6.305  1.00  0.00     0.000 C 
BRANCH   4   5
ATOM      5  C   UNL     1      -8.321  -4.211   6.376  1.00  0.00     0.000 C 
BRANCH   5   6
ATOM      6  C   UNL     1      -9.261  -3.348   5.520  1.00  0.00     0.000 C 
BRANCH   6   7
ATOM      7  C   UNL     1      -9.173  -3.739   4.036  1.00  0.00     0.000 C 
BRANCH   7   8
ATOM      8  C   UNL     1     -10.485  -3.457   3.272  1.00  0.00     0.000 C 
BRANCH   8   9
ATOM      9  C   UNL     1     -10.419  -2.226   2.352  1.00  0.00     0.000 C 
BRANCH   9  10
ATOM     10  C   UNL     1      -9.011  -1.625   2.252  1.00  0.00     0.000 C 
BRANCH  10  11
ATOM     11  C   UNL     1      -9.032  -0.113   2.521  1.00  0.00     0.000 C 
BRANCH  11  12
ATOM     12  C   UNL     1      -9.968   0.219   3.693  1.00  0.00     0.000 C 
BRANCH  12  13
ATOM     13  C   UNL     1     -10.465   1.675   3.666  1.00  0.00     0.006 C 
BRANCH  13  14
ATOM     14  C   UNL     1     -11.318   2.028   2.436  1.00  0.00     0.053 C 
BRANCH  14  15
ATOM     15  C   UNL     1     -12.497   2.880   2.793  1.00  0.00     0.041 C 
ATOM     16  O   UNL     1     -13.398   3.102   1.941  1.00  0.00    -0.550 OA
ATOM     17  O   UNL     1     -12.599   3.432   4.064  1.00  0.00    -0.550 OA
ENDBRANCH  14  15
ENDBRANCH  13  14
ENDBRANCH  12  13
ENDBRANCH  11  12
ENDBRANCH  10  11
ENDBRANCH   9  10
ENDBRANCH   8   9
ENDBRANCH   7   8
ENDBRANCH   6   7
ENDBRANCH   5   6
ENDBRANCH   4   5
ENDBRANCH   3   4
ENDBRANCH   2   3
ENDBRANCH   1   2
BRANCH   1  18
ATOM     18  C   UNL     1     -12.486  -6.533   4.577  1.00  0.00     0.000 C 
BRANCH  18  19
ATOM     19  C   UNL     1     -13.540  -7.472   5.190  1.00  0.00     0.000 C 
BRANCH  19  20
ATOM     20  C   UNL     1     -14.826  -7.553   4.354  1.00  0.00     0.000 C 
BRANCH  20  21
ATOM     21  C   UNL     1     -14.650  -6.849   3.003  1.00  0.00     0.000 C 
BRANCH  21  22
ATOM     22  C   UNL     1     -15.699  -5.743   2.820  1.00  0.00     0.000 C 
BRANCH  22  23
ATOM     23  C   UNL     1     -16.172  -5.139   4.153  1.00  0.00     0.000 C 
BRANCH  23  24
ATOM     24  C   UNL     1     -15.844  -3.639   4.305  1.00  0.00    -0.000 C 
BRANCH  24  25
ATOM     25  C   UNL     1     -14.342  -3.356   4.153  1.00  0.00    -0.000 C 
BRANCH  25  26
ATOM     26  C   UNL     1     -13.626  -3.439   5.510  1.00  0.00    -0.000 C 
BRANCH  26  27
ATOM     27  C   UNL     1     -12.747  -2.209   5.801  1.00  0.00    -0.000 C 
BRANCH  27  28
ATOM     28  C   UNL     1     -13.034  -0.974   4.921  1.00  0.00    -0.000 C 
BRANCH  28  29
ATOM     29  C   UNL     1     -13.311   0.329   5.692  1.00  0.00    -0.000 C 
BRANCH  29  30
ATOM     30  C   UNL     1     -14.420   0.175   6.744  1.00  0.00    -0.000 C 
BRANCH  30  31
ATOM     31  C   UNL     1     -15.740  -0.248   6.091  1.00  0.00    -0.003 C 
ATOM     32  C   UNL     1     -16.554  -1.143   7.020  1.00  0.00     0.004 C 
ENDBRANCH  30  31
ENDBRANCH  29  30
ENDBRANCH  28  29
ENDBRANCH  27  28
ENDBRANCH  26  27
ENDBRANCH  25  26
ENDBRANCH  24  25
ENDBRANCH  23  24
ENDBRANCH  22  23
ENDBRANCH  21  22
ENDBRANCH  20  21
ENDBRANCH  19  20
ENDBRANCH  18  19
ENDBRANCH   1  18
TORSDOF 28
ENDMDL
MODEL 5
REMARK VINA RESULT:    -4.298      1.204      3.166
REMARK INTER + INTRA:         -16.247
REMARK INTER:                 -10.956
REMARK INTRA:                  -5.291
REMARK UNBOUND:                -4.913
REMARK SMILES CCCCCCCCCCCCCCCCCCCCCCCCCCCCCC(=O)[O-]
REMARK SMILES IDX 16 1 17 2 18 3 19 4 20 5 21 6 22 7 23 8 24 9 25 10 26 11
REMARK SMILES IDX 27 12 28 13 29 14 30 15 31 16 32 17 15 18 14 19 13 20 12 21
REMARK SMILES IDX 11 22 10 23 9 24 8 25 7 26 6 27 5 28 4 29 3 30 2 31 1 32
REMARK H PARENT
REMARK Flexibility Score: inf
ROOT
ATOM      1  C   UNL     1      -8.989  -0.116   3.002  1.00  0.00     0.000 C 
ENDROOT
BRANCH   1   2
ATOM      2  C   UNL     1      -9.014  -1.166   1.876  1.00  0.00     0.000 C 
BRANCH   2   3
ATOM      3  C   UNL     1     -10.285  -2.043   1.903  1.00  0.00     0.000 C 
BRANCH   3   4
ATOM      4  C   UNL     1     -10.135  -3.342   2.718  1.00  0.00     0.000 C 
BRANCH   4   5
ATOM      5  C   UNL     1     -11.098  -3.481   3.907  1.00  0.00     0.000 C 
BRANCH   5   6
ATOM      6  C   UNL     1     -10.412  -3.240   5.262  1.00  0.00     0.000 C 
BRANCH   6   7
ATOM      7  C   UNL     1      -8.889  -3.420   5.150  1.00  0.00     0.000 C 
BRANCH   7   8
ATOM      8  C   UNL     1      -8.305  -4.244   6.317  1.00  0.00     0.000 C 
BRANCH   8   9
ATOM      9  C   UNL     1      -9.212  -5.396   6.782  1.00  0.00     0.000 C 
BRANCH   9  10
ATOM     10  C   UNL     1      -8.944  -6.711   6.038  1.00  0.00     0.000 C 
BRANCH  10  11
ATOM     11  C   UNL     1     -10.021  -6.978   4.977  1.00  0.00     0.000 C 
BRANCH  11  12
ATOM     12  C   UNL     1     -11.369  -7.303   5.638  1.00  0.00     0.000 C 
BRANCH  12  13
ATOM     13  C   UNL     1     -12.567  -6.707   4.878  1.00  0.00     0.006 C 
BRANCH  13  14
ATOM     14  C   UNL     1     -13.334  -5.625   5.657  1.00  0.00     0.053 C 
BRANCH  14  15
ATOM     15  C   UNL     1     -14.596  -5.218   4.960  1.00  0.00     0.041 C 
ATOM     16  O   UNL     1     -14.548  -4.712   3.808  1.00  0.00    -0.550 OA
ATOM     17  O   UNL     1     -15.825  -5.393   5.586  1.00  0.00    -0.550 OA
ENDBRANCH  14  15
ENDBRANCH  13  14
ENDBRANCH  12  13
ENDBRANCH  11  12
ENDBRANCH  10  11
ENDBRANCH   9  10
ENDBRANCH   8   9
ENDBRANCH   7   8
ENDBRANCH   6   7
ENDBRANCH   5   6
ENDBRANCH   4   5
ENDBRANCH   3   4
ENDBRANCH   2   3
ENDBRANCH   1   2
BRANCH   1  18
ATOM     18  C   UNL     1     -10.201   0.838   2.930  1.00  0.00     0.000 C 
BRANCH  18  19
ATOM     19  C   UNL     1     -10.791   1.182   4.309  1.00  0.00     0.000 C 
BRANCH  19  20
ATOM     20  C   UNL     1     -11.805   0.139   4.802  1.00  0.00     0.000 C 
BRANCH  20  21
ATOM     21  C   UNL     1     -12.960  -0.021   3.806  1.00  0.00     0.000 C 
BRANCH  21  22
ATOM     22  C   UNL     1     -13.814  -1.250   4.150  1.00  0.00     0.000 C 
BRANCH  22  23
ATOM     23  C   UNL     1     -13.731  -1.641   5.635  1.00  0.00     0.000 C 
BRANCH  23  24
ATOM     24  C   UNL     1     -15.055  -1.445   6.402  1.00  0.00    -0.000 C 
BRANCH  24  25
ATOM     25  C   UNL     1     -14.977  -0.286   7.408  1.00  0.00    -0.000 C 
BRANCH  25  26
ATOM     26  C   UNL     1     -15.272   1.057   6.723  1.00  0.00    -0.000 C 
BRANCH  26  27
ATOM     27  C   UNL     1     -16.712   1.548   6.960  1.00  0.00    -0.000 C 
BRANCH  27  28
ATOM     28  C   UNL     1     -17.686   1.315   5.786  1.00  0.00    -0.000 C 
BRANCH  28  29
ATOM     29  C   UNL     1     -17.041   0.770   4.499  1.00  0.00    -0.000 C 
BRANCH  29  30
ATOM     30  C   UNL     1     -17.311   1.655   3.274  1.00  0.00    -0.000 C 
BRANCH  30  31
ATOM     31  C   UNL     1     -17.274   3.140   3.652  1.00  0.00    -0.003 C 
ATOM     32  C   UNL     1     -15.894   3.740   3.401  1.00  0.00     0.004 C 
ENDBRANCH  30  31
ENDBRANCH  29  30
ENDBRANCH  28  29
ENDBRANCH  27  28
ENDBRANCH  26  27
ENDBRANCH  25  26
ENDBRANCH  24  25
ENDBRANCH  23  24
ENDBRANCH  22  23
ENDBRANCH  21  22
ENDBRANCH  20  21
ENDBRANCH  19  20
ENDBRANCH  18  19
ENDBRANCH   1  18
TORSDOF 28
ENDMDL
MODEL 6
REMARK VINA RESULT:    -4.296      2.483      5.870
REMARK INTER + INTRA:         -16.241
REMARK INTER:                 -10.737
REMARK INTRA:                  -5.504
REMARK UNBOUND:                -4.913
REMARK SMILES CCCCCCCCCCCCCCCCCCCCCCCCCCCCCC(=O)[O-]
REMARK SMILES IDX 16 1 17 2 18 3 19 4 20 5 21 6 22 7 23 8 24 9 25 10 26 11
REMARK SMILES IDX 27 12 28 13 29 14 30 15 31 16 32 17 15 18 14 19 13 20 12 21
REMARK SMILES IDX 11 22 10 23 9 24 8 25 7 26 6 27 5 28 4 29 3 30 2 31 1 32
REMARK H PARENT
REMARK Flexibility Score: inf
ROOT
ATOM      1  C   UNL     1      -9.296  -3.357   5.519  1.00  0.00     0.000 C 
ENDROOT
BRANCH   1   2
ATOM      2  C   UNL     1      -8.454  -4.312   6.387  1.00  0.00     0.000 C 
BRANCH   2   3
ATOM      3  C   UNL     1      -9.182  -5.638   6.697  1.00  0.00     0.000 C 
BRANCH   3   4
ATOM      4  C   UNL     1      -9.733  -6.358   5.453  1.00  0.00     0.000 C 
BRANCH   4   5
ATOM      5  C   UNL     1     -11.263  -6.325   5.304  1.00  0.00     0.000 C 
BRANCH   5   6
ATOM      6  C   UNL     1     -11.958  -5.567   6.446  1.00  0.00     0.000 C 
BRANCH   6   7
ATOM      7  C   UNL     1     -12.863  -4.451   5.899  1.00  0.00     0.000 C 
BRANCH   7   8
ATOM      8  C   UNL     1     -12.882  -4.410   4.356  1.00  0.00     0.000 C 
BRANCH   8   9
ATOM      9  C   UNL     1     -13.123  -3.007   3.772  1.00  0.00     0.000 C 
BRANCH   9  10
ATOM     10  C   UNL     1     -12.700  -1.880   4.723  1.00  0.00     0.000 C 
BRANCH  10  11
ATOM     11  C   UNL     1     -13.462  -0.582   4.419  1.00  0.00     0.000 C 
BRANCH  11  12
ATOM     12  C   UNL     1     -14.939  -0.710   4.825  1.00  0.00     0.000 C 
BRANCH  12  13
ATOM     13  C   UNL     1     -15.232  -0.106   6.210  1.00  0.00     0.006 C 
BRANCH  13  14
ATOM     14  C   UNL     1     -14.128   0.824   6.740  1.00  0.00     0.053 C 
BRANCH  14  15
ATOM     15  C   UNL     1     -14.597   1.656   7.894  1.00  0.00     0.041 C 
ATOM     16  O   UNL     1     -14.544   2.913   7.830  1.00  0.00    -0.550 OA
ATOM     17  O   UNL     1     -15.089   1.044   9.040  1.00  0.00    -0.550 OA
ENDBRANCH  14  15
ENDBRANCH  13  14
ENDBRANCH  12  13
ENDBRANCH  11  12
ENDBRANCH  10  11
ENDBRANCH   9  10
ENDBRANCH   8   9
ENDBRANCH   7   8
ENDBRANCH   6   7
ENDBRANCH   5   6
ENDBRANCH   4   5
ENDBRANCH   3   4
ENDBRANCH   2   3
ENDBRANCH   1   2
BRANCH   1  18
ATOM     18  C   UNL     1      -8.643  -3.098   4.144  1.00  0.00     0.000 C 
BRANCH  18  19
ATOM     19  C   UNL     1      -9.613  -3.275   2.963  1.00  0.00     0.000 C 
BRANCH  19  20
ATOM     20  C   UNL     1      -9.941  -1.952   2.255  1.00  0.00     0.000 C 
BRANCH  20  21
ATOM     21  C   UNL     1      -8.664  -1.158   1.952  1.00  0.00     0.000 C 
BRANCH  21  22
ATOM     22  C   UNL     1      -8.775   0.281   2.476  1.00  0.00     0.000 C 
BRANCH  22  23
ATOM     23  C   UNL     1     -10.221   0.689   2.803  1.00  0.00     0.000 C 
BRANCH  23  24
ATOM     24  C   UNL     1     -10.374   1.386   4.172  1.00  0.00    -0.000 C 
BRANCH  24  25
ATOM     25  C   UNL     1     -11.461   2.470   4.153  1.00  0.00    -0.000 C 
BRANCH  25  26
ATOM     26  C   UNL     1     -12.108   2.578   2.764  1.00  0.00    -0.000 C 
BRANCH  26  27
ATOM     27  C   UNL     1     -13.555   3.102   2.816  1.00  0.00    -0.000 C 
BRANCH  27  28
ATOM     28  C   UNL     1     -14.111   3.356   4.233  1.00  0.00    -0.000 C 
BRANCH  28  29
ATOM     29  C   UNL     1     -15.643   3.276   4.358  1.00  0.00    -0.000 C 
BRANCH  29  30
ATOM     30  C   UNL     1     -16.305   2.587   3.155  1.00  0.00    -0.000 C 
BRANCH  30  31
ATOM     31  C   UNL     1     -17.513   1.753   3.598  1.00  0.00    -0.003 C 
ATOM     32  C   UNL     1     -17.897   2.060   5.042  1.00  0.00     0.004 C 
ENDBRANCH  30  31
ENDBRANCH  29  30
ENDBRANCH  28  29
ENDBRANCH  27  28
ENDBRANCH  26  27
ENDBRANCH  25  26
ENDBRANCH  24  25
ENDBRANCH  23  24
ENDBRANCH  22  23
ENDBRANCH  21  22
ENDBRANCH  20  21
ENDBRANCH  19  20
ENDBRANCH  18  19
ENDBRANCH   1  18
TORSDOF 28
ENDMDL
MODEL 7
REMARK VINA RESULT:    -4.295      2.927      7.806
REMARK INTER + INTRA:         -16.238
REMARK INTER:                 -10.417
REMARK INTRA:                  -5.821
REMARK UNBOUND:                -4.913
REMARK SMILES CCCCCCCCCCCCCCCCCCCCCCCCCCCCCC(=O)[O-]
REMARK SMILES IDX 16 1 17 2 18 3 19 4 20 5 21 6 22 7 23 8 24 9 25 10 26 11
REMARK SMILES IDX 27 12 28 13 29 14 30 15 31 16 32 17 15 18 14 19 13 20 12 21
REMARK SMILES IDX 11 22 10 23 9 24 8 25 7 26 6 27 5 28 4 29 3 30 2 31 1 32
REMARK H PARENT
REMARK Flexibility Score: inf
ROOT
ATOM      1  C   UNL     1      -8.910  -3.868   5.795  1.00  0.00     0.000 C 
ENDROOT
BRANCH   1   2
ATOM      2  C   UNL     1      -8.938  -3.799   4.257  1.00  0.00     0.000 C 
BRANCH   2   3
ATOM      3  C   UNL     1      -8.927  -2.350   3.722  1.00  0.00     0.000 C 
BRANCH   3   4
ATOM      4  C   UNL     1      -9.758  -2.148   2.441  1.00  0.00     0.000 C 
BRANCH   4   5
ATOM      5  C   UNL     1     -10.689  -0.924   2.453  1.00  0.00     0.000 C 
BRANCH   5   6
ATOM      6  C   UNL     1     -10.173   0.209   3.355  1.00  0.00     0.000 C 
BRANCH   6   7
ATOM      7  C   UNL     1     -11.157   0.492   4.502  1.00  0.00     0.000 C 
BRANCH   7   8
ATOM      8  C   UNL     1     -12.398   1.281   4.033  1.00  0.00     0.000 C 
BRANCH   8   9
ATOM      9  C   UNL     1     -13.710   0.480   4.104  1.00  0.00     0.000 C 
BRANCH   9  10
ATOM     10  C   UNL     1     -14.896   1.312   4.607  1.00  0.00     0.000 C 
BRANCH  10  11
ATOM     11  C   UNL     1     -16.232   0.699   4.165  1.00  0.00     0.000 C 
BRANCH  11  12
ATOM     12  C   UNL     1     -17.003   1.669   3.257  1.00  0.00     0.000 C 
BRANCH  12  13
ATOM     13  C   UNL     1     -17.171   3.066   3.880  1.00  0.00     0.006 C 
BRANCH  13  14
ATOM     14  C   UNL     1     -16.622   4.213   3.016  1.00  0.00     0.053 C 
BRANCH  14  15
ATOM     15  C   UNL     1     -15.441   4.882   3.650  1.00  0.00     0.041 C 
ATOM     16  O   UNL     1     -14.285   4.701   3.183  1.00  0.00    -0.550 OA
ATOM     17  O   UNL     1     -15.616   5.701   4.759  1.00  0.00    -0.550 OA
ENDBRANCH  14  15
ENDBRANCH  13  14
ENDBRANCH  12  13
ENDBRANCH  11  12
ENDBRANCH  10  11
ENDBRANCH   9  10
ENDBRANCH   8   9
ENDBRANCH   7   8
ENDBRANCH   6   7
ENDBRANCH   5   6
ENDBRANCH   4   5
ENDBRANCH   3   4
ENDBRANCH   2   3
ENDBRANCH   1   2
BRANCH   1  18
ATOM     18  C   UNL     1      -9.214  -5.290   6.316  1.00  0.00     0.000 C 
BRANCH  18  19
ATOM     19  C   UNL     1      -9.827  -6.214   5.249  1.00  0.00     0.000 C 
BRANCH  19  20
ATOM     20  C   UNL     1     -11.087  -6.941   5.741  1.00  0.00     0.000 C 
BRANCH  20  21
ATOM     21  C   UNL     1     -11.777  -6.153   6.860  1.00  0.00     0.000 C 
BRANCH  21  22
ATOM     22  C   UNL     1     -13.287  -6.429   6.875  1.00  0.00     0.000 C 
BRANCH  22  23
ATOM     23  C   UNL     1     -13.813  -6.960   5.530  1.00  0.00     0.000 C 
BRANCH  23  24
ATOM     24  C   UNL     1     -15.091  -6.249   5.041  1.00  0.00    -0.000 C 
BRANCH  24  25
ATOM     25  C   UNL     1     -14.818  -5.318   3.850  1.00  0.00    -0.000 C 
BRANCH  25  26
ATOM     26  C   UNL     1     -13.419  -5.566   3.266  1.00  0.00    -0.000 C 
BRANCH  26  27
ATOM     27  C   UNL     1     -12.475  -4.362   3.437  1.00  0.00    -0.000 C 
BRANCH  27  28
ATOM     28  C   UNL     1     -13.066  -3.171   4.220  1.00  0.00    -0.000 C 
BRANCH  28  29
ATOM     29  C   UNL     1     -12.307  -2.791   5.504  1.00  0.00    -0.000 C 
BRANCH  29  30
ATOM     30  C   UNL     1     -13.222  -2.198   6.585  1.00  0.00    -0.000 C 
BRANCH  30  31
ATOM     31  C   UNL     1     -14.525  -2.996   6.698  1.00  0.00    -0.003 C 
ATOM     32  C   UNL     1     -15.743  -2.087   6.571  1.00  0.00     0.004 C 
ENDBRANCH  30  31
ENDBRANCH  29  30
ENDBRANCH  28  29
ENDBRANCH  27  28
ENDBRANCH  26  27
ENDBRANCH  25  26
ENDBRANCH  24  25
ENDBRANCH  23  24
ENDBRANCH  22  23
ENDBRANCH  21  22
ENDBRANCH  20  21
ENDBRANCH  19  20
ENDBRANCH  18  19
ENDBRANCH   1  18
TORSDOF 28
ENDMDL
MODEL 8
REMARK VINA RESULT:    -4.255      2.531      7.922
REMARK INTER + INTRA:         -16.133
REMARK INTER:                 -10.673
REMARK INTRA:                  -5.460
REMARK UNBOUND:                -4.913
REMARK SMILES CCCCCCCCCCCCCCCCCCCCCCCCCCCCCC(=O)[O-]
REMARK SMILES IDX 16 1 17 2 18 3 19 4 20 5 21 6 22 7 23 8 24 9 25 10 26 11
REMARK SMILES IDX 27 12 28 13 29 14 30 15 31 16 32 17 15 18 14 19 13 20 12 21
REMARK SMILES IDX 11 22 10 23 9 24 8 25 7 26 6 27 5 28 4 29 3 30 2 31 1 32
REMARK H PARENT
REMARK Flexibility Score: inf
ROOT
ATOM      1  C   UNL     1     -10.968   0.577   4.507  1.00  0.00     0.000 C 
ENDROOT
BRANCH   1   2
ATOM      2  C   UNL     1     -12.387   1.166   4.603  1.00  0.00     0.000 C 
BRANCH   2   3
ATOM      3  C   UNL     1     -13.294   0.737   3.429  1.00  0.00     0.000 C 
BRANCH   3   4
ATOM      4  C   UNL     1     -13.543   1.845   2.390  1.00  0.00     0.000 C 
BRANCH   4   5
ATOM      5  C   UNL     1     -13.146   3.262   2.838  1.00  0.00     0.000 C 
BRANCH   5   6
ATOM      6  C   UNL     1     -14.329   4.243   2.829  1.00  0.00     0.000 C 
BRANCH   6   7
ATOM      7  C   UNL     1     -14.952   4.373   4.228  1.00  0.00     0.000 C 
BRANCH   7   8
ATOM      8  C   UNL     1     -16.478   4.146   4.218  1.00  0.00     0.000 C 
BRANCH   8   9
ATOM      9  C   UNL     1     -16.949   3.120   3.173  1.00  0.00     0.000 C 
BRANCH   9  10
ATOM     10  C   UNL     1     -17.764   1.971   3.782  1.00  0.00     0.000 C 
BRANCH  10  11
ATOM     11  C   UNL     1     -16.878   0.749   4.060  1.00  0.00     0.000 C 
BRANCH  11  12
ATOM     12  C   UNL     1     -16.922   0.372   5.549  1.00  0.00     0.000 C 
BRANCH  12  13
ATOM     13  C   UNL     1     -17.883   1.259   6.362  1.00  0.00     0.006 C 
BRANCH  13  14
ATOM     14  C   UNL     1     -17.256   1.879   7.621  1.00  0.00     0.053 C 
BRANCH  14  15
ATOM     15  C   UNL     1     -17.109   0.881   8.729  1.00  0.00     0.041 C 
ATOM     16  O   UNL     1     -18.080   0.147   9.051  1.00  0.00    -0.550 OA
ATOM     17  O   UNL     1     -15.902   0.765   9.407  1.00  0.00    -0.550 OA
ENDBRANCH  14  15
ENDBRANCH  13  14
ENDBRANCH  12  13
ENDBRANCH  11  12
ENDBRANCH  10  11
ENDBRANCH   9  10
ENDBRANCH   8   9
ENDBRANCH   7   8
ENDBRANCH   6   7
ENDBRANCH   5   6
ENDBRANCH   4   5
ENDBRANCH   3   4
ENDBRANCH   2   3
ENDBRANCH   1   2
BRANCH   1  18
ATOM     18  C   UNL     1     -10.129   1.264   3.407  1.00  0.00     0.000 C 
BRANCH  18  19
ATOM     19  C   UNL     1      -9.411   0.271   2.476  1.00  0.00     0.000 C 
BRANCH  19  20
ATOM     20  C   UNL     1     -10.335  -0.842   1.962  1.00  0.00     0.000 C 
BRANCH  20  21
ATOM     21  C   UNL     1      -9.773  -2.227   2.305  1.00  0.00     0.000 C 
BRANCH  21  22
ATOM     22  C   UNL     1      -8.886  -2.165   3.557  1.00  0.00     0.000 C 
BRANCH  22  23
ATOM     23  C   UNL     1      -8.647  -3.545   4.192  1.00  0.00     0.000 C 
BRANCH  23  24
ATOM     24  C   UNL     1      -9.082  -3.630   5.669  1.00  0.00    -0.000 C 
BRANCH  24  25
ATOM     25  C   UNL     1      -9.559  -5.038   6.054  1.00  0.00    -0.000 C 
BRANCH  25  26
ATOM     26  C   UNL     1     -10.423  -5.650   4.940  1.00  0.00    -0.000 C 
BRANCH  26  27
ATOM     27  C   UNL     1     -11.883  -5.163   4.977  1.00  0.00    -0.000 C 
BRANCH  27  28
ATOM     28  C   UNL     1     -12.331  -4.338   3.752  1.00  0.00    -0.000 C 
BRANCH  28  29
ATOM     29  C   UNL     1     -12.919  -2.953   4.077  1.00  0.00    -0.000 C 
BRANCH  29  30
ATOM     30  C   UNL     1     -12.709  -2.544   5.542  1.00  0.00    -0.000 C 
BRANCH  30  31
ATOM     31  C   UNL     1     -13.995  -1.960   6.137  1.00  0.00    -0.003 C 
ATOM     32  C   UNL     1     -13.691  -1.035   7.312  1.00  0.00     0.004 C 
ENDBRANCH  30  31
ENDBRANCH  29  30
ENDBRANCH  28  29
ENDBRANCH  27  28
ENDBRANCH  26  27
ENDBRANCH  25  26
ENDBRANCH  24  25
ENDBRANCH  23  24
ENDBRANCH  22  23
ENDBRANCH  21  22
ENDBRANCH  20  21
ENDBRANCH  19  20
ENDBRANCH  18  19
ENDBRANCH   1  18
TORSDOF 28
ENDMDL
MODEL 9
REMARK VINA RESULT:    -4.238      1.885      8.299
REMARK INTER + INTRA:         -16.087
REMARK INTER:                 -12.025
REMARK INTRA:                  -4.062
REMARK UNBOUND:                -4.913
REMARK SMILES CCCCCCCCCCCCCCCCCCCCCCCCCCCCCC(=O)[O-]
REMARK SMILES IDX 16 1 17 2 18 3 19 4 20 5 21 6 22 7 23 8 24 9 25 10 26 11
REMARK SMILES IDX 27 12 28 13 29 14 30 15 31 16 32 17 15 18 14 19 13 20 12 21
REMARK SMILES IDX 11 22 10 23 9 24 8 25 7 26 6 27 5 28 4 29 3 30 2 31 1 32
REMARK H PARENT
REMARK Flexibility Score: inf
ROOT
ATOM      1  C   UNL     1      -8.744  -3.114   4.134  1.00  0.00     0.000 C 
ENDROOT
BRANCH   1   2
ATOM      2  C   UNL     1      -9.771  -3.137   2.988  1.00  0.00     0.000 C 
BRANCH   2   3
ATOM      3  C   UNL     1      -9.835  -1.802   2.214  1.00  0.00     0.000 C 
BRANCH   3   4
ATOM      4  C   UNL     1      -9.060  -0.651   2.883  1.00  0.00     0.000 C 
BRANCH   4   5
ATOM      5  C   UNL     1      -9.743   0.724   2.811  1.00  0.00     0.000 C 
BRANCH   5   6
ATOM      6  C   UNL     1     -10.357   1.156   4.153  1.00  0.00     0.000 C 
BRANCH   6   7
ATOM      7  C   UNL     1     -11.379   2.287   3.954  1.00  0.00     0.000 C 
BRANCH   7   8
ATOM      8  C   UNL     1     -12.092   2.205   2.588  1.00  0.00     0.000 C 
BRANCH   8   9
ATOM      9  C   UNL     1     -13.587   2.563   2.643  1.00  0.00     0.000 C 
BRANCH   9  10
ATOM     10  C   UNL     1     -13.853   4.064   2.465  1.00  0.00     0.000 C 
BRANCH  10  11
ATOM     11  C   UNL     1     -15.093   4.506   3.255  1.00  0.00     0.000 C 
BRANCH  11  12
ATOM     12  C   UNL     1     -16.269   3.550   3.004  1.00  0.00     0.000 C 
BRANCH  12  13
ATOM     13  C   UNL     1     -17.275   3.523   4.168  1.00  0.00     0.006 C 
BRANCH  13  14
ATOM     14  C   UNL     1     -17.885   2.139   4.444  1.00  0.00     0.053 C 
BRANCH  14  15
ATOM     15  C   UNL     1     -16.834   1.095   4.672  1.00  0.00     0.041 C 
ATOM     16  O   UNL     1     -15.830   1.355   5.385  1.00  0.00    -0.550 OA
ATOM     17  O   UNL     1     -16.963  -0.162   4.095  1.00  0.00    -0.550 OA
ENDBRANCH  14  15
ENDBRANCH  13  14
ENDBRANCH  12  13
ENDBRANCH  11  12
ENDBRANCH  10  11
ENDBRANCH   9  10
ENDBRANCH   8   9
ENDBRANCH   7   8
ENDBRANCH   6   7
ENDBRANCH   5   6
ENDBRANCH   4   5
ENDBRANCH   3   4
ENDBRANCH   2   3
ENDBRANCH   1   2
BRANCH   1  18
ATOM     18  C   UNL     1      -9.378  -3.509   5.486  1.00  0.00     0.000 C 
BRANCH  18  19
ATOM     19  C   UNL     1      -8.462  -4.387   6.358  1.00  0.00     0.000 C 
BRANCH  19  20
ATOM     20  C   UNL     1      -9.014  -5.804   6.567  1.00  0.00     0.000 C 
BRANCH  20  21
ATOM     21  C   UNL     1      -9.597  -6.366   5.265  1.00  0.00     0.000 C 
BRANCH  21  22
ATOM     22  C   UNL     1      -9.432  -7.891   5.203  1.00  0.00     0.000 C 
BRANCH  22  23
ATOM     23  C   UNL     1     -10.555  -8.646   5.933  1.00  0.00     0.000 C 
BRANCH  23  24
ATOM     24  C   UNL     1     -11.967  -8.319   5.404  1.00  0.00    -0.000 C 
BRANCH  24  25
ATOM     25  C   UNL     1     -12.738  -7.384   6.347  1.00  0.00    -0.000 C 
BRANCH  25  26
ATOM     26  C   UNL     1     -13.803  -6.584   5.580  1.00  0.00    -0.000 C 
BRANCH  26  27
ATOM     27  C   UNL     1     -13.434  -6.358   4.103  1.00  0.00    -0.000 C 
BRANCH  27  28
ATOM     28  C   UNL     1     -12.798  -4.988   3.788  1.00  0.00    -0.000 C 
BRANCH  28  29
ATOM     29  C   UNL     1     -13.620  -3.766   4.238  1.00  0.00    -0.000 C 
BRANCH  29  30
ATOM     30  C   UNL     1     -13.006  -3.046   5.448  1.00  0.00    -0.000 C 
BRANCH  30  31
ATOM     31  C   UNL     1     -12.533  -1.639   5.066  1.00  0.00    -0.003 C 
ATOM     32  C   UNL     1     -13.221  -1.151   3.795  1.00  0.00     0.004 C 
ENDBRANCH  30  31
ENDBRANCH  29  30
ENDBRANCH  28  29
ENDBRANCH  27  28
ENDBRANCH  26  27
ENDBRANCH  25  26
ENDBRANCH  24  25
ENDBRANCH  23  24
ENDBRANCH  22  23
ENDBRANCH  21  22
ENDBRANCH  20  21
ENDBRANCH  19  20
ENDBRANCH  18  19
ENDBRANCH   1  18
TORSDOF 28
ENDMDL
