MODEL 1
REMARK VINA RESULT:    -3.007      0.000      0.000
REMARK INTER + INTRA:          -4.073
REMARK INTER:                  -3.887
REMARK INTRA:                  -0.187
REMARK UNBOUND:                -0.187
REMARK SMILES CCCCCCC(=O)[O-]
REMARK SMILES IDX 5 1 6 2 7 3 8 4 9 5 4 6 3 7 2 8 1 9
REMARK H PARENT
REMARK Flexibility Score: inf
ROOT
ATOM      1  C   UNL     1      -5.287  50.963  -9.545  1.00  0.00     0.006 C 
ENDROOT
BRANCH   1   2
ATOM      2  C   UNL     1      -6.763  51.329  -9.724  1.00  0.00     0.053 C 
BRANCH   2   3
ATOM      3  C   UNL     1      -7.600  50.665  -8.677  1.00  0.00     0.041 C 
ATOM      4  O   UNL     1      -7.625  51.121  -7.503  1.00  0.00    -0.550 OA
ATOM      5  O   UNL     1      -8.390  49.573  -9.008  1.00  0.00    -0.550 OA
ENDBRANCH   2   3
ENDBRANCH   1   2
BRANCH   1   6
ATOM      6  C   UNL     1      -4.512  52.110  -8.883  1.00  0.00     0.000 C 
BRANCH   6   7
ATOM      7  C   UNL     1      -4.125  51.751  -7.440  1.00  0.00    -0.000 C 
BRANCH   7   8
ATOM      8  C   UNL     1      -2.721  51.133  -7.343  1.00  0.00    -0.003 C 
ATOM      9  C   UNL     1      -1.672  52.125  -6.840  1.00  0.00     0.004 C 
ENDBRANCH   7   8
ENDBRANCH   6   7
ENDBRANCH   1   6
TORSDOF 5
ENDMDL
MODEL 2
REMARK VINA RESULT:    -2.566     22.562     23.793
REMARK INTER + INTRA:          -3.503
REMARK INTER:                  -3.263
REMARK INTRA:                  -0.239
REMARK UNBOUND:                -0.187
REMARK SMILES CCCCCCC(=O)[O-]
REMARK SMILES IDX 5 1 6 2 7 3 8 4 9 5 4 6 3 7 2 8 1 9
REMARK H PARENT
REMARK Flexibility Score: inf
ROOT
ATOM      1  C   UNL     1      11.044  33.355  -8.410  1.00  0.00     0.006 C 
ENDROOT
BRANCH   1   2
ATOM      2  C   UNL     1      10.657  31.995  -7.821  1.00  0.00     0.053 C 
BRANCH   2   3
ATOM      3  C   UNL     1       9.672  32.167  -6.708  1.00  0.00     0.041 C 
ATOM      4  O   UNL     1      10.047  32.618  -5.594  1.00  0.00    -0.550 OA
ATOM      5  O   UNL     1       8.330  31.876  -6.917  1.00  0.00    -0.550 OA
ENDBRANCH   2   3
ENDBRANCH   1   2
BRANCH   1   6
ATOM      6  C   UNL     1      10.683  33.433  -9.899  1.00  0.00     0.000 C 
BRANCH   6   7
ATOM      7  C   UNL     1       9.200  33.104 -10.123  1.00  0.00    -0.000 C 
BRANCH   7   8
ATOM      8  C   UNL     1       8.280  34.302  -9.834  1.00  0.00    -0.003 C 
ATOM      9  C   UNL     1       6.999  33.901  -9.103  1.00  0.00     0.004 C 
ENDBRANCH   7   8
ENDBRANCH   6   7
ENDBRANCH   1   6
TORSDOF 5
ENDMDL
MODEL 3
REMARK VINA RESULT:    -2.452      3.151      4.942
REMARK INTER + INTRA:          -3.356
REMARK INTER:                  -3.173
REMARK INTRA:                  -0.184
REMARK UNBOUND:                -0.187
REMARK SMILES CCCCCCC(=O)[O-]
REMARK SMILES IDX 5 1 6 2 7 3 8 4 9 5 4 6 3 7 2 8 1 9
REMARK H PARENT
REMARK Flexibility Score: inf
ROOT
ATOM      1  C   UNL     1      -4.608  50.969  -8.677  1.00  0.00     0.006 C 
ENDROOT
BRANCH   1   2
ATOM      2  C   UNL     1      -3.887  51.742  -7.569  1.00  0.00     0.053 C 
BRANCH   2   3
ATOM      3  C   UNL     1      -2.408  51.716  -7.789  1.00  0.00     0.041 C 
ATOM      4  O   UNL     1      -1.636  51.357  -6.861  1.00  0.00    -0.550 OA
ATOM      5  O   UNL     1      -1.884  52.041  -9.033  1.00  0.00    -0.550 OA
ENDBRANCH   2   3
ENDBRANCH   1   2
BRANCH   1   6
ATOM      6  C   UNL     1      -5.198  51.925  -9.722  1.00  0.00     0.000 C 
BRANCH   6   7
ATOM      7  C   UNL     1      -6.662  51.573 -10.023  1.00  0.00    -0.000 C 
BRANCH   7   8
ATOM      8  C   UNL     1      -7.359  50.884  -8.839  1.00  0.00    -0.003 C 
ATOM      9  C   UNL     1      -8.127  49.629  -9.252  1.00  0.00     0.004 C 
ENDBRANCH   7   8
ENDBRANCH   6   7
ENDBRANCH   1   6
TORSDOF 5
ENDMDL
MODEL 4
REMARK VINA RESULT:    -2.443     22.243     23.356
REMARK INTER + INTRA:          -3.344
REMARK INTER:                  -3.102
REMARK INTRA:                  -0.242
REMARK UNBOUND:                -0.187
REMARK SMILES CCCCCCC(=O)[O-]
REMARK SMILES IDX 5 1 6 2 7 3 8 4 9 5 4 6 3 7 2 8 1 9
REMARK H PARENT
REMARK Flexibility Score: inf
ROOT
ATOM      1  C   UNL     1       7.682  33.464  -8.668  1.00  0.00     0.006 C 
ENDROOT
BRANCH   1   2
ATOM      2  C   UNL     1       8.146  33.765 -10.096  1.00  0.00     0.053 C 
BRANCH   2   3
ATOM      3  C   UNL     1       9.558  34.259 -10.095  1.00  0.00     0.041 C 
ATOM      4  O   UNL     1      10.515  33.441 -10.113  1.00  0.00    -0.550 OA
ATOM      5  O   UNL     1       9.818  35.623 -10.125  1.00  0.00    -0.550 OA
ENDBRANCH   2   3
ENDBRANCH   1   2
BRANCH   1   6
ATOM      6  C   UNL     1       7.943  31.997  -8.301  1.00  0.00     0.000 C 
BRANCH   6   7
ATOM      7  C   UNL     1       8.454  31.875  -6.858  1.00  0.00    -0.000 C 
BRANCH   7   8
ATOM      8  C   UNL     1       9.677  32.767  -6.588  1.00  0.00    -0.003 C 
ATOM      9  C   UNL     1      10.964  32.204  -7.191  1.00  0.00     0.004 C 
ENDBRANCH   7   8
ENDBRANCH   6   7
ENDBRANCH   1   6
TORSDOF 5
ENDMDL
MODEL 5
REMARK VINA RESULT:    -2.299     22.313     23.409
REMARK INTER + INTRA:          -3.158
REMARK INTER:                  -2.771
REMARK INTRA:                  -0.387
REMARK UNBOUND:                -0.187
REMARK SMILES CCCCCCC(=O)[O-]
REMARK SMILES IDX 5 1 6 2 7 3 8 4 9 5 4 6 3 7 2 8 1 9
REMARK H PARENT
REMARK Flexibility Score: inf
ROOT
ATOM      1  C   UNL     1       8.111  33.482  -7.456  1.00  0.00     0.006 C 
ENDROOT
BRANCH   1   2
ATOM      2  C   UNL     1       7.355  32.313  -8.093  1.00  0.00     0.053 C 
BRANCH   2   3
ATOM      3  C   UNL     1       6.952  32.650  -9.494  1.00  0.00     0.041 C 
ATOM      4  O   UNL     1       7.551  33.561 -10.123  1.00  0.00    -0.550 OA
ATOM      5  O   UNL     1       5.949  31.924 -10.122  1.00  0.00    -0.550 OA
ENDBRANCH   2   3
ENDBRANCH   1   2
BRANCH   1   6
ATOM      6  C   UNL     1       9.394  33.000  -6.767  1.00  0.00     0.000 C 
BRANCH   6   7
ATOM      7  C   UNL     1      10.063  31.879  -7.577  1.00  0.00    -0.000 C 
BRANCH   7   8
ATOM      8  C   UNL     1      11.124  32.411  -8.554  1.00  0.00    -0.003 C 
ATOM      9  C   UNL     1      10.890  31.947  -9.991  1.00  0.00     0.004 C 
ENDBRANCH   7   8
ENDBRANCH   6   7
ENDBRANCH   1   6
TORSDOF 5
ENDMDL
MODEL 6
REMARK VINA RESULT:    -2.293      4.488      5.475
REMARK INTER + INTRA:          -3.150
REMARK INTER:                  -3.013
REMARK INTRA:                  -0.137
REMARK UNBOUND:                -0.187
REMARK SMILES CCCCCCC(=O)[O-]
REMARK SMILES IDX 5 1 6 2 7 3 8 4 9 5 4 6 3 7 2 8 1 9
REMARK H PARENT
REMARK Flexibility Score: inf
ROOT
ATOM      1  C   UNL     1      -7.832  51.243  -5.175  1.00  0.00     0.006 C 
ENDROOT
BRANCH   1   2
ATOM      2  C   UNL     1      -8.260  52.125  -6.352  1.00  0.00     0.053 C 
BRANCH   2   3
ATOM      3  C   UNL     1      -7.466  51.789  -7.574  1.00  0.00     0.041 C 
ATOM      4  O   UNL     1      -6.214  51.679  -7.506  1.00  0.00    -0.550 OA
ATOM      5  O   UNL     1      -8.114  51.547  -8.779  1.00  0.00    -0.550 OA
ENDBRANCH   2   3
ENDBRANCH   1   2
BRANCH   1   6
ATOM      6  C   UNL     1      -8.951  51.138  -4.130  1.00  0.00     0.000 C 
BRANCH   6   7
ATOM      7  C   UNL     1      -8.778  49.880  -3.265  1.00  0.00    -0.000 C 
BRANCH   7   8
ATOM      8  C   UNL     1      -8.387  50.211  -1.816  1.00  0.00    -0.003 C 
ATOM      9  C   UNL     1      -8.284  51.714  -1.559  1.00  0.00     0.004 C 
ENDBRANCH   7   8
ENDBRANCH   6   7
ENDBRANCH   1   6
TORSDOF 5
ENDMDL
MODEL 7
REMARK VINA RESULT:    -2.272      5.384      6.317
REMARK INTER + INTRA:          -3.124
REMARK INTER:                  -2.923
REMARK INTRA:                  -0.201
REMARK UNBOUND:                -0.187
REMARK SMILES CCCCCCC(=O)[O-]
REMARK SMILES IDX 5 1 6 2 7 3 8 4 9 5 4 6 3 7 2 8 1 9
REMARK H PARENT
REMARK Flexibility Score: inf
ROOT
ATOM      1  C   UNL     1      -8.413  50.511  -4.059  1.00  0.00     0.006 C 
ENDROOT
BRANCH   1   2
ATOM      2  C   UNL     1      -8.650  51.783  -4.877  1.00  0.00     0.053 C 
BRANCH   2   3
ATOM      3  C   UNL     1      -7.634  51.901  -5.969  1.00  0.00     0.041 C 
ATOM      4  O   UNL     1      -7.992  51.853  -7.175  1.00  0.00    -0.550 OA
ATOM      5  O   UNL     1      -6.298  52.115  -5.656  1.00  0.00    -0.550 OA
ENDBRANCH   2   3
ENDBRANCH   1   2
BRANCH   1   6
ATOM      6  C   UNL     1      -9.067  50.615  -2.675  1.00  0.00     0.000 C 
BRANCH   6   7
ATOM      7  C   UNL     1      -8.949  52.042  -2.119  1.00  0.00    -0.000 C 
BRANCH   7   8
ATOM      8  C   UNL     1      -8.486  52.067  -0.653  1.00  0.00    -0.003 C 
ATOM      9  C   UNL     1      -6.965  52.123  -0.514  1.00  0.00     0.004 C 
ENDBRANCH   7   8
ENDBRANCH   6   7
ENDBRANCH   1   6
TORSDOF 5
ENDMDL
MODEL 8
REMARK VINA RESULT:    -2.219      2.060      2.545
REMARK INTER + INTRA:          -3.055
REMARK INTER:                  -2.878
REMARK INTRA:                  -0.177
REMARK UNBOUND:                -0.187
REMARK SMILES CCCCCCC(=O)[O-]
REMARK SMILES IDX 5 1 6 2 7 3 8 4 9 5 4 6 3 7 2 8 1 9
REMARK H PARENT
REMARK Flexibility Score: inf
ROOT
ATOM      1  C   UNL     1      -6.073  52.110  -7.542  1.00  0.00     0.006 C 
ENDROOT
BRANCH   1   2
ATOM      2  C   UNL     1      -7.577  52.124  -7.256  1.00  0.00     0.053 C 
BRANCH   2   3
ATOM      3  C   UNL     1      -7.835  51.950  -5.793  1.00  0.00     0.041 C 
ATOM      4  O   UNL     1      -6.880  51.725  -5.004  1.00  0.00    -0.550 OA
ATOM      5  O   UNL     1      -9.123  52.085  -5.293  1.00  0.00    -0.550 OA
ENDBRANCH   2   3
ENDBRANCH   1   2
BRANCH   1   6
ATOM      6  C   UNL     1      -5.785  51.596  -8.958  1.00  0.00     0.000 C 
BRANCH   6   7
ATOM      7  C   UNL     1      -4.279  51.382  -9.169  1.00  0.00    -0.000 C 
BRANCH   7   8
ATOM      8  C   UNL     1      -3.549  51.011  -7.869  1.00  0.00    -0.003 C 
ATOM      9  C   UNL     1      -2.279  51.833  -7.648  1.00  0.00     0.004 C 
ENDBRANCH   7   8
ENDBRANCH   6   7
ENDBRANCH   1   6
TORSDOF 5
ENDMDL
MODEL 9
REMARK VINA RESULT:    -2.190      3.634      4.950
REMARK INTER + INTRA:          -3.017
REMARK INTER:                  -2.912
REMARK INTRA:                  -0.105
REMARK UNBOUND:                -0.187
REMARK SMILES CCCCCCC(=O)[O-]
REMARK SMILES IDX 5 1 6 2 7 3 8 4 9 5 4 6 3 7 2 8 1 9
REMARK H PARENT
REMARK Flexibility Score: inf
ROOT
ATOM      1  C   UNL     1      -6.293  52.125  -6.555  1.00  0.00     0.006 C 
ENDROOT
BRANCH   1   2
ATOM      2  C   UNL     1      -6.121  51.796  -8.041  1.00  0.00     0.053 C 
BRANCH   2   3
ATOM      3  C   UNL     1      -4.697  51.448  -8.340  1.00  0.00     0.041 C 
ATOM      4  O   UNL     1      -4.198  51.729  -9.461  1.00  0.00    -0.550 OA
ATOM      5  O   UNL     1      -3.905  50.859  -7.362  1.00  0.00    -0.550 OA
ENDBRANCH   2   3
ENDBRANCH   1   2
BRANCH   1   6
ATOM      6  C   UNL     1      -7.773  52.103  -6.154  1.00  0.00     0.000 C 
BRANCH   6   7
ATOM      7  C   UNL     1      -7.927  52.122  -4.625  1.00  0.00    -0.000 C 
BRANCH   7   8
ATOM      8  C   UNL     1      -9.098  51.252  -4.140  1.00  0.00    -0.003 C 
ATOM      9  C   UNL     1      -8.636  49.973  -3.443  1.00  0.00     0.004 C 
ENDBRANCH   7   8
ENDBRANCH   6   7
ENDBRANCH   1   6
TORSDOF 5
ENDMDL
