MODEL 1
REMARK VINA RESULT:    -2.715      0.000      0.000
REMARK INTER + INTRA:          -3.222
REMARK INTER:                  -3.191
REMARK INTRA:                  -0.031
REMARK UNBOUND:                -0.031
REMARK SMILES O=C([O-])CCC(=O)[O-]
REMARK SMILES IDX 4 1 2 2 1 3 3 4 5 5 6 6 7 7 8 8
REMARK H PARENT
REMARK Flexibility Score: inf
ROOT
ATOM      1  C   UNL     1      17.605  -7.325 -35.727  1.00  0.00     0.059 C 
ENDROOT
BRANCH   1   2
ATOM      2  C   UNL     1      19.066  -7.056 -35.532  1.00  0.00     0.042 C 
ATOM      3  O   UNL     1      19.925  -7.798 -36.078  1.00  0.00    -0.550 OA
ATOM      4  O   UNL     1      19.479  -5.963 -34.781  1.00  0.00    -0.550 OA
ENDBRANCH   1   2
BRANCH   1   5
ATOM      5  C   UNL     1      16.934  -7.771 -34.424  1.00  0.00     0.059 C 
BRANCH   5   6
ATOM      6  C   UNL     1      15.695  -8.572 -34.686  1.00  0.00     0.042 C 
ATOM      7  O   UNL     1      15.034  -8.391 -35.743  1.00  0.00    -0.550 OA
ATOM      8  O   UNL     1      15.247  -9.488 -33.743  1.00  0.00    -0.550 OA
ENDBRANCH   5   6
ENDBRANCH   1   5
TORSDOF 3
ENDMDL
MODEL 2
REMARK VINA RESULT:    -2.710     10.888     12.466
REMARK INTER + INTRA:          -3.217
REMARK INTER:                  -3.149
REMARK INTRA:                  -0.068
REMARK UNBOUND:                -0.031
REMARK SMILES O=C([O-])CCC(=O)[O-]
REMARK SMILES IDX 4 1 2 2 1 3 3 4 5 5 6 6 7 7 8 8
REMARK H PARENT
REMARK Flexibility Score: inf
ROOT
ATOM      1  C   UNL     1      28.821  -3.769 -37.554  1.00  0.00     0.059 C 
ENDROOT
BRANCH   1   2
ATOM      2  C   UNL     1      30.261  -3.362 -37.648  1.00  0.00     0.042 C 
ATOM      3  O   UNL     1      30.736  -2.526 -36.835  1.00  0.00    -0.550 OA
ATOM      4  O   UNL     1      31.086  -3.938 -38.606  1.00  0.00    -0.550 OA
ENDBRANCH   1   2
BRANCH   1   5
ATOM      5  C   UNL     1      28.350  -3.847 -36.098  1.00  0.00     0.059 C 
BRANCH   5   6
ATOM      6  C   UNL     1      27.094  -3.057 -35.881  1.00  0.00     0.042 C 
ATOM      7  O   UNL     1      26.671  -2.846 -34.713  1.00  0.00    -0.550 OA
ATOM      8  O   UNL     1      26.369  -2.592 -36.970  1.00  0.00    -0.550 OA
ENDBRANCH   5   6
ENDBRANCH   1   5
TORSDOF 3
ENDMDL
MODEL 3
REMARK VINA RESULT:    -2.707      0.182      4.281
REMARK INTER + INTRA:          -3.212
REMARK INTER:                  -3.181
REMARK INTRA:                  -0.031
REMARK UNBOUND:                -0.031
REMARK SMILES O=C([O-])CCC(=O)[O-]
REMARK SMILES IDX 4 1 2 2 1 3 3 4 5 5 6 6 7 7 8 8
REMARK H PARENT
REMARK Flexibility Score: inf
ROOT
ATOM      1  C   UNL     1      16.801  -7.833 -34.335  1.00  0.00     0.059 C 
ENDROOT
BRANCH   1   2
ATOM      2  C   UNL     1      15.571  -8.640 -34.621  1.00  0.00     0.042 C 
ATOM      3  O   UNL     1      14.953  -8.489 -35.708  1.00  0.00    -0.550 OA
ATOM      4  O   UNL     1      15.131  -9.587 -33.705  1.00  0.00    -0.550 OA
ENDBRANCH   1   2
BRANCH   1   5
ATOM      5  C   UNL     1      17.505  -7.400 -35.626  1.00  0.00     0.059 C 
BRANCH   5   6
ATOM      6  C   UNL     1      18.952  -7.092 -35.390  1.00  0.00     0.042 C 
ATOM      7  O   UNL     1      19.284  -6.161 -34.608  1.00  0.00    -0.550 OA
ATOM      8  O   UNL     1      19.934  -7.806 -36.065  1.00  0.00    -0.550 OA
ENDBRANCH   5   6
ENDBRANCH   1   5
TORSDOF 3
ENDMDL
MODEL 4
REMARK VINA RESULT:    -2.699      2.307      3.019
REMARK INTER + INTRA:          -3.204
REMARK INTER:                  -3.092
REMARK INTRA:                  -0.112
REMARK UNBOUND:                -0.031
REMARK SMILES O=C([O-])CCC(=O)[O-]
REMARK SMILES IDX 4 1 2 2 1 3 3 4 5 5 6 6 7 7 8 8
REMARK H PARENT
REMARK Flexibility Score: inf
ROOT
ATOM      1  C   UNL     1      17.654  -7.118 -36.130  1.00  0.00     0.059 C 
ENDROOT
BRANCH   1   2
ATOM      2  C   UNL     1      18.973  -7.447 -36.762  1.00  0.00     0.042 C 
ATOM      3  O   UNL     1      19.947  -7.800 -36.046  1.00  0.00    -0.550 OA
ATOM      4  O   UNL     1      19.114  -7.403 -38.143  1.00  0.00    -0.550 OA
ENDBRANCH   1   2
BRANCH   1   5
ATOM      5  C   UNL     1      17.647  -7.446 -34.633  1.00  0.00     0.059 C 
BRANCH   5   6
ATOM      6  C   UNL     1      17.787  -6.210 -33.797  1.00  0.00     0.042 C 
ATOM      7  O   UNL     1      16.783  -5.721 -33.215  1.00  0.00    -0.550 OA
ATOM      8  O   UNL     1      19.019  -5.577 -33.695  1.00  0.00    -0.550 OA
ENDBRANCH   5   6
ENDBRANCH   1   5
TORSDOF 3
ENDMDL
MODEL 5
REMARK VINA RESULT:    -2.694      2.324      3.779
REMARK INTER + INTRA:          -3.198
REMARK INTER:                  -3.090
REMARK INTRA:                  -0.108
REMARK UNBOUND:                -0.031
REMARK SMILES O=C([O-])CCC(=O)[O-]
REMARK SMILES IDX 4 1 2 2 1 3 3 4 5 5 6 6 7 7 8 8
REMARK H PARENT
REMARK Flexibility Score: inf
ROOT
ATOM      1  C   UNL     1      17.654  -7.432 -34.643  1.00  0.00     0.059 C 
ENDROOT
BRANCH   1   2
ATOM      2  C   UNL     1      17.810  -6.178 -33.837  1.00  0.00     0.042 C 
ATOM      3  O   UNL     1      16.818  -5.680 -33.244  1.00  0.00    -0.550 OA
ATOM      4  O   UNL     1      19.059  -5.584 -33.709  1.00  0.00    -0.550 OA
ENDBRANCH   1   2
BRANCH   1   5
ATOM      5  C   UNL     1      17.669  -7.141 -36.148  1.00  0.00     0.059 C 
BRANCH   5   6
ATOM      6  C   UNL     1      18.995  -7.476 -36.762  1.00  0.00     0.042 C 
ATOM      7  O   UNL     1      19.965  -7.815 -36.032  1.00  0.00    -0.550 OA
ATOM      8  O   UNL     1      19.171  -7.371 -38.135  1.00  0.00    -0.550 OA
ENDBRANCH   5   6
ENDBRANCH   1   5
TORSDOF 3
ENDMDL
MODEL 6
REMARK VINA RESULT:    -2.687      1.148      4.113
REMARK INTER + INTRA:          -3.189
REMARK INTER:                  -3.089
REMARK INTRA:                  -0.100
REMARK UNBOUND:                -0.031
REMARK SMILES O=C([O-])CCC(=O)[O-]
REMARK SMILES IDX 4 1 2 2 1 3 3 4 5 5 6 6 7 7 8 8
REMARK H PARENT
REMARK Flexibility Score: inf
ROOT
ATOM      1  C   UNL     1      15.680  -7.658 -34.396  1.00  0.00     0.059 C 
ENDROOT
BRANCH   1   2
ATOM      2  C   UNL     1      15.095  -9.035 -34.486  1.00  0.00     0.042 C 
ATOM      3  O   UNL     1      15.191  -9.828 -33.513  1.00  0.00    -0.550 OA
ATOM      4  O   UNL     1      14.410  -9.427 -35.629  1.00  0.00    -0.550 OA
ENDBRANCH   1   2
BRANCH   1   5
ATOM      5  C   UNL     1      17.212  -7.696 -34.358  1.00  0.00     0.059 C 
BRANCH   5   6
ATOM      6  C   UNL     1      17.805  -7.419 -35.706  1.00  0.00     0.042 C 
ATOM      7  O   UNL     1      17.059  -7.140 -36.682  1.00  0.00    -0.550 OA
ATOM      8  O   UNL     1      19.178  -7.510 -35.893  1.00  0.00    -0.550 OA
ENDBRANCH   5   6
ENDBRANCH   1   5
TORSDOF 3
ENDMDL
MODEL 7
REMARK VINA RESULT:    -2.675      1.806      2.734
REMARK INTER + INTRA:          -3.175
REMARK INTER:                  -3.053
REMARK INTRA:                  -0.122
REMARK UNBOUND:                -0.031
REMARK SMILES O=C([O-])CCC(=O)[O-]
REMARK SMILES IDX 4 1 2 2 1 3 3 4 5 5 6 6 7 7 8 8
REMARK H PARENT
REMARK Flexibility Score: inf
ROOT
ATOM      1  C   UNL     1      19.667  -7.422 -36.139  1.00  0.00     0.059 C 
ENDROOT
BRANCH   1   2
ATOM      2  C   UNL     1      20.244  -6.196 -36.780  1.00  0.00     0.042 C 
ATOM      3  O   UNL     1      19.960  -5.054 -36.332  1.00  0.00    -0.550 OA
ATOM      4  O   UNL     1      21.127  -6.318 -37.845  1.00  0.00    -0.550 OA
ENDBRANCH   1   2
BRANCH   1   5
ATOM      5  C   UNL     1      18.136  -7.374 -36.105  1.00  0.00     0.059 C 
BRANCH   5   6
ATOM      6  C   UNL     1      17.614  -7.363 -34.700  1.00  0.00     0.042 C 
ATOM      7  O   UNL     1      16.712  -8.170 -34.352  1.00  0.00    -0.550 OA
ATOM      8  O   UNL     1      18.095  -6.432 -33.788  1.00  0.00    -0.550 OA
ENDBRANCH   5   6
ENDBRANCH   1   5
TORSDOF 3
ENDMDL
MODEL 8
REMARK VINA RESULT:    -2.673     16.622     17.903
REMARK INTER + INTRA:          -3.173
REMARK INTER:                  -3.118
REMARK INTRA:                  -0.054
REMARK UNBOUND:                -0.031
REMARK SMILES O=C([O-])CCC(=O)[O-]
REMARK SMILES IDX 4 1 2 2 1 3 3 4 5 5 6 6 7 7 8 8
REMARK H PARENT
REMARK Flexibility Score: inf
ROOT
ATOM      1  C   UNL     1      27.367 -21.327 -38.002  1.00  0.00     0.059 C 
ENDROOT
BRANCH   1   2
ATOM      2  C   UNL     1      26.997 -20.178 -38.891  1.00  0.00     0.042 C 
ATOM      3  O   UNL     1      27.019 -20.315 -40.143  1.00  0.00    -0.550 OA
ATOM      4  O   UNL     1      26.590 -18.971 -38.337  1.00  0.00    -0.550 OA
ENDBRANCH   1   2
BRANCH   1   5
ATOM      5  C   UNL     1      28.545 -22.125 -38.571  1.00  0.00     0.059 C 
BRANCH   5   6
ATOM      6  C   UNL     1      29.775 -21.969 -37.730  1.00  0.00     0.042 C 
ATOM      7  O   UNL     1      29.714 -22.125 -36.481  1.00  0.00    -0.550 OA
ATOM      8  O   UNL     1      30.980 -21.611 -38.320  1.00  0.00    -0.550 OA
ENDBRANCH   5   6
ENDBRANCH   1   5
TORSDOF 3
ENDMDL
MODEL 9
REMARK VINA RESULT:    -2.667      1.703      4.456
REMARK INTER + INTRA:          -3.165
REMARK INTER:                  -3.042
REMARK INTRA:                  -0.123
REMARK UNBOUND:                -0.031
REMARK SMILES O=C([O-])CCC(=O)[O-]
REMARK SMILES IDX 4 1 2 2 1 3 3 4 5 5 6 6 7 7 8 8
REMARK H PARENT
REMARK Flexibility Score: inf
ROOT
ATOM      1  C   UNL     1      18.048  -7.404 -36.092  1.00  0.00     0.059 C 
ENDROOT
BRANCH   1   2
ATOM      2  C   UNL     1      17.539  -7.410 -34.682  1.00  0.00     0.042 C 
ATOM      3  O   UNL     1      18.005  -6.601 -33.837  1.00  0.00    -0.550 OA
ATOM      4  O   UNL     1      16.523  -8.282 -34.313  1.00  0.00    -0.550 OA
ENDBRANCH   1   2
BRANCH   1   5
ATOM      5  C   UNL     1      19.578  -7.481 -36.140  1.00  0.00     0.059 C 
BRANCH   5   6
ATOM      6  C   UNL     1      20.175  -6.243 -36.737  1.00  0.00     0.042 C 
ATOM      7  O   UNL     1      21.011  -6.330 -37.675  1.00  0.00    -0.550 OA
ATOM      8  O   UNL     1      19.839  -4.995 -36.228  1.00  0.00    -0.550 OA
ENDBRANCH   5   6
ENDBRANCH   1   5
TORSDOF 3
ENDMDL
