MODEL 1
REMARK VINA RESULT:    -3.132      0.000      0.000
REMARK INTER + INTRA:          -8.553
REMARK INTER:                  -5.695
REMARK INTRA:                  -2.858
REMARK UNBOUND:                -2.858
REMARK SMILES CCCCCC=CCC=CCCCCCCCC(=O)[O-]
REMARK SMILES IDX 11 1 12 2 13 3 14 4 15 5 16 6 17 7 18 8 19 9 20 10 10 11
REMARK SMILES IDX 9 12 8 13 7 14 6 15 5 16 4 17 3 18 2 19 1 20
REMARK H PARENT
REMARK Flexibility Score: inf
ROOT
ATOM      1  C   UNL     1     -29.066   5.664 -38.561  1.00  0.00     0.027 C 
ENDROOT
BRANCH   1   2
ATOM      2  C   UNL     1     -28.110   4.534 -38.155  1.00  0.00     0.004 C 
BRANCH   2   3
ATOM      3  C   UNL     1     -28.688   3.133 -38.424  1.00  0.00     0.000 C 
BRANCH   3   4
ATOM      4  C   UNL     1     -28.812   2.233 -37.180  1.00  0.00     0.000 C 
BRANCH   4   5
ATOM      5  C   UNL     1     -29.901   2.709 -36.204  1.00  0.00     0.000 C 
BRANCH   5   6
ATOM      6  C   UNL     1     -30.732   1.548 -35.628  1.00  0.00     0.006 C 
BRANCH   6   7
ATOM      7  C   UNL     1     -29.975   0.212 -35.548  1.00  0.00     0.053 C 
BRANCH   7   8
ATOM      8  C   UNL     1     -30.907  -0.959 -35.473  1.00  0.00     0.041 C 
ATOM      9  O   UNL     1     -30.503  -2.111 -35.780  1.00  0.00    -0.550 OA
ATOM     10  O   UNL     1     -32.214  -0.782 -35.033  1.00  0.00    -0.550 OA
ENDBRANCH   7   8
ENDBRANCH   6   7
ENDBRANCH   5   6
ENDBRANCH   4   5
ENDBRANCH   3   4
ENDBRANCH   2   3
ENDBRANCH   1   2
BRANCH   1  11
ATOM     11  C   UNL     1     -30.424   5.123 -38.921  1.00  0.00    -0.031 C 
ATOM     12  C   UNL     1     -31.511   5.489 -38.229  1.00  0.00    -0.027 C 
BRANCH  12  13
ATOM     13  C   UNL     1     -32.876   4.959 -38.566  1.00  0.00     0.054 C 
BRANCH  13  14
ATOM     14  C   UNL     1     -32.801   3.508 -38.949  1.00  0.00    -0.027 C 
ATOM     15  C   UNL     1     -33.161   2.536 -38.098  1.00  0.00    -0.031 C 
BRANCH  15  16
ATOM     16  C   UNL     1     -33.124   1.087 -38.496  1.00  0.00     0.027 C 
BRANCH  16  17
ATOM     17  C   UNL     1     -31.754   0.704 -39.069  1.00  0.00     0.004 C 
BRANCH  17  18
ATOM     18  C   UNL     1     -31.502  -0.803 -38.932  1.00  0.00     0.000 C 
BRANCH  18  19
ATOM     19  C   UNL     1     -30.280  -1.233 -39.750  1.00  0.00    -0.003 C 
ATOM     20  C   UNL     1     -29.007  -1.181 -38.909  1.00  0.00     0.004 C 
ENDBRANCH  18  19
ENDBRANCH  17  18
ENDBRANCH  16  17
ENDBRANCH  15  16
ENDBRANCH  13  14
ENDBRANCH  12  13
ENDBRANCH   1  11
TORSDOF 14
ENDMDL
MODEL 2
REMARK VINA RESULT:    -3.057      2.027      4.748
REMARK INTER + INTRA:          -8.417
REMARK INTER:                  -5.861
REMARK INTRA:                  -2.556
REMARK UNBOUND:                -2.858
REMARK SMILES CCCCCC=CCC=CCCCCCCCC(=O)[O-]
REMARK SMILES IDX 11 1 12 2 13 3 14 4 15 5 16 6 17 7 18 8 19 9 20 10 10 11
REMARK SMILES IDX 9 12 8 13 7 14 6 15 5 16 4 17 3 18 2 19 1 20
REMARK H PARENT
REMARK Flexibility Score: inf
ROOT
ATOM      1  C   UNL     1     -32.954   0.550 -38.617  1.00  0.00     0.027 C 
ENDROOT
BRANCH   1   2
ATOM      2  C   UNL     1     -31.651  -0.198 -38.932  1.00  0.00     0.004 C 
BRANCH   2   3
ATOM      3  C   UNL     1     -30.494   0.745 -39.310  1.00  0.00     0.000 C 
BRANCH   3   4
ATOM      4  C   UNL     1     -29.390   0.874 -38.245  1.00  0.00     0.000 C 
BRANCH   4   5
ATOM      5  C   UNL     1     -29.902   0.609 -36.818  1.00  0.00     0.000 C 
BRANCH   5   6
ATOM      6  C   UNL     1     -30.214   1.904 -36.048  1.00  0.00     0.006 C 
BRANCH   6   7
ATOM      7  C   UNL     1     -31.259   1.736 -34.932  1.00  0.00     0.053 C 
BRANCH   7   8
ATOM      8  C   UNL     1     -31.543   3.028 -34.229  1.00  0.00     0.041 C 
ATOM      9  O   UNL     1     -31.718   3.045 -32.982  1.00  0.00    -0.550 OA
ATOM     10  O   UNL     1     -31.583   4.218 -34.946  1.00  0.00    -0.550 OA
ENDBRANCH   7   8
ENDBRANCH   6   7
ENDBRANCH   5   6
ENDBRANCH   4   5
ENDBRANCH   3   4
ENDBRANCH   2   3
ENDBRANCH   1   2
BRANCH   1  11
ATOM     11  C   UNL     1     -32.816   2.022 -38.898  1.00  0.00    -0.031 C 
ATOM     12  C   UNL     1     -33.133   2.929 -37.963  1.00  0.00    -0.027 C 
BRANCH  12  13
ATOM     13  C   UNL     1     -33.007   4.403 -38.221  1.00  0.00     0.054 C 
BRANCH  13  14
ATOM     14  C   UNL     1     -31.697   4.715 -38.887  1.00  0.00    -0.027 C 
ATOM     15  C   UNL     1     -30.609   5.050 -38.177  1.00  0.00    -0.031 C 
BRANCH  15  16
ATOM     16  C   UNL     1     -29.288   5.323 -38.842  1.00  0.00     0.027 C 
BRANCH  16  17
ATOM     17  C   UNL     1     -28.239   4.280 -38.440  1.00  0.00     0.004 C 
BRANCH  17  18
ATOM     18  C   UNL     1     -27.924   4.366 -36.941  1.00  0.00     0.000 C 
BRANCH  18  19
ATOM     19  C   UNL     1     -26.676   5.220 -36.689  1.00  0.00    -0.003 C 
ATOM     20  C   UNL     1     -26.573   5.625 -35.221  1.00  0.00     0.004 C 
ENDBRANCH  18  19
ENDBRANCH  17  18
ENDBRANCH  16  17
ENDBRANCH  15  16
ENDBRANCH  13  14
ENDBRANCH  12  13
ENDBRANCH   1  11
TORSDOF 14
ENDMDL
MODEL 3
REMARK VINA RESULT:    -3.029      3.195      6.061
REMARK INTER + INTRA:          -8.365
REMARK INTER:                  -6.422
REMARK INTRA:                  -1.943
REMARK UNBOUND:                -2.858
REMARK SMILES CCCCCC=CCC=CCCCCCCCC(=O)[O-]
REMARK SMILES IDX 11 1 12 2 13 3 14 4 15 5 16 6 17 7 18 8 19 9 20 10 10 11
REMARK SMILES IDX 9 12 8 13 7 14 6 15 5 16 4 17 3 18 2 19 1 20
REMARK H PARENT
REMARK Flexibility Score: inf
ROOT
ATOM      1  C   UNL     1     -31.919   3.328 -37.327  1.00  0.00     0.027 C 
ENDROOT
BRANCH   1   2
ATOM      2  C   UNL     1     -32.498   3.415 -38.746  1.00  0.00     0.004 C 
BRANCH   2   3
ATOM      3  C   UNL     1     -32.772   2.034 -39.369  1.00  0.00     0.000 C 
BRANCH   3   4
ATOM      4  C   UNL     1     -32.949   0.890 -38.353  1.00  0.00     0.000 C 
BRANCH   4   5
ATOM      5  C   UNL     1     -32.006  -0.297 -38.619  1.00  0.00     0.000 C 
BRANCH   5   6
ATOM      6  C   UNL     1     -30.583  -0.057 -38.084  1.00  0.00     0.006 C 
BRANCH   6   7
ATOM      7  C   UNL     1     -29.559   0.323 -39.168  1.00  0.00     0.053 C 
BRANCH   7   8
ATOM      8  C   UNL     1     -28.203   0.588 -38.591  1.00  0.00     0.041 C 
ATOM      9  O   UNL     1     -27.188   0.596 -39.336  1.00  0.00    -0.550 OA
ATOM     10  O   UNL     1     -28.062   0.857 -37.234  1.00  0.00    -0.550 OA
ENDBRANCH   7   8
ENDBRANCH   6   7
ENDBRANCH   5   6
ENDBRANCH   4   5
ENDBRANCH   3   4
ENDBRANCH   2   3
ENDBRANCH   1   2
BRANCH   1  11
ATOM     11  C   UNL     1     -30.434   3.568 -37.332  1.00  0.00    -0.031 C 
ATOM     12  C   UNL     1     -29.822   4.045 -38.425  1.00  0.00    -0.027 C 
BRANCH  12  13
ATOM     13  C   UNL     1     -28.340   4.289 -38.456  1.00  0.00     0.054 C 
BRANCH  13  14
ATOM     14  C   UNL     1     -27.810   4.506 -37.067  1.00  0.00    -0.027 C 
ATOM     15  C   UNL     1     -26.949   5.497 -36.789  1.00  0.00    -0.031 C 
BRANCH  15  16
ATOM     16  C   UNL     1     -26.450   5.739 -35.391  1.00  0.00     0.027 C 
BRANCH  16  17
ATOM     17  C   UNL     1     -26.667   4.507 -34.504  1.00  0.00     0.004 C 
BRANCH  17  18
ATOM     18  C   UNL     1     -26.050   4.715 -33.116  1.00  0.00     0.000 C 
BRANCH  18  19
ATOM     19  C   UNL     1     -24.639   5.304 -33.223  1.00  0.00    -0.003 C 
ATOM     20  C   UNL     1     -23.636   4.253 -33.692  1.00  0.00     0.004 C 
ENDBRANCH  18  19
ENDBRANCH  17  18
ENDBRANCH  16  17
ENDBRANCH  15  16
ENDBRANCH  13  14
ENDBRANCH  12  13
ENDBRANCH   1  11
TORSDOF 14
ENDMDL
MODEL 4
REMARK VINA RESULT:    -3.017      3.960      4.821
REMARK INTER + INTRA:          -8.343
REMARK INTER:                  -6.677
REMARK INTRA:                  -1.666
REMARK UNBOUND:                -2.858
REMARK SMILES CCCCCC=CCC=CCCCCCCCC(=O)[O-]
REMARK SMILES IDX 11 1 12 2 13 3 14 4 15 5 16 6 17 7 18 8 19 9 20 10 10 11
REMARK SMILES IDX 9 12 8 13 7 14 6 15 5 16 4 17 3 18 2 19 1 20
REMARK H PARENT
REMARK Flexibility Score: inf
ROOT
ATOM      1  C   UNL     1     -27.238   2.797 -37.191  1.00  0.00     0.027 C 
ENDROOT
BRANCH   1   2
ATOM      2  C   UNL     1     -26.192   3.884 -36.908  1.00  0.00     0.004 C 
BRANCH   2   3
ATOM      3  C   UNL     1     -26.819   5.259 -36.613  1.00  0.00     0.000 C 
BRANCH   3   4
ATOM      4  C   UNL     1     -26.445   5.861 -35.245  1.00  0.00     0.000 C 
BRANCH   4   5
ATOM      5  C   UNL     1     -26.164   4.790 -34.177  1.00  0.00     0.000 C 
BRANCH   5   6
ATOM      6  C   UNL     1     -24.947   5.131 -33.298  1.00  0.00     0.006 C 
BRANCH   6   7
ATOM      7  C   UNL     1     -23.651   4.414 -33.712  1.00  0.00     0.053 C 
BRANCH   7   8
ATOM      8  C   UNL     1     -23.791   2.924 -33.658  1.00  0.00     0.041 C 
ATOM      9  O   UNL     1     -23.489   2.222 -34.659  1.00  0.00    -0.550 OA
ATOM     10  O   UNL     1     -24.226   2.306 -32.490  1.00  0.00    -0.550 OA
ENDBRANCH   7   8
ENDBRANCH   6   7
ENDBRANCH   5   6
ENDBRANCH   4   5
ENDBRANCH   3   4
ENDBRANCH   2   3
ENDBRANCH   1   2
BRANCH   1  11
ATOM     11  C   UNL     1     -28.411   3.358 -37.949  1.00  0.00    -0.031 C 
ATOM     12  C   UNL     1     -28.541   3.141 -39.265  1.00  0.00    -0.027 C 
BRANCH  12  13
ATOM     13  C   UNL     1     -29.700   3.694 -40.045  1.00  0.00     0.054 C 
BRANCH  13  14
ATOM     14  C   UNL     1     -30.999   3.365 -39.367  1.00  0.00    -0.027 C 
ATOM     15  C   UNL     1     -31.586   2.167 -39.513  1.00  0.00    -0.031 C 
BRANCH  15  16
ATOM     16  C   UNL     1     -32.866   1.824 -38.802  1.00  0.00     0.027 C 
BRANCH  16  17
ATOM     17  C   UNL     1     -32.882   0.355 -38.365  1.00  0.00     0.004 C 
BRANCH  17  18
ATOM     18  C   UNL     1     -31.574  -0.347 -38.749  1.00  0.00     0.000 C 
BRANCH  18  19
ATOM     19  C   UNL     1     -30.865  -0.907 -37.510  1.00  0.00    -0.003 C 
ATOM     20  C   UNL     1     -29.685  -0.027 -37.105  1.00  0.00     0.004 C 
ENDBRANCH  18  19
ENDBRANCH  17  18
ENDBRANCH  16  17
ENDBRANCH  15  16
ENDBRANCH  13  14
ENDBRANCH  12  13
ENDBRANCH   1  11
TORSDOF 14
ENDMDL
MODEL 5
REMARK VINA RESULT:    -2.973      3.235      6.613
REMARK INTER + INTRA:          -8.265
REMARK INTER:                  -6.288
REMARK INTRA:                  -1.977
REMARK UNBOUND:                -2.858
REMARK SMILES CCCCCC=CCC=CCCCCCCCC(=O)[O-]
REMARK SMILES IDX 11 1 12 2 13 3 14 4 15 5 16 6 17 7 18 8 19 9 20 10 10 11
REMARK SMILES IDX 9 12 8 13 7 14 6 15 5 16 4 17 3 18 2 19 1 20
REMARK H PARENT
REMARK Flexibility Score: inf
ROOT
ATOM      1  C   UNL     1     -30.458  -1.012 -36.515  1.00  0.00     0.027 C 
ENDROOT
BRANCH   1   2
ATOM      2  C   UNL     1     -31.810  -0.347 -36.807  1.00  0.00     0.004 C 
BRANCH   2   3
ATOM      3  C   UNL     1     -32.061  -0.133 -38.311  1.00  0.00     0.000 C 
BRANCH   3   4
ATOM      4  C   UNL     1     -33.153   0.901 -38.645  1.00  0.00     0.000 C 
BRANCH   4   5
ATOM      5  C   UNL     1     -32.592   2.173 -39.302  1.00  0.00     0.000 C 
BRANCH   5   6
ATOM      6  C   UNL     1     -31.056   2.165 -39.398  1.00  0.00     0.006 C 
BRANCH   6   7
ATOM      7  C   UNL     1     -30.412   3.558 -39.300  1.00  0.00     0.053 C 
BRANCH   7   8
ATOM      8  C   UNL     1     -30.837   4.289 -38.064  1.00  0.00     0.041 C 
ATOM      9  O   UNL     1     -30.691   3.757 -36.932  1.00  0.00    -0.550 OA
ATOM     10  O   UNL     1     -31.367   5.571 -38.159  1.00  0.00    -0.550 OA
ENDBRANCH   7   8
ENDBRANCH   6   7
ENDBRANCH   5   6
ENDBRANCH   4   5
ENDBRANCH   3   4
ENDBRANCH   2   3
ENDBRANCH   1   2
BRANCH   1  11
ATOM     11  C   UNL     1     -29.341  -0.310 -37.238  1.00  0.00    -0.031 C 
ATOM     12  C   UNL     1     -28.847   0.847 -36.775  1.00  0.00    -0.027 C 
BRANCH  12  13
ATOM     13  C   UNL     1     -27.735   1.569 -37.481  1.00  0.00     0.054 C 
BRANCH  13  14
ATOM     14  C   UNL     1     -27.314   2.783 -36.703  1.00  0.00    -0.027 C 
ATOM     15  C   UNL     1     -27.158   3.978 -37.294  1.00  0.00    -0.031 C 
BRANCH  15  16
ATOM     16  C   UNL     1     -26.775   5.201 -36.507  1.00  0.00     0.027 C 
BRANCH  16  17
ATOM     17  C   UNL     1     -26.994   4.986 -35.005  1.00  0.00     0.004 C 
BRANCH  17  18
ATOM     18  C   UNL     1     -25.691   5.193 -34.224  1.00  0.00     0.000 C 
BRANCH  18  19
ATOM     19  C   UNL     1     -24.830   3.925 -34.245  1.00  0.00    -0.003 C 
ATOM     20  C   UNL     1     -23.398   4.223 -33.809  1.00  0.00     0.004 C 
ENDBRANCH  18  19
ENDBRANCH  17  18
ENDBRANCH  16  17
ENDBRANCH  15  16
ENDBRANCH  13  14
ENDBRANCH  12  13
ENDBRANCH   1  11
TORSDOF 14
ENDMDL
MODEL 6
REMARK VINA RESULT:    -2.969      4.551      7.402
REMARK INTER + INTRA:          -8.257
REMARK INTER:                  -7.060
REMARK INTRA:                  -1.197
REMARK UNBOUND:                -2.858
REMARK SMILES CCCCCC=CCC=CCCCCCCCC(=O)[O-]
REMARK SMILES IDX 11 1 12 2 13 3 14 4 15 5 16 6 17 7 18 8 19 9 20 10 10 11
REMARK SMILES IDX 9 12 8 13 7 14 6 15 5 16 4 17 3 18 2 19 1 20
REMARK H PARENT
REMARK Flexibility Score: inf
ROOT
ATOM      1  C   UNL     1     -30.515  -0.853 -37.581  1.00  0.00     0.027 C 
ENDROOT
BRANCH   1   2
ATOM      2  C   UNL     1     -31.584  -0.673 -38.668  1.00  0.00     0.004 C 
BRANCH   2   3
ATOM      3  C   UNL     1     -32.786   0.164 -38.195  1.00  0.00     0.000 C 
BRANCH   3   4
ATOM      4  C   UNL     1     -33.066   1.426 -39.034  1.00  0.00     0.000 C 
BRANCH   4   5
ATOM      5  C   UNL     1     -31.805   2.270 -39.283  1.00  0.00     0.000 C 
BRANCH   5   6
ATOM      6  C   UNL     1     -31.279   2.946 -38.004  1.00  0.00     0.006 C 
BRANCH   6   7
ATOM      7  C   UNL     1     -29.750   2.888 -37.844  1.00  0.00     0.053 C 
BRANCH   7   8
ATOM      8  C   UNL     1     -29.103   4.203 -38.150  1.00  0.00     0.041 C 
ATOM      9  O   UNL     1     -27.849   4.291 -38.221  1.00  0.00    -0.550 OA
ATOM     10  O   UNL     1     -29.886   5.326 -38.389  1.00  0.00    -0.550 OA
ENDBRANCH   7   8
ENDBRANCH   6   7
ENDBRANCH   5   6
ENDBRANCH   4   5
ENDBRANCH   3   4
ENDBRANCH   2   3
ENDBRANCH   1   2
BRANCH   1  11
ATOM     11  C   UNL     1     -31.132  -0.849 -36.208  1.00  0.00    -0.031 C 
ATOM     12  C   UNL     1     -30.900  -1.854 -35.352  1.00  0.00    -0.027 C 
BRANCH  12  13
ATOM     13  C   UNL     1     -31.508  -1.875 -33.979  1.00  0.00     0.054 C 
BRANCH  13  14
ATOM     14  C   UNL     1     -32.232  -3.170 -33.739  1.00  0.00    -0.027 C 
ATOM     15  C   UNL     1     -33.570  -3.224 -33.663  1.00  0.00    -0.031 C 
BRANCH  15  16
ATOM     16  C   UNL     1     -34.296  -4.525 -33.463  1.00  0.00     0.027 C 
BRANCH  16  17
ATOM     17  C   UNL     1     -33.689  -5.328 -32.306  1.00  0.00     0.004 C 
BRANCH  17  18
ATOM     18  C   UNL     1     -34.717  -6.298 -31.712  1.00  0.00     0.000 C 
BRANCH  18  19
ATOM     19  C   UNL     1     -34.091  -7.674 -31.457  1.00  0.00    -0.003 C 
ATOM     20  C   UNL     1     -32.769  -7.548 -30.704  1.00  0.00     0.004 C 
ENDBRANCH  18  19
ENDBRANCH  17  18
ENDBRANCH  16  17
ENDBRANCH  15  16
ENDBRANCH  13  14
ENDBRANCH  12  13
ENDBRANCH   1  11
TORSDOF 14
ENDMDL
MODEL 7
REMARK VINA RESULT:    -2.951      3.346      6.277
REMARK INTER + INTRA:          -8.224
REMARK INTER:                  -6.398
REMARK INTRA:                  -1.826
REMARK UNBOUND:                -2.858
REMARK SMILES CCCCCC=CCC=CCCCCCCCC(=O)[O-]
REMARK SMILES IDX 11 1 12 2 13 3 14 4 15 5 16 6 17 7 18 8 19 9 20 10 10 11
REMARK SMILES IDX 9 12 8 13 7 14 6 15 5 16 4 17 3 18 2 19 1 20
REMARK H PARENT
REMARK Flexibility Score: inf
ROOT
ATOM      1  C   UNL     1     -28.815   1.056 -37.992  1.00  0.00     0.027 C 
ENDROOT
BRANCH   1   2
ATOM      2  C   UNL     1     -29.676   0.255 -37.005  1.00  0.00     0.004 C 
BRANCH   2   3
ATOM      3  C   UNL     1     -30.442  -0.900 -37.675  1.00  0.00     0.000 C 
BRANCH   3   4
ATOM      4  C   UNL     1     -31.387  -0.474 -38.815  1.00  0.00     0.000 C 
BRANCH   4   5
ATOM      5  C   UNL     1     -32.710   0.121 -38.303  1.00  0.00     0.000 C 
BRANCH   5   6
ATOM      6  C   UNL     1     -33.109   1.409 -39.046  1.00  0.00     0.006 C 
BRANCH   6   7
ATOM      7  C   UNL     1     -31.925   2.323 -39.403  1.00  0.00     0.053 C 
BRANCH   7   8
ATOM      8  C   UNL     1     -31.852   3.523 -38.510  1.00  0.00     0.041 C 
ATOM      9  O   UNL     1     -32.108   3.415 -37.282  1.00  0.00    -0.550 OA
ATOM     10  O   UNL     1     -31.472   4.755 -39.028  1.00  0.00    -0.550 OA
ENDBRANCH   7   8
ENDBRANCH   6   7
ENDBRANCH   5   6
ENDBRANCH   4   5
ENDBRANCH   3   4
ENDBRANCH   2   3
ENDBRANCH   1   2
BRANCH   1  11
ATOM     11  C   UNL     1     -28.451   2.402 -37.426  1.00  0.00    -0.031 C 
ATOM     12  C   UNL     1     -28.181   3.434 -38.238  1.00  0.00    -0.027 C 
BRANCH  12  13
ATOM     13  C   UNL     1     -27.811   4.786 -37.697  1.00  0.00     0.054 C 
BRANCH  13  14
ATOM     14  C   UNL     1     -26.734   4.664 -36.657  1.00  0.00    -0.027 C 
ATOM     15  C   UNL     1     -26.779   5.362 -35.512  1.00  0.00    -0.031 C 
BRANCH  15  16
ATOM     16  C   UNL     1     -25.722   5.209 -34.454  1.00  0.00     0.027 C 
BRANCH  16  17
ATOM     17  C   UNL     1     -25.417   3.731 -34.184  1.00  0.00     0.004 C 
BRANCH  17  18
ATOM     18  C   UNL     1     -23.945   3.412 -34.471  1.00  0.00     0.000 C 
BRANCH  18  19
ATOM     19  C   UNL     1     -23.813   2.420 -35.633  1.00  0.00    -0.003 C 
ATOM     20  C   UNL     1     -23.450   3.136 -36.931  1.00  0.00     0.004 C 
ENDBRANCH  18  19
ENDBRANCH  17  18
ENDBRANCH  16  17
ENDBRANCH  15  16
ENDBRANCH  13  14
ENDBRANCH  12  13
ENDBRANCH   1  11
TORSDOF 14
ENDMDL
MODEL 8
REMARK VINA RESULT:    -2.937      3.270      5.472
REMARK INTER + INTRA:          -8.199
REMARK INTER:                  -5.466
REMARK INTRA:                  -2.733
REMARK UNBOUND:                -2.858
REMARK SMILES CCCCCC=CCC=CCCCCCCCC(=O)[O-]
REMARK SMILES IDX 11 1 12 2 13 3 14 4 15 5 16 6 17 7 18 8 19 9 20 10 10 11
REMARK SMILES IDX 9 12 8 13 7 14 6 15 5 16 4 17 3 18 2 19 1 20
REMARK H PARENT
REMARK Flexibility Score: inf
ROOT
ATOM      1  C   UNL     1     -24.981   3.031 -36.625  1.00  0.00     0.027 C 
ENDROOT
BRANCH   1   2
ATOM      2  C   UNL     1     -25.744   3.959 -35.670  1.00  0.00     0.004 C 
BRANCH   2   3
ATOM      3  C   UNL     1     -26.987   4.597 -36.318  1.00  0.00     0.000 C 
BRANCH   3   4
ATOM      4  C   UNL     1     -28.321   3.911 -35.973  1.00  0.00     0.000 C 
BRANCH   4   5
ATOM      5  C   UNL     1     -28.932   3.156 -37.166  1.00  0.00     0.000 C 
BRANCH   5   6
ATOM      6  C   UNL     1     -28.282   3.539 -38.507  1.00  0.00     0.006 C 
BRANCH   6   7
ATOM      7  C   UNL     1     -29.234   4.239 -39.491  1.00  0.00     0.053 C 
BRANCH   7   8
ATOM      8  C   UNL     1     -29.786   5.513 -38.930  1.00  0.00     0.041 C 
ATOM      9  O   UNL     1     -29.057   6.536 -38.846  1.00  0.00    -0.550 OA
ATOM     10  O   UNL     1     -31.115   5.580 -38.528  1.00  0.00    -0.550 OA
ENDBRANCH   7   8
ENDBRANCH   6   7
ENDBRANCH   5   6
ENDBRANCH   4   5
ENDBRANCH   3   4
ENDBRANCH   2   3
ENDBRANCH   1   2
BRANCH   1  11
ATOM     11  C   UNL     1     -25.579   1.649 -36.631  1.00  0.00    -0.031 C 
ATOM     12  C   UNL     1     -25.734   0.977 -37.781  1.00  0.00    -0.027 C 
BRANCH  12  13
ATOM     13  C   UNL     1     -26.333  -0.401 -37.813  1.00  0.00     0.054 C 
BRANCH  13  14
ATOM     14  C   UNL     1     -27.797  -0.334 -38.142  1.00  0.00    -0.027 C 
ATOM     15  C   UNL     1     -28.227  -0.072 -39.385  1.00  0.00    -0.031 C 
BRANCH  15  16
ATOM     16  C   UNL     1     -29.692  -0.046 -39.723  1.00  0.00     0.027 C 
BRANCH  16  17
ATOM     17  C   UNL     1     -30.551  -0.367 -38.494  1.00  0.00     0.004 C 
BRANCH  17  18
ATOM     18  C   UNL     1     -32.010   0.047 -38.718  1.00  0.00     0.000 C 
BRANCH  18  19
ATOM     19  C   UNL     1     -32.250   1.488 -38.255  1.00  0.00    -0.003 C 
ATOM     20  C   UNL     1     -32.482   2.418 -39.443  1.00  0.00     0.004 C 
ENDBRANCH  18  19
ENDBRANCH  17  18
ENDBRANCH  16  17
ENDBRANCH  15  16
ENDBRANCH  13  14
ENDBRANCH  12  13
ENDBRANCH   1  11
TORSDOF 14
ENDMDL
MODEL 9
REMARK VINA RESULT:    -2.934      3.112      5.302
REMARK INTER + INTRA:          -8.193
REMARK INTER:                  -5.205
REMARK INTRA:                  -2.988
REMARK UNBOUND:                -2.858
REMARK SMILES CCCCCC=CCC=CCCCCCCCC(=O)[O-]
REMARK SMILES IDX 11 1 12 2 13 3 14 4 15 5 16 6 17 7 18 8 19 9 20 10 10 11
REMARK SMILES IDX 9 12 8 13 7 14 6 15 5 16 4 17 3 18 2 19 1 20
REMARK H PARENT
REMARK Flexibility Score: inf
ROOT
ATOM      1  C   UNL     1     -31.134   2.374 -33.296  1.00  0.00     0.027 C 
ENDROOT
BRANCH   1   2
ATOM      2  C   UNL     1     -31.517   3.603 -34.133  1.00  0.00     0.004 C 
BRANCH   2   3
ATOM      3  C   UNL     1     -31.630   3.293 -35.637  1.00  0.00     0.000 C 
BRANCH   3   4
ATOM      4  C   UNL     1     -30.563   3.968 -36.519  1.00  0.00     0.000 C 
BRANCH   4   5
ATOM      5  C   UNL     1     -29.495   2.983 -37.025  1.00  0.00     0.000 C 
BRANCH   5   6
ATOM      6  C   UNL     1     -28.371   2.747 -36.001  1.00  0.00     0.006 C 
BRANCH   6   7
ATOM      7  C   UNL     1     -28.009   3.987 -35.166  1.00  0.00     0.053 C 
BRANCH   7   8
ATOM      8  C   UNL     1     -26.818   4.708 -35.719  1.00  0.00     0.041 C 
ATOM      9  O   UNL     1     -25.725   4.698 -35.095  1.00  0.00    -0.550 OA
ATOM     10  O   UNL     1     -26.907   5.365 -36.941  1.00  0.00    -0.550 OA
ENDBRANCH   7   8
ENDBRANCH   6   7
ENDBRANCH   5   6
ENDBRANCH   4   5
ENDBRANCH   3   4
ENDBRANCH   2   3
ENDBRANCH   1   2
BRANCH   1  11
ATOM     11  C   UNL     1     -31.286   1.106 -34.093  1.00  0.00    -0.031 C 
ATOM     12  C   UNL     1     -30.283   0.220 -34.166  1.00  0.00    -0.027 C 
BRANCH  12  13
ATOM     13  C   UNL     1     -30.409  -1.049 -34.959  1.00  0.00     0.054 C 
BRANCH  13  14
ATOM     14  C   UNL     1     -31.254  -0.829 -36.181  1.00  0.00    -0.027 C 
ATOM     15  C   UNL     1     -30.707  -0.544 -37.373  1.00  0.00    -0.031 C 
BRANCH  15  16
ATOM     16  C   UNL     1     -31.550  -0.363 -38.604  1.00  0.00     0.027 C 
BRANCH  16  17
ATOM     17  C   UNL     1     -32.988   0.026 -38.240  1.00  0.00     0.004 C 
BRANCH  17  18
ATOM     18  C   UNL     1     -33.204   1.537 -38.393  1.00  0.00     0.000 C 
BRANCH  18  19
ATOM     19  C   UNL     1     -32.214   2.134 -39.400  1.00  0.00    -0.003 C 
ATOM     20  C   UNL     1     -32.565   3.584 -39.724  1.00  0.00     0.004 C 
ENDBRANCH  18  19
ENDBRANCH  17  18
ENDBRANCH  16  17
ENDBRANCH  15  16
ENDBRANCH  13  14
ENDBRANCH  12  13
ENDBRANCH   1  11
TORSDOF 14
ENDMDL
