MODEL 1
REMARK VINA RESULT:    -6.799      0.000      0.000
REMARK INTER + INTRA:          -8.515
REMARK INTER:                  -8.190
REMARK INTRA:                  -0.325
REMARK UNBOUND:                -0.325
REMARK SMILES O=c1c(O)c(-c2ccc(O)c(O)c2)oc2cc(O)cc(O)c12
REMARK SMILES IDX 5 1 3 2 2 3 1 4 22 5 20 6 19 7 17 8 16 9 15 10 14 11 6 12
REMARK SMILES IDX 7 13 8 14 9 15 13 16 11 17 10 18 12 20 4 22 21 24 18 26
REMARK H PARENT 10 19 12 21 4 23 21 25 18 27
REMARK Flexibility Score: inf
ROOT
ATOM      1  C   UNL     1       4.957   3.732  -4.952  1.00  0.00     0.180 A 
ATOM      2  C   UNL     1       5.402   4.984  -4.491  1.00  0.00     0.208 A 
ATOM      3  C   UNL     1       6.751   5.137  -4.133  1.00  0.00     0.238 A 
ATOM      4  O   UNL     1       7.155   6.274  -3.772  1.00  0.00    -0.285 OA
ATOM      5  C   UNL     1       7.634   4.034  -4.224  1.00  0.00     0.111 A 
ATOM      6  C   UNL     1       9.011   4.066  -3.850  1.00  0.00     0.134 A 
ATOM      7  C   UNL     1       9.822   2.952  -4.105  1.00  0.00     0.093 A 
ATOM      8  C   UNL     1       9.293   1.789  -4.660  1.00  0.00     0.123 A 
ATOM      9  C   UNL     1       7.934   1.726  -4.975  1.00  0.00     0.094 A 
ATOM     10  C   UNL     1       7.108   2.832  -4.766  1.00  0.00     0.146 A 
ATOM     11  O   UNL     1       5.823   2.736  -5.088  1.00  0.00    -0.452 OA
ENDROOT
BRANCH   1  12
ATOM     12  C   UNL     1       3.545   3.487  -5.325  1.00  0.00     0.025 A 
ATOM     13  C   UNL     1       3.130   3.716  -6.646  1.00  0.00     0.016 A 
ATOM     14  C   UNL     1       1.808   3.470  -7.025  1.00  0.00     0.051 A 
ATOM     15  C   UNL     1       0.886   2.977  -6.094  1.00  0.00     0.157 A 
ATOM     16  C   UNL     1       2.621   2.971  -4.398  1.00  0.00     0.062 A 
ATOM     17  C   UNL     1       1.297   2.722  -4.774  1.00  0.00     0.158 A 
BRANCH  15  18
ATOM     18  O   UNL     1      -0.433   2.735  -6.474  1.00  0.00    -0.504 OA
ATOM     19  H   UNL     1      -0.927   1.900  -6.177  1.00  0.00     0.293 HD
ENDBRANCH  15  18
BRANCH  17  20
ATOM     20  O   UNL     1       0.407   2.218  -3.827  1.00  0.00    -0.504 OA
ATOM     21  H   UNL     1       0.547   2.350  -2.833  1.00  0.00     0.293 HD
ENDBRANCH  17  20
ENDBRANCH   1  12
BRANCH   2  22
ATOM     22  O   UNL     1       4.518   6.064  -4.429  1.00  0.00    -0.502 OA
ATOM     23  H   UNL     1       3.612   6.001  -3.981  1.00  0.00     0.293 HD
ENDBRANCH   2  22
BRANCH   6  24
ATOM     24  O   UNL     1       9.620   5.146  -3.204  1.00  0.00    -0.507 OA
ATOM     25  H   UNL     1       9.833   5.179  -2.218  1.00  0.00     0.293 HD
ENDBRANCH   6  24
BRANCH   8  26
ATOM     26  O   UNL     1      10.125   0.695  -4.885  1.00  0.00    -0.508 OA
ATOM     27  H   UNL     1      10.433   0.097  -4.127  1.00  0.00     0.293 HD
ENDBRANCH   8  26
TORSDOF 6
ENDMDL
MODEL 2
REMARK VINA RESULT:    -6.760     11.154     12.301
REMARK INTER + INTRA:          -8.468
REMARK INTER:                  -8.135
REMARK INTRA:                  -0.333
REMARK UNBOUND:                -0.325
REMARK SMILES O=c1c(O)c(-c2ccc(O)c(O)c2)oc2cc(O)cc(O)c12
REMARK SMILES IDX 5 1 3 2 2 3 1 4 22 5 20 6 19 7 17 8 16 9 15 10 14 11 6 12
REMARK SMILES IDX 7 13 8 14 9 15 13 16 11 17 10 18 12 20 4 22 21 24 18 26
REMARK H PARENT 10 19 12 21 4 23 21 25 18 27
REMARK Flexibility Score: inf
ROOT
ATOM      1  C   UNL     1       4.961  -3.889   4.764  1.00  0.00     0.180 A 
ATOM      2  C   UNL     1       5.423  -5.125   4.277  1.00  0.00     0.208 A 
ATOM      3  C   UNL     1       6.784  -5.266   3.962  1.00  0.00     0.238 A 
ATOM      4  O   UNL     1       7.202  -6.391   3.579  1.00  0.00    -0.285 OA
ATOM      5  C   UNL     1       7.662  -4.168   4.120  1.00  0.00     0.111 A 
ATOM      6  C   UNL     1       9.051  -4.187   3.794  1.00  0.00     0.134 A 
ATOM      7  C   UNL     1       9.851  -3.082   4.114  1.00  0.00     0.093 A 
ATOM      8  C   UNL     1       9.302  -1.938   4.688  1.00  0.00     0.123 A 
ATOM      9  C   UNL     1       7.933  -1.886   4.957  1.00  0.00     0.094 A 
ATOM     10  C   UNL     1       7.115  -2.984   4.683  1.00  0.00     0.146 A 
ATOM     11  O   UNL     1       5.821  -2.898   4.963  1.00  0.00    -0.452 OA
ENDROOT
BRANCH   1  12
ATOM     12  C   UNL     1       3.536  -3.657   5.095  1.00  0.00     0.025 A 
ATOM     13  C   UNL     1       3.102  -3.807   6.421  1.00  0.00     0.016 A 
ATOM     14  C   UNL     1       1.767  -3.572   6.760  1.00  0.00     0.051 A 
ATOM     15  C   UNL     1       0.851  -3.166   5.782  1.00  0.00     0.157 A 
ATOM     16  C   UNL     1       2.618  -3.228   4.120  1.00  0.00     0.062 A 
ATOM     17  C   UNL     1       1.280  -2.989   4.455  1.00  0.00     0.158 A 
BRANCH  15  18
ATOM     18  O   UNL     1      -0.481  -2.933   6.122  1.00  0.00    -0.504 OA
ATOM     19  H   UNL     1      -0.812  -3.042   7.074  1.00  0.00     0.293 HD
ENDBRANCH  15  18
BRANCH  17  20
ATOM     20  O   UNL     1       0.396  -2.572   3.461  1.00  0.00    -0.504 OA
ATOM     21  H   UNL     1      -0.304  -1.860   3.628  1.00  0.00     0.293 HD
ENDBRANCH  17  20
ENDBRANCH   1  12
BRANCH   2  22
ATOM     22  O   UNL     1       4.543  -6.203   4.149  1.00  0.00    -0.502 OA
ATOM     23  H   UNL     1       4.549  -6.817   3.343  1.00  0.00     0.293 HD
ENDBRANCH   2  22
BRANCH   6  24
ATOM     24  O   UNL     1       9.684  -5.245   3.134  1.00  0.00    -0.507 OA
ATOM     25  H   UNL     1       9.459  -6.220   3.266  1.00  0.00     0.293 HD
ENDBRANCH   6  24
BRANCH   8  26
ATOM     26  O   UNL     1      10.124  -0.852   4.979  1.00  0.00    -0.508 OA
ATOM     27  H   UNL     1      10.001  -0.304   5.823  1.00  0.00     0.293 HD
ENDBRANCH   8  26
TORSDOF 6
ENDMDL
MODEL 3
REMARK VINA RESULT:    -6.648     11.636     13.991
REMARK INTER + INTRA:          -8.334
REMARK INTER:                  -8.369
REMARK INTRA:                   0.035
REMARK UNBOUND:                -0.325
REMARK SMILES O=c1c(O)c(-c2ccc(O)c(O)c2)oc2cc(O)cc(O)c12
REMARK SMILES IDX 5 1 3 2 2 3 1 4 22 5 20 6 19 7 17 8 16 9 15 10 14 11 6 12
REMARK SMILES IDX 7 13 8 14 9 15 13 16 11 17 10 18 12 20 4 22 21 24 18 26
REMARK H PARENT 10 19 12 21 4 23 21 25 18 27
REMARK Flexibility Score: inf
ROOT
ATOM      1  C   UNL     1       4.945  -2.838   5.746  1.00  0.00     0.180 A 
ATOM      2  C   UNL     1       4.847  -2.703   7.143  1.00  0.00     0.208 A 
ATOM      3  C   UNL     1       3.574  -2.640   7.732  1.00  0.00     0.238 A 
ATOM      4  O   UNL     1       3.493  -2.574   8.988  1.00  0.00    -0.285 OA
ATOM      5  C   UNL     1       2.417  -2.694   6.919  1.00  0.00     0.111 A 
ATOM      6  C   UNL     1       1.079  -2.598   7.407  1.00  0.00     0.134 A 
ATOM      7  C   UNL     1       0.008  -2.795   6.526  1.00  0.00     0.093 A 
ATOM      8  C   UNL     1       0.224  -3.020   5.168  1.00  0.00     0.123 A 
ATOM      9  C   UNL     1       1.528  -3.057   4.670  1.00  0.00     0.094 A 
ATOM     10  C   UNL     1       2.618  -2.900   5.529  1.00  0.00     0.146 A 
ATOM     11  O   UNL     1       3.842  -2.952   5.018  1.00  0.00    -0.452 OA
ENDROOT
BRANCH   1  12
ATOM     12  C   UNL     1       6.251  -2.888   5.050  1.00  0.00     0.025 A 
ATOM     13  C   UNL     1       6.449  -3.819   4.019  1.00  0.00     0.016 A 
ATOM     14  C   UNL     1       7.666  -3.869   3.334  1.00  0.00     0.051 A 
ATOM     15  C   UNL     1       8.696  -2.978   3.658  1.00  0.00     0.157 A 
ATOM     16  C   UNL     1       7.281  -1.980   5.358  1.00  0.00     0.062 A 
ATOM     17  C   UNL     1       8.500  -2.025   4.673  1.00  0.00     0.158 A 
BRANCH  15  18
ATOM     18  O   UNL     1       9.910  -3.031   2.975  1.00  0.00    -0.504 OA
ATOM     19  H   UNL     1      10.203  -2.284   2.354  1.00  0.00     0.293 HD
ENDBRANCH  15  18
BRANCH  17  20
ATOM     20  O   UNL     1       9.501  -1.115   5.010  1.00  0.00    -0.504 OA
ATOM     21  H   UNL     1      10.188  -0.796   4.336  1.00  0.00     0.293 HD
ENDBRANCH  17  20
ENDBRANCH   1  12
BRANCH   2  22
ATOM     22  O   UNL     1       6.003  -2.674   7.929  1.00  0.00    -0.502 OA
ATOM     23  H   UNL     1       6.018  -3.008   8.884  1.00  0.00     0.293 HD
ENDBRANCH   2  22
BRANCH   6  24
ATOM     24  O   UNL     1       0.750  -2.284   8.729  1.00  0.00    -0.507 OA
ATOM     25  H   UNL     1       0.128  -2.827   9.310  1.00  0.00     0.293 HD
ENDBRANCH   6  24
BRANCH   8  26
ATOM     26  O   UNL     1      -0.866  -3.196   4.319  1.00  0.00    -0.508 OA
ATOM     27  H   UNL     1      -1.512  -3.967   4.439  1.00  0.00     0.293 HD
ENDBRANCH   8  26
TORSDOF 6
ENDMDL
MODEL 4
REMARK VINA RESULT:    -6.617      1.822      7.255
REMARK INTER + INTRA:          -8.296
REMARK INTER:                  -8.396
REMARK INTRA:                   0.100
REMARK UNBOUND:                -0.325
REMARK SMILES O=c1c(O)c(-c2ccc(O)c(O)c2)oc2cc(O)cc(O)c12
REMARK SMILES IDX 5 1 3 2 2 3 1 4 22 5 20 6 19 7 17 8 16 9 15 10 14 11 6 12
REMARK SMILES IDX 7 13 8 14 9 15 13 16 11 17 10 18 12 20 4 22 21 24 18 26
REMARK H PARENT 10 19 12 21 4 23 21 25 18 27
REMARK Flexibility Score: inf
ROOT
ATOM      1  C   UNL     1       5.092   2.568  -5.623  1.00  0.00     0.180 A 
ATOM      2  C   UNL     1       5.029   2.443  -7.022  1.00  0.00     0.208 A 
ATOM      3  C   UNL     1       3.771   2.387  -7.644  1.00  0.00     0.238 A 
ATOM      4  O   UNL     1       3.721   2.329  -8.901  1.00  0.00    -0.285 OA
ATOM      5  C   UNL     1       2.594   2.441  -6.860  1.00  0.00     0.111 A 
ATOM      6  C   UNL     1       1.269   2.353  -7.381  1.00  0.00     0.134 A 
ATOM      7  C   UNL     1       0.176   2.549  -6.527  1.00  0.00     0.093 A 
ATOM      8  C   UNL     1       0.359   2.766  -5.163  1.00  0.00     0.123 A 
ATOM      9  C   UNL     1       1.650   2.795  -4.632  1.00  0.00     0.094 A 
ATOM     10  C   UNL     1       2.760   2.639  -5.464  1.00  0.00     0.146 A 
ATOM     11  O   UNL     1       3.971   2.683  -4.922  1.00  0.00    -0.452 OA
ENDROOT
BRANCH   1  12
ATOM     12  C   UNL     1       6.381   2.609  -4.893  1.00  0.00     0.025 A 
ATOM     13  C   UNL     1       6.524   3.467  -3.792  1.00  0.00     0.016 A 
ATOM     14  C   UNL     1       7.723   3.506  -3.076  1.00  0.00     0.051 A 
ATOM     15  C   UNL     1       8.790   2.675  -3.440  1.00  0.00     0.157 A 
ATOM     16  C   UNL     1       7.447   1.762  -5.243  1.00  0.00     0.062 A 
ATOM     17  C   UNL     1       8.649   1.796  -4.527  1.00  0.00     0.158 A 
BRANCH  15  18
ATOM     18  O   UNL     1       9.987   2.717  -2.726  1.00  0.00    -0.504 OA
ATOM     19  H   UNL     1      10.042   2.402  -1.763  1.00  0.00     0.293 HD
ENDBRANCH  15  18
BRANCH  17  20
ATOM     20  O   UNL     1       9.688   0.946  -4.906  1.00  0.00    -0.504 OA
ATOM     21  H   UNL     1      10.155   0.338  -4.244  1.00  0.00     0.293 HD
ENDBRANCH  17  20
ENDBRANCH   1  12
BRANCH   2  22
ATOM     22  O   UNL     1       6.204   2.413  -7.778  1.00  0.00    -0.502 OA
ATOM     23  H   UNL     1       6.396   1.684  -8.455  1.00  0.00     0.293 HD
ENDBRANCH   2  22
BRANCH   6  24
ATOM     24  O   UNL     1       0.972   2.049  -8.713  1.00  0.00    -0.507 OA
ATOM     25  H   UNL     1       1.633   2.098  -9.474  1.00  0.00     0.293 HD
ENDBRANCH   6  24
BRANCH   8  26
ATOM     26  O   UNL     1      -0.751   2.941  -4.340  1.00  0.00    -0.508 OA
ATOM     27  H   UNL     1      -1.543   2.309  -4.375  1.00  0.00     0.293 HD
ENDBRANCH   8  26
TORSDOF 6
ENDMDL
MODEL 5
REMARK VINA RESULT:    -6.594      2.016      3.500
REMARK INTER + INTRA:          -8.268
REMARK INTER:                  -7.949
REMARK INTRA:                  -0.320
REMARK UNBOUND:                -0.325
REMARK SMILES O=c1c(O)c(-c2ccc(O)c(O)c2)oc2cc(O)cc(O)c12
REMARK SMILES IDX 5 1 3 2 2 3 1 4 22 5 20 6 19 7 17 8 16 9 15 10 14 11 6 12
REMARK SMILES IDX 7 13 8 14 9 15 13 16 11 17 10 18 12 20 4 22 21 24 18 26
REMARK H PARENT 10 19 12 21 4 23 21 25 18 27
REMARK Flexibility Score: inf
ROOT
ATOM      1  C   UNL     1       4.110   2.601  -6.677  1.00  0.00     0.180 A 
ATOM      2  C   UNL     1       5.041   1.755  -7.304  1.00  0.00     0.208 A 
ATOM      3  C   UNL     1       6.298   1.566  -6.707  1.00  0.00     0.238 A 
ATOM      4  O   UNL     1       7.108   0.765  -7.244  1.00  0.00    -0.285 OA
ATOM      5  C   UNL     1       6.614   2.236  -5.501  1.00  0.00     0.111 A 
ATOM      6  C   UNL     1       7.870   2.149  -4.830  1.00  0.00     0.134 A 
ATOM      7  C   UNL     1       8.027   2.752  -3.575  1.00  0.00     0.093 A 
ATOM      8  C   UNL     1       6.996   3.491  -2.998  1.00  0.00     0.123 A 
ATOM      9  C   UNL     1       5.782   3.633  -3.673  1.00  0.00     0.094 A 
ATOM     10  C   UNL     1       5.583   3.013  -4.909  1.00  0.00     0.146 A 
ATOM     11  O   UNL     1       4.411   3.164  -5.513  1.00  0.00    -0.452 OA
ENDROOT
BRANCH   1  12
ATOM     12  C   UNL     1       2.774   2.869  -7.258  1.00  0.00     0.025 A 
ATOM     13  C   UNL     1       2.629   3.881  -8.220  1.00  0.00     0.016 A 
ATOM     14  C   UNL     1       1.384   4.136  -8.798  1.00  0.00     0.051 A 
ATOM     15  C   UNL     1       0.267   3.372  -8.435  1.00  0.00     0.157 A 
ATOM     16  C   UNL     1       1.655   2.090  -6.913  1.00  0.00     0.062 A 
ATOM     17  C   UNL     1       0.405   2.341  -7.491  1.00  0.00     0.158 A 
BRANCH  15  18
ATOM     18  O   UNL     1      -0.976   3.630  -9.011  1.00  0.00    -0.504 OA
ATOM     19  H   UNL     1      -1.072   3.822 -10.002  1.00  0.00     0.293 HD
ENDBRANCH  15  18
BRANCH  17  20
ATOM     20  O   UNL     1      -0.683   1.554  -7.119  1.00  0.00    -0.504 OA
ATOM     21  H   UNL     1      -0.613   0.547  -7.028  1.00  0.00     0.293 HD
ENDBRANCH  17  20
ENDBRANCH   1  12
BRANCH   2  22
ATOM     22  O   UNL     1       4.701   1.086  -8.483  1.00  0.00    -0.502 OA
ATOM     23  H   UNL     1       3.766   1.108  -8.870  1.00  0.00     0.293 HD
ENDBRANCH   2  22
BRANCH   6  24
ATOM     24  O   UNL     1       8.996   1.512  -5.360  1.00  0.00    -0.507 OA
ATOM     25  H   UNL     1       9.128   0.513  -5.393  1.00  0.00     0.293 HD
ENDBRANCH   6  24
BRANCH   8  26
ATOM     26  O   UNL     1       7.191   4.090  -1.756  1.00  0.00    -0.508 OA
ATOM     27  H   UNL     1       6.951   5.061  -1.591  1.00  0.00     0.293 HD
ENDBRANCH   8  26
TORSDOF 6
ENDMDL
MODEL 6
REMARK VINA RESULT:    -6.585      1.947      2.786
REMARK INTER + INTRA:          -8.258
REMARK INTER:                  -7.924
REMARK INTRA:                  -0.334
REMARK UNBOUND:                -0.325
REMARK SMILES O=c1c(O)c(-c2ccc(O)c(O)c2)oc2cc(O)cc(O)c12
REMARK SMILES IDX 5 1 3 2 2 3 1 4 22 5 20 6 19 7 17 8 16 9 15 10 14 11 6 12
REMARK SMILES IDX 7 13 8 14 9 15 13 16 11 17 10 18 12 20 4 22 21 24 18 26
REMARK H PARENT 10 19 12 21 4 23 21 25 18 27
REMARK Flexibility Score: inf
ROOT
ATOM      1  C   UNL     1       2.852   4.336  -4.868  1.00  0.00     0.180 A 
ATOM      2  C   UNL     1       2.639   5.358  -3.927  1.00  0.00     0.208 A 
ATOM      3  C   UNL     1       3.673   5.690  -3.037  1.00  0.00     0.238 A 
ATOM      4  O   UNL     1       3.496   6.643  -2.232  1.00  0.00    -0.285 OA
ATOM      5  C   UNL     1       4.900   4.986  -3.088  1.00  0.00     0.111 A 
ATOM      6  C   UNL     1       6.001   5.212  -2.208  1.00  0.00     0.134 A 
ATOM      7  C   UNL     1       7.213   4.547  -2.433  1.00  0.00     0.093 A 
ATOM      8  C   UNL     1       7.344   3.618  -3.465  1.00  0.00     0.123 A 
ATOM      9  C   UNL     1       6.255   3.346  -4.295  1.00  0.00     0.094 A 
ATOM     10  C   UNL     1       5.044   4.020  -4.118  1.00  0.00     0.146 A 
ATOM     11  O   UNL     1       4.036   3.740  -4.935  1.00  0.00    -0.452 OA
ENDROOT
BRANCH   1  12
ATOM     12  C   UNL     1       1.802   3.914  -5.823  1.00  0.00     0.025 A 
ATOM     13  C   UNL     1       1.766   4.482  -7.106  1.00  0.00     0.016 A 
ATOM     14  C   UNL     1       0.797   4.082  -8.030  1.00  0.00     0.051 A 
ATOM     15  C   UNL     1      -0.139   3.097  -7.691  1.00  0.00     0.157 A 
ATOM     16  C   UNL     1       0.874   2.910  -5.494  1.00  0.00     0.062 A 
ATOM     17  C   UNL     1      -0.097   2.505  -6.418  1.00  0.00     0.158 A 
BRANCH  15  18
ATOM     18  O   UNL     1      -1.106   2.702  -8.614  1.00  0.00    -0.504 OA
ATOM     19  H   UNL     1      -0.988   2.863  -9.609  1.00  0.00     0.293 HD
ENDBRANCH  15  18
BRANCH  17  20
ATOM     20  O   UNL     1      -1.005   1.512  -6.054  1.00  0.00    -0.504 OA
ATOM     21  H   UNL     1      -1.919   1.731  -5.675  1.00  0.00     0.293 HD
ENDBRANCH  17  20
ENDBRANCH   1  12
BRANCH   2  22
ATOM     22  O   UNL     1       1.428   6.056  -3.909  1.00  0.00    -0.502 OA
ATOM     23  H   UNL     1       0.533   5.594  -4.023  1.00  0.00     0.293 HD
ENDBRANCH   2  22
BRANCH   6  24
ATOM     24  O   UNL     1       5.948   6.050  -1.090  1.00  0.00    -0.507 OA
ATOM     25  H   UNL     1       5.143   6.160  -0.493  1.00  0.00     0.293 HD
ENDBRANCH   6  24
BRANCH   8  26
ATOM     26  O   UNL     1       8.559   2.964  -3.650  1.00  0.00    -0.508 OA
ATOM     27  H   UNL     1       9.423   3.329  -3.266  1.00  0.00     0.293 HD
ENDBRANCH   8  26
TORSDOF 6
ENDMDL
MODEL 7
REMARK VINA RESULT:    -6.572     11.737     13.121
REMARK INTER + INTRA:          -8.243
REMARK INTER:                  -7.979
REMARK INTRA:                  -0.263
REMARK UNBOUND:                -0.325
REMARK SMILES O=c1c(O)c(-c2ccc(O)c(O)c2)oc2cc(O)cc(O)c12
REMARK SMILES IDX 5 1 3 2 2 3 1 4 22 5 20 6 19 7 17 8 16 9 15 10 14 11 6 12
REMARK SMILES IDX 7 13 8 14 9 15 13 16 11 17 10 18 12 20 4 22 21 24 18 26
REMARK H PARENT 10 19 12 21 4 23 21 25 18 27
REMARK Flexibility Score: inf
ROOT
ATOM      1  C   UNL     1       2.768  -4.593   4.851  1.00  0.00     0.180 A 
ATOM      2  C   UNL     1       2.587  -5.594   3.880  1.00  0.00     0.208 A 
ATOM      3  C   UNL     1       3.635  -5.874   2.988  1.00  0.00     0.238 A 
ATOM      4  O   UNL     1       3.487  -6.809   2.156  1.00  0.00    -0.285 OA
ATOM      5  C   UNL     1       4.842  -5.140   3.066  1.00  0.00     0.111 A 
ATOM      6  C   UNL     1       5.954  -5.312   2.188  1.00  0.00     0.134 A 
ATOM      7  C   UNL     1       7.146  -4.622   2.439  1.00  0.00     0.093 A 
ATOM      8  C   UNL     1       7.247  -3.720   3.497  1.00  0.00     0.123 A 
ATOM      9  C   UNL     1       6.146  -3.499   4.327  1.00  0.00     0.094 A 
ATOM     10  C   UNL     1       4.955  -4.199   4.124  1.00  0.00     0.146 A 
ATOM     11  O   UNL     1       3.935  -3.968   4.941  1.00  0.00    -0.452 OA
ENDROOT
BRANCH   1  12
ATOM     12  C   UNL     1       1.701  -4.225   5.810  1.00  0.00     0.025 A 
ATOM     13  C   UNL     1       1.449  -5.054   6.914  1.00  0.00     0.016 A 
ATOM     14  C   UNL     1       0.463  -4.715   7.844  1.00  0.00     0.051 A 
ATOM     15  C   UNL     1      -0.275  -3.534   7.692  1.00  0.00     0.157 A 
ATOM     16  C   UNL     1       0.973  -3.030   5.673  1.00  0.00     0.062 A 
ATOM     17  C   UNL     1      -0.014  -2.685   6.603  1.00  0.00     0.158 A 
BRANCH  15  18
ATOM     18  O   UNL     1      -1.260  -3.199   8.619  1.00  0.00    -0.504 OA
ATOM     19  H   UNL     1      -2.242  -3.181   8.367  1.00  0.00     0.293 HD
ENDBRANCH  15  18
BRANCH  17  20
ATOM     20  O   UNL     1      -0.721  -1.496   6.431  1.00  0.00    -0.504 OA
ATOM     21  H   UNL     1      -1.568  -1.293   6.950  1.00  0.00     0.293 HD
ENDBRANCH  17  20
ENDBRANCH   1  12
BRANCH   2  22
ATOM     22  O   UNL     1       1.395  -6.322   3.835  1.00  0.00    -0.502 OA
ATOM     23  H   UNL     1       0.752  -6.362   4.617  1.00  0.00     0.293 HD
ENDBRANCH   2  22
BRANCH   6  24
ATOM     24  O   UNL     1       5.929  -6.120   1.047  1.00  0.00    -0.507 OA
ATOM     25  H   UNL     1       5.240  -6.834   0.864  1.00  0.00     0.293 HD
ENDBRANCH   6  24
BRANCH   8  26
ATOM     26  O   UNL     1       8.444  -3.040   3.708  1.00  0.00    -0.508 OA
ATOM     27  H   UNL     1       8.889  -2.507   2.970  1.00  0.00     0.293 HD
ENDBRANCH   8  26
TORSDOF 6
ENDMDL
MODEL 8
REMARK VINA RESULT:    -6.536     12.295     13.152
REMARK INTER + INTRA:          -8.199
REMARK INTER:                  -7.882
REMARK INTRA:                  -0.316
REMARK UNBOUND:                -0.325
REMARK SMILES O=c1c(O)c(-c2ccc(O)c(O)c2)oc2cc(O)cc(O)c12
REMARK SMILES IDX 5 1 3 2 2 3 1 4 22 5 20 6 19 7 17 8 16 9 15 10 14 11 6 12
REMARK SMILES IDX 7 13 8 14 9 15 13 16 11 17 10 18 12 20 4 22 21 24 18 26
REMARK H PARENT 10 19 12 21 4 23 21 25 18 27
REMARK Flexibility Score: inf
ROOT
ATOM      1  C   UNL     1       4.056  -2.853   6.722  1.00  0.00     0.180 A 
ATOM      2  C   UNL     1       4.984  -2.016   7.365  1.00  0.00     0.208 A 
ATOM      3  C   UNL     1       6.243  -1.815   6.776  1.00  0.00     0.238 A 
ATOM      4  O   UNL     1       7.050  -1.022   7.329  1.00  0.00    -0.285 OA
ATOM      5  C   UNL     1       6.564  -2.466   5.561  1.00  0.00     0.111 A 
ATOM      6  C   UNL     1       7.823  -2.367   4.896  1.00  0.00     0.134 A 
ATOM      7  C   UNL     1       7.985  -2.949   3.633  1.00  0.00     0.093 A 
ATOM      8  C   UNL     1       6.958  -3.681   3.040  1.00  0.00     0.123 A 
ATOM      9  C   UNL     1       5.742  -3.835   3.708  1.00  0.00     0.094 A 
ATOM     10  C   UNL     1       5.537  -3.235   4.953  1.00  0.00     0.146 A 
ATOM     11  O   UNL     1       4.363  -3.397   5.550  1.00  0.00    -0.452 OA
ENDROOT
BRANCH   1  12
ATOM     12  C   UNL     1       2.719  -3.132   7.294  1.00  0.00     0.025 A 
ATOM     13  C   UNL     1       2.577  -4.142   8.257  1.00  0.00     0.016 A 
ATOM     14  C   UNL     1       1.329  -4.407   8.826  1.00  0.00     0.051 A 
ATOM     15  C   UNL     1       0.208  -3.656   8.452  1.00  0.00     0.157 A 
ATOM     16  C   UNL     1       1.595  -2.366   6.937  1.00  0.00     0.062 A 
ATOM     17  C   UNL     1       0.344  -2.627   7.505  1.00  0.00     0.158 A 
BRANCH  15  18
ATOM     18  O   UNL     1      -1.037  -3.924   9.020  1.00  0.00    -0.504 OA
ATOM     19  H   UNL     1      -1.695  -4.558   8.580  1.00  0.00     0.293 HD
ENDBRANCH  15  18
BRANCH  17  20
ATOM     20  O   UNL     1      -0.750  -1.851   7.122  1.00  0.00    -0.504 OA
ATOM     21  H   UNL     1      -1.209  -1.214   7.762  1.00  0.00     0.293 HD
ENDBRANCH  17  20
ENDBRANCH   1  12
BRANCH   2  22
ATOM     22  O   UNL     1       4.639  -1.365   8.553  1.00  0.00    -0.502 OA
ATOM     23  H   UNL     1       4.277  -0.420   8.569  1.00  0.00     0.293 HD
ENDBRANCH   2  22
BRANCH   6  24
ATOM     24  O   UNL     1       8.946  -1.737   5.441  1.00  0.00    -0.507 OA
ATOM     25  H   UNL     1       9.289  -1.885   6.378  1.00  0.00     0.293 HD
ENDBRANCH   6  24
BRANCH   8  26
ATOM     26  O   UNL     1       7.159  -4.260   1.789  1.00  0.00    -0.508 OA
ATOM     27  H   UNL     1       6.813  -3.826   0.942  1.00  0.00     0.293 HD
ENDBRANCH   8  26
TORSDOF 6
ENDMDL
MODEL 9
REMARK VINA RESULT:    -6.393     11.932     12.956
REMARK INTER + INTRA:          -8.026
REMARK INTER:                  -7.810
REMARK INTRA:                  -0.216
REMARK UNBOUND:                -0.325
REMARK SMILES O=c1c(O)c(-c2ccc(O)c(O)c2)oc2cc(O)cc(O)c12
REMARK SMILES IDX 5 1 3 2 2 3 1 4 22 5 20 6 19 7 17 8 16 9 15 10 14 11 6 12
REMARK SMILES IDX 7 13 8 14 9 15 13 16 11 17 10 18 12 20 4 22 21 24 18 26
REMARK H PARENT 10 19 12 21 4 23 21 25 18 27
REMARK Flexibility Score: inf
ROOT
ATOM      1  C   UNL     1       5.629  -2.622   6.068  1.00  0.00     0.180 A 
ATOM      2  C   UNL     1       6.866  -1.958   5.991  1.00  0.00     0.208 A 
ATOM      3  C   UNL     1       7.756  -2.296   4.958  1.00  0.00     0.238 A 
ATOM      4  O   UNL     1       8.839  -1.661   4.862  1.00  0.00    -0.285 OA
ATOM      5  C   UNL     1       7.405  -3.303   4.027  1.00  0.00     0.111 A 
ATOM      6  C   UNL     1       8.247  -3.753   2.966  1.00  0.00     0.134 A 
ATOM      7  C   UNL     1       7.746  -4.663   2.026  1.00  0.00     0.093 A 
ATOM      8  C   UNL     1       6.460  -5.187   2.145  1.00  0.00     0.123 A 
ATOM      9  C   UNL     1       5.649  -4.798   3.214  1.00  0.00     0.094 A 
ATOM     10  C   UNL     1       6.107  -3.865   4.146  1.00  0.00     0.146 A 
ATOM     11  O   UNL     1       5.302  -3.514   5.142  1.00  0.00    -0.452 OA
ENDROOT
BRANCH   1  12
ATOM     12  C   UNL     1       4.649  -2.337   7.141  1.00  0.00     0.025 A 
ATOM     13  C   UNL     1       3.938  -1.127   7.125  1.00  0.00     0.016 A 
ATOM     14  C   UNL     1       2.993  -0.848   8.115  1.00  0.00     0.051 A 
ATOM     15  C   UNL     1       2.732  -1.780   9.127  1.00  0.00     0.157 A 
ATOM     16  C   UNL     1       4.369  -3.280   8.147  1.00  0.00     0.062 A 
ATOM     17  C   UNL     1       3.422  -3.005   9.140  1.00  0.00     0.158 A 
BRANCH  15  18
ATOM     18  O   UNL     1       1.791  -1.498  10.115  1.00  0.00    -0.504 OA
ATOM     19  H   UNL     1       1.461  -0.553  10.280  1.00  0.00     0.293 HD
ENDBRANCH  15  18
BRANCH  17  20
ATOM     20  O   UNL     1       3.176  -3.960  10.125  1.00  0.00    -0.504 OA
ATOM     21  H   UNL     1       3.578  -3.892  11.052  1.00  0.00     0.293 HD
ENDBRANCH  17  20
ENDBRANCH   1  12
BRANCH   2  22
ATOM     22  O   UNL     1       7.182  -0.952   6.907  1.00  0.00    -0.502 OA
ATOM     23  H   UNL     1       7.534  -0.047   6.620  1.00  0.00     0.293 HD
ENDBRANCH   2  22
BRANCH   6  24
ATOM     24  O   UNL     1       9.580  -3.364   2.807  1.00  0.00    -0.507 OA
ATOM     25  H   UNL     1      10.013  -2.589   3.288  1.00  0.00     0.293 HD
ENDBRANCH   6  24
BRANCH   8  26
ATOM     26  O   UNL     1       6.000  -6.101   1.201  1.00  0.00    -0.508 OA
ATOM     27  H   UNL     1       5.362  -6.848   1.453  1.00  0.00     0.293 HD
ENDBRANCH   8  26
TORSDOF 6
ENDMDL
