MODEL 1
REMARK VINA RESULT:    32.145      0.000      0.000
REMARK INTER + INTRA:          53.204
REMARK INTER:                  47.179
REMARK INTRA:                   6.025
REMARK UNBOUND:                 6.025
REMARK SMILES Cc1cc2c(C(C)C)c(O)c(O)c(C=O)c2c(O)c1-c1c(C)cc2c(C(C)C)c(O)c(O)c(C=O)c2c1O
REMARK SMILES IDX 1 1 2 2 3 3 4 4 16 5 13 6 11 7 9 8 5 9 17 10 19 11 20 12
REMARK SMILES IDX 37 13 21 14 36 15 23 16 22 17 24 18 33 19 25 20 31 21 29 22
REMARK SMILES IDX 38 23 34 25 35 26 26 27 27 28 28 29 32 30 30 32 18 34 6 36
REMARK SMILES IDX 7 37 8 38 14 39 15 40 10 41 12 43
REMARK H PARENT 38 24 32 31 30 33 18 35 10 42 12 44
REMARK Flexibility Score: inf
ROOT
ATOM      1  C   UNL     1      75.386  36.125  51.395  1.00  0.00     0.045 C 
ATOM      2  C   UNL     1      76.471  35.114  51.678  1.00  0.00    -0.039 A 
ATOM      3  C   UNL     1      77.709  35.256  51.050  1.00  0.00     0.013 A 
ATOM      4  C   UNL     1      78.761  34.343  51.251  1.00  0.00    -0.006 A 
ATOM      5  C   UNL     1      78.578  33.287  52.197  1.00  0.00     0.039 A 
ATOM      6  C   UNL     1      79.645  32.370  52.421  1.00  0.00     0.072 A 
ATOM      7  C   UNL     1      80.914  32.636  51.882  1.00  0.00     0.169 A 
ATOM      8  C   UNL     1      81.108  33.714  51.014  1.00  0.00     0.162 A 
ATOM      9  C   UNL     1      80.006  34.481  50.561  1.00  0.00     0.008 A 
ATOM     10  C   UNL     1      77.352  33.212  52.924  1.00  0.00     0.132 A 
ATOM     11  C   UNL     1      76.291  34.094  52.628  1.00  0.00     0.031 A 
ENDROOT
BRANCH  11  12
ATOM     12  C   UNL     1      74.995  33.969  53.342  1.00  0.00     0.031 A 
ATOM     13  C   UNL     1      74.991  33.796  54.735  1.00  0.00     0.132 A 
ATOM     14  C   UNL     1      73.783  34.120  52.650  1.00  0.00    -0.039 A 
ATOM     15  C   UNL     1      73.761  33.644  55.439  1.00  0.00     0.039 A 
ATOM     16  C   UNL     1      72.586  34.165  53.369  1.00  0.00     0.013 A 
ATOM     17  C   UNL     1      73.760  34.371  51.163  1.00  0.00     0.045 C 
ATOM     18  C   UNL     1      72.538  33.918  54.757  1.00  0.00    -0.006 A 
ATOM     19  C   UNL     1      73.716  33.246  56.803  1.00  0.00     0.072 A 
ATOM     20  C   UNL     1      71.308  33.955  55.489  1.00  0.00     0.008 A 
ATOM     21  C   UNL     1      72.542  33.477  57.544  1.00  0.00     0.169 A 
ATOM     22  C   UNL     1      71.374  33.891  56.903  1.00  0.00     0.162 A 
BRANCH  13  23
ATOM     23  O   UNL     1      76.224  33.867  55.393  1.00  0.00    -0.507 OA
ATOM     24  H   UNL     1      76.324  34.198  56.343  1.00  0.00     0.293 HD
ENDBRANCH  13  23
BRANCH  19  25
ATOM     25  C   UNL     1      74.805  32.444  57.413  1.00  0.00     0.264 C 
ATOM     26  O   UNL     1      75.147  31.343  56.904  1.00  0.00    -0.298 OA
ENDBRANCH  19  25
BRANCH  20  27
ATOM     27  C   UNL     1      69.918  34.013  54.828  1.00  0.00     0.017 C 
ATOM     28  C   UNL     1      68.875  34.691  55.728  1.00  0.00     0.012 C 
ATOM     29  C   UNL     1      69.922  34.569  53.388  1.00  0.00     0.012 C 
ENDBRANCH  20  27
BRANCH  21  30
ATOM     30  O   UNL     1      72.483  33.286  58.929  1.00  0.00    -0.504 OA
ATOM     31  H   UNL     1      71.763  32.759  59.402  1.00  0.00     0.293 HD
ENDBRANCH  21  30
BRANCH  22  32
ATOM     32  O   UNL     1      70.287  34.222  57.718  1.00  0.00    -0.504 OA
ATOM     33  H   UNL     1      70.100  33.783  58.610  1.00  0.00     0.293 HD
ENDBRANCH  22  32
ENDBRANCH  11  12
BRANCH  10  34
ATOM     34  O   UNL     1      77.205  32.295  53.971  1.00  0.00    -0.507 OA
ATOM     35  H   UNL     1      76.314  31.924  54.276  1.00  0.00     0.293 HD
ENDBRANCH  10  34
BRANCH   9  36
ATOM     36  C   UNL     1      80.201  35.348  49.301  1.00  0.00     0.017 C 
ATOM     37  C   UNL     1      80.849  34.610  48.114  1.00  0.00     0.012 C 
ATOM     38  C   UNL     1      78.934  36.120  48.908  1.00  0.00     0.012 C 
ENDBRANCH   9  36
BRANCH   6  39
ATOM     39  C   UNL     1      79.448  31.091  53.147  1.00  0.00     0.264 C 
ATOM     40  O   UNL     1      80.398  30.531  53.757  1.00  0.00    -0.298 OA
ENDBRANCH   6  39
BRANCH   8  41
ATOM     41  O   UNL     1      82.418  33.997  50.614  1.00  0.00    -0.504 OA
ATOM     42  H   UNL     1      82.950  34.791  50.950  1.00  0.00     0.293 HD
ENDBRANCH   8  41
BRANCH   7  43
ATOM     43  O   UNL     1      81.990  31.800  52.198  1.00  0.00    -0.504 OA
ATOM     44  H   UNL     1      82.646  31.463  51.504  1.00  0.00     0.293 HD
ENDBRANCH   7  43
TORSDOF 11
ENDMDL
