MODEL 1
REMARK VINA RESULT:    -3.797      0.000      0.000
REMARK INTER + INTRA:          -6.185
REMARK INTER:                  -5.572
REMARK INTRA:                  -0.612
REMARK UNBOUND:                -0.612
REMARK SMILES O=C([O-])CCCCCCCC(=O)[O-]
REMARK SMILES IDX 7 1 6 2 5 3 4 4 2 5 1 6 3 7 8 8 9 9 10 10 11 11 12 12 13 13
REMARK H PARENT
REMARK Flexibility Score: inf
ROOT
ATOM      1  C   UNL     1       4.169 123.320 112.641  1.00  0.00     0.000 C 
ENDROOT
BRANCH   1   2
ATOM      2  C   UNL     1       3.400 124.635 112.440  1.00  0.00     0.000 C 
BRANCH   2   3
ATOM      3  C   UNL     1       2.941 124.836 110.986  1.00  0.00     0.006 C 
BRANCH   3   4
ATOM      4  C   UNL     1       3.473 126.145 110.387  1.00  0.00     0.053 C 
BRANCH   4   5
ATOM      5  C   UNL     1       2.377 127.146 110.182  1.00  0.00     0.041 C 
ATOM      6  O   UNL     1       1.283 127.022 110.794  1.00  0.00    -0.550 OA
ATOM      7  O   UNL     1       2.576 128.233 109.341  1.00  0.00    -0.550 OA
ENDBRANCH   4   5
ENDBRANCH   3   4
ENDBRANCH   2   3
ENDBRANCH   1   2
BRANCH   1   8
ATOM      8  C   UNL     1       5.595 123.377 112.074  1.00  0.00     0.000 C 
BRANCH   8   9
ATOM      9  C   UNL     1       6.357 124.589 112.624  1.00  0.00     0.006 C 
BRANCH   9  10
ATOM     10  C   UNL     1       6.968 125.416 111.489  1.00  0.00     0.053 C 
BRANCH  10  11
ATOM     11  C   UNL     1       8.264 124.816 111.043  1.00  0.00     0.041 C 
ATOM     12  O   UNL     1       9.000 124.214 111.867  1.00  0.00    -0.550 OA
ATOM     13  O   UNL     1       8.633 124.879 109.705  1.00  0.00    -0.550 OA
ENDBRANCH  10  11
ENDBRANCH   9  10
ENDBRANCH   8   9
ENDBRANCH   1   8
TORSDOF 8
ENDMDL
MODEL 2
REMARK VINA RESULT:    -3.766      1.427      1.722
REMARK INTER + INTRA:          -6.139
REMARK INTER:                  -5.479
REMARK INTRA:                  -0.660
REMARK UNBOUND:                -0.612
REMARK SMILES O=C([O-])CCCCCCCC(=O)[O-]
REMARK SMILES IDX 7 1 6 2 5 3 4 4 2 5 1 6 3 7 8 8 9 9 10 10 11 11 12 12 13 13
REMARK H PARENT
REMARK Flexibility Score: inf
ROOT
ATOM      1  C   UNL     1       3.856 123.911 113.415  1.00  0.00     0.000 C 
ENDROOT
BRANCH   1   2
ATOM      2  C   UNL     1       2.343 123.828 113.159  1.00  0.00     0.000 C 
BRANCH   2   3
ATOM      3  C   UNL     1       1.800 125.060 112.416  1.00  0.00     0.006 C 
BRANCH   3   4
ATOM      4  C   UNL     1       2.903 126.081 112.104  1.00  0.00     0.053 C 
BRANCH   4   5
ATOM      5  C   UNL     1       3.160 126.185 110.632  1.00  0.00     0.041 C 
ATOM      6  O   UNL     1       3.784 125.272 110.031  1.00  0.00    -0.550 OA
ATOM      7  O   UNL     1       2.681 127.276 109.918  1.00  0.00    -0.550 OA
ENDBRANCH   4   5
ENDBRANCH   3   4
ENDBRANCH   2   3
ENDBRANCH   1   2
BRANCH   1   8
ATOM      8  C   UNL     1       4.613 122.686 112.883  1.00  0.00     0.000 C 
BRANCH   8   9
ATOM      9  C   UNL     1       5.649 123.095 111.829  1.00  0.00     0.006 C 
BRANCH   9  10
ATOM     10  C   UNL     1       6.473 124.296 112.304  1.00  0.00     0.053 C 
BRANCH  10  11
ATOM     11  C   UNL     1       7.935 123.985 112.244  1.00  0.00     0.041 C 
ATOM     12  O   UNL     1       8.410 123.040 112.927  1.00  0.00    -0.550 OA
ATOM     13  O   UNL     1       8.764 124.707 111.395  1.00  0.00    -0.550 OA
ENDBRANCH  10  11
ENDBRANCH   9  10
ENDBRANCH   8   9
ENDBRANCH   1   8
TORSDOF 8
ENDMDL
MODEL 3
REMARK VINA RESULT:    -3.747      4.084      5.845
REMARK INTER + INTRA:          -6.111
REMARK INTER:                  -5.715
REMARK INTRA:                  -0.397
REMARK UNBOUND:                -0.612
REMARK SMILES O=C([O-])CCCCCCCC(=O)[O-]
REMARK SMILES IDX 7 1 6 2 5 3 4 4 2 5 1 6 3 7 8 8 9 9 10 10 11 11 12 12 13 13
REMARK H PARENT
REMARK Flexibility Score: inf
ROOT
ATOM      1  C   UNL     1       5.204 126.734 114.005  1.00  0.00     0.000 C 
ENDROOT
BRANCH   1   2
ATOM      2  C   UNL     1       5.995 125.595 113.342  1.00  0.00     0.000 C 
BRANCH   2   3
ATOM      3  C   UNL     1       6.387 125.914 111.889  1.00  0.00     0.006 C 
BRANCH   3   4
ATOM      4  C   UNL     1       7.691 125.219 111.476  1.00  0.00     0.053 C 
BRANCH   4   5
ATOM      5  C   UNL     1       7.641 123.746 111.741  1.00  0.00     0.041 C 
ATOM      6  O   UNL     1       6.920 122.998 111.030  1.00  0.00    -0.550 OA
ATOM      7  O   UNL     1       8.418 123.194 112.752  1.00  0.00    -0.550 OA
ENDBRANCH   4   5
ENDBRANCH   3   4
ENDBRANCH   2   3
ENDBRANCH   1   2
BRANCH   1   8
ATOM      8  C   UNL     1       5.357 128.070 113.263  1.00  0.00     0.000 C 
BRANCH   8   9
ATOM      9  C   UNL     1       5.086 129.253 114.199  1.00  0.00     0.006 C 
BRANCH   9  10
ATOM     10  C   UNL     1       5.746 130.532 113.675  1.00  0.00     0.053 C 
BRANCH  10  11
ATOM     11  C   UNL     1       7.226 130.481 113.886  1.00  0.00     0.041 C 
ATOM     12  O   UNL     1       8.009 130.591 112.907  1.00  0.00    -0.550 OA
ATOM     13  O   UNL     1       7.741 130.363 115.171  1.00  0.00    -0.550 OA
ENDBRANCH  10  11
ENDBRANCH   9  10
ENDBRANCH   8   9
ENDBRANCH   1   8
TORSDOF 8
ENDMDL
MODEL 4
REMARK VINA RESULT:    -3.706      1.189      5.559
REMARK INTER + INTRA:          -6.051
REMARK INTER:                  -5.638
REMARK INTRA:                  -0.413
REMARK UNBOUND:                -0.612
REMARK SMILES O=C([O-])CCCCCCCC(=O)[O-]
REMARK SMILES IDX 7 1 6 2 5 3 4 4 2 5 1 6 3 7 8 8 9 9 10 10 11 11 12 12 13 13
REMARK H PARENT
REMARK Flexibility Score: inf
ROOT
ATOM      1  C   UNL     1       3.553 124.204 111.757  1.00  0.00     0.000 C 
ENDROOT
BRANCH   1   2
ATOM      2  C   UNL     1       4.443 123.257 112.578  1.00  0.00     0.000 C 
BRANCH   2   3
ATOM      3  C   UNL     1       5.929 123.363 112.197  1.00  0.00     0.006 C 
BRANCH   3   4
ATOM      4  C   UNL     1       6.185 124.473 111.169  1.00  0.00     0.053 C 
BRANCH   4   5
ATOM      5  C   UNL     1       7.468 125.196 111.445  1.00  0.00     0.041 C 
ATOM      6  O   UNL     1       7.484 126.453 111.521  1.00  0.00    -0.550 OA
ATOM      7  O   UNL     1       8.640 124.480 111.651  1.00  0.00    -0.550 OA
ENDBRANCH   4   5
ENDBRANCH   3   4
ENDBRANCH   2   3
ENDBRANCH   1   2
BRANCH   1   8
ATOM      8  C   UNL     1       2.336 124.705 112.548  1.00  0.00     0.000 C 
BRANCH   8   9
ATOM      9  C   UNL     1       1.931 126.114 112.098  1.00  0.00     0.006 C 
BRANCH   9  10
ATOM     10  C   UNL     1       2.384 126.383 110.660  1.00  0.00     0.053 C 
BRANCH  10  11
ATOM     11  C   UNL     1       1.773 127.650 110.148  1.00  0.00     0.041 C 
ATOM     12  O   UNL     1       0.534 127.842 110.250  1.00  0.00    -0.550 OA
ATOM     13  O   UNL     1       2.582 128.639 109.601  1.00  0.00    -0.550 OA
ENDBRANCH  10  11
ENDBRANCH   9  10
ENDBRANCH   8   9
ENDBRANCH   1   8
TORSDOF 8
ENDMDL
MODEL 5
REMARK VINA RESULT:    -3.686      1.414      5.407
REMARK INTER + INTRA:          -6.022
REMARK INTER:                  -5.346
REMARK INTRA:                  -0.676
REMARK UNBOUND:                -0.612
REMARK SMILES O=C([O-])CCCCCCCC(=O)[O-]
REMARK SMILES IDX 7 1 6 2 5 3 4 4 2 5 1 6 3 7 8 8 9 9 10 10 11 11 12 12 13 13
REMARK H PARENT
REMARK Flexibility Score: inf
ROOT
ATOM      1  C   UNL     1       4.672 123.330 114.106  1.00  0.00     0.000 C 
ENDROOT
BRANCH   1   2
ATOM      2  C   UNL     1       4.531 122.652 112.733  1.00  0.00     0.000 C 
BRANCH   2   3
ATOM      3  C   UNL     1       5.668 123.029 111.768  1.00  0.00     0.006 C 
BRANCH   3   4
ATOM      4  C   UNL     1       6.480 124.230 112.271  1.00  0.00     0.053 C 
BRANCH   4   5
ATOM      5  C   UNL     1       7.950 123.942 112.273  1.00  0.00     0.041 C 
ATOM      6  O   UNL     1       8.427 123.081 113.056  1.00  0.00    -0.550 OA
ATOM      7  O   UNL     1       8.788 124.603 111.384  1.00  0.00    -0.550 OA
ENDBRANCH   4   5
ENDBRANCH   3   4
ENDBRANCH   2   3
ENDBRANCH   1   2
BRANCH   1   8
ATOM      8  C   UNL     1       3.452 124.190 114.467  1.00  0.00     0.000 C 
BRANCH   8   9
ATOM      9  C   UNL     1       2.569 124.436 113.237  1.00  0.00     0.006 C 
BRANCH   9  10
ATOM     10  C   UNL     1       2.892 125.785 112.589  1.00  0.00     0.053 C 
BRANCH  10  11
ATOM     11  C   UNL     1       2.473 125.789 111.152  1.00  0.00     0.041 C 
ATOM     12  O   UNL     1       1.816 126.756 110.687  1.00  0.00    -0.550 OA
ATOM     13  O   UNL     1       2.853 124.747 110.316  1.00  0.00    -0.550 OA
ENDBRANCH  10  11
ENDBRANCH   9  10
ENDBRANCH   8   9
ENDBRANCH   1   8
TORSDOF 8
ENDMDL
MODEL 6
REMARK VINA RESULT:    -3.651      4.332      5.015
REMARK INTER + INTRA:          -5.970
REMARK INTER:                  -5.644
REMARK INTRA:                  -0.326
REMARK UNBOUND:                -0.612
REMARK SMILES O=C([O-])CCCCCCCC(=O)[O-]
REMARK SMILES IDX 7 1 6 2 5 3 4 4 2 5 1 6 3 7 8 8 9 9 10 10 11 11 12 12 13 13
REMARK H PARENT
REMARK Flexibility Score: inf
ROOT
ATOM      1  C   UNL     1       5.104 127.681 112.848  1.00  0.00     0.000 C 
ENDROOT
BRANCH   1   2
ATOM      2  C   UNL     1       4.489 128.104 114.191  1.00  0.00     0.000 C 
BRANCH   2   3
ATOM      3  C   UNL     1       5.446 128.960 115.037  1.00  0.00     0.006 C 
BRANCH   3   4
ATOM      4  C   UNL     1       5.725 130.324 114.392  1.00  0.00     0.053 C 
BRANCH   4   5
ATOM      5  C   UNL     1       7.166 130.713 114.523  1.00  0.00     0.041 C 
ATOM      6  O   UNL     1       7.619 131.105 115.630  1.00  0.00    -0.550 OA
ATOM      7  O   UNL     1       8.016 130.611 113.429  1.00  0.00    -0.550 OA
ENDBRANCH   4   5
ENDBRANCH   3   4
ENDBRANCH   2   3
ENDBRANCH   1   2
BRANCH   1   8
ATOM      8  C   UNL     1       5.948 126.402 112.961  1.00  0.00     0.000 C 
BRANCH   8   9
ATOM      9  C   UNL     1       6.101 125.723 111.594  1.00  0.00     0.006 C 
BRANCH   9  10
ATOM     10  C   UNL     1       7.566 125.373 111.315  1.00  0.00     0.053 C 
BRANCH  10  11
ATOM     11  C   UNL     1       7.924 124.072 111.961  1.00  0.00     0.041 C 
ATOM     12  O   UNL     1       8.993 123.964 112.618  1.00  0.00    -0.550 OA
ATOM     13  O   UNL     1       7.054 122.992 111.879  1.00  0.00    -0.550 OA
ENDBRANCH  10  11
ENDBRANCH   9  10
ENDBRANCH   8   9
ENDBRANCH   1   8
TORSDOF 8
ENDMDL
MODEL 7
REMARK VINA RESULT:    -3.554      1.770      2.489
REMARK INTER + INTRA:          -5.828
REMARK INTER:                  -5.240
REMARK INTRA:                  -0.588
REMARK UNBOUND:                -0.612
REMARK SMILES O=C([O-])CCCCCCCC(=O)[O-]
REMARK SMILES IDX 7 1 6 2 5 3 4 4 2 5 1 6 3 7 8 8 9 9 10 10 11 11 12 12 13 13
REMARK H PARENT
REMARK Flexibility Score: inf
ROOT
ATOM      1  C   UNL     1       4.060 126.246 112.979  1.00  0.00     0.000 C 
ENDROOT
BRANCH   1   2
ATOM      2  C   UNL     1       2.641 125.874 112.520  1.00  0.00     0.000 C 
BRANCH   2   3
ATOM      3  C   UNL     1       1.738 127.105 112.334  1.00  0.00     0.006 C 
BRANCH   3   4
ATOM      4  C   UNL     1       1.455 127.398 110.854  1.00  0.00     0.053 C 
BRANCH   4   5
ATOM      5  C   UNL     1       2.394 128.428 110.305  1.00  0.00     0.041 C 
ATOM      6  O   UNL     1       2.599 128.502 109.065  1.00  0.00    -0.550 OA
ATOM      7  O   UNL     1       3.016 129.328 111.161  1.00  0.00    -0.550 OA
ENDBRANCH   4   5
ENDBRANCH   3   4
ENDBRANCH   2   3
ENDBRANCH   1   2
BRANCH   1   8
ATOM      8  C   UNL     1       5.122 125.959 111.907  1.00  0.00     0.000 C 
BRANCH   8   9
ATOM      9  C   UNL     1       4.782 124.685 111.124  1.00  0.00     0.006 C 
BRANCH   9  10
ATOM     10  C   UNL     1       5.307 123.440 111.845  1.00  0.00     0.053 C 
BRANCH  10  11
ATOM     11  C   UNL     1       6.777 123.283 111.614  1.00  0.00     0.041 C 
ATOM     12  O   UNL     1       7.239 123.294 110.444  1.00  0.00    -0.550 OA
ATOM     13  O   UNL     1       7.642 123.174 112.697  1.00  0.00    -0.550 OA
ENDBRANCH  10  11
ENDBRANCH   9  10
ENDBRANCH   8   9
ENDBRANCH   1   8
TORSDOF 8
ENDMDL
MODEL 8
REMARK VINA RESULT:    -3.547      1.738      5.811
REMARK INTER + INTRA:          -5.819
REMARK INTER:                  -5.280
REMARK INTRA:                  -0.539
REMARK UNBOUND:                -0.612
REMARK SMILES O=C([O-])CCCCCCCC(=O)[O-]
REMARK SMILES IDX 7 1 6 2 5 3 4 4 2 5 1 6 3 7 8 8 9 9 10 10 11 11 12 12 13 13
REMARK H PARENT
REMARK Flexibility Score: inf
ROOT
ATOM      1  C   UNL     1       2.651 124.740 112.125  1.00  0.00     0.000 C 
ENDROOT
BRANCH   1   2
ATOM      2  C   UNL     1       3.009 124.825 110.633  1.00  0.00     0.000 C 
BRANCH   2   3
ATOM      3  C   UNL     1       4.350 125.538 110.386  1.00  0.00     0.006 C 
BRANCH   3   4
ATOM      4  C   UNL     1       5.527 124.798 111.036  1.00  0.00     0.053 C 
BRANCH   4   5
ATOM      5  C   UNL     1       6.844 125.336 110.568  1.00  0.00     0.041 C 
ATOM      6  O   UNL     1       7.252 125.088 109.403  1.00  0.00    -0.550 OA
ATOM      7  O   UNL     1       7.606 126.139 111.408  1.00  0.00    -0.550 OA
ENDBRANCH   4   5
ENDBRANCH   3   4
ENDBRANCH   2   3
ENDBRANCH   1   2
BRANCH   1   8
ATOM      8  C   UNL     1       2.600 126.119 112.800  1.00  0.00     0.000 C 
BRANCH   8   9
ATOM      9  C   UNL     1       1.191 126.718 112.721  1.00  0.00     0.006 C 
BRANCH   9  10
ATOM     10  C   UNL     1       1.221 128.115 112.094  1.00  0.00     0.053 C 
BRANCH  10  11
ATOM     11  C   UNL     1       0.791 128.055 110.662  1.00  0.00     0.041 C 
ATOM     12  O   UNL     1       1.651 127.983 109.746  1.00  0.00    -0.550 OA
ATOM     13  O   UNL     1      -0.561 128.028 110.343  1.00  0.00    -0.550 OA
ENDBRANCH  10  11
ENDBRANCH   9  10
ENDBRANCH   8   9
ENDBRANCH   1   8
TORSDOF 8
ENDMDL
MODEL 9
REMARK VINA RESULT:    -3.539      2.800      3.646
REMARK INTER + INTRA:          -5.807
REMARK INTER:                  -5.319
REMARK INTRA:                  -0.488
REMARK UNBOUND:                -0.612
REMARK SMILES O=C([O-])CCCCCCCC(=O)[O-]
REMARK SMILES IDX 7 1 6 2 5 3 4 4 2 5 1 6 3 7 8 8 9 9 10 10 11 11 12 12 13 13
REMARK H PARENT
REMARK Flexibility Score: inf
ROOT
ATOM      1  C   UNL     1       3.604 124.482 111.052  1.00  0.00     0.000 C 
ENDROOT
BRANCH   1   2
ATOM      2  C   UNL     1       2.427 125.419 111.369  1.00  0.00     0.000 C 
BRANCH   2   3
ATOM      3  C   UNL     1       1.871 125.211 112.788  1.00  0.00     0.006 C 
BRANCH   3   4
ATOM      4  C   UNL     1       2.525 124.017 113.497  1.00  0.00     0.053 C 
BRANCH   4   5
ATOM      5  C   UNL     1       1.514 122.980 113.880  1.00  0.00     0.041 C 
ATOM      6  O   UNL     1       0.514 122.767 113.146  1.00  0.00    -0.550 OA
ATOM      7  O   UNL     1       1.696 122.225 115.032  1.00  0.00    -0.550 OA
ENDBRANCH   4   5
ENDBRANCH   3   4
ENDBRANCH   2   3
ENDBRANCH   1   2
BRANCH   1   8
ATOM      8  C   UNL     1       4.866 125.243 110.621  1.00  0.00     0.000 C 
BRANCH   8   9
ATOM      9  C   UNL     1       5.794 125.490 111.816  1.00  0.00     0.006 C 
BRANCH   9  10
ATOM     10  C   UNL     1       7.265 125.399 111.399  1.00  0.00     0.053 C 
BRANCH  10  11
ATOM     11  C   UNL     1       7.885 124.147 111.937  1.00  0.00     0.041 C 
ATOM     12  O   UNL     1       9.085 124.148 112.316  1.00  0.00    -0.550 OA
ATOM     13  O   UNL     1       7.122 122.994 112.066  1.00  0.00    -0.550 OA
ENDBRANCH  10  11
ENDBRANCH   9  10
ENDBRANCH   8   9
ENDBRANCH   1   8
TORSDOF 8
ENDMDL
