MODEL 1
REMARK VINA RESULT:    -3.819      0.000      0.000
REMARK INTER + INTRA:          -9.701
REMARK INTER:                  -7.391
REMARK INTRA:                  -2.310
REMARK UNBOUND:                -2.310
REMARK SMILES CCCCCCCCCCCCCCCCCC(=O)[O-]
REMARK SMILES IDX 10 1 11 2 12 3 13 4 14 5 15 6 16 7 17 8 18 9 19 10 20 11
REMARK SMILES IDX 9 12 8 13 7 14 6 15 5 16 4 17 3 18 2 19 1 20
REMARK H PARENT
REMARK Flexibility Score: inf
ROOT
ATOM      1  C   UNL     1      23.138 -15.407  -1.935  1.00  0.00     0.000 C 
ENDROOT
BRANCH   1   2
ATOM      2  C   UNL     1      23.279 -16.451  -3.053  1.00  0.00     0.000 C 
BRANCH   2   3
ATOM      3  C   UNL     1      24.476 -16.174  -3.976  1.00  0.00     0.000 C 
BRANCH   3   4
ATOM      4  C   UNL     1      25.590 -17.207  -3.755  1.00  0.00     0.000 C 
BRANCH   4   5
ATOM      5  C   UNL     1      26.812 -16.627  -3.020  1.00  0.00     0.000 C 
BRANCH   5   6
ATOM      6  C   UNL     1      27.727 -15.730  -3.877  1.00  0.00     0.000 C 
BRANCH   6   7
ATOM      7  C   UNL     1      28.808 -14.956  -3.100  1.00  0.00     0.006 C 
BRANCH   7   8
ATOM      8  C   UNL     1      30.235 -15.498  -3.304  1.00  0.00     0.053 C 
BRANCH   8   9
ATOM      9  C   UNL     1      30.439 -16.830  -2.648  1.00  0.00     0.041 C 
ATOM     10  O   UNL     1      31.039 -17.754  -3.259  1.00  0.00    -0.550 OA
ATOM     11  O   UNL     1      29.937 -17.064  -1.373  1.00  0.00    -0.550 OA
ENDBRANCH   8   9
ENDBRANCH   7   8
ENDBRANCH   6   7
ENDBRANCH   5   6
ENDBRANCH   4   5
ENDBRANCH   3   4
ENDBRANCH   2   3
ENDBRANCH   1   2
BRANCH   1  12
ATOM     12  C   UNL     1      23.872 -14.094  -2.254  1.00  0.00     0.000 C 
BRANCH  12  13
ATOM     13  C   UNL     1      24.546 -13.523  -1.001  1.00  0.00    -0.000 C 
BRANCH  13  14
ATOM     14  C   UNL     1      26.076 -13.552  -1.138  1.00  0.00    -0.000 C 
BRANCH  14  15
ATOM     15  C   UNL     1      26.789 -13.557   0.224  1.00  0.00    -0.000 C 
BRANCH  15  16
ATOM     16  C   UNL     1      27.782 -14.725   0.365  1.00  0.00    -0.000 C 
BRANCH  16  17
ATOM     17  C   UNL     1      29.018 -14.336   1.205  1.00  0.00    -0.000 C 
BRANCH  17  18
ATOM     18  C   UNL     1      30.256 -13.994   0.359  1.00  0.00    -0.000 C 
BRANCH  18  19
ATOM     19  C   UNL     1      30.324 -12.512  -0.030  1.00  0.00    -0.003 C 
ATOM     20  C   UNL     1      30.029 -11.615   1.169  1.00  0.00     0.004 C 
ENDBRANCH  18  19
ENDBRANCH  17  18
ENDBRANCH  16  17
ENDBRANCH  15  16
ENDBRANCH  14  15
ENDBRANCH  13  14
ENDBRANCH  12  13
ENDBRANCH   1  12
TORSDOF 16
ENDMDL
MODEL 2
REMARK VINA RESULT:    -3.752      2.499      4.607
REMARK INTER + INTRA:          -9.572
REMARK INTER:                  -7.523
REMARK INTRA:                  -2.049
REMARK UNBOUND:                -2.310
REMARK SMILES CCCCCCCCCCCCCCCCCC(=O)[O-]
REMARK SMILES IDX 10 1 11 2 12 3 13 4 14 5 15 6 16 7 17 8 18 9 19 10 20 11
REMARK SMILES IDX 9 12 8 13 7 14 6 15 5 16 4 17 3 18 2 19 1 20
REMARK H PARENT
REMARK Flexibility Score: inf
ROOT
ATOM      1  C   UNL     1      23.062 -15.552  -2.236  1.00  0.00     0.000 C 
ENDROOT
BRANCH   1   2
ATOM      2  C   UNL     1      23.680 -14.176  -2.533  1.00  0.00     0.000 C 
BRANCH   2   3
ATOM      3  C   UNL     1      24.281 -13.513  -1.285  1.00  0.00     0.000 C 
BRANCH   3   4
ATOM      4  C   UNL     1      25.815 -13.533  -1.337  1.00  0.00     0.000 C 
BRANCH   4   5
ATOM      5  C   UNL     1      26.465 -13.491   0.058  1.00  0.00     0.000 C 
BRANCH   5   6
ATOM      6  C   UNL     1      28.006 -13.451   0.061  1.00  0.00     0.000 C 
BRANCH   6   7
ATOM      7  C   UNL     1      28.668 -13.639   1.439  1.00  0.00     0.006 C 
BRANCH   7   8
ATOM      8  C   UNL     1      30.078 -13.029   1.544  1.00  0.00     0.053 C 
BRANCH   8   9
ATOM      9  C   UNL     1      30.047 -11.542   1.727  1.00  0.00     0.041 C 
ATOM     10  O   UNL     1      30.431 -10.779   0.801  1.00  0.00    -0.550 OA
ATOM     11  O   UNL     1      29.624 -10.997   2.933  1.00  0.00    -0.550 OA
ENDBRANCH   8   9
ENDBRANCH   7   8
ENDBRANCH   6   7
ENDBRANCH   5   6
ENDBRANCH   4   5
ENDBRANCH   3   4
ENDBRANCH   2   3
ENDBRANCH   1   2
BRANCH   1  12
ATOM     12  C   UNL     1      23.345 -16.580  -3.343  1.00  0.00     0.000 C 
BRANCH  12  13
ATOM     13  C   UNL     1      24.636 -16.234  -4.096  1.00  0.00    -0.000 C 
BRANCH  13  14
ATOM     14  C   UNL     1      25.844 -16.948  -3.473  1.00  0.00    -0.000 C 
BRANCH  14  15
ATOM     15  C   UNL     1      27.119 -16.090  -3.511  1.00  0.00    -0.000 C 
BRANCH  15  16
ATOM     16  C   UNL     1      28.065 -16.388  -2.334  1.00  0.00    -0.000 C 
BRANCH  16  17
ATOM     17  C   UNL     1      29.543 -16.438  -2.777  1.00  0.00    -0.000 C 
BRANCH  17  18
ATOM     18  C   UNL     1      30.386 -15.266  -2.246  1.00  0.00    -0.000 C 
BRANCH  18  19
ATOM     19  C   UNL     1      30.052 -13.932  -2.926  1.00  0.00    -0.003 C 
ATOM     20  C   UNL     1      30.683 -12.761  -2.180  1.00  0.00     0.004 C 
ENDBRANCH  18  19
ENDBRANCH  17  18
ENDBRANCH  16  17
ENDBRANCH  15  16
ENDBRANCH  14  15
ENDBRANCH  13  14
ENDBRANCH  12  13
ENDBRANCH   1  12
TORSDOF 16
ENDMDL
MODEL 3
REMARK VINA RESULT:    -3.747      2.362      4.742
REMARK INTER + INTRA:          -9.562
REMARK INTER:                  -7.135
REMARK INTRA:                  -2.428
REMARK UNBOUND:                -2.310
REMARK SMILES CCCCCCCCCCCCCCCCCC(=O)[O-]
REMARK SMILES IDX 10 1 11 2 12 3 13 4 14 5 15 6 16 7 17 8 18 9 19 10 20 11
REMARK SMILES IDX 9 12 8 13 7 14 6 15 5 16 4 17 3 18 2 19 1 20
REMARK H PARENT
REMARK Flexibility Score: inf
ROOT
ATOM      1  C   UNL     1      23.840 -14.375  -1.799  1.00  0.00     0.000 C 
ENDROOT
BRANCH   1   2
ATOM      2  C   UNL     1      24.658 -13.326  -1.029  1.00  0.00     0.000 C 
BRANCH   2   3
ATOM      3  C   UNL     1      26.170 -13.591  -1.089  1.00  0.00     0.000 C 
BRANCH   3   4
ATOM      4  C   UNL     1      26.784 -13.587   0.317  1.00  0.00     0.000 C 
BRANCH   4   5
ATOM      5  C   UNL     1      27.987 -14.539   0.451  1.00  0.00     0.000 C 
BRANCH   5   6
ATOM      6  C   UNL     1      29.054 -14.107   1.475  1.00  0.00     0.000 C 
BRANCH   6   7
ATOM      7  C   UNL     1      30.401 -13.658   0.877  1.00  0.00     0.006 C 
BRANCH   7   8
ATOM      8  C   UNL     1      30.265 -12.766  -0.371  1.00  0.00     0.053 C 
BRANCH   8   9
ATOM      9  C   UNL     1      30.608 -11.335  -0.091  1.00  0.00     0.041 C 
ATOM     10  O   UNL     1      30.798 -10.529  -1.040  1.00  0.00    -0.550 OA
ATOM     11  O   UNL     1      30.753 -10.896   1.220  1.00  0.00    -0.550 OA
ENDBRANCH   8   9
ENDBRANCH   7   8
ENDBRANCH   6   7
ENDBRANCH   5   6
ENDBRANCH   4   5
ENDBRANCH   3   4
ENDBRANCH   2   3
ENDBRANCH   1   2
BRANCH   1  12
ATOM     12  C   UNL     1      24.431 -14.687  -3.183  1.00  0.00     0.000 C 
BRANCH  12  13
ATOM     13  C   UNL     1      24.157 -16.142  -3.582  1.00  0.00    -0.000 C 
BRANCH  13  14
ATOM     14  C   UNL     1      25.470 -16.922  -3.748  1.00  0.00    -0.000 C 
BRANCH  14  15
ATOM     15  C   UNL     1      26.692 -15.999  -3.870  1.00  0.00    -0.000 C 
BRANCH  15  16
ATOM     16  C   UNL     1      27.797 -16.345  -2.855  1.00  0.00    -0.000 C 
BRANCH  16  17
ATOM     17  C   UNL     1      29.010 -15.397  -2.974  1.00  0.00    -0.000 C 
BRANCH  17  18
ATOM     18  C   UNL     1      30.284 -15.942  -2.306  1.00  0.00    -0.000 C 
BRANCH  18  19
ATOM     19  C   UNL     1      30.056 -17.272  -1.578  1.00  0.00    -0.003 C 
ATOM     20  C   UNL     1      30.527 -17.194  -0.128  1.00  0.00     0.004 C 
ENDBRANCH  18  19
ENDBRANCH  17  18
ENDBRANCH  16  17
ENDBRANCH  15  16
ENDBRANCH  14  15
ENDBRANCH  13  14
ENDBRANCH  12  13
ENDBRANCH   1  12
TORSDOF 16
ENDMDL
MODEL 4
REMARK VINA RESULT:    -3.456      2.403      5.578
REMARK INTER + INTRA:          -8.999
REMARK INTER:                  -6.667
REMARK INTRA:                  -2.332
REMARK UNBOUND:                -2.310
REMARK SMILES CCCCCCCCCCCCCCCCCC(=O)[O-]
REMARK SMILES IDX 10 1 11 2 12 3 13 4 14 5 15 6 16 7 17 8 18 9 19 10 20 11
REMARK SMILES IDX 9 12 8 13 7 14 6 15 5 16 4 17 3 18 2 19 1 20
REMARK H PARENT
REMARK Flexibility Score: inf
ROOT
ATOM      1  C   UNL     1      28.976 -14.497   1.456  1.00  0.00     0.000 C 
ENDROOT
BRANCH   1   2
ATOM      2  C   UNL     1      28.064 -13.270   1.304  1.00  0.00     0.000 C 
BRANCH   2   3
ATOM      3  C   UNL     1      26.887 -13.520   0.350  1.00  0.00     0.000 C 
BRANCH   3   4
ATOM      4  C   UNL     1      27.376 -13.674  -1.097  1.00  0.00     0.000 C 
BRANCH   4   5
ATOM      5  C   UNL     1      26.269 -14.142  -2.060  1.00  0.00     0.000 C 
BRANCH   5   6
ATOM      6  C   UNL     1      24.829 -13.867  -1.586  1.00  0.00     0.000 C 
BRANCH   6   7
ATOM      7  C   UNL     1      23.773 -13.768  -2.704  1.00  0.00     0.006 C 
BRANCH   7   8
ATOM      8  C   UNL     1      23.990 -14.762  -3.860  1.00  0.00     0.053 C 
BRANCH   8   9
ATOM      9  C   UNL     1      23.944 -16.188  -3.403  1.00  0.00     0.041 C 
ATOM     10  O   UNL     1      23.031 -16.579  -2.628  1.00  0.00    -0.550 OA
ATOM     11  O   UNL     1      24.929 -17.082  -3.807  1.00  0.00    -0.550 OA
ENDBRANCH   8   9
ENDBRANCH   7   8
ENDBRANCH   6   7
ENDBRANCH   5   6
ENDBRANCH   4   5
ENDBRANCH   3   4
ENDBRANCH   2   3
ENDBRANCH   1   2
BRANCH   1  12
ATOM     12  C   UNL     1      30.399 -14.246   0.934  1.00  0.00     0.000 C 
BRANCH  12  13
ATOM     13  C   UNL     1      31.005 -15.528   0.350  1.00  0.00    -0.000 C 
BRANCH  13  14
ATOM     14  C   UNL     1      29.905 -16.531  -0.030  1.00  0.00    -0.000 C 
BRANCH  14  15
ATOM     15  C   UNL     1      30.042 -17.035  -1.476  1.00  0.00    -0.000 C 
BRANCH  15  16
ATOM     16  C   UNL     1      28.749 -16.850  -2.290  1.00  0.00    -0.000 C 
BRANCH  16  17
ATOM     17  C   UNL     1      29.004 -16.108  -3.620  1.00  0.00    -0.000 C 
BRANCH  17  18
ATOM     18  C   UNL     1      30.297 -15.274  -3.622  1.00  0.00    -0.000 C 
BRANCH  18  19
ATOM     19  C   UNL     1      30.035 -13.765  -3.699  1.00  0.00    -0.003 C 
ATOM     20  C   UNL     1      30.672 -13.034  -2.521  1.00  0.00     0.004 C 
ENDBRANCH  18  19
ENDBRANCH  17  18
ENDBRANCH  16  17
ENDBRANCH  15  16
ENDBRANCH  14  15
ENDBRANCH  13  14
ENDBRANCH  12  13
ENDBRANCH   1  12
TORSDOF 16
ENDMDL
MODEL 5
REMARK VINA RESULT:    -3.428      2.461      5.117
REMARK INTER + INTRA:          -8.944
REMARK INTER:                  -6.959
REMARK INTRA:                  -1.985
REMARK UNBOUND:                -2.310
REMARK SMILES CCCCCCCCCCCCCCCCCC(=O)[O-]
REMARK SMILES IDX 10 1 11 2 12 3 13 4 14 5 15 6 16 7 17 8 18 9 19 10 20 11
REMARK SMILES IDX 9 12 8 13 7 14 6 15 5 16 4 17 3 18 2 19 1 20
REMARK H PARENT
REMARK Flexibility Score: inf
ROOT
ATOM      1  C   UNL     1      24.011 -14.170  -1.569  1.00  0.00     0.000 C 
ENDROOT
BRANCH   1   2
ATOM      2  C   UNL     1      24.783 -13.173  -0.690  1.00  0.00     0.000 C 
BRANCH   2   3
ATOM      3  C   UNL     1      26.304 -13.274  -0.875  1.00  0.00     0.000 C 
BRANCH   3   4
ATOM      4  C   UNL     1      26.975 -13.834   0.387  1.00  0.00     0.000 C 
BRANCH   4   5
ATOM      5  C   UNL     1      28.420 -14.305   0.143  1.00  0.00     0.000 C 
BRANCH   5   6
ATOM      6  C   UNL     1      29.281 -13.358  -0.717  1.00  0.00     0.000 C 
BRANCH   6   7
ATOM      7  C   UNL     1      30.464 -12.696   0.013  1.00  0.00     0.006 C 
BRANCH   7   8
ATOM      8  C   UNL     1      30.095 -11.399   0.756  1.00  0.00     0.053 C 
BRANCH   8   9
ATOM      9  C   UNL     1      30.201 -11.542   2.244  1.00  0.00     0.041 C 
ATOM     10  O   UNL     1      29.668 -12.522   2.828  1.00  0.00    -0.550 OA
ATOM     11  O   UNL     1      30.860 -10.574   2.992  1.00  0.00    -0.550 OA
ENDBRANCH   8   9
ENDBRANCH   7   8
ENDBRANCH   6   7
ENDBRANCH   5   6
ENDBRANCH   4   5
ENDBRANCH   3   4
ENDBRANCH   2   3
ENDBRANCH   1   2
BRANCH   1  12
ATOM     12  C   UNL     1      23.676 -13.600  -2.956  1.00  0.00     0.000 C 
BRANCH  12  13
ATOM     13  C   UNL     1      23.952 -14.633  -4.056  1.00  0.00    -0.000 C 
BRANCH  13  14
ATOM     14  C   UNL     1      24.569 -15.910  -3.467  1.00  0.00    -0.000 C 
BRANCH  14  15
ATOM     15  C   UNL     1      25.953 -16.222  -4.057  1.00  0.00    -0.000 C 
BRANCH  15  16
ATOM     16  C   UNL     1      27.101 -15.659  -3.200  1.00  0.00    -0.000 C 
BRANCH  16  17
ATOM     17  C   UNL     1      28.443 -15.647  -3.964  1.00  0.00    -0.000 C 
BRANCH  17  18
ATOM     18  C   UNL     1      29.645 -16.071  -3.104  1.00  0.00    -0.000 C 
BRANCH  18  19
ATOM     19  C   UNL     1      29.251 -16.972  -1.927  1.00  0.00    -0.003 C 
ATOM     20  C   UNL     1      30.346 -17.989  -1.622  1.00  0.00     0.004 C 
ENDBRANCH  18  19
ENDBRANCH  17  18
ENDBRANCH  16  17
ENDBRANCH  15  16
ENDBRANCH  14  15
ENDBRANCH  13  14
ENDBRANCH  12  13
ENDBRANCH   1  12
TORSDOF 16
ENDMDL
MODEL 6
REMARK VINA RESULT:    -3.308      1.066      2.206
REMARK INTER + INTRA:          -8.712
REMARK INTER:                  -6.797
REMARK INTRA:                  -1.915
REMARK UNBOUND:                -2.310
REMARK SMILES CCCCCCCCCCCCCCCCCC(=O)[O-]
REMARK SMILES IDX 10 1 11 2 12 3 13 4 14 5 15 6 16 7 17 8 18 9 19 10 20 11
REMARK SMILES IDX 9 12 8 13 7 14 6 15 5 16 4 17 3 18 2 19 1 20
REMARK H PARENT
REMARK Flexibility Score: inf
ROOT
ATOM      1  C   UNL     1      24.834 -13.500  -1.995  1.00  0.00     0.000 C 
ENDROOT
BRANCH   1   2
ATOM      2  C   UNL     1      23.665 -14.454  -1.705  1.00  0.00     0.000 C 
BRANCH   2   3
ATOM      3  C   UNL     1      23.617 -15.646  -2.673  1.00  0.00     0.000 C 
BRANCH   3   4
ATOM      4  C   UNL     1      24.474 -15.376  -3.918  1.00  0.00     0.000 C 
BRANCH   4   5
ATOM      5  C   UNL     1      25.592 -16.416  -4.116  1.00  0.00     0.000 C 
BRANCH   5   6
ATOM      6  C   UNL     1      27.022 -15.896  -3.869  1.00  0.00     0.000 C 
BRANCH   6   7
ATOM      7  C   UNL     1      27.744 -16.503  -2.651  1.00  0.00     0.006 C 
BRANCH   7   8
ATOM      8  C   UNL     1      29.271 -16.307  -2.668  1.00  0.00     0.053 C 
BRANCH   8   9
ATOM      9  C   UNL     1      29.970 -17.171  -1.662  1.00  0.00     0.041 C 
ATOM     10  O   UNL     1      29.961 -16.861  -0.442  1.00  0.00    -0.550 OA
ATOM     11  O   UNL     1      30.660 -18.304  -2.076  1.00  0.00    -0.550 OA
ENDBRANCH   8   9
ENDBRANCH   7   8
ENDBRANCH   6   7
ENDBRANCH   5   6
ENDBRANCH   4   5
ENDBRANCH   3   4
ENDBRANCH   2   3
ENDBRANCH   1   2
BRANCH   1  12
ATOM     12  C   UNL     1      25.602 -13.103  -0.725  1.00  0.00     0.000 C 
BRANCH  12  13
ATOM     13  C   UNL     1      26.794 -14.039  -0.488  1.00  0.00    -0.000 C 
BRANCH  13  14
ATOM     14  C   UNL     1      27.411 -13.804   0.899  1.00  0.00    -0.000 C 
BRANCH  14  15
ATOM     15  C   UNL     1      28.947 -13.834   0.873  1.00  0.00    -0.000 C 
BRANCH  15  16
ATOM     16  C   UNL     1      29.525 -13.304  -0.452  1.00  0.00    -0.000 C 
BRANCH  16  17
ATOM     17  C   UNL     1      30.274 -11.967  -0.264  1.00  0.00    -0.000 C 
BRANCH  17  18
ATOM     18  C   UNL     1      31.125 -11.913   1.016  1.00  0.00    -0.000 C 
BRANCH  18  19
ATOM     19  C   UNL     1      30.909 -10.627   1.824  1.00  0.00    -0.003 C 
ATOM     20  C   UNL     1      29.921 -10.854   2.965  1.00  0.00     0.004 C 
ENDBRANCH  18  19
ENDBRANCH  17  18
ENDBRANCH  16  17
ENDBRANCH  15  16
ENDBRANCH  14  15
ENDBRANCH  13  14
ENDBRANCH  12  13
ENDBRANCH   1  12
TORSDOF 16
ENDMDL
MODEL 7
REMARK VINA RESULT:    -3.289      1.836      4.388
REMARK INTER + INTRA:          -8.676
REMARK INTER:                  -6.455
REMARK INTRA:                  -2.221
REMARK UNBOUND:                -2.310
REMARK SMILES CCCCCCCCCCCCCCCCCC(=O)[O-]
REMARK SMILES IDX 10 1 11 2 12 3 13 4 14 5 15 6 16 7 17 8 18 9 19 10 20 11
REMARK SMILES IDX 9 12 8 13 7 14 6 15 5 16 4 17 3 18 2 19 1 20
REMARK H PARENT
REMARK Flexibility Score: inf
ROOT
ATOM      1  C   UNL     1      24.421 -16.629  -3.202  1.00  0.00     0.000 C 
ENDROOT
BRANCH   1   2
ATOM      2  C   UNL     1      23.823 -15.551  -4.121  1.00  0.00     0.000 C 
BRANCH   2   3
ATOM      3  C   UNL     1      24.298 -14.136  -3.762  1.00  0.00     0.000 C 
BRANCH   3   4
ATOM      4  C   UNL     1      23.535 -13.592  -2.546  1.00  0.00     0.000 C 
BRANCH   4   5
ATOM      5  C   UNL     1      24.329 -13.715  -1.232  1.00  0.00     0.000 C 
BRANCH   5   6
ATOM      6  C   UNL     1      25.859 -13.601  -1.378  1.00  0.00     0.000 C 
BRANCH   6   7
ATOM      7  C   UNL     1      26.647 -13.554  -0.055  1.00  0.00     0.006 C 
BRANCH   7   8
ATOM      8  C   UNL     1      27.900 -14.449  -0.041  1.00  0.00     0.053 C 
BRANCH   8   9
ATOM      9  C   UNL     1      28.932 -13.972   0.935  1.00  0.00     0.041 C 
ATOM     10  O   UNL     1      28.588 -13.558   2.074  1.00  0.00    -0.550 OA
ATOM     11  O   UNL     1      30.275 -13.952   0.576  1.00  0.00    -0.550 OA
ENDBRANCH   8   9
ENDBRANCH   7   8
ENDBRANCH   6   7
ENDBRANCH   5   6
ENDBRANCH   4   5
ENDBRANCH   3   4
ENDBRANCH   2   3
ENDBRANCH   1   2
BRANCH   1  12
ATOM     12  C   UNL     1      25.714 -17.238  -3.768  1.00  0.00     0.000 C 
BRANCH  12  13
ATOM     13  C   UNL     1      26.940 -16.748  -2.988  1.00  0.00    -0.000 C 
BRANCH  13  14
ATOM     14  C   UNL     1      27.688 -15.657  -3.769  1.00  0.00    -0.000 C 
BRANCH  14  15
ATOM     15  C   UNL     1      29.193 -15.948  -3.891  1.00  0.00    -0.000 C 
BRANCH  15  16
ATOM     16  C   UNL     1      30.026 -15.196  -2.837  1.00  0.00    -0.000 C 
BRANCH  16  17
ATOM     17  C   UNL     1      30.947 -16.147  -2.041  1.00  0.00    -0.000 C 
BRANCH  17  18
ATOM     18  C   UNL     1      30.540 -17.626  -2.142  1.00  0.00    -0.000 C 
BRANCH  18  19
ATOM     19  C   UNL     1      30.730 -18.390  -0.826  1.00  0.00    -0.003 C 
ATOM     20  C   UNL     1      30.690 -17.444   0.371  1.00  0.00     0.004 C 
ENDBRANCH  18  19
ENDBRANCH  17  18
ENDBRANCH  16  17
ENDBRANCH  15  16
ENDBRANCH  14  15
ENDBRANCH  13  14
ENDBRANCH  12  13
ENDBRANCH   1  12
TORSDOF 16
ENDMDL
MODEL 8
REMARK VINA RESULT:    -3.185      2.232      5.652
REMARK INTER + INTRA:          -8.475
REMARK INTER:                  -6.040
REMARK INTRA:                  -2.435
REMARK UNBOUND:                -2.310
REMARK SMILES CCCCCCCCCCCCCCCCCC(=O)[O-]
REMARK SMILES IDX 10 1 11 2 12 3 13 4 14 5 15 6 16 7 17 8 18 9 19 10 20 11
REMARK SMILES IDX 9 12 8 13 7 14 6 15 5 16 4 17 3 18 2 19 1 20
REMARK H PARENT
REMARK Flexibility Score: inf
ROOT
ATOM      1  C   UNL     1      29.545 -15.460   0.592  1.00  0.00     0.000 C 
ENDROOT
BRANCH   1   2
ATOM      2  C   UNL     1      28.072 -15.069   0.789  1.00  0.00     0.000 C 
BRANCH   2   3
ATOM      3  C   UNL     1      27.857 -13.548   0.793  1.00  0.00     0.000 C 
BRANCH   3   4
ATOM      4  C   UNL     1      27.032 -13.106  -0.423  1.00  0.00     0.000 C 
BRANCH   4   5
ATOM      5  C   UNL     1      25.906 -14.094  -0.778  1.00  0.00     0.000 C 
BRANCH   5   6
ATOM      6  C   UNL     1      24.711 -13.481  -1.535  1.00  0.00     0.000 C 
BRANCH   6   7
ATOM      7  C   UNL     1      24.166 -14.324  -2.703  1.00  0.00     0.006 C 
BRANCH   7   8
ATOM      8  C   UNL     1      25.226 -15.208  -3.385  1.00  0.00     0.053 C 
BRANCH   8   9
ATOM      9  C   UNL     1      24.711 -16.580  -3.701  1.00  0.00     0.041 C 
ATOM     10  O   UNL     1      25.501 -17.558  -3.760  1.00  0.00    -0.550 OA
ATOM     11  O   UNL     1      23.359 -16.773  -3.962  1.00  0.00    -0.550 OA
ENDBRANCH   8   9
ENDBRANCH   7   8
ENDBRANCH   6   7
ENDBRANCH   5   6
ENDBRANCH   4   5
ENDBRANCH   3   4
ENDBRANCH   2   3
ENDBRANCH   1   2
BRANCH   1  12
ATOM     12  C   UNL     1      30.469 -14.239   0.462  1.00  0.00     0.000 C 
BRANCH  12  13
ATOM     13  C   UNL     1      31.112 -14.183  -0.929  1.00  0.00    -0.000 C 
BRANCH  13  14
ATOM     14  C   UNL     1      30.410 -13.145  -1.817  1.00  0.00    -0.000 C 
BRANCH  14  15
ATOM     15  C   UNL     1      29.993 -13.723  -3.180  1.00  0.00    -0.000 C 
BRANCH  15  16
ATOM     16  C   UNL     1      28.905 -14.805  -3.054  1.00  0.00    -0.000 C 
BRANCH  16  17
ATOM     17  C   UNL     1      29.348 -16.146  -3.678  1.00  0.00    -0.000 C 
BRANCH  17  18
ATOM     18  C   UNL     1      30.844 -16.449  -3.488  1.00  0.00    -0.000 C 
BRANCH  18  19
ATOM     19  C   UNL     1      31.113 -17.905  -3.086  1.00  0.00    -0.003 C 
ATOM     20  C   UNL     1      30.970 -18.095  -1.579  1.00  0.00     0.004 C 
ENDBRANCH  18  19
ENDBRANCH  17  18
ENDBRANCH  16  17
ENDBRANCH  15  16
ENDBRANCH  14  15
ENDBRANCH  13  14
ENDBRANCH  12  13
ENDBRANCH   1  12
TORSDOF 16
ENDMDL
MODEL 9
REMARK VINA RESULT:    -3.160      1.328      5.627
REMARK INTER + INTRA:          -8.426
REMARK INTER:                  -6.693
REMARK INTRA:                  -1.734
REMARK UNBOUND:                -2.310
REMARK SMILES CCCCCCCCCCCCCCCCCC(=O)[O-]
REMARK SMILES IDX 10 1 11 2 12 3 13 4 14 5 15 6 16 7 17 8 18 9 19 10 20 11
REMARK SMILES IDX 9 12 8 13 7 14 6 15 5 16 4 17 3 18 2 19 1 20
REMARK H PARENT
REMARK Flexibility Score: inf
ROOT
ATOM      1  C   UNL     1      28.510 -13.528   1.570  1.00  0.00     0.000 C 
ENDROOT
BRANCH   1   2
ATOM      2  C   UNL     1      30.026 -13.455   1.327  1.00  0.00     0.000 C 
BRANCH   2   3
ATOM      3  C   UNL     1      30.416 -13.839  -0.108  1.00  0.00     0.000 C 
BRANCH   3   4
ATOM      4  C   UNL     1      30.894 -12.610  -0.895  1.00  0.00     0.000 C 
BRANCH   4   5
ATOM      5  C   UNL     1      30.499 -12.656  -2.382  1.00  0.00     0.000 C 
BRANCH   5   6
ATOM      6  C   UNL     1      29.448 -13.723  -2.749  1.00  0.00     0.000 C 
BRANCH   6   7
ATOM      7  C   UNL     1      29.820 -14.637  -3.932  1.00  0.00     0.006 C 
BRANCH   7   8
ATOM      8  C   UNL     1      29.795 -16.139  -3.594  1.00  0.00     0.053 C 
BRANCH   8   9
ATOM      9  C   UNL     1      28.710 -16.489  -2.621  1.00  0.00     0.041 C 
ATOM     10  O   UNL     1      28.999 -16.868  -1.456  1.00  0.00    -0.550 OA
ATOM     11  O   UNL     1      27.378 -16.428  -3.012  1.00  0.00    -0.550 OA
ENDBRANCH   8   9
ENDBRANCH   7   8
ENDBRANCH   6   7
ENDBRANCH   5   6
ENDBRANCH   4   5
ENDBRANCH   3   4
ENDBRANCH   2   3
ENDBRANCH   1   2
BRANCH   1  12
ATOM     12  C   UNL     1      27.751 -14.158   0.392  1.00  0.00     0.000 C 
BRANCH  12  13
ATOM     13  C   UNL     1      26.408 -13.455   0.164  1.00  0.00    -0.000 C 
BRANCH  13  14
ATOM     14  C   UNL     1      25.884 -13.716  -1.256  1.00  0.00    -0.000 C 
BRANCH  14  15
ATOM     15  C   UNL     1      24.364 -13.520  -1.369  1.00  0.00    -0.000 C 
BRANCH  15  16
ATOM     16  C   UNL     1      23.929 -13.081  -2.778  1.00  0.00    -0.000 C 
BRANCH  16  17
ATOM     17  C   UNL     1      23.176 -14.202  -3.528  1.00  0.00    -0.000 C 
BRANCH  17  18
ATOM     18  C   UNL     1      24.088 -15.348  -3.997  1.00  0.00    -0.000 C 
BRANCH  18  19
ATOM     19  C   UNL     1      23.598 -16.728  -3.540  1.00  0.00    -0.003 C 
ATOM     20  C   UNL     1      22.936 -16.651  -2.168  1.00  0.00     0.004 C 
ENDBRANCH  18  19
ENDBRANCH  17  18
ENDBRANCH  16  17
ENDBRANCH  15  16
ENDBRANCH  14  15
ENDBRANCH  13  14
ENDBRANCH  12  13
ENDBRANCH   1  12
TORSDOF 16
ENDMDL
