MODEL 1
REMARK VINA RESULT:    -4.422      0.000      0.000
REMARK INTER + INTRA:          -7.146
REMARK INTER:                  -6.231
REMARK INTRA:                  -0.914
REMARK UNBOUND:                -0.914
REMARK SMILES C=CCCCCCCC(=O)[O-]
REMARK SMILES IDX 6 1 7 2 8 3 9 4 10 5 11 6 5 7 4 8 3 9 2 10 1 11
REMARK H PARENT
REMARK Flexibility Score: inf
ROOT
ATOM      1  C   UNL     1     -25.393 -31.469 -12.208  1.00  0.00     0.000 C 
ENDROOT
BRANCH   1   2
ATOM      2  C   UNL     1     -24.990 -32.692 -11.375  1.00  0.00     0.006 C 
BRANCH   2   3
ATOM      3  C   UNL     1     -24.346 -33.767 -12.254  1.00  0.00     0.053 C 
BRANCH   3   4
ATOM      4  C   UNL     1     -24.975 -35.100 -11.997  1.00  0.00     0.041 C 
ATOM      5  O   UNL     1     -25.799 -35.240 -11.055  1.00  0.00    -0.550 OA
ATOM      6  O   UNL     1     -24.690 -36.176 -12.827  1.00  0.00    -0.550 OA
ENDBRANCH   3   4
ENDBRANCH   2   3
ENDBRANCH   1   2
BRANCH   1   7
ATOM      7  C   UNL     1     -26.623 -31.771 -13.071  1.00  0.00     0.000 C 
BRANCH   7   8
ATOM      8  C   UNL     1     -27.786 -32.288 -12.212  1.00  0.00     0.004 C 
BRANCH   8   9
ATOM      9  C   UNL     1     -28.390 -33.584 -12.773  1.00  0.00     0.027 C 
BRANCH   9  10
ATOM     10  C   UNL     1     -27.757 -33.995 -14.076  1.00  0.00    -0.035 C 
ATOM     11  C   UNL     1     -27.744 -35.267 -14.483  1.00  0.00     0.004 C 
ENDBRANCH   9  10
ENDBRANCH   8   9
ENDBRANCH   7   8
ENDBRANCH   1   7
TORSDOF 7
ENDMDL
MODEL 2
REMARK VINA RESULT:    -4.373      0.991      1.178
REMARK INTER + INTRA:          -7.077
REMARK INTER:                  -6.383
REMARK INTRA:                  -0.694
REMARK UNBOUND:                -0.914
REMARK SMILES C=CCCCCCCC(=O)[O-]
REMARK SMILES IDX 6 1 7 2 8 3 9 4 10 5 11 6 5 7 4 8 3 9 2 10 1 11
REMARK H PARENT
REMARK Flexibility Score: inf
ROOT
ATOM      1  C   UNL     1     -25.545 -32.130 -11.550  1.00  0.00     0.000 C 
ENDROOT
BRANCH   1   2
ATOM      2  C   UNL     1     -24.489 -33.207 -11.825  1.00  0.00     0.006 C 
BRANCH   2   3
ATOM      3  C   UNL     1     -25.112 -34.606 -11.793  1.00  0.00     0.053 C 
BRANCH   3   4
ATOM      4  C   UNL     1     -24.268 -35.572 -12.564  1.00  0.00     0.041 C 
ATOM      5  O   UNL     1     -23.017 -35.429 -12.603  1.00  0.00    -0.550 OA
ATOM      6  O   UNL     1     -24.857 -36.658 -13.198  1.00  0.00    -0.550 OA
ENDBRANCH   3   4
ENDBRANCH   2   3
ENDBRANCH   1   2
BRANCH   1   7
ATOM      7  C   UNL     1     -26.355 -31.817 -12.813  1.00  0.00     0.000 C 
BRANCH   7   8
ATOM      8  C   UNL     1     -27.864 -31.914 -12.539  1.00  0.00     0.004 C 
BRANCH   8   9
ATOM      9  C   UNL     1     -28.431 -33.295 -12.900  1.00  0.00     0.027 C 
BRANCH   9  10
ATOM     10  C   UNL     1     -27.774 -33.884 -14.120  1.00  0.00    -0.035 C 
ATOM     11  C   UNL     1     -27.778 -35.199 -14.356  1.00  0.00     0.004 C 
ENDBRANCH   9  10
ENDBRANCH   8   9
ENDBRANCH   7   8
ENDBRANCH   1   7
TORSDOF 7
ENDMDL
MODEL 3
REMARK VINA RESULT:    -4.357      1.520      3.019
REMARK INTER + INTRA:          -7.054
REMARK INTER:                  -6.248
REMARK INTRA:                  -0.807
REMARK UNBOUND:                -0.914
REMARK SMILES C=CCCCCCCC(=O)[O-]
REMARK SMILES IDX 6 1 7 2 8 3 9 4 10 5 11 6 5 7 4 8 3 9 2 10 1 11
REMARK H PARENT
REMARK Flexibility Score: inf
ROOT
ATOM      1  C   UNL     1     -27.809 -34.395 -12.335  1.00  0.00     0.000 C 
ENDROOT
BRANCH   1   2
ATOM      2  C   UNL     1     -26.541 -34.596 -11.496  1.00  0.00     0.006 C 
BRANCH   2   3
ATOM      3  C   UNL     1     -25.295 -34.160 -12.273  1.00  0.00     0.053 C 
BRANCH   3   4
ATOM      4  C   UNL     1     -24.481 -35.352 -12.667  1.00  0.00     0.041 C 
ATOM      5  O   UNL     1     -25.042 -36.371 -13.150  1.00  0.00    -0.550 OA
ATOM      6  O   UNL     1     -23.098 -35.320 -12.547  1.00  0.00    -0.550 OA
ENDBRANCH   3   4
ENDBRANCH   2   3
ENDBRANCH   1   2
BRANCH   1   7
ATOM      7  C   UNL     1     -27.602 -33.307 -13.395  1.00  0.00     0.000 C 
BRANCH   7   8
ATOM      8  C   UNL     1     -28.408 -32.045 -13.055  1.00  0.00     0.004 C 
BRANCH   8   9
ATOM      9  C   UNL     1     -27.514 -30.905 -12.545  1.00  0.00     0.027 C 
BRANCH   9  10
ATOM     10  C   UNL     1     -27.385 -30.906 -11.045  1.00  0.00    -0.035 C 
ATOM     11  C   UNL     1     -26.197 -30.999 -10.441  1.00  0.00     0.004 C 
ENDBRANCH   9  10
ENDBRANCH   8   9
ENDBRANCH   7   8
ENDBRANCH   1   7
TORSDOF 7
ENDMDL
MODEL 4
REMARK VINA RESULT:    -4.181      2.233      3.779
REMARK INTER + INTRA:          -6.807
REMARK INTER:                  -6.129
REMARK INTRA:                  -0.678
REMARK UNBOUND:                -0.914
REMARK SMILES C=CCCCCCCC(=O)[O-]
REMARK SMILES IDX 6 1 7 2 8 3 9 4 10 5 11 6 5 7 4 8 3 9 2 10 1 11
REMARK H PARENT
REMARK Flexibility Score: inf
ROOT
ATOM      1  C   UNL     1     -28.498 -33.053 -12.665  1.00  0.00     0.000 C 
ENDROOT
BRANCH   1   2
ATOM      2  C   UNL     1     -28.364 -31.544 -12.904  1.00  0.00     0.006 C 
BRANCH   2   3
ATOM      3  C   UNL     1     -27.849 -30.833 -11.649  1.00  0.00     0.053 C 
BRANCH   3   4
ATOM      4  C   UNL     1     -26.410 -31.166 -11.413  1.00  0.00     0.041 C 
ATOM      5  O   UNL     1     -26.008 -31.455 -10.255  1.00  0.00    -0.550 OA
ATOM      6  O   UNL     1     -25.521 -31.206 -12.479  1.00  0.00    -0.550 OA
ENDBRANCH   3   4
ENDBRANCH   2   3
ENDBRANCH   1   2
BRANCH   1   7
ATOM      7  C   UNL     1     -27.882 -33.850 -13.820  1.00  0.00     0.000 C 
BRANCH   7   8
ATOM      8  C   UNL     1     -27.097 -35.062 -13.297  1.00  0.00     0.004 C 
BRANCH   8   9
ATOM      9  C   UNL     1     -26.471 -34.797 -11.920  1.00  0.00     0.027 C 
BRANCH   9  10
ATOM     10  C   UNL     1     -24.967 -34.735 -11.977  1.00  0.00    -0.035 C 
ATOM     11  C   UNL     1     -24.251 -35.622 -12.674  1.00  0.00     0.004 C 
ENDBRANCH   9  10
ENDBRANCH   8   9
ENDBRANCH   7   8
ENDBRANCH   1   7
TORSDOF 7
ENDMDL
MODEL 5
REMARK VINA RESULT:    -4.165      2.630      3.688
REMARK INTER + INTRA:          -6.784
REMARK INTER:                  -5.956
REMARK INTRA:                  -0.828
REMARK UNBOUND:                -0.914
REMARK SMILES C=CCCCCCCC(=O)[O-]
REMARK SMILES IDX 6 1 7 2 8 3 9 4 10 5 11 6 5 7 4 8 3 9 2 10 1 11
REMARK H PARENT
REMARK Flexibility Score: inf
ROOT
ATOM      1  C   UNL     1     -25.110 -32.418 -11.206  1.00  0.00     0.000 C 
ENDROOT
BRANCH   1   2
ATOM      2  C   UNL     1     -25.341 -31.098 -11.953  1.00  0.00     0.006 C 
BRANCH   2   3
ATOM      3  C   UNL     1     -26.410 -31.261 -13.038  1.00  0.00     0.053 C 
BRANCH   3   4
ATOM      4  C   UNL     1     -27.766 -30.956 -12.486  1.00  0.00     0.041 C 
ATOM      5  O   UNL     1     -28.799 -31.324 -13.105  1.00  0.00    -0.550 OA
ATOM      6  O   UNL     1     -27.890 -30.310 -11.263  1.00  0.00    -0.550 OA
ENDBRANCH   3   4
ENDBRANCH   2   3
ENDBRANCH   1   2
BRANCH   1   7
ATOM      7  C   UNL     1     -24.470 -33.465 -12.125  1.00  0.00     0.000 C 
BRANCH   7   8
ATOM      8  C   UNL     1     -25.318 -34.745 -12.177  1.00  0.00     0.004 C 
BRANCH   8   9
ATOM      9  C   UNL     1     -26.576 -34.643 -11.302  1.00  0.00     0.027 C 
BRANCH   9  10
ATOM     10  C   UNL     1     -27.841 -34.620 -12.118  1.00  0.00    -0.035 C 
ATOM     11  C   UNL     1     -27.828 -34.787 -13.444  1.00  0.00     0.004 C 
ENDBRANCH   9  10
ENDBRANCH   8   9
ENDBRANCH   7   8
ENDBRANCH   1   7
TORSDOF 7
ENDMDL
MODEL 6
REMARK VINA RESULT:    -4.084      1.329      3.210
REMARK INTER + INTRA:          -6.670
REMARK INTER:                  -5.814
REMARK INTRA:                  -0.856
REMARK UNBOUND:                -0.914
REMARK SMILES C=CCCCCCCC(=O)[O-]
REMARK SMILES IDX 6 1 7 2 8 3 9 4 10 5 11 6 5 7 4 8 3 9 2 10 1 11
REMARK H PARENT
REMARK Flexibility Score: inf
ROOT
ATOM      1  C   UNL     1     -28.624 -31.574 -13.062  1.00  0.00     0.000 C 
ENDROOT
BRANCH   1   2
ATOM      2  C   UNL     1     -28.515 -33.041 -12.627  1.00  0.00     0.006 C 
BRANCH   2   3
ATOM      3  C   UNL     1     -27.557 -33.814 -13.539  1.00  0.00     0.053 C 
BRANCH   3   4
ATOM      4  C   UNL     1     -26.710 -34.750 -12.735  1.00  0.00     0.041 C 
ATOM      5  O   UNL     1     -26.785 -34.750 -11.478  1.00  0.00    -0.550 OA
ATOM      6  O   UNL     1     -25.876 -35.656 -13.375  1.00  0.00    -0.550 OA
ENDBRANCH   3   4
ENDBRANCH   2   3
ENDBRANCH   1   2
BRANCH   1   7
ATOM      7  C   UNL     1     -27.405 -30.769 -12.596  1.00  0.00     0.000 C 
BRANCH   7   8
ATOM      8  C   UNL     1     -27.272 -30.807 -11.066  1.00  0.00     0.004 C 
BRANCH   8   9
ATOM      9  C   UNL     1     -25.920 -31.378 -10.615  1.00  0.00     0.027 C 
BRANCH   9  10
ATOM     10  C   UNL     1     -24.930 -31.468 -11.746  1.00  0.00    -0.035 C 
ATOM     11  C   UNL     1     -24.079 -32.492 -11.859  1.00  0.00     0.004 C 
ENDBRANCH   9  10
ENDBRANCH   8   9
ENDBRANCH   7   8
ENDBRANCH   1   7
TORSDOF 7
ENDMDL
MODEL 7
REMARK VINA RESULT:    -3.988      2.621      4.528
REMARK INTER + INTRA:          -6.535
REMARK INTER:                  -5.787
REMARK INTRA:                  -0.748
REMARK UNBOUND:                -0.914
REMARK SMILES C=CCCCCCCC(=O)[O-]
REMARK SMILES IDX 6 1 7 2 8 3 9 4 10 5 11 6 5 7 4 8 3 9 2 10 1 11
REMARK H PARENT
REMARK Flexibility Score: inf
ROOT
ATOM      1  C   UNL     1     -27.906 -34.782 -13.088  1.00  0.00     0.000 C 
ENDROOT
BRANCH   1   2
ATOM      2  C   UNL     1     -28.011 -33.543 -12.190  1.00  0.00     0.006 C 
BRANCH   2   3
ATOM      3  C   UNL     1     -28.341 -32.294 -13.014  1.00  0.00     0.053 C 
BRANCH   3   4
ATOM      4  C   UNL     1     -27.723 -31.081 -12.394  1.00  0.00     0.041 C 
ATOM      5  O   UNL     1     -27.905 -30.830 -11.173  1.00  0.00    -0.550 OA
ATOM      6  O   UNL     1     -26.904 -30.253 -13.152  1.00  0.00    -0.550 OA
ENDBRANCH   3   4
ENDBRANCH   2   3
ENDBRANCH   1   2
BRANCH   1   7
ATOM      7  C   UNL     1     -26.443 -35.194 -13.288  1.00  0.00     0.000 C 
BRANCH   7   8
ATOM      8  C   UNL     1     -25.636 -35.007 -11.995  1.00  0.00     0.004 C 
BRANCH   8   9
ATOM      9  C   UNL     1     -24.267 -34.361 -12.254  1.00  0.00     0.027 C 
BRANCH   9  10
ATOM     10  C   UNL     1     -24.329 -32.857 -12.230  1.00  0.00    -0.035 C 
ATOM     11  C   UNL     1     -24.418 -32.174 -11.085  1.00  0.00     0.004 C 
ENDBRANCH   9  10
ENDBRANCH   8   9
ENDBRANCH   7   8
ENDBRANCH   1   7
TORSDOF 7
ENDMDL
MODEL 8
REMARK VINA RESULT:    -3.957      2.655      3.482
REMARK INTER + INTRA:          -6.490
REMARK INTER:                  -6.188
REMARK INTRA:                  -0.303
REMARK UNBOUND:                -0.914
REMARK SMILES C=CCCCCCCC(=O)[O-]
REMARK SMILES IDX 6 1 7 2 8 3 9 4 10 5 11 6 5 7 4 8 3 9 2 10 1 11
REMARK H PARENT
REMARK Flexibility Score: inf
ROOT
ATOM      1  C   UNL     1     -24.452 -35.592 -12.598  1.00  0.00     0.000 C 
ENDROOT
BRANCH   1   2
ATOM      2  C   UNL     1     -22.929 -35.478 -12.459  1.00  0.00     0.006 C 
BRANCH   2   3
ATOM      3  C   UNL     1     -22.432 -34.118 -12.960  1.00  0.00     0.053 C 
BRANCH   3   4
ATOM      4  C   UNL     1     -21.192 -34.285 -13.781  1.00  0.00     0.041 C 
ATOM      5  O   UNL     1     -20.437 -35.276 -13.593  1.00  0.00    -0.550 OA
ATOM      6  O   UNL     1     -20.896 -33.374 -14.786  1.00  0.00    -0.550 OA
ENDBRANCH   3   4
ENDBRANCH   2   3
ENDBRANCH   1   2
BRANCH   1   7
ATOM      7  C   UNL     1     -25.145 -34.301 -12.145  1.00  0.00     0.000 C 
BRANCH   7   8
ATOM      8  C   UNL     1     -26.483 -34.607 -11.454  1.00  0.00     0.004 C 
BRANCH   8   9
ATOM      9  C   UNL     1     -27.671 -33.961 -12.181  1.00  0.00     0.027 C 
BRANCH   9  10
ATOM     10  C   UNL     1     -27.488 -33.943 -13.676  1.00  0.00    -0.035 C 
ATOM     11  C   UNL     1     -27.754 -35.012 -14.431  1.00  0.00     0.004 C 
ENDBRANCH   9  10
ENDBRANCH   8   9
ENDBRANCH   7   8
ENDBRANCH   1   7
TORSDOF 7
ENDMDL
MODEL 9
REMARK VINA RESULT:    -3.902      1.643      3.410
REMARK INTER + INTRA:          -6.413
REMARK INTER:                  -5.756
REMARK INTRA:                  -0.657
REMARK UNBOUND:                -0.914
REMARK SMILES C=CCCCCCCC(=O)[O-]
REMARK SMILES IDX 6 1 7 2 8 3 9 4 10 5 11 6 5 7 4 8 3 9 2 10 1 11
REMARK H PARENT
REMARK Flexibility Score: inf
ROOT
ATOM      1  C   UNL     1     -26.514 -31.386 -11.718  1.00  0.00     0.000 C 
ENDROOT
BRANCH   1   2
ATOM      2  C   UNL     1     -26.971 -31.990 -13.052  1.00  0.00     0.006 C 
BRANCH   2   3
ATOM      3  C   UNL     1     -28.304 -32.726 -12.892  1.00  0.00     0.053 C 
BRANCH   3   4
ATOM      4  C   UNL     1     -28.072 -34.188 -12.670  1.00  0.00     0.041 C 
ATOM      5  O   UNL     1     -28.035 -34.653 -11.500  1.00  0.00    -0.550 OA
ATOM      6  O   UNL     1     -27.945 -35.045 -13.756  1.00  0.00    -0.550 OA
ENDBRANCH   3   4
ENDBRANCH   2   3
ENDBRANCH   1   2
BRANCH   1   7
ATOM      7  C   UNL     1     -25.363 -32.198 -11.112  1.00  0.00     0.000 C 
BRANCH   7   8
ATOM      8  C   UNL     1     -24.097 -32.089 -11.975  1.00  0.00     0.004 C 
BRANCH   8   9
ATOM      9  C   UNL     1     -23.512 -33.466 -12.322  1.00  0.00     0.027 C 
BRANCH   9  10
ATOM     10  C   UNL     1     -24.539 -34.564 -12.236  1.00  0.00    -0.035 C 
ATOM     11  C   UNL     1     -24.287 -35.800 -12.674  1.00  0.00     0.004 C 
ENDBRANCH   9  10
ENDBRANCH   8   9
ENDBRANCH   7   8
ENDBRANCH   1   7
TORSDOF 7
ENDMDL
