MODEL 1
REMARK VINA RESULT:    -5.084      0.000      0.000
REMARK INTER + INTRA:         -12.989
REMARK INTER:                 -11.028
REMARK INTRA:                  -1.961
REMARK UNBOUND:                -1.961
REMARK SMILES CCCCCCCCCCCCCCCCCCCCCC(=O)[O-]
REMARK SMILES IDX 12 1 11 2 10 3 9 4 8 5 7 6 6 7 5 8 4 9 3 10 2 11 1 12 13 13
REMARK SMILES IDX 14 14 15 15 16 16 17 17 18 18 19 19 20 20 21 21 22 22 23 23
REMARK SMILES IDX 24 24
REMARK H PARENT
REMARK Flexibility Score: inf
ROOT
ATOM      1  C   UNL     1     -16.243 -12.457  14.119  1.00  0.00     0.000 C 
ENDROOT
BRANCH   1   2
ATOM      2  C   UNL     1     -16.666 -13.753  14.825  1.00  0.00     0.000 C 
BRANCH   2   3
ATOM      3  C   UNL     1     -16.083 -13.877  16.244  1.00  0.00     0.000 C 
BRANCH   3   4
ATOM      4  C   UNL     1     -15.495 -12.574  16.821  1.00  0.00    -0.000 C 
BRANCH   4   5
ATOM      5  C   UNL     1     -14.905 -12.695  18.240  1.00  0.00    -0.000 C 
BRANCH   5   6
ATOM      6  C   UNL     1     -15.624 -11.860  19.316  1.00  0.00    -0.000 C 
BRANCH   6   7
ATOM      7  C   UNL     1     -16.872 -12.559  19.876  1.00  0.00    -0.000 C 
BRANCH   7   8
ATOM      8  C   UNL     1     -17.903 -11.533  20.368  1.00  0.00    -0.000 C 
BRANCH   8   9
ATOM      9  C   UNL     1     -17.266 -10.361  21.136  1.00  0.00    -0.000 C 
BRANCH   9  10
ATOM     10  C   UNL     1     -17.635 -10.286  22.630  1.00  0.00    -0.000 C 
BRANCH  10  11
ATOM     11  C   UNL     1     -16.412 -10.379  23.554  1.00  0.00    -0.003 C 
ATOM     12  C   UNL     1     -15.520 -11.557  23.169  1.00  0.00     0.004 C 
ENDBRANCH  10  11
ENDBRANCH   9  10
ENDBRANCH   8   9
ENDBRANCH   7   8
ENDBRANCH   6   7
ENDBRANCH   5   6
ENDBRANCH   4   5
ENDBRANCH   3   4
ENDBRANCH   2   3
ENDBRANCH   1   2
BRANCH   1  13
ATOM     13  C   UNL     1     -15.577 -12.757  12.770  1.00  0.00     0.000 C 
BRANCH  13  14
ATOM     14  C   UNL     1     -14.297 -11.926  12.592  1.00  0.00     0.000 C 
BRANCH  14  15
ATOM     15  C   UNL     1     -13.371 -11.981  13.819  1.00  0.00     0.000 C 
BRANCH  15  16
ATOM     16  C   UNL     1     -12.858 -13.388  14.190  1.00  0.00     0.000 C 
BRANCH  16  17
ATOM     17  C   UNL     1     -11.889 -13.434  15.384  1.00  0.00     0.000 C 
BRANCH  17  18
ATOM     18  C   UNL     1     -10.462 -13.842  14.981  1.00  0.00     0.000 C 
BRANCH  18  19
ATOM     19  C   UNL     1      -9.762 -12.758  14.135  1.00  0.00     0.000 C 
BRANCH  19  20
ATOM     20  C   UNL     1      -9.173 -11.609  14.972  1.00  0.00     0.006 C 
BRANCH  20  21
ATOM     21  C   UNL     1      -8.528 -10.515  14.114  1.00  0.00     0.053 C 
BRANCH  21  22
ATOM     22  C   UNL     1      -7.038 -10.645  14.134  1.00  0.00     0.041 C 
ATOM     23  O   UNL     1      -6.499 -11.689  14.589  1.00  0.00    -0.550 OA
ATOM     24  O   UNL     1      -6.244  -9.636  13.603  1.00  0.00    -0.550 OA
ENDBRANCH  21  22
ENDBRANCH  20  21
ENDBRANCH  19  20
ENDBRANCH  18  19
ENDBRANCH  17  18
ENDBRANCH  16  17
ENDBRANCH  15  16
ENDBRANCH  14  15
ENDBRANCH  13  14
ENDBRANCH   1  13
TORSDOF 20
ENDMDL
MODEL 2
REMARK VINA RESULT:    -5.061      1.262      2.135
REMARK INTER + INTRA:         -12.940
REMARK INTER:                 -11.380
REMARK INTRA:                  -1.560
REMARK UNBOUND:                -1.961
REMARK SMILES CCCCCCCCCCCCCCCCCCCCCC(=O)[O-]
REMARK SMILES IDX 12 1 11 2 10 3 9 4 8 5 7 6 6 7 5 8 4 9 3 10 2 11 1 12 13 13
REMARK SMILES IDX 14 14 15 15 16 16 17 17 18 18 19 19 20 20 21 21 22 22 23 23
REMARK SMILES IDX 24 24
REMARK H PARENT
REMARK Flexibility Score: inf
ROOT
ATOM      1  C   UNL     1     -16.288 -12.969  15.006  1.00  0.00     0.000 C 
ENDROOT
BRANCH   1   2
ATOM      2  C   UNL     1     -16.056 -13.590  16.392  1.00  0.00     0.000 C 
BRANCH   2   3
ATOM      3  C   UNL     1     -14.947 -12.879  17.186  1.00  0.00     0.000 C 
BRANCH   3   4
ATOM      4  C   UNL     1     -15.407 -12.230  18.507  1.00  0.00    -0.000 C 
BRANCH   4   5
ATOM      5  C   UNL     1     -16.753 -12.745  19.055  1.00  0.00    -0.000 C 
BRANCH   5   6
ATOM      6  C   UNL     1     -16.968 -12.521  20.563  1.00  0.00    -0.000 C 
BRANCH   6   7
ATOM      7  C   UNL     1     -16.310 -11.231  21.074  1.00  0.00    -0.000 C 
BRANCH   7   8
ATOM      8  C   UNL     1     -17.370 -10.208  21.506  1.00  0.00    -0.000 C 
BRANCH   8   9
ATOM      9  C   UNL     1     -17.970 -10.511  22.891  1.00  0.00    -0.000 C 
BRANCH   9  10
ATOM     10  C   UNL     1     -19.508 -10.560  22.937  1.00  0.00    -0.000 C 
BRANCH  10  11
ATOM     11  C   UNL     1     -20.133 -11.015  21.610  1.00  0.00    -0.003 C 
ATOM     12  C   UNL     1     -20.705  -9.829  20.837  1.00  0.00     0.004 C 
ENDBRANCH  10  11
ENDBRANCH   9  10
ENDBRANCH   8   9
ENDBRANCH   7   8
ENDBRANCH   6   7
ENDBRANCH   5   6
ENDBRANCH   4   5
ENDBRANCH   3   4
ENDBRANCH   2   3
ENDBRANCH   1   2
BRANCH   1  13
ATOM     13  C   UNL     1     -16.221 -14.037  13.907  1.00  0.00     0.000 C 
BRANCH  13  14
ATOM     14  C   UNL     1     -14.909 -13.928  13.115  1.00  0.00     0.000 C 
BRANCH  14  15
ATOM     15  C   UNL     1     -14.176 -12.596  13.349  1.00  0.00     0.000 C 
BRANCH  15  16
ATOM     16  C   UNL     1     -12.712 -12.729  13.817  1.00  0.00     0.000 C 
BRANCH  16  17
ATOM     17  C   UNL     1     -12.449 -13.865  14.820  1.00  0.00     0.000 C 
BRANCH  17  18
ATOM     18  C   UNL     1     -10.991 -14.355  14.801  1.00  0.00     0.000 C 
BRANCH  18  19
ATOM     19  C   UNL     1      -9.991 -13.222  15.110  1.00  0.00     0.000 C 
BRANCH  19  20
ATOM     20  C   UNL     1      -9.243 -12.705  13.869  1.00  0.00     0.006 C 
BRANCH  20  21
ATOM     21  C   UNL     1      -8.576 -11.343  14.098  1.00  0.00     0.053 C 
BRANCH  21  22
ATOM     22  C   UNL     1      -7.178 -11.524  14.600  1.00  0.00     0.041 C 
ATOM     23  O   UNL     1      -6.340 -12.174  13.922  1.00  0.00    -0.550 OA
ATOM     24  O   UNL     1      -6.786 -10.930  15.794  1.00  0.00    -0.550 OA
ENDBRANCH  21  22
ENDBRANCH  20  21
ENDBRANCH  19  20
ENDBRANCH  18  19
ENDBRANCH  17  18
ENDBRANCH  16  17
ENDBRANCH  15  16
ENDBRANCH  14  15
ENDBRANCH  13  14
ENDBRANCH   1  13
TORSDOF 20
ENDMDL
MODEL 3
REMARK VINA RESULT:    -5.047      1.755      2.314
REMARK INTER + INTRA:         -12.908
REMARK INTER:                 -11.071
REMARK INTRA:                  -1.837
REMARK UNBOUND:                -1.961
REMARK SMILES CCCCCCCCCCCCCCCCCCCCCC(=O)[O-]
REMARK SMILES IDX 12 1 11 2 10 3 9 4 8 5 7 6 6 7 5 8 4 9 3 10 2 11 1 12 13 13
REMARK SMILES IDX 14 14 15 15 16 16 17 17 18 18 19 19 20 20 21 21 22 22 23 23
REMARK SMILES IDX 24 24
REMARK H PARENT
REMARK Flexibility Score: inf
ROOT
ATOM      1  C   UNL     1     -15.151 -13.059  13.294  1.00  0.00     0.000 C 
ENDROOT
BRANCH   1   2
ATOM      2  C   UNL     1     -16.233 -12.722  14.330  1.00  0.00     0.000 C 
BRANCH   2   3
ATOM      3  C   UNL     1     -16.490 -13.871  15.320  1.00  0.00     0.000 C 
BRANCH   3   4
ATOM      4  C   UNL     1     -16.265 -13.514  16.803  1.00  0.00    -0.000 C 
BRANCH   4   5
ATOM      5  C   UNL     1     -14.969 -12.734  17.099  1.00  0.00    -0.000 C 
BRANCH   5   6
ATOM      6  C   UNL     1     -14.596 -12.636  18.589  1.00  0.00    -0.000 C 
BRANCH   6   7
ATOM      7  C   UNL     1     -15.557 -11.741  19.385  1.00  0.00    -0.000 C 
BRANCH   7   8
ATOM      8  C   UNL     1     -16.674 -12.573  20.032  1.00  0.00    -0.000 C 
BRANCH   8   9
ATOM      9  C   UNL     1     -18.011 -11.816  20.124  1.00  0.00    -0.000 C 
BRANCH   9  10
ATOM     10  C   UNL     1     -18.122 -10.834  21.305  1.00  0.00    -0.000 C 
BRANCH  10  11
ATOM     11  C   UNL     1     -19.493 -10.880  21.996  1.00  0.00    -0.003 C 
ATOM     12  C   UNL     1     -19.425 -10.266  23.393  1.00  0.00     0.004 C 
ENDBRANCH  10  11
ENDBRANCH   9  10
ENDBRANCH   8   9
ENDBRANCH   7   8
ENDBRANCH   6   7
ENDBRANCH   5   6
ENDBRANCH   4   5
ENDBRANCH   3   4
ENDBRANCH   2   3
ENDBRANCH   1   2
BRANCH   1  13
ATOM     13  C   UNL     1     -14.202 -11.872  13.084  1.00  0.00     0.000 C 
BRANCH  13  14
ATOM     14  C   UNL     1     -12.888 -12.075  13.854  1.00  0.00     0.000 C 
BRANCH  14  15
ATOM     15  C   UNL     1     -12.512 -13.558  14.017  1.00  0.00     0.000 C 
BRANCH  15  16
ATOM     16  C   UNL     1     -11.645 -13.881  15.251  1.00  0.00     0.000 C 
BRANCH  16  17
ATOM     17  C   UNL     1     -10.807 -12.707  15.785  1.00  0.00     0.000 C 
BRANCH  17  18
ATOM     18  C   UNL     1      -9.305 -13.029  15.864  1.00  0.00     0.000 C 
BRANCH  18  19
ATOM     19  C   UNL     1      -8.430 -11.845  15.402  1.00  0.00     0.000 C 
BRANCH  19  20
ATOM     20  C   UNL     1      -8.598 -11.501  13.911  1.00  0.00     0.006 C 
BRANCH  20  21
ATOM     21  C   UNL     1      -7.536 -12.161  13.023  1.00  0.00     0.053 C 
BRANCH  21  22
ATOM     22  C   UNL     1      -8.177 -13.096  12.048  1.00  0.00     0.041 C 
ATOM     23  O   UNL     1      -9.125 -13.841  12.413  1.00  0.00    -0.550 OA
ATOM     24  O   UNL     1      -7.763 -13.110  10.722  1.00  0.00    -0.550 OA
ENDBRANCH  21  22
ENDBRANCH  20  21
ENDBRANCH  19  20
ENDBRANCH  18  19
ENDBRANCH  17  18
ENDBRANCH  16  17
ENDBRANCH  15  16
ENDBRANCH  14  15
ENDBRANCH  13  14
ENDBRANCH   1  13
TORSDOF 20
ENDMDL
MODEL 4
REMARK VINA RESULT:    -4.976      3.863      8.802
REMARK INTER + INTRA:         -12.754
REMARK INTER:                 -10.870
REMARK INTRA:                  -1.884
REMARK UNBOUND:                -1.961
REMARK SMILES CCCCCCCCCCCCCCCCCCCCCC(=O)[O-]
REMARK SMILES IDX 12 1 11 2 10 3 9 4 8 5 7 6 6 7 5 8 4 9 3 10 2 11 1 12 13 13
REMARK SMILES IDX 14 14 15 15 16 16 17 17 18 18 19 19 20 20 21 21 22 22 23 23
REMARK SMILES IDX 24 24
REMARK H PARENT
REMARK Flexibility Score: inf
ROOT
ATOM      1  C   UNL     1     -15.737 -12.395  13.207  1.00  0.00     0.000 C 
ENDROOT
BRANCH   1   2
ATOM      2  C   UNL     1     -14.245 -12.438  12.845  1.00  0.00     0.000 C 
BRANCH   2   3
ATOM      3  C   UNL     1     -13.354 -11.769  13.906  1.00  0.00     0.000 C 
BRANCH   3   4
ATOM      4  C   UNL     1     -12.983 -12.668  15.103  1.00  0.00    -0.000 C 
BRANCH   4   5
ATOM      5  C   UNL     1     -12.488 -14.080  14.732  1.00  0.00    -0.000 C 
BRANCH   5   6
ATOM      6  C   UNL     1     -10.986 -14.325  14.971  1.00  0.00    -0.000 C 
BRANCH   6   7
ATOM      7  C   UNL     1     -10.299 -13.155  15.689  1.00  0.00    -0.000 C 
BRANCH   7   8
ATOM      8  C   UNL     1      -8.927 -12.859  15.068  1.00  0.00    -0.000 C 
BRANCH   8   9
ATOM      9  C   UNL     1      -8.998 -11.858  13.900  1.00  0.00    -0.000 C 
BRANCH   9  10
ATOM     10  C   UNL     1      -8.194 -10.560  14.106  1.00  0.00    -0.000 C 
BRANCH  10  11
ATOM     11  C   UNL     1      -6.796 -10.808  14.690  1.00  0.00    -0.003 C 
ATOM     12  C   UNL     1      -5.873 -11.448  13.655  1.00  0.00     0.004 C 
ENDBRANCH  10  11
ENDBRANCH   9  10
ENDBRANCH   8   9
ENDBRANCH   7   8
ENDBRANCH   6   7
ENDBRANCH   5   6
ENDBRANCH   4   5
ENDBRANCH   3   4
ENDBRANCH   2   3
ENDBRANCH   1   2
BRANCH   1  13
ATOM     13  C   UNL     1     -16.364 -13.793  13.120  1.00  0.00     0.000 C 
BRANCH  13  14
ATOM     14  C   UNL     1     -16.824 -14.275  14.504  1.00  0.00     0.000 C 
BRANCH  14  15
ATOM     15  C   UNL     1     -16.489 -13.280  15.628  1.00  0.00     0.000 C 
BRANCH  15  16
ATOM     16  C   UNL     1     -16.034 -13.920  16.956  1.00  0.00     0.000 C 
BRANCH  16  17
ATOM     17  C   UNL     1     -16.492 -13.183  18.226  1.00  0.00     0.000 C 
BRANCH  17  18
ATOM     18  C   UNL     1     -15.458 -12.163  18.732  1.00  0.00     0.000 C 
BRANCH  18  19
ATOM     19  C   UNL     1     -16.091 -11.100  19.654  1.00  0.00     0.000 C 
BRANCH  19  20
ATOM     20  C   UNL     1     -17.385 -11.571  20.340  1.00  0.00     0.006 C 
BRANCH  20  21
ATOM     21  C   UNL     1     -17.860 -10.615  21.440  1.00  0.00     0.053 C 
BRANCH  21  22
ATOM     22  C   UNL     1     -16.759 -10.354  22.418  1.00  0.00     0.041 C 
ATOM     23  O   UNL     1     -16.354 -11.273  23.177  1.00  0.00    -0.550 OA
ATOM     24  O   UNL     1     -16.144  -9.108  22.456  1.00  0.00    -0.550 OA
ENDBRANCH  21  22
ENDBRANCH  20  21
ENDBRANCH  19  20
ENDBRANCH  18  19
ENDBRANCH  17  18
ENDBRANCH  16  17
ENDBRANCH  15  16
ENDBRANCH  14  15
ENDBRANCH  13  14
ENDBRANCH   1  13
TORSDOF 20
ENDMDL
MODEL 5
REMARK VINA RESULT:    -4.945      1.688      3.656
REMARK INTER + INTRA:         -12.688
REMARK INTER:                 -10.453
REMARK INTRA:                  -2.235
REMARK UNBOUND:                -1.961
REMARK SMILES CCCCCCCCCCCCCCCCCCCCCC(=O)[O-]
REMARK SMILES IDX 12 1 11 2 10 3 9 4 8 5 7 6 6 7 5 8 4 9 3 10 2 11 1 12 13 13
REMARK SMILES IDX 14 14 15 15 16 16 17 17 18 18 19 19 20 20 21 21 22 22 23 23
REMARK SMILES IDX 24 24
REMARK H PARENT
REMARK Flexibility Score: inf
ROOT
ATOM      1  C   UNL     1     -15.117 -12.589  18.246  1.00  0.00     0.000 C 
ENDROOT
BRANCH   1   2
ATOM      2  C   UNL     1     -16.033 -11.612  18.997  1.00  0.00     0.000 C 
BRANCH   2   3
ATOM      3  C   UNL     1     -17.010 -12.324  19.949  1.00  0.00     0.000 C 
BRANCH   3   4
ATOM      4  C   UNL     1     -18.005 -11.394  20.672  1.00  0.00    -0.000 C 
BRANCH   4   5
ATOM      5  C   UNL     1     -17.405 -10.075  21.198  1.00  0.00    -0.000 C 
BRANCH   5   6
ATOM      6  C   UNL     1     -17.070 -10.067  22.701  1.00  0.00    -0.000 C 
BRANCH   6   7
ATOM      7  C   UNL     1     -15.681  -9.483  22.998  1.00  0.00    -0.000 C 
BRANCH   7   8
ATOM      8  C   UNL     1     -14.685  -9.841  21.885  1.00  0.00    -0.000 C 
BRANCH   8   9
ATOM      9  C   UNL     1     -13.596 -10.828  22.346  1.00  0.00    -0.000 C 
BRANCH   9  10
ATOM     10  C   UNL     1     -13.774 -12.273  21.845  1.00  0.00    -0.000 C 
BRANCH  10  11
ATOM     11  C   UNL     1     -12.635 -12.732  20.923  1.00  0.00    -0.003 C 
ATOM     12  C   UNL     1     -11.602 -11.623  20.732  1.00  0.00     0.004 C 
ENDBRANCH  10  11
ENDBRANCH   9  10
ENDBRANCH   8   9
ENDBRANCH   7   8
ENDBRANCH   6   7
ENDBRANCH   5   6
ENDBRANCH   4   5
ENDBRANCH   3   4
ENDBRANCH   2   3
ENDBRANCH   1   2
BRANCH   1  13
ATOM     13  C   UNL     1     -15.929 -13.504  17.320  1.00  0.00     0.000 C 
BRANCH  13  14
ATOM     14  C   UNL     1     -15.276 -13.602  15.933  1.00  0.00     0.000 C 
BRANCH  14  15
ATOM     15  C   UNL     1     -14.932 -12.228  15.332  1.00  0.00     0.000 C 
BRANCH  15  16
ATOM     16  C   UNL     1     -14.413 -12.260  13.880  1.00  0.00     0.000 C 
BRANCH  16  17
ATOM     17  C   UNL     1     -12.936 -11.866  13.708  1.00  0.00     0.000 C 
BRANCH  17  18
ATOM     18  C   UNL     1     -11.970 -13.030  13.986  1.00  0.00     0.000 C 
BRANCH  18  19
ATOM     19  C   UNL     1     -11.304 -12.915  15.373  1.00  0.00     0.000 C 
BRANCH  19  20
ATOM     20  C   UNL     1      -9.891 -13.522  15.430  1.00  0.00     0.006 C 
BRANCH  20  21
ATOM     21  C   UNL     1      -8.804 -12.480  15.719  1.00  0.00     0.053 C 
BRANCH  21  22
ATOM     22  C   UNL     1      -8.263 -11.920  14.441  1.00  0.00     0.041 C 
ATOM     23  O   UNL     1      -7.316 -12.499  13.847  1.00  0.00    -0.550 OA
ATOM     24  O   UNL     1      -8.839 -10.788  13.878  1.00  0.00    -0.550 OA
ENDBRANCH  21  22
ENDBRANCH  20  21
ENDBRANCH  19  20
ENDBRANCH  18  19
ENDBRANCH  17  18
ENDBRANCH  16  17
ENDBRANCH  15  16
ENDBRANCH  14  15
ENDBRANCH  13  14
ENDBRANCH   1  13
TORSDOF 20
ENDMDL
MODEL 6
REMARK VINA RESULT:    -4.914      4.714      9.459
REMARK INTER + INTRA:         -12.620
REMARK INTER:                 -10.577
REMARK INTRA:                  -2.043
REMARK UNBOUND:                -1.961
REMARK SMILES CCCCCCCCCCCCCCCCCCCCCC(=O)[O-]
REMARK SMILES IDX 12 1 11 2 10 3 9 4 8 5 7 6 6 7 5 8 4 9 3 10 2 11 1 12 13 13
REMARK SMILES IDX 14 14 15 15 16 16 17 17 18 18 19 19 20 20 21 21 22 22 23 23
REMARK SMILES IDX 24 24
REMARK H PARENT
REMARK Flexibility Score: inf
ROOT
ATOM      1  C   UNL     1     -15.160 -12.589  16.979  1.00  0.00     0.000 C 
ENDROOT
BRANCH   1   2
ATOM      2  C   UNL     1     -16.152 -13.740  16.758  1.00  0.00     0.000 C 
BRANCH   2   3
ATOM      3  C   UNL     1     -16.582 -13.884  15.288  1.00  0.00     0.000 C 
BRANCH   3   4
ATOM      4  C   UNL     1     -16.433 -12.605  14.439  1.00  0.00    -0.000 C 
BRANCH   4   5
ATOM      5  C   UNL     1     -15.495 -12.732  13.223  1.00  0.00    -0.000 C 
BRANCH   5   6
ATOM      6  C   UNL     1     -14.409 -13.816  13.350  1.00  0.00    -0.000 C 
BRANCH   6   7
ATOM      7  C   UNL     1     -13.118 -13.291  13.996  1.00  0.00    -0.000 C 
BRANCH   7   8
ATOM      8  C   UNL     1     -12.405 -14.402  14.781  1.00  0.00    -0.000 C 
BRANCH   8   9
ATOM      9  C   UNL     1     -10.919 -14.097  15.040  1.00  0.00    -0.000 C 
BRANCH   9  10
ATOM     10  C   UNL     1     -10.643 -12.757  15.747  1.00  0.00    -0.000 C 
BRANCH  10  11
ATOM     11  C   UNL     1      -9.379 -12.055  15.229  1.00  0.00    -0.003 C 
ATOM     12  C   UNL     1      -8.973 -12.594  13.859  1.00  0.00     0.004 C 
ENDBRANCH  10  11
ENDBRANCH   9  10
ENDBRANCH   8   9
ENDBRANCH   7   8
ENDBRANCH   6   7
ENDBRANCH   5   6
ENDBRANCH   4   5
ENDBRANCH   3   4
ENDBRANCH   2   3
ENDBRANCH   1   2
BRANCH   1  13
ATOM     13  C   UNL     1     -14.359 -12.793  18.271  1.00  0.00     0.000 C 
BRANCH  13  14
ATOM     14  C   UNL     1     -15.054 -12.115  19.461  1.00  0.00     0.000 C 
BRANCH  14  15
ATOM     15  C   UNL     1     -14.074 -11.710  20.576  1.00  0.00     0.000 C 
BRANCH  15  16
ATOM     16  C   UNL     1     -14.285 -12.427  21.926  1.00  0.00     0.000 C 
BRANCH  16  17
ATOM     17  C   UNL     1     -15.243 -11.717  22.898  1.00  0.00     0.000 C 
BRANCH  17  18
ATOM     18  C   UNL     1     -15.379 -10.212  22.611  1.00  0.00     0.000 C 
BRANCH  18  19
ATOM     19  C   UNL     1     -16.734  -9.864  21.959  1.00  0.00     0.000 C 
BRANCH  19  20
ATOM     20  C   UNL     1     -17.733 -11.034  21.953  1.00  0.00     0.006 C 
BRANCH  20  21
ATOM     21  C   UNL     1     -18.728 -10.964  20.789  1.00  0.00     0.053 C 
BRANCH  21  22
ATOM     22  C   UNL     1     -20.071 -10.519  21.275  1.00  0.00     0.041 C 
ATOM     23  O   UNL     1     -20.605  -9.481  20.802  1.00  0.00    -0.550 OA
ATOM     24  O   UNL     1     -20.758 -11.278  22.215  1.00  0.00    -0.550 OA
ENDBRANCH  21  22
ENDBRANCH  20  21
ENDBRANCH  19  20
ENDBRANCH  18  19
ENDBRANCH  17  18
ENDBRANCH  16  17
ENDBRANCH  15  16
ENDBRANCH  14  15
ENDBRANCH  13  14
ENDBRANCH   1  13
TORSDOF 20
ENDMDL
MODEL 7
REMARK VINA RESULT:    -4.913      2.851      7.750
REMARK INTER + INTRA:         -12.618
REMARK INTER:                 -10.135
REMARK INTRA:                  -2.483
REMARK UNBOUND:                -1.961
REMARK SMILES CCCCCCCCCCCCCCCCCCCCCC(=O)[O-]
REMARK SMILES IDX 12 1 11 2 10 3 9 4 8 5 7 6 6 7 5 8 4 9 3 10 2 11 1 12 13 13
REMARK SMILES IDX 14 14 15 15 16 16 17 17 18 18 19 19 20 20 21 21 22 22 23 23
REMARK SMILES IDX 24 24
REMARK H PARENT
REMARK Flexibility Score: inf
ROOT
ATOM      1  C   UNL     1     -15.239 -12.410  18.553  1.00  0.00     0.000 C 
ENDROOT
BRANCH   1   2
ATOM      2  C   UNL     1     -14.982 -13.162  17.238  1.00  0.00     0.000 C 
BRANCH   2   3
ATOM      3  C   UNL     1     -16.257 -13.796  16.654  1.00  0.00     0.000 C 
BRANCH   3   4
ATOM      4  C   UNL     1     -16.409 -13.658  15.126  1.00  0.00    -0.000 C 
BRANCH   4   5
ATOM      5  C   UNL     1     -15.848 -12.353  14.527  1.00  0.00    -0.000 C 
BRANCH   5   6
ATOM      6  C   UNL     1     -14.910 -12.543  13.321  1.00  0.00    -0.000 C 
BRANCH   6   7
ATOM      7  C   UNL     1     -13.433 -12.658  13.727  1.00  0.00    -0.000 C 
BRANCH   7   8
ATOM      8  C   UNL     1     -13.089 -14.093  14.148  1.00  0.00    -0.000 C 
BRANCH   8   9
ATOM      9  C   UNL     1     -11.906 -14.165  15.131  1.00  0.00    -0.000 C 
BRANCH   9  10
ATOM     10  C   UNL     1     -11.423 -12.805  15.667  1.00  0.00    -0.000 C 
BRANCH  10  11
ATOM     11  C   UNL     1     -10.063 -12.383  15.091  1.00  0.00    -0.003 C 
ATOM     12  C   UNL     1      -8.949 -12.569  16.118  1.00  0.00     0.004 C 
ENDBRANCH  10  11
ENDBRANCH   9  10
ENDBRANCH   8   9
ENDBRANCH   7   8
ENDBRANCH   6   7
ENDBRANCH   5   6
ENDBRANCH   4   5
ENDBRANCH   3   4
ENDBRANCH   2   3
ENDBRANCH   1   2
BRANCH   1  13
ATOM     13  C   UNL     1     -16.722 -12.473  18.941  1.00  0.00     0.000 C 
BRANCH  13  14
ATOM     14  C   UNL     1     -16.899 -12.340  20.461  1.00  0.00     0.000 C 
BRANCH  14  15
ATOM     15  C   UNL     1     -17.903 -11.243  20.855  1.00  0.00     0.000 C 
BRANCH  15  16
ATOM     16  C   UNL     1     -17.371 -10.198  21.858  1.00  0.00     0.000 C 
BRANCH  16  17
ATOM     17  C   UNL     1     -16.093 -10.609  22.610  1.00  0.00     0.000 C 
BRANCH  17  18
ATOM     18  C   UNL     1     -14.902  -9.681  22.317  1.00  0.00     0.000 C 
BRANCH  18  19
ATOM     19  C   UNL     1     -13.883 -10.326  21.355  1.00  0.00     0.000 C 
BRANCH  19  20
ATOM     20  C   UNL     1     -13.457 -11.745  21.770  1.00  0.00     0.006 C 
BRANCH  20  21
ATOM     21  C   UNL     1     -12.341 -12.315  20.887  1.00  0.00     0.053 C 
BRANCH  21  22
ATOM     22  C   UNL     1     -11.006 -11.820  21.346  1.00  0.00     0.041 C 
ATOM     23  O   UNL     1     -10.679 -11.912  22.558  1.00  0.00    -0.550 OA
ATOM     24  O   UNL     1     -10.102 -11.302  20.427  1.00  0.00    -0.550 OA
ENDBRANCH  21  22
ENDBRANCH  20  21
ENDBRANCH  19  20
ENDBRANCH  18  19
ENDBRANCH  17  18
ENDBRANCH  16  17
ENDBRANCH  15  16
ENDBRANCH  14  15
ENDBRANCH  13  14
ENDBRANCH   1  13
TORSDOF 20
ENDMDL
MODEL 8
REMARK VINA RESULT:    -4.835      1.818      4.273
REMARK INTER + INTRA:         -12.450
REMARK INTER:                  -9.971
REMARK INTRA:                  -2.478
REMARK UNBOUND:                -1.961
REMARK SMILES CCCCCCCCCCCCCCCCCCCCCC(=O)[O-]
REMARK SMILES IDX 12 1 11 2 10 3 9 4 8 5 7 6 6 7 5 8 4 9 3 10 2 11 1 12 13 13
REMARK SMILES IDX 14 14 15 15 16 16 17 17 18 18 19 19 20 20 21 21 22 22 23 23
REMARK SMILES IDX 24 24
REMARK H PARENT
REMARK Flexibility Score: inf
ROOT
ATOM      1  C   UNL     1     -15.586 -12.157  18.199  1.00  0.00     0.000 C 
ENDROOT
BRANCH   1   2
ATOM      2  C   UNL     1     -16.754 -12.835  18.928  1.00  0.00     0.000 C 
BRANCH   2   3
ATOM      3  C   UNL     1     -16.956 -12.301  20.358  1.00  0.00     0.000 C 
BRANCH   3   4
ATOM      4  C   UNL     1     -16.753 -10.781  20.518  1.00  0.00    -0.000 C 
BRANCH   4   5
ATOM      5  C   UNL     1     -17.056 -10.225  21.923  1.00  0.00    -0.000 C 
BRANCH   5   6
ATOM      6  C   UNL     1     -15.997  -9.255  22.480  1.00  0.00    -0.000 C 
BRANCH   6   7
ATOM      7  C   UNL     1     -15.213  -9.843  23.661  1.00  0.00    -0.000 C 
BRANCH   7   8
ATOM      8  C   UNL     1     -13.771 -10.178  23.252  1.00  0.00    -0.000 C 
BRANCH   8   9
ATOM      9  C   UNL     1     -13.459 -11.683  23.326  1.00  0.00    -0.000 C 
BRANCH   9  10
ATOM     10  C   UNL     1     -13.704 -12.463  22.021  1.00  0.00    -0.000 C 
BRANCH  10  11
ATOM     11  C   UNL     1     -13.068 -11.794  20.794  1.00  0.00    -0.003 C 
ATOM     12  C   UNL     1     -11.545 -11.774  20.906  1.00  0.00     0.004 C 
ENDBRANCH  10  11
ENDBRANCH   9  10
ENDBRANCH   8   9
ENDBRANCH   7   8
ENDBRANCH   6   7
ENDBRANCH   5   6
ENDBRANCH   4   5
ENDBRANCH   3   4
ENDBRANCH   2   3
ENDBRANCH   1   2
BRANCH   1  13
ATOM     13  C   UNL     1     -14.933 -13.116  17.195  1.00  0.00     0.000 C 
BRANCH  13  14
ATOM     14  C   UNL     1     -15.997 -13.911  16.423  1.00  0.00     0.000 C 
BRANCH  14  15
ATOM     15  C   UNL     1     -16.424 -13.227  15.112  1.00  0.00     0.000 C 
BRANCH  15  16
ATOM     16  C   UNL     1     -16.082 -14.007  13.826  1.00  0.00     0.000 C 
BRANCH  16  17
ATOM     17  C   UNL     1     -14.688 -13.720  13.242  1.00  0.00     0.000 C 
BRANCH  17  18
ATOM     18  C   UNL     1     -14.408 -12.217  13.070  1.00  0.00     0.000 C 
BRANCH  18  19
ATOM     19  C   UNL     1     -13.071 -11.795  13.714  1.00  0.00     0.000 C 
BRANCH  19  20
ATOM     20  C   UNL     1     -12.150 -12.981  14.051  1.00  0.00     0.006 C 
BRANCH  20  21
ATOM     21  C   UNL     1     -11.489 -12.851  15.428  1.00  0.00     0.053 C 
BRANCH  21  22
ATOM     22  C   UNL     1     -10.050 -12.467  15.284  1.00  0.00     0.041 C 
ATOM     23  O   UNL     1      -9.669 -11.800  14.287  1.00  0.00    -0.550 OA
ATOM     24  O   UNL     1      -9.138 -12.803  16.277  1.00  0.00    -0.550 OA
ENDBRANCH  21  22
ENDBRANCH  20  21
ENDBRANCH  19  20
ENDBRANCH  18  19
ENDBRANCH  17  18
ENDBRANCH  16  17
ENDBRANCH  15  16
ENDBRANCH  14  15
ENDBRANCH  13  14
ENDBRANCH   1  13
TORSDOF 20
ENDMDL
MODEL 9
REMARK VINA RESULT:    -4.829      1.494      3.904
REMARK INTER + INTRA:         -12.435
REMARK INTER:                 -10.379
REMARK INTRA:                  -2.056
REMARK UNBOUND:                -1.961
REMARK SMILES CCCCCCCCCCCCCCCCCCCCCC(=O)[O-]
REMARK SMILES IDX 12 1 11 2 10 3 9 4 8 5 7 6 6 7 5 8 4 9 3 10 2 11 1 12 13 13
REMARK SMILES IDX 14 14 15 15 16 16 17 17 18 18 19 19 20 20 21 21 22 22 23 23
REMARK SMILES IDX 24 24
REMARK H PARENT
REMARK Flexibility Score: inf
ROOT
ATOM      1  C   UNL     1     -15.306 -12.465  18.837  1.00  0.00     0.000 C 
ENDROOT
BRANCH   1   2
ATOM      2  C   UNL     1     -16.819 -12.412  19.096  1.00  0.00     0.000 C 
BRANCH   2   3
ATOM      3  C   UNL     1     -17.163 -12.051  20.552  1.00  0.00     0.000 C 
BRANCH   3   4
ATOM      4  C   UNL     1     -17.136 -10.543  20.871  1.00  0.00    -0.000 C 
BRANCH   4   5
ATOM      5  C   UNL     1     -16.060 -10.108  21.886  1.00  0.00    -0.000 C 
BRANCH   5   6
ATOM      6  C   UNL     1     -15.434 -11.255  22.700  1.00  0.00    -0.000 C 
BRANCH   6   7
ATOM      7  C   UNL     1     -16.159 -11.507  24.030  1.00  0.00    -0.000 C 
BRANCH   7   8
ATOM      8  C   UNL     1     -17.042 -10.309  24.410  1.00  0.00    -0.000 C 
BRANCH   8   9
ATOM      9  C   UNL     1     -18.511 -10.698  24.654  1.00  0.00    -0.000 C 
BRANCH   9  10
ATOM     10  C   UNL     1     -19.531  -9.988  23.745  1.00  0.00    -0.000 C 
BRANCH  10  11
ATOM     11  C   UNL     1     -20.354 -10.964  22.891  1.00  0.00    -0.003 C 
ATOM     12  C   UNL     1     -20.609 -10.394  21.497  1.00  0.00     0.004 C 
ENDBRANCH  10  11
ENDBRANCH   9  10
ENDBRANCH   8   9
ENDBRANCH   7   8
ENDBRANCH   6   7
ENDBRANCH   5   6
ENDBRANCH   4   5
ENDBRANCH   3   4
ENDBRANCH   2   3
ENDBRANCH   1   2
BRANCH   1  13
ATOM     13  C   UNL     1     -15.010 -12.820  17.375  1.00  0.00     0.000 C 
BRANCH  13  14
ATOM     14  C   UNL     1     -16.056 -13.802  16.825  1.00  0.00     0.000 C 
BRANCH  14  15
ATOM     15  C   UNL     1     -16.464 -13.494  15.374  1.00  0.00     0.000 C 
BRANCH  15  16
ATOM     16  C   UNL     1     -15.454 -12.641  14.577  1.00  0.00     0.000 C 
BRANCH  16  17
ATOM     17  C   UNL     1     -14.617 -13.417  13.546  1.00  0.00     0.000 C 
BRANCH  17  18
ATOM     18  C   UNL     1     -13.395 -14.114  14.169  1.00  0.00     0.000 C 
BRANCH  18  19
ATOM     19  C   UNL     1     -12.448 -13.115  14.867  1.00  0.00     0.000 C 
BRANCH  19  20
ATOM     20  C   UNL     1     -11.034 -13.672  15.106  1.00  0.00     0.006 C 
BRANCH  20  21
ATOM     21  C   UNL     1     -10.130 -12.698  15.872  1.00  0.00     0.053 C 
BRANCH  21  22
ATOM     22  C   UNL     1      -8.871 -12.442  15.106  1.00  0.00     0.041 C 
ATOM     23  O   UNL     1      -8.814 -12.698  13.875  1.00  0.00    -0.550 OA
ATOM     24  O   UNL     1      -7.775 -11.871  15.741  1.00  0.00    -0.550 OA
ENDBRANCH  21  22
ENDBRANCH  20  21
ENDBRANCH  19  20
ENDBRANCH  18  19
ENDBRANCH  17  18
ENDBRANCH  16  17
ENDBRANCH  15  16
ENDBRANCH  14  15
ENDBRANCH  13  14
ENDBRANCH   1  13
TORSDOF 20
ENDMDL
