MODEL 1
REMARK VINA RESULT:    -5.623      0.000      0.000
REMARK INTER + INTRA:          -5.787
REMARK INTER:                  -5.787
REMARK INTRA:                   0.000
REMARK UNBOUND:                 0.000
REMARK SMILES C=C1[C@H](O)C[C@@]23C[C@@H]1C(C)(C)[C@@H]2CC[C@@H]3C
REMARK SMILES IDX 16 1 15 2 14 3 13 4 12 5 6 6 7 7 8 8 9 9 10 10 11 11 2 12
REMARK SMILES IDX 1 13 3 14 5 15 4 16
REMARK H PARENT 4 17
REMARK Flexibility Score: inf
ROOT
ATOM      1  C   UNL     1     140.201 143.850 146.162  1.00  0.00     0.008 C 
ATOM      2  C   UNL     1     141.503 144.160 145.409  1.00  0.00    -0.008 C 
ATOM      3  C   UNL     1     142.745 143.854 146.235  1.00  0.00     0.004 C 
ATOM      4  C   UNL     1     143.877 143.757 145.221  1.00  0.00     0.005 C 
ATOM      5  C   UNL     1     143.241 143.289 143.892  1.00  0.00     0.002 C 
ATOM      6  C   UNL     1     141.706 143.387 144.088  1.00  0.00    -0.020 C 
ATOM      7  C   UNL     1     141.223 141.932 144.116  1.00  0.00     0.016 C 
ATOM      8  C   UNL     1     142.090 141.310 143.041  1.00  0.00     0.023 C 
ATOM      9  C   UNL     1     143.516 141.823 143.401  1.00  0.00    -0.025 C 
ATOM     10  C   UNL     1     144.128 140.889 144.482  1.00  0.00     0.012 C 
ATOM     11  C   UNL     1     144.481 141.805 142.190  1.00  0.00     0.012 C 
ATOM     12  C   UNL     1     141.593 141.841 141.695  1.00  0.00    -0.045 C 
ATOM     13  C   UNL     1     141.564 141.028 140.628  1.00  0.00     0.011 C 
ATOM     14  C   UNL     1     141.193 143.308 141.531  1.00  0.00     0.140 C 
ATOM     15  C   UNL     1     141.024 144.080 142.878  1.00  0.00     0.044 C 
ENDROOT
BRANCH  14  16
ATOM     16  O   UNL     1     142.149 143.952 140.727  1.00  0.00    -0.389 OA
ATOM     17  H   UNL     1     142.269 143.391 139.917  1.00  0.00     0.211 HD
ENDBRANCH  14  16
TORSDOF 1
ENDMDL
MODEL 2
REMARK VINA RESULT:    -5.233      8.711     11.308
REMARK INTER + INTRA:          -5.386
REMARK INTER:                  -5.386
REMARK INTRA:                   0.000
REMARK UNBOUND:                 0.000
REMARK SMILES C=C1[C@H](O)C[C@@]23C[C@@H]1C(C)(C)[C@@H]2CC[C@@H]3C
REMARK SMILES IDX 16 1 15 2 14 3 13 4 12 5 6 6 7 7 8 8 9 9 10 10 11 11 2 12
REMARK SMILES IDX 1 13 3 14 5 15 4 16
REMARK H PARENT 4 17
REMARK Flexibility Score: inf
ROOT
ATOM      1  C   UNL     1     149.589 139.357 146.707  1.00  0.00     0.008 C 
ATOM      2  C   UNL     1     148.736 138.851 147.880  1.00  0.00    -0.008 C 
ATOM      3  C   UNL     1     147.289 138.591 147.482  1.00  0.00     0.004 C 
ATOM      4  C   UNL     1     146.740 137.681 148.572  1.00  0.00     0.005 C 
ATOM      5  C   UNL     1     147.940 136.875 149.121  1.00  0.00     0.002 C 
ATOM      6  C   UNL     1     149.212 137.531 148.526  1.00  0.00    -0.020 C 
ATOM      7  C   UNL     1     149.760 136.495 147.537  1.00  0.00     0.016 C 
ATOM      8  C   UNL     1     149.520 135.205 148.295  1.00  0.00     0.023 C 
ATOM      9  C   UNL     1     148.045 135.347 148.770  1.00  0.00    -0.025 C 
ATOM     10  C   UNL     1     147.101 134.887 147.623  1.00  0.00     0.012 C 
ATOM     11  C   UNL     1     147.724 134.463 150.000  1.00  0.00     0.012 C 
ATOM     12  C   UNL     1     150.515 135.173 149.458  1.00  0.00    -0.045 C 
ATOM     13  C   UNL     1     151.088 134.012 149.811  1.00  0.00     0.011 C 
ATOM     14  C   UNL     1     150.813 136.434 150.269  1.00  0.00     0.140 C 
ATOM     15  C   UNL     1     150.296 137.755 149.614  1.00  0.00     0.044 C 
ENDROOT
BRANCH  14  16
ATOM     16  O   UNL     1     150.261 136.289 151.553  1.00  0.00    -0.389 OA
ATOM     17  H   UNL     1     149.397 135.814 151.444  1.00  0.00     0.211 HD
ENDBRANCH  14  16
TORSDOF 1
ENDMDL
MODEL 3
REMARK VINA RESULT:    -5.216      7.783      9.382
REMARK INTER + INTRA:          -5.369
REMARK INTER:                  -5.369
REMARK INTRA:                   0.000
REMARK UNBOUND:                 0.000
REMARK SMILES C=C1[C@H](O)C[C@@]23C[C@@H]1C(C)(C)[C@@H]2CC[C@@H]3C
REMARK SMILES IDX 16 1 15 2 14 3 13 4 12 5 6 6 7 7 8 8 9 9 10 10 11 11 2 12
REMARK SMILES IDX 1 13 3 14 5 15 4 16
REMARK H PARENT 4 17
REMARK Flexibility Score: inf
ROOT
ATOM      1  C   UNL     1     148.290 139.367 148.829  1.00  0.00     0.008 C 
ATOM      2  C   UNL     1     147.277 138.799 147.823  1.00  0.00    -0.008 C 
ATOM      3  C   UNL     1     147.897 138.521 146.460  1.00  0.00     0.004 C 
ATOM      4  C   UNL     1     146.933 137.560 145.778  1.00  0.00     0.005 C 
ATOM      5  C   UNL     1     146.235 136.762 146.903  1.00  0.00     0.002 C 
ATOM      6  C   UNL     1     146.609 137.468 148.232  1.00  0.00    -0.020 C 
ATOM      7  C   UNL     1     147.536 136.481 148.951  1.00  0.00     0.016 C 
ATOM      8  C   UNL     1     146.865 135.160 148.636  1.00  0.00     0.023 C 
ATOM      9  C   UNL     1     146.615 135.251 147.102  1.00  0.00    -0.025 C 
ATOM     10  C   UNL     1     147.906 134.811 146.355  1.00  0.00     0.012 C 
ATOM     11  C   UNL     1     145.477 134.316 146.624  1.00  0.00     0.012 C 
ATOM     12  C   UNL     1     145.566 135.108 149.444  1.00  0.00    -0.045 C 
ATOM     13  C   UNL     1     145.168 133.948 149.989  1.00  0.00     0.011 C 
ATOM     14  C   UNL     1     144.679 136.345 149.581  1.00  0.00     0.140 C 
ATOM     15  C   UNL     1     145.362 137.676 149.133  1.00  0.00     0.044 C 
ENDROOT
BRANCH  14  16
ATOM     16  O   UNL     1     143.499 136.142 148.846  1.00  0.00    -0.389 OA
ATOM     17  H   UNL     1     143.080 135.313 149.197  1.00  0.00     0.211 HD
ENDBRANCH  14  16
TORSDOF 1
ENDMDL
MODEL 4
REMARK VINA RESULT:    -5.109     11.050     12.493
REMARK INTER + INTRA:          -5.258
REMARK INTER:                  -5.258
REMARK INTRA:                   0.000
REMARK UNBOUND:                 0.000
REMARK SMILES C=C1[C@H](O)C[C@@]23C[C@@H]1C(C)(C)[C@@H]2CC[C@@H]3C
REMARK SMILES IDX 16 1 15 2 14 3 13 4 12 5 6 6 7 7 8 8 9 9 10 10 11 11 2 12
REMARK SMILES IDX 1 13 3 14 5 15 4 16
REMARK H PARENT 4 17
REMARK Flexibility Score: inf
ROOT
ATOM      1  C   UNL     1     137.257 129.730 148.801  1.00  0.00     0.008 C 
ATOM      2  C   UNL     1     137.304 131.264 148.739  1.00  0.00    -0.008 C 
ATOM      3  C   UNL     1     136.581 131.921 149.908  1.00  0.00     0.004 C 
ATOM      4  C   UNL     1     137.118 133.345 149.952  1.00  0.00     0.005 C 
ATOM      5  C   UNL     1     138.550 133.295 149.374  1.00  0.00     0.002 C 
ATOM      6  C   UNL     1     138.718 131.886 148.750  1.00  0.00    -0.020 C 
ATOM      7  C   UNL     1     139.724 131.172 149.661  1.00  0.00     0.016 C 
ATOM      8  C   UNL     1     140.699 132.293 149.961  1.00  0.00     0.023 C 
ATOM      9  C   UNL     1     139.765 133.475 150.354  1.00  0.00    -0.025 C 
ATOM     10  C   UNL     1     139.398 133.347 151.859  1.00  0.00     0.012 C 
ATOM     11  C   UNL     1     140.439 134.857 150.170  1.00  0.00     0.012 C 
ATOM     12  C   UNL     1     141.486 132.563 148.677  1.00  0.00    -0.045 C 
ATOM     13  C   UNL     1     142.793 132.860 148.747  1.00  0.00     0.011 C 
ATOM     14  C   UNL     1     140.788 132.568 147.316  1.00  0.00     0.140 C 
ATOM     15  C   UNL     1     139.348 131.964 147.333  1.00  0.00     0.044 C 
ENDROOT
BRANCH  14  16
ATOM     16  O   UNL     1     140.749 133.886 146.831  1.00  0.00    -0.389 OA
ATOM     17  H   UNL     1     140.439 134.460 147.579  1.00  0.00     0.211 HD
ENDBRANCH  14  16
TORSDOF 1
ENDMDL
MODEL 5
REMARK VINA RESULT:    -5.059      8.312     10.592
REMARK INTER + INTRA:          -5.207
REMARK INTER:                  -5.207
REMARK INTRA:                   0.000
REMARK UNBOUND:                 0.000
REMARK SMILES C=C1[C@H](O)C[C@@]23C[C@@H]1C(C)(C)[C@@H]2CC[C@@H]3C
REMARK SMILES IDX 16 1 15 2 14 3 13 4 12 5 6 6 7 7 8 8 9 9 10 10 11 11 2 12
REMARK SMILES IDX 1 13 3 14 5 15 4 16
REMARK H PARENT 4 17
REMARK Flexibility Score: inf
ROOT
ATOM      1  C   UNL     1     145.533 134.889 149.782  1.00  0.00     0.008 C 
ATOM      2  C   UNL     1     146.648 134.670 148.747  1.00  0.00    -0.008 C 
ATOM      3  C   UNL     1     146.112 134.540 147.327  1.00  0.00     0.004 C 
ATOM      4  C   UNL     1     147.312 134.807 146.429  1.00  0.00     0.005 C 
ATOM      5  C   UNL     1     148.253 135.747 147.217  1.00  0.00     0.002 C 
ATOM      6  C   UNL     1     147.710 135.787 148.669  1.00  0.00    -0.020 C 
ATOM      7  C   UNL     1     147.159 137.208 148.840  1.00  0.00     0.016 C 
ATOM      8  C   UNL     1     148.203 138.023 148.104  1.00  0.00     0.023 C 
ATOM      9  C   UNL     1     148.373 137.246 146.765  1.00  0.00    -0.025 C 
ATOM     10  C   UNL     1     147.268 137.706 145.773  1.00  0.00     0.012 C 
ATOM     11  C   UNL     1     149.736 137.522 146.082  1.00  0.00     0.012 C 
ATOM     12  C   UNL     1     149.472 138.010 148.960  1.00  0.00    -0.045 C 
ATOM     13  C   UNL     1     150.229 139.115 149.044  1.00  0.00     0.011 C 
ATOM     14  C   UNL     1     149.929 136.732 149.665  1.00  0.00     0.140 C 
ATOM     15  C   UNL     1     148.851 135.603 149.706  1.00  0.00     0.044 C 
ENDROOT
BRANCH  14  16
ATOM     16  O   UNL     1     151.094 136.259 149.039  1.00  0.00    -0.389 OA
ATOM     17  H   UNL     1     151.525 135.626 149.672  1.00  0.00     0.211 HD
ENDBRANCH  14  16
TORSDOF 1
ENDMDL
MODEL 6
REMARK VINA RESULT:    -4.995      1.845      2.730
REMARK INTER + INTRA:          -5.141
REMARK INTER:                  -5.141
REMARK INTRA:                   0.000
REMARK UNBOUND:                 0.000
REMARK SMILES C=C1[C@H](O)C[C@@]23C[C@@H]1C(C)(C)[C@@H]2CC[C@@H]3C
REMARK SMILES IDX 16 1 15 2 14 3 13 4 12 5 6 6 7 7 8 8 9 9 10 10 11 11 2 12
REMARK SMILES IDX 1 13 3 14 5 15 4 16
REMARK H PARENT 4 17
REMARK Flexibility Score: inf
ROOT
ATOM      1  C   UNL     1     143.501 143.505 146.514  1.00  0.00     0.008 C 
ATOM      2  C   UNL     1     142.861 143.672 145.127  1.00  0.00    -0.008 C 
ATOM      3  C   UNL     1     143.694 144.548 144.199  1.00  0.00     0.004 C 
ATOM      4  C   UNL     1     143.194 144.222 142.799  1.00  0.00     0.005 C 
ATOM      5  C   UNL     1     142.676 142.766 142.842  1.00  0.00     0.002 C 
ATOM      6  C   UNL     1     142.634 142.364 144.339  1.00  0.00    -0.020 C 
ATOM      7  C   UNL     1     143.747 141.321 144.495  1.00  0.00     0.016 C 
ATOM      8  C   UNL     1     143.599 140.534 143.209  1.00  0.00     0.023 C 
ATOM      9  C   UNL     1     143.514 141.647 142.124  1.00  0.00    -0.025 C 
ATOM     10  C   UNL     1     144.955 142.079 141.732  1.00  0.00     0.012 C 
ATOM     11  C   UNL     1     142.818 141.167 140.827  1.00  0.00     0.012 C 
ATOM     12  C   UNL     1     142.307 139.720 143.324  1.00  0.00    -0.045 C 
ATOM     13  C   UNL     1     142.259 138.475 142.825  1.00  0.00     0.011 C 
ATOM     14  C   UNL     1     141.047 140.333 143.936  1.00  0.00     0.140 C 
ATOM     15  C   UNL     1     141.293 141.672 144.702  1.00  0.00     0.044 C 
ENDROOT
BRANCH  14  16
ATOM     16  O   UNL     1     140.098 140.531 142.920  1.00  0.00    -0.389 OA
ATOM     17  H   UNL     1     139.753 139.634 142.668  1.00  0.00     0.211 HD
ENDBRANCH  14  16
TORSDOF 1
ENDMDL
MODEL 7
REMARK VINA RESULT:    -4.993      7.093      9.004
REMARK INTER + INTRA:          -5.139
REMARK INTER:                  -5.139
REMARK INTRA:                   0.000
REMARK UNBOUND:                 0.000
REMARK SMILES C=C1[C@H](O)C[C@@]23C[C@@H]1C(C)(C)[C@@H]2CC[C@@H]3C
REMARK SMILES IDX 16 1 15 2 14 3 13 4 12 5 6 6 7 7 8 8 9 9 10 10 11 11 2 12
REMARK SMILES IDX 1 13 3 14 5 15 4 16
REMARK H PARENT 4 17
REMARK Flexibility Score: inf
ROOT
ATOM      1  C   UNL     1     143.149 135.471 149.082  1.00  0.00     0.008 C 
ATOM      2  C   UNL     1     144.636 135.565 149.457  1.00  0.00    -0.008 C 
ATOM      3  C   UNL     1     145.338 134.213 149.413  1.00  0.00     0.004 C 
ATOM      4  C   UNL     1     146.822 134.544 149.335  1.00  0.00     0.005 C 
ATOM      5  C   UNL     1     146.932 135.915 148.631  1.00  0.00     0.002 C 
ATOM      6  C   UNL     1     145.492 136.484 148.559  1.00  0.00    -0.020 C 
ATOM      7  C   UNL     1     145.129 136.441 147.069  1.00  0.00     0.016 C 
ATOM      8  C   UNL     1     146.438 136.860 146.433  1.00  0.00     0.023 C 
ATOM      9  C   UNL     1     147.484 135.965 147.161  1.00  0.00    -0.025 C 
ATOM     10  C   UNL     1     147.544 134.583 146.452  1.00  0.00     0.012 C 
ATOM     11  C   UNL     1     148.914 136.558 147.115  1.00  0.00     0.012 C 
ATOM     12  C   UNL     1     146.628 138.350 146.727  1.00  0.00    -0.045 C 
ATOM     13  C   UNL     1     147.160 139.151 145.791  1.00  0.00     0.011 C 
ATOM     14  C   UNL     1     146.284 138.927 148.101  1.00  0.00     0.140 C 
ATOM     15  C   UNL     1     145.446 137.970 149.006  1.00  0.00     0.044 C 
ENDROOT
BRANCH  14  16
ATOM     16  O   UNL     1     147.475 139.283 148.755  1.00  0.00    -0.389 OA
ATOM     17  H   UNL     1     148.133 138.563 148.568  1.00  0.00     0.211 HD
ENDBRANCH  14  16
TORSDOF 1
ENDMDL
MODEL 8
REMARK VINA RESULT:    -4.990     11.477     13.032
REMARK INTER + INTRA:          -5.136
REMARK INTER:                  -5.136
REMARK INTRA:                   0.000
REMARK UNBOUND:                 0.000
REMARK SMILES C=C1[C@H](O)C[C@@]23C[C@@H]1C(C)(C)[C@@H]2CC[C@@H]3C
REMARK SMILES IDX 16 1 15 2 14 3 13 4 12 5 6 6 7 7 8 8 9 9 10 10 11 11 2 12
REMARK SMILES IDX 1 13 3 14 5 15 4 16
REMARK H PARENT 4 17
REMARK Flexibility Score: inf
ROOT
ATOM      1  C   UNL     1     136.593 132.151 150.254  1.00  0.00     0.008 C 
ATOM      2  C   UNL     1     137.759 132.086 149.256  1.00  0.00    -0.008 C 
ATOM      3  C   UNL     1     137.823 133.309 148.349  1.00  0.00     0.004 C 
ATOM      4  C   UNL     1     139.240 133.311 147.793  1.00  0.00     0.005 C 
ATOM      5  C   UNL     1     140.132 132.623 148.851  1.00  0.00     0.002 C 
ATOM      6  C   UNL     1     139.167 131.987 149.885  1.00  0.00    -0.020 C 
ATOM      7  C   UNL     1     139.358 132.816 151.160  1.00  0.00     0.016 C 
ATOM      8  C   UNL     1     140.857 133.040 151.146  1.00  0.00     0.023 C 
ATOM      9  C   UNL     1     141.128 133.505 149.686  1.00  0.00    -0.025 C 
ATOM     10  C   UNL     1     140.866 135.034 149.588  1.00  0.00     0.012 C 
ATOM     11  C   UNL     1     142.594 133.269 149.245  1.00  0.00     0.012 C 
ATOM     12  C   UNL     1     141.517 131.698 151.472  1.00  0.00    -0.045 C 
ATOM     13  C   UNL     1     142.615 131.666 152.243  1.00  0.00     0.011 C 
ATOM     14  C   UNL     1     140.983 130.396 150.873  1.00  0.00     0.140 C 
ATOM     15  C   UNL     1     139.573 130.525 150.215  1.00  0.00     0.044 C 
ENDROOT
BRANCH  14  16
ATOM     16  O   UNL     1     141.909 129.916 149.931  1.00  0.00    -0.389 OA
ATOM     17  H   UNL     1     141.433 129.242 149.378  1.00  0.00     0.211 HD
ENDBRANCH  14  16
TORSDOF 1
ENDMDL
MODEL 9
REMARK VINA RESULT:    -4.911      7.407      9.236
REMARK INTER + INTRA:          -5.055
REMARK INTER:                  -5.055
REMARK INTRA:                   0.000
REMARK UNBOUND:                 0.000
REMARK SMILES C=C1[C@H](O)C[C@@]23C[C@@H]1C(C)(C)[C@@H]2CC[C@@H]3C
REMARK SMILES IDX 16 1 15 2 14 3 13 4 12 5 6 6 7 7 8 8 9 9 10 10 11 11 2 12
REMARK SMILES IDX 1 13 3 14 5 15 4 16
REMARK H PARENT 4 17
REMARK Flexibility Score: inf
ROOT
ATOM      1  C   UNL     1     148.724 139.707 145.452  1.00  0.00     0.008 C 
ATOM      2  C   UNL     1     148.588 138.179 145.543  1.00  0.00    -0.008 C 
ATOM      3  C   UNL     1     149.900 137.495 145.909  1.00  0.00     0.004 C 
ATOM      4  C   UNL     1     149.496 136.115 146.411  1.00  0.00     0.005 C 
ATOM      5  C   UNL     1     148.075 136.259 147.002  1.00  0.00     0.002 C 
ATOM      6  C   UNL     1     147.570 137.663 146.583  1.00  0.00    -0.020 C 
ATOM      7  C   UNL     1     147.525 138.467 147.889  1.00  0.00     0.016 C 
ATOM      8  C   UNL     1     147.003 137.428 148.860  1.00  0.00     0.023 C 
ATOM      9  C   UNL     1     147.897 136.189 148.561  1.00  0.00    -0.025 C 
ATOM     10  C   UNL     1     149.222 136.320 149.363  1.00  0.00     0.012 C 
ATOM     11  C   UNL     1     147.237 134.857 148.994  1.00  0.00     0.012 C 
ATOM     12  C   UNL     1     145.530 137.191 148.518  1.00  0.00    -0.045 C 
ATOM     13  C   UNL     1     144.642 136.992 149.504  1.00  0.00     0.011 C 
ATOM     14  C   UNL     1     145.067 137.106 147.063  1.00  0.00     0.140 C 
ATOM     15  C   UNL     1     146.123 137.603 146.025  1.00  0.00     0.044 C 
ENDROOT
BRANCH  14  16
ATOM     16  O   UNL     1     144.703 135.779 146.778  1.00  0.00    -0.389 OA
ATOM     17  H   UNL     1     144.719 135.285 147.638  1.00  0.00     0.211 HD
ENDBRANCH  14  16
TORSDOF 1
ENDMDL
