MODEL 1
REMARK VINA RESULT:    -3.350      0.000      0.000
REMARK INTER + INTRA:          -4.154
REMARK INTER:                  -3.938
REMARK INTRA:                  -0.217
REMARK UNBOUND:                -0.217
REMARK SMILES [NH3+][C@@H](CO)C(=O)[O-]
REMARK SMILES IDX 3 1 2 2 1 3 5 7 6 8 7 9 4 10
REMARK H PARENT 1 4 1 5 1 6 4 11
REMARK Flexibility Score: inf
ROOT
ATOM      1  C   UNL     1     -18.038  -4.918 -13.600  1.00  0.00     0.227 C 
ENDROOT
BRANCH   1   2
ATOM      2  C   UNL     1     -18.971  -4.330 -12.525  1.00  0.00     0.253 C 
BRANCH   2   3
ATOM      3  N   UNL     1     -20.265  -3.959 -13.111  1.00  0.00    -0.348 N 
ATOM      4  H   UNL     1     -20.293  -2.928 -13.284  1.00  0.00     0.345 HD
ATOM      5  H   UNL     1     -20.420  -4.465 -14.014  1.00  0.00     0.345 HD
ATOM      6  H   UNL     1     -21.036  -4.201 -12.446  1.00  0.00     0.345 HD
ENDBRANCH   2   3
BRANCH   2   7
ATOM      7  C   UNL     1     -18.333  -3.133 -11.870  1.00  0.00     0.102 C 
ATOM      8  O   UNL     1     -18.318  -2.021 -12.461  1.00  0.00    -0.544 OA
ATOM      9  O   UNL     1     -17.768  -3.244 -10.605  1.00  0.00    -0.544 OA
ENDBRANCH   2   7
ENDBRANCH   1   2
BRANCH   1  10
ATOM     10  O   UNL     1     -17.950  -4.062 -14.706  1.00  0.00    -0.390 OA
ATOM     11  H   UNL     1     -18.712  -3.429 -14.638  1.00  0.00     0.210 HD
ENDBRANCH   1  10
TORSDOF 4
ENDMDL
MODEL 2
REMARK VINA RESULT:    -3.332      5.262      5.844
REMARK INTER + INTRA:          -4.132
REMARK INTER:                  -3.874
REMARK INTRA:                  -0.258
REMARK UNBOUND:                -0.217
REMARK SMILES [NH3+][C@@H](CO)C(=O)[O-]
REMARK SMILES IDX 3 1 2 2 1 3 5 7 6 8 7 9 4 10
REMARK H PARENT 1 4 1 5 1 6 4 11
REMARK Flexibility Score: inf
ROOT
ATOM      1  C   UNL     1     -21.589  -1.701 -11.792  1.00  0.00     0.227 C 
ENDROOT
BRANCH   1   2
ATOM      2  C   UNL     1     -22.706  -1.245 -12.748  1.00  0.00     0.253 C 
BRANCH   2   3
ATOM      3  N   UNL     1     -22.412   0.089 -13.288  1.00  0.00    -0.348 N 
ATOM      4  H   UNL     1     -23.304   0.607 -13.457  1.00  0.00     0.345 HD
ATOM      5  H   UNL     1     -21.818   0.634 -12.621  1.00  0.00     0.345 HD
ATOM      6  H   UNL     1     -21.907  -0.003 -14.199  1.00  0.00     0.345 HD
ENDBRANCH   2   3
BRANCH   2   7
ATOM      7  C   UNL     1     -24.036  -1.239 -12.042  1.00  0.00     0.102 C 
ATOM      8  O   UNL     1     -24.763  -0.210 -12.067  1.00  0.00    -0.544 OA
ATOM      9  O   UNL     1     -24.477  -2.372 -11.369  1.00  0.00    -0.544 OA
ENDBRANCH   2   7
ENDBRANCH   1   2
BRANCH   1  10
ATOM     10  O   UNL     1     -21.858  -1.288 -10.479  1.00  0.00    -0.390 OA
ATOM     11  H   UNL     1     -22.615  -1.843 -10.156  1.00  0.00     0.210 HD
ENDBRANCH   1  10
TORSDOF 4
ENDMDL
MODEL 3
REMARK VINA RESULT:    -3.303      2.040      3.152
REMARK INTER + INTRA:          -4.099
REMARK INTER:                  -3.723
REMARK INTRA:                  -0.375
REMARK UNBOUND:                -0.217
REMARK SMILES [NH3+][C@@H](CO)C(=O)[O-]
REMARK SMILES IDX 3 1 2 2 1 3 5 7 6 8 7 9 4 10
REMARK H PARENT 1 4 1 5 1 6 4 11
REMARK Flexibility Score: inf
ROOT
ATOM      1  C   UNL     1     -18.687  -3.595 -10.590  1.00  0.00     0.227 C 
ENDROOT
BRANCH   1   2
ATOM      2  C   UNL     1     -18.108  -3.283 -11.982  1.00  0.00     0.253 C 
BRANCH   2   3
ATOM      3  N   UNL     1     -17.646  -1.891 -12.050  1.00  0.00    -0.348 N 
ATOM      4  H   UNL     1     -16.725  -1.799 -11.563  1.00  0.00     0.345 HD
ATOM      5  H   UNL     1     -17.542  -1.584 -13.045  1.00  0.00     0.345 HD
ATOM      6  H   UNL     1     -18.335  -1.267 -11.569  1.00  0.00     0.345 HD
ENDBRANCH   2   3
BRANCH   2   7
ATOM      7  C   UNL     1     -19.135  -3.544 -13.052  1.00  0.00     0.102 C 
ATOM      8  O   UNL     1     -19.045  -4.567 -13.780  1.00  0.00    -0.544 OA
ATOM      9  O   UNL     1     -20.196  -2.665 -13.236  1.00  0.00    -0.544 OA
ENDBRANCH   2   7
ENDBRANCH   1   2
BRANCH   1  10
ATOM     10  O   UNL     1     -19.853  -4.367 -10.697  1.00  0.00    -0.390 OA
ATOM     11  H   UNL     1     -19.960  -4.589 -11.658  1.00  0.00     0.210 HD
ENDBRANCH   1  10
TORSDOF 4
ENDMDL
MODEL 4
REMARK VINA RESULT:    -3.297      3.758      4.667
REMARK INTER + INTRA:          -4.092
REMARK INTER:                  -4.044
REMARK INTRA:                  -0.048
REMARK UNBOUND:                -0.217
REMARK SMILES [NH3+][C@@H](CO)C(=O)[O-]
REMARK SMILES IDX 3 1 2 2 1 3 5 7 6 8 7 9 4 10
REMARK H PARENT 1 4 1 5 1 6 4 11
REMARK Flexibility Score: inf
ROOT
ATOM      1  C   UNL     1     -22.646  -1.250 -11.145  1.00  0.00     0.227 C 
ENDROOT
BRANCH   1   2
ATOM      2  C   UNL     1     -21.618  -0.834 -12.213  1.00  0.00     0.253 C 
BRANCH   2   3
ATOM      3  N   UNL     1     -22.284  -0.167 -13.339  1.00  0.00    -0.348 N 
ATOM      4  H   UNL     1     -21.956   0.823 -13.409  1.00  0.00     0.345 HD
ATOM      5  H   UNL     1     -22.077  -0.663 -14.237  1.00  0.00     0.345 HD
ATOM      6  H   UNL     1     -23.319  -0.159 -13.183  1.00  0.00     0.345 HD
ENDBRANCH   2   3
BRANCH   2   7
ATOM      7  C   UNL     1     -20.847  -2.032 -12.699  1.00  0.00     0.102 C 
ATOM      8  O   UNL     1     -21.444  -2.979 -13.275  1.00  0.00    -0.544 OA
ATOM      9  O   UNL     1     -19.469  -2.096 -12.527  1.00  0.00    -0.544 OA
ENDBRANCH   2   7
ENDBRANCH   1   2
BRANCH   1  10
ATOM     10  O   UNL     1     -22.022  -1.451  -9.905  1.00  0.00    -0.390 OA
ATOM     11  H   UNL     1     -22.476  -2.225  -9.481  1.00  0.00     0.210 HD
ENDBRANCH   1  10
TORSDOF 4
ENDMDL
MODEL 5
REMARK VINA RESULT:    -3.273      1.708      2.818
REMARK INTER + INTRA:          -4.064
REMARK INTER:                  -4.048
REMARK INTRA:                  -0.015
REMARK UNBOUND:                -0.217
REMARK SMILES [NH3+][C@@H](CO)C(=O)[O-]
REMARK SMILES IDX 3 1 2 2 1 3 5 7 6 8 7 9 4 10
REMARK H PARENT 1 4 1 5 1 6 4 11
REMARK Flexibility Score: inf
ROOT
ATOM      1  C   UNL     1     -17.509  -2.451 -11.613  1.00  0.00     0.227 C 
ENDROOT
BRANCH   1   2
ATOM      2  C   UNL     1     -18.710  -2.646 -12.556  1.00  0.00     0.253 C 
BRANCH   2   3
ATOM      3  N   UNL     1     -19.965  -2.317 -11.870  1.00  0.00    -0.348 N 
ATOM      4  H   UNL     1     -20.528  -1.659 -12.457  1.00  0.00     0.345 HD
ATOM      5  H   UNL     1     -20.525  -3.182 -11.688  1.00  0.00     0.345 HD
ATOM      6  H   UNL     1     -19.757  -1.847 -10.959  1.00  0.00     0.345 HD
ENDBRANCH   2   3
BRANCH   2   7
ATOM      7  C   UNL     1     -18.753  -4.060 -13.072  1.00  0.00     0.102 C 
ATOM      8  O   UNL     1     -19.794  -4.500 -13.628  1.00  0.00    -0.544 OA
ATOM      9  O   UNL     1     -17.642  -4.885 -12.949  1.00  0.00    -0.544 OA
ENDBRANCH   2   7
ENDBRANCH   1   2
BRANCH   1  10
ATOM     10  O   UNL     1     -16.919  -1.194 -11.810  1.00  0.00    -0.390 OA
ATOM     11  H   UNL     1     -16.326  -1.278 -12.601  1.00  0.00     0.210 HD
ENDBRANCH   1  10
TORSDOF 4
ENDMDL
MODEL 6
REMARK VINA RESULT:    -3.271      4.482      4.971
REMARK INTER + INTRA:          -4.061
REMARK INTER:                  -3.807
REMARK INTRA:                  -0.254
REMARK UNBOUND:                -0.217
REMARK SMILES [NH3+][C@@H](CO)C(=O)[O-]
REMARK SMILES IDX 3 1 2 2 1 3 5 7 6 8 7 9 4 10
REMARK H PARENT 1 4 1 5 1 6 4 11
REMARK Flexibility Score: inf
ROOT
ATOM      1  C   UNL     1     -21.946  -0.850 -13.565  1.00  0.00     0.227 C 
ENDROOT
BRANCH   1   2
ATOM      2  C   UNL     1     -21.503  -1.718 -12.373  1.00  0.00     0.253 C 
BRANCH   2   3
ATOM      3  N   UNL     1     -21.074  -3.045 -12.831  1.00  0.00    -0.348 N 
ATOM      4  H   UNL     1     -20.499  -2.951 -13.700  1.00  0.00     0.345 HD
ATOM      5  H   UNL     1     -20.507  -3.525 -12.094  1.00  0.00     0.345 HD
ATOM      6  H   UNL     1     -21.912  -3.630 -13.054  1.00  0.00     0.345 HD
ENDBRANCH   2   3
BRANCH   2   7
ATOM      7  C   UNL     1     -22.619  -1.848 -11.371  1.00  0.00     0.102 C 
ATOM      8  O   UNL     1     -22.390  -1.683 -10.143  1.00  0.00    -0.544 OA
ATOM      9  O   UNL     1     -23.910  -2.140 -11.792  1.00  0.00    -0.544 OA
ENDBRANCH   2   7
ENDBRANCH   1   2
BRANCH   1  10
ATOM     10  O   UNL     1     -22.709   0.243 -13.129  1.00  0.00    -0.390 OA
ATOM     11  H   UNL     1     -22.095   1.023 -13.097  1.00  0.00     0.210 HD
ENDBRANCH   1  10
TORSDOF 4
ENDMDL
MODEL 7
REMARK VINA RESULT:    -3.261      4.704      5.283
REMARK INTER + INTRA:          -4.050
REMARK INTER:                  -3.826
REMARK INTRA:                  -0.224
REMARK UNBOUND:                -0.217
REMARK SMILES [NH3+][C@@H](CO)C(=O)[O-]
REMARK SMILES IDX 3 1 2 2 1 3 5 7 6 8 7 9 4 10
REMARK H PARENT 1 4 1 5 1 6 4 11
REMARK Flexibility Score: inf
ROOT
ATOM      1  C   UNL     1     -24.048  -1.098 -11.780  1.00  0.00     0.227 C 
ENDROOT
BRANCH   1   2
ATOM      2  C   UNL     1     -22.677  -1.774 -11.602  1.00  0.00     0.253 C 
BRANCH   2   3
ATOM      3  N   UNL     1     -22.089  -1.417 -10.304  1.00  0.00    -0.348 N 
ATOM      4  H   UNL     1     -22.828  -1.433  -9.565  1.00  0.00     0.345 HD
ATOM      5  H   UNL     1     -21.329  -2.087 -10.046  1.00  0.00     0.345 HD
ATOM      6  H   UNL     1     -21.692  -0.450 -10.351  1.00  0.00     0.345 HD
ENDBRANCH   2   3
BRANCH   2   7
ATOM      7  C   UNL     1     -21.747  -1.384 -12.720  1.00  0.00     0.102 C 
ATOM      8  O   UNL     1     -22.074  -0.474 -13.527  1.00  0.00    -0.544 OA
ATOM      9  O   UNL     1     -20.517  -2.016 -12.863  1.00  0.00    -0.544 OA
ENDBRANCH   2   7
ENDBRANCH   1   2
BRANCH   1  10
ATOM     10  O   UNL     1     -24.745  -1.662 -12.858  1.00  0.00    -0.390 OA
ATOM     11  H   UNL     1     -24.062  -1.955 -13.516  1.00  0.00     0.210 HD
ENDBRANCH   1  10
TORSDOF 4
ENDMDL
MODEL 8
REMARK VINA RESULT:    -3.234      1.774      2.458
REMARK INTER + INTRA:          -4.018
REMARK INTER:                  -3.618
REMARK INTRA:                  -0.400
REMARK UNBOUND:                -0.217
REMARK SMILES [NH3+][C@@H](CO)C(=O)[O-]
REMARK SMILES IDX 3 1 2 2 1 3 5 7 6 8 7 9 4 10
REMARK H PARENT 1 4 1 5 1 6 4 11
REMARK Flexibility Score: inf
ROOT
ATOM      1  C   UNL     1     -20.713  -2.172 -13.000  1.00  0.00     0.227 C 
ENDROOT
BRANCH   1   2
ATOM      2  C   UNL     1     -19.437  -3.019 -13.152  1.00  0.00     0.253 C 
BRANCH   2   3
ATOM      3  N   UNL     1     -19.770  -4.447 -13.228  1.00  0.00    -0.348 N 
ATOM      4  H   UNL     1     -19.007  -4.962 -13.725  1.00  0.00     0.345 HD
ATOM      5  H   UNL     1     -19.891  -4.850 -12.270  1.00  0.00     0.345 HD
ATOM      6  H   UNL     1     -20.657  -4.574 -13.767  1.00  0.00     0.345 HD
ENDBRANCH   2   3
BRANCH   2   7
ATOM      7  C   UNL     1     -18.494  -2.764 -12.005  1.00  0.00     0.102 C 
ATOM      8  O   UNL     1     -17.627  -1.855 -12.089  1.00  0.00    -0.544 OA
ATOM      9  O   UNL     1     -18.582  -3.522 -10.844  1.00  0.00    -0.544 OA
ENDBRANCH   2   7
ENDBRANCH   1   2
BRANCH   1  10
ATOM     10  O   UNL     1     -20.693  -1.451 -11.798  1.00  0.00    -0.390 OA
ATOM     11  H   UNL     1     -19.741  -1.369 -11.531  1.00  0.00     0.210 HD
ENDBRANCH   1  10
TORSDOF 4
ENDMDL
MODEL 9
REMARK VINA RESULT:    -3.213      2.128      2.873
REMARK INTER + INTRA:          -3.993
REMARK INTER:                  -3.761
REMARK INTRA:                  -0.232
REMARK UNBOUND:                -0.217
REMARK SMILES [NH3+][C@@H](CO)C(=O)[O-]
REMARK SMILES IDX 3 1 2 2 1 3 5 7 6 8 7 9 4 10
REMARK H PARENT 1 4 1 5 1 6 4 11
REMARK Flexibility Score: inf
ROOT
ATOM      1  C   UNL     1     -20.057  -2.281 -12.512  1.00  0.00     0.227 C 
ENDROOT
BRANCH   1   2
ATOM      2  C   UNL     1     -18.703  -2.929 -12.169  1.00  0.00     0.253 C 
BRANCH   2   3
ATOM      3  N   UNL     1     -17.654  -1.908 -12.062  1.00  0.00    -0.348 N 
ATOM      4  H   UNL     1     -18.037  -0.976 -12.342  1.00  0.00     0.345 HD
ATOM      5  H   UNL     1     -17.291  -1.851 -11.082  1.00  0.00     0.345 HD
ATOM      6  H   UNL     1     -16.864  -2.144 -12.706  1.00  0.00     0.345 HD
ENDBRANCH   2   3
BRANCH   2   7
ATOM      7  C   UNL     1     -18.330  -3.953 -13.207  1.00  0.00     0.102 C 
ATOM      8  O   UNL     1     -18.680  -3.796 -14.407  1.00  0.00    -0.544 OA
ATOM      9  O   UNL     1     -17.587  -5.073 -12.852  1.00  0.00    -0.544 OA
ENDBRANCH   2   7
ENDBRANCH   1   2
BRANCH   1  10
ATOM     10  O   UNL     1     -21.000  -3.256 -12.867  1.00  0.00    -0.390 OA
ATOM     11  H   UNL     1     -21.787  -2.772 -13.229  1.00  0.00     0.210 HD
ENDBRANCH   1  10
TORSDOF 4
ENDMDL
