MODEL 1
REMARK VINA RESULT:    -4.161      0.000      0.000
REMARK INTER + INTRA:          -9.135
REMARK INTER:                  -7.567
REMARK INTRA:                  -1.569
REMARK UNBOUND:                -1.569
REMARK SMILES CCCCCCCCCCCCCCCC(=O)[O-]
REMARK SMILES IDX 9 1 10 2 11 3 12 4 13 5 14 6 15 7 16 8 17 9 18 10 8 11 7 12
REMARK SMILES IDX 6 13 5 14 4 15 3 16 2 17 1 18
REMARK H PARENT
REMARK Flexibility Score: inf
ROOT
ATOM      1  C   UNL     1      49.846  33.741   1.404  1.00  0.00     0.000 C 
ENDROOT
BRANCH   1   2
ATOM      2  C   UNL     1      51.247  33.765   2.038  1.00  0.00     0.000 C 
BRANCH   2   3
ATOM      3  C   UNL     1      51.398  32.762   3.197  1.00  0.00     0.000 C 
BRANCH   3   4
ATOM      4  C   UNL     1      50.688  33.160   4.504  1.00  0.00     0.000 C 
BRANCH   4   5
ATOM      5  C   UNL     1      50.879  32.131   5.628  1.00  0.00     0.000 C 
BRANCH   5   6
ATOM      6  C   UNL     1      49.903  32.393   6.786  1.00  0.00     0.006 C 
BRANCH   6   7
ATOM      7  C   UNL     1      49.384  33.836   6.792  1.00  0.00     0.053 C 
BRANCH   7   8
ATOM      8  C   UNL     1      49.362  34.412   8.174  1.00  0.00     0.041 C 
ATOM      9  O   UNL     1      50.287  35.175   8.560  1.00  0.00    -0.550 OA
ATOM     10  O   UNL     1      48.301  34.134   9.027  1.00  0.00    -0.550 OA
ENDBRANCH   7   8
ENDBRANCH   6   7
ENDBRANCH   5   6
ENDBRANCH   4   5
ENDBRANCH   3   4
ENDBRANCH   2   3
ENDBRANCH   1   2
BRANCH   1  11
ATOM     11  C   UNL     1      49.878  33.345  -0.081  1.00  0.00     0.000 C 
BRANCH  11  12
ATOM     12  C   UNL     1      50.613  32.018  -0.325  1.00  0.00    -0.000 C 
BRANCH  12  13
ATOM     13  C   UNL     1      51.374  32.049  -1.656  1.00  0.00    -0.000 C 
BRANCH  13  14
ATOM     14  C   UNL     1      52.095  33.393  -1.846  1.00  0.00    -0.000 C 
BRANCH  14  15
ATOM     15  C   UNL     1      53.579  33.333  -1.453  1.00  0.00    -0.000 C 
BRANCH  15  16
ATOM     16  C   UNL     1      53.929  34.310  -0.316  1.00  0.00    -0.000 C 
BRANCH  16  17
ATOM     17  C   UNL     1      54.650  33.619   0.852  1.00  0.00    -0.003 C 
ATOM     18  C   UNL     1      54.398  32.112   0.895  1.00  0.00     0.004 C 
ENDBRANCH  16  17
ENDBRANCH  15  16
ENDBRANCH  14  15
ENDBRANCH  13  14
ENDBRANCH  12  13
ENDBRANCH  11  12
ENDBRANCH   1  11
TORSDOF 14
ENDMDL
MODEL 2
REMARK VINA RESULT:    -4.020      1.206      2.750
REMARK INTER + INTRA:          -8.878
REMARK INTER:                  -7.662
REMARK INTRA:                  -1.216
REMARK UNBOUND:                -1.569
REMARK SMILES CCCCCCCCCCCCCCCC(=O)[O-]
REMARK SMILES IDX 9 1 10 2 11 3 12 4 13 5 14 6 15 7 16 8 17 9 18 10 8 11 7 12
REMARK SMILES IDX 6 13 5 14 4 15 3 16 2 17 1 18
REMARK H PARENT
REMARK Flexibility Score: inf
ROOT
ATOM      1  C   UNL     1      50.699  33.748   2.182  1.00  0.00     0.000 C 
ENDROOT
BRANCH   1   2
ATOM      2  C   UNL     1      49.867  33.611   3.468  1.00  0.00     0.000 C 
BRANCH   2   3
ATOM      3  C   UNL     1      50.730  33.357   4.718  1.00  0.00     0.000 C 
BRANCH   3   4
ATOM      4  C   UNL     1      50.283  32.173   5.593  1.00  0.00     0.000 C 
BRANCH   4   5
ATOM      5  C   UNL     1      49.950  32.583   7.036  1.00  0.00     0.000 C 
BRANCH   5   6
ATOM      6  C   UNL     1      49.334  33.989   7.079  1.00  0.00     0.006 C 
BRANCH   6   7
ATOM      7  C   UNL     1      50.077  34.920   8.046  1.00  0.00     0.053 C 
BRANCH   7   8
ATOM      8  C   UNL     1      49.517  34.840   9.433  1.00  0.00     0.041 C 
ATOM      9  O   UNL     1      48.277  34.699   9.611  1.00  0.00    -0.550 OA
ATOM     10  O   UNL     1      50.367  34.888  10.530  1.00  0.00    -0.550 OA
ENDBRANCH   7   8
ENDBRANCH   6   7
ENDBRANCH   5   6
ENDBRANCH   4   5
ENDBRANCH   3   4
ENDBRANCH   2   3
ENDBRANCH   1   2
BRANCH   1  11
ATOM     11  C   UNL     1      51.995  32.923   2.228  1.00  0.00     0.000 C 
BRANCH  11  12
ATOM     12  C   UNL     1      52.161  32.009   1.005  1.00  0.00    -0.000 C 
BRANCH  12  13
ATOM     13  C   UNL     1      53.448  32.343   0.240  1.00  0.00    -0.000 C 
BRANCH  13  14
ATOM     14  C   UNL     1      53.183  33.393  -0.851  1.00  0.00    -0.000 C 
BRANCH  14  15
ATOM     15  C   UNL     1      52.101  32.953  -1.849  1.00  0.00    -0.000 C 
BRANCH  15  16
ATOM     16  C   UNL     1      51.110  34.082  -2.183  1.00  0.00    -0.000 C 
BRANCH  16  17
ATOM     17  C   UNL     1      49.647  33.615  -2.130  1.00  0.00    -0.003 C 
ATOM     18  C   UNL     1      49.483  32.256  -1.451  1.00  0.00     0.004 C 
ENDBRANCH  16  17
ENDBRANCH  15  16
ENDBRANCH  14  15
ENDBRANCH  13  14
ENDBRANCH  12  13
ENDBRANCH  11  12
ENDBRANCH   1  11
TORSDOF 14
ENDMDL
MODEL 3
REMARK VINA RESULT:    -4.018      1.498      2.599
REMARK INTER + INTRA:          -8.876
REMARK INTER:                  -7.697
REMARK INTRA:                  -1.179
REMARK UNBOUND:                -1.569
REMARK SMILES CCCCCCCCCCCCCCCC(=O)[O-]
REMARK SMILES IDX 9 1 10 2 11 3 12 4 13 5 14 6 15 7 16 8 17 9 18 10 8 11 7 12
REMARK SMILES IDX 6 13 5 14 4 15 3 16 2 17 1 18
REMARK H PARENT
REMARK Flexibility Score: inf
ROOT
ATOM      1  C   UNL     1      51.005  33.868   1.743  1.00  0.00     0.000 C 
ENDROOT
BRANCH   1   2
ATOM      2  C   UNL     1      50.410  33.706   3.153  1.00  0.00     0.000 C 
BRANCH   2   3
ATOM      3  C   UNL     1      51.243  32.774   4.052  1.00  0.00     0.000 C 
BRANCH   3   4
ATOM      4  C   UNL     1      50.710  32.599   5.485  1.00  0.00     0.000 C 
BRANCH   4   5
ATOM      5  C   UNL     1      49.679  33.668   5.878  1.00  0.00     0.000 C 
BRANCH   5   6
ATOM      6  C   UNL     1      49.341  33.583   7.375  1.00  0.00     0.006 C 
BRANCH   6   7
ATOM      7  C   UNL     1      49.840  34.806   8.153  1.00  0.00     0.053 C 
BRANCH   7   8
ATOM      8  C   UNL     1      49.407  34.766   9.587  1.00  0.00     0.041 C 
ATOM      9  O   UNL     1      49.093  33.671  10.125  1.00  0.00    -0.550 OA
ATOM     10  O   UNL     1      49.383  35.934  10.339  1.00  0.00    -0.550 OA
ENDBRANCH   7   8
ENDBRANCH   6   7
ENDBRANCH   5   6
ENDBRANCH   4   5
ENDBRANCH   3   4
ENDBRANCH   2   3
ENDBRANCH   1   2
BRANCH   1  11
ATOM     11  C   UNL     1      51.770  32.619   1.279  1.00  0.00     0.000 C 
BRANCH  11  12
ATOM     12  C   UNL     1      51.058  31.877   0.139  1.00  0.00    -0.000 C 
BRANCH  12  13
ATOM     13  C   UNL     1      49.827  32.656  -0.340  1.00  0.00    -0.000 C 
BRANCH  13  14
ATOM     14  C   UNL     1      49.469  32.285  -1.788  1.00  0.00    -0.000 C 
BRANCH  14  15
ATOM     15  C   UNL     1      49.563  33.481  -2.749  1.00  0.00    -0.000 C 
BRANCH  15  16
ATOM     16  C   UNL     1      50.960  33.623  -3.379  1.00  0.00    -0.000 C 
BRANCH  16  17
ATOM     17  C   UNL     1      51.770  34.772  -2.758  1.00  0.00    -0.003 C 
ATOM     18  C   UNL     1      52.929  34.279  -1.892  1.00  0.00     0.004 C 
ENDBRANCH  16  17
ENDBRANCH  15  16
ENDBRANCH  14  15
ENDBRANCH  13  14
ENDBRANCH  12  13
ENDBRANCH  11  12
ENDBRANCH   1  11
TORSDOF 14
ENDMDL
MODEL 4
REMARK VINA RESULT:    -4.006      4.282      8.886
REMARK INTER + INTRA:          -8.854
REMARK INTER:                  -8.077
REMARK INTRA:                  -0.777
REMARK UNBOUND:                -1.569
REMARK SMILES CCCCCCCCCCCCCCCC(=O)[O-]
REMARK SMILES IDX 9 1 10 2 11 3 12 4 13 5 14 6 15 7 16 8 17 9 18 10 8 11 7 12
REMARK SMILES IDX 6 13 5 14 4 15 3 16 2 17 1 18
REMARK H PARENT
REMARK Flexibility Score: inf
ROOT
ATOM      1  C   UNL     1      49.859  33.402   4.259  1.00  0.00     0.000 C 
ENDROOT
BRANCH   1   2
ATOM      2  C   UNL     1      50.498  33.860   2.936  1.00  0.00     0.000 C 
BRANCH   2   3
ATOM      3  C   UNL     1      51.641  32.939   2.471  1.00  0.00     0.000 C 
BRANCH   3   4
ATOM      4  C   UNL     1      51.645  32.610   0.967  1.00  0.00     0.000 C 
BRANCH   4   5
ATOM      5  C   UNL     1      50.375  33.082   0.244  1.00  0.00     0.000 C 
BRANCH   5   6
ATOM      6  C   UNL     1      49.982  32.104  -0.873  1.00  0.00     0.006 C 
BRANCH   6   7
ATOM      7  C   UNL     1      50.739  32.379  -2.178  1.00  0.00     0.053 C 
BRANCH   7   8
ATOM      8  C   UNL     1      50.347  33.693  -2.781  1.00  0.00     0.041 C 
ATOM      9  O   UNL     1      51.190  34.624  -2.878  1.00  0.00    -0.550 OA
ATOM     10  O   UNL     1      49.059  33.879  -3.267  1.00  0.00    -0.550 OA
ENDBRANCH   7   8
ENDBRANCH   6   7
ENDBRANCH   5   6
ENDBRANCH   4   5
ENDBRANCH   3   4
ENDBRANCH   2   3
ENDBRANCH   1   2
BRANCH   1  11
ATOM     11  C   UNL     1      50.810  32.542   5.106  1.00  0.00     0.000 C 
BRANCH  11  12
ATOM     12  C   UNL     1      50.529  32.654   6.611  1.00  0.00    -0.000 C 
BRANCH  12  13
ATOM     13  C   UNL     1      49.605  33.841   6.911  1.00  0.00    -0.000 C 
BRANCH  13  14
ATOM     14  C   UNL     1      49.217  33.876   8.398  1.00  0.00    -0.000 C 
BRANCH  14  15
ATOM     15  C   UNL     1      49.881  35.035   9.158  1.00  0.00    -0.000 C 
BRANCH  15  16
ATOM     16  C   UNL     1      49.016  35.550  10.322  1.00  0.00    -0.000 C 
BRANCH  16  17
ATOM     17  C   UNL     1      49.460  34.983  11.679  1.00  0.00    -0.003 C 
ATOM     18  C   UNL     1      50.927  34.557  11.693  1.00  0.00     0.004 C 
ENDBRANCH  16  17
ENDBRANCH  15  16
ENDBRANCH  14  15
ENDBRANCH  13  14
ENDBRANCH  12  13
ENDBRANCH  11  12
ENDBRANCH   1  11
TORSDOF 14
ENDMDL
MODEL 5
REMARK VINA RESULT:    -3.880      4.269      8.566
REMARK INTER + INTRA:          -8.625
REMARK INTER:                  -7.586
REMARK INTRA:                  -1.039
REMARK UNBOUND:                -1.569
REMARK SMILES CCCCCCCCCCCCCCCC(=O)[O-]
REMARK SMILES IDX 9 1 10 2 11 3 12 4 13 5 14 6 15 7 16 8 17 9 18 10 8 11 7 12
REMARK SMILES IDX 6 13 5 14 4 15 3 16 2 17 1 18
REMARK H PARENT
REMARK Flexibility Score: inf
ROOT
ATOM      1  C   UNL     1      51.456  33.197   2.589  1.00  0.00     0.000 C 
ENDROOT
BRANCH   1   2
ATOM      2  C   UNL     1      50.192  33.776   1.930  1.00  0.00     0.000 C 
BRANCH   2   3
ATOM      3  C   UNL     1      50.054  33.380   0.448  1.00  0.00     0.000 C 
BRANCH   3   4
ATOM      4  C   UNL     1      50.827  32.115   0.033  1.00  0.00     0.000 C 
BRANCH   4   5
ATOM      5  C   UNL     1      51.623  32.298  -1.269  1.00  0.00     0.000 C 
BRANCH   5   6
ATOM      6  C   UNL     1      51.827  33.787  -1.584  1.00  0.00     0.006 C 
BRANCH   6   7
ATOM      7  C   UNL     1      51.409  34.140  -3.017  1.00  0.00     0.053 C 
BRANCH   7   8
ATOM      8  C   UNL     1      50.081  33.544  -3.371  1.00  0.00     0.041 C 
ATOM      9  O   UNL     1      50.011  32.588  -4.188  1.00  0.00    -0.550 OA
ATOM     10  O   UNL     1      48.923  34.023  -2.771  1.00  0.00    -0.550 OA
ENDBRANCH   7   8
ENDBRANCH   6   7
ENDBRANCH   5   6
ENDBRANCH   4   5
ENDBRANCH   3   4
ENDBRANCH   2   3
ENDBRANCH   1   2
BRANCH   1  11
ATOM     11  C   UNL     1      51.263  32.919   4.088  1.00  0.00     0.000 C 
BRANCH  11  12
ATOM     12  C   UNL     1      49.926  33.452   4.624  1.00  0.00    -0.000 C 
BRANCH  12  13
ATOM     13  C   UNL     1      49.429  32.605   5.802  1.00  0.00    -0.000 C 
BRANCH  13  14
ATOM     14  C   UNL     1      50.110  33.031   7.112  1.00  0.00    -0.000 C 
BRANCH  14  15
ATOM     15  C   UNL     1      49.946  34.530   7.407  1.00  0.00    -0.000 C 
BRANCH  15  16
ATOM     16  C   UNL     1      49.507  34.802   8.857  1.00  0.00    -0.000 C 
BRANCH  16  17
ATOM     17  C   UNL     1      49.111  33.518   9.602  1.00  0.00    -0.003 C 
ATOM     18  C   UNL     1      49.884  33.327  10.906  1.00  0.00     0.004 C 
ENDBRANCH  16  17
ENDBRANCH  15  16
ENDBRANCH  14  15
ENDBRANCH  13  14
ENDBRANCH  12  13
ENDBRANCH  11  12
ENDBRANCH   1  11
TORSDOF 14
ENDMDL
MODEL 6
REMARK VINA RESULT:    -3.869      3.477      7.531
REMARK INTER + INTRA:          -8.604
REMARK INTER:                  -7.252
REMARK INTRA:                  -1.352
REMARK UNBOUND:                -1.569
REMARK SMILES CCCCCCCCCCCCCCCC(=O)[O-]
REMARK SMILES IDX 9 1 10 2 11 3 12 4 13 5 14 6 15 7 16 8 17 9 18 10 8 11 7 12
REMARK SMILES IDX 6 13 5 14 4 15 3 16 2 17 1 18
REMARK H PARENT
REMARK Flexibility Score: inf
ROOT
ATOM      1  C   UNL     1      50.077  33.001   0.120  1.00  0.00     0.000 C 
ENDROOT
BRANCH   1   2
ATOM      2  C   UNL     1      49.724  32.327  -1.217  1.00  0.00     0.000 C 
BRANCH   2   3
ATOM      3  C   UNL     1      49.651  33.322  -2.390  1.00  0.00     0.000 C 
BRANCH   3   4
ATOM      4  C   UNL     1      50.716  33.125  -3.483  1.00  0.00     0.000 C 
BRANCH   4   5
ATOM      5  C   UNL     1      52.151  33.302  -2.963  1.00  0.00     0.000 C 
BRANCH   5   6
ATOM      6  C   UNL     1      52.362  34.717  -2.403  1.00  0.00     0.006 C 
BRANCH   6   7
ATOM      7  C   UNL     1      53.834  35.000  -2.080  1.00  0.00     0.053 C 
BRANCH   7   8
ATOM      8  C   UNL     1      54.234  34.419  -0.759  1.00  0.00     0.041 C 
ATOM      9  O   UNL     1      53.936  35.010   0.313  1.00  0.00    -0.550 OA
ATOM     10  O   UNL     1      54.907  33.204  -0.709  1.00  0.00    -0.550 OA
ENDBRANCH   7   8
ENDBRANCH   6   7
ENDBRANCH   5   6
ENDBRANCH   4   5
ENDBRANCH   3   4
ENDBRANCH   2   3
ENDBRANCH   1   2
BRANCH   1  11
ATOM     11  C   UNL     1      51.408  32.496   0.700  1.00  0.00     0.000 C 
BRANCH  11  12
ATOM     12  C   UNL     1      51.649  32.978   2.138  1.00  0.00    -0.000 C 
BRANCH  12  13
ATOM     13  C   UNL     1      50.528  33.920   2.597  1.00  0.00    -0.000 C 
BRANCH  13  14
ATOM     14  C   UNL     1      49.941  33.463   3.942  1.00  0.00    -0.000 C 
BRANCH  14  15
ATOM     15  C   UNL     1      50.959  32.703   4.807  1.00  0.00    -0.000 C 
BRANCH  15  16
ATOM     16  C   UNL     1      50.423  32.395   6.217  1.00  0.00    -0.000 C 
BRANCH  16  17
ATOM     17  C   UNL     1      49.353  33.400   6.671  1.00  0.00    -0.003 C 
ATOM     18  C   UNL     1      49.934  34.565   7.471  1.00  0.00     0.004 C 
ENDBRANCH  16  17
ENDBRANCH  15  16
ENDBRANCH  14  15
ENDBRANCH  13  14
ENDBRANCH  12  13
ENDBRANCH  11  12
ENDBRANCH   1  11
TORSDOF 14
ENDMDL
MODEL 7
REMARK VINA RESULT:    -3.854     17.316     18.468
REMARK INTER + INTRA:          -8.577
REMARK INTER:                  -7.406
REMARK INTRA:                  -1.170
REMARK UNBOUND:                -1.569
REMARK SMILES CCCCCCCCCCCCCCCC(=O)[O-]
REMARK SMILES IDX 9 1 10 2 11 3 12 4 13 5 14 6 15 7 16 8 17 9 18 10 8 11 7 12
REMARK SMILES IDX 6 13 5 14 4 15 3 16 2 17 1 18
REMARK H PARENT
REMARK Flexibility Score: inf
ROOT
ATOM      1  C   UNL     1      51.304  51.557   1.034  1.00  0.00     0.000 C 
ENDROOT
BRANCH   1   2
ATOM      2  C   UNL     1      49.823  51.618   0.624  1.00  0.00     0.000 C 
BRANCH   2   3
ATOM      3  C   UNL     1      48.897  50.881   1.609  1.00  0.00     0.000 C 
BRANCH   3   4
ATOM      4  C   UNL     1      47.455  51.415   1.677  1.00  0.00     0.000 C 
BRANCH   4   5
ATOM      5  C   UNL     1      46.992  52.066   0.365  1.00  0.00     0.000 C 
BRANCH   5   6
ATOM      6  C   UNL     1      45.470  51.945   0.198  1.00  0.00     0.006 C 
BRANCH   6   7
ATOM      7  C   UNL     1      44.825  51.126   1.322  1.00  0.00     0.053 C 
BRANCH   7   8
ATOM      8  C   UNL     1      43.677  50.304   0.821  1.00  0.00     0.041 C 
ATOM      9  O   UNL     1      43.866  49.122   0.428  1.00  0.00    -0.550 OA
ATOM     10  O   UNL     1      42.392  50.832   0.819  1.00  0.00    -0.550 OA
ENDBRANCH   7   8
ENDBRANCH   6   7
ENDBRANCH   5   6
ENDBRANCH   4   5
ENDBRANCH   3   4
ENDBRANCH   2   3
ENDBRANCH   1   2
BRANCH   1  11
ATOM     11  C   UNL     1      51.490  51.272   2.533  1.00  0.00     0.000 C 
BRANCH  11  12
ATOM     12  C   UNL     1      52.790  51.867   3.093  1.00  0.00    -0.000 C 
BRANCH  12  13
ATOM     13  C   UNL     1      53.990  50.967   2.770  1.00  0.00    -0.000 C 
BRANCH  13  14
ATOM     14  C   UNL     1      54.989  51.691   1.853  1.00  0.00    -0.000 C 
BRANCH  14  15
ATOM     15  C   UNL     1      54.985  51.142   0.418  1.00  0.00    -0.000 C 
BRANCH  15  16
ATOM     16  C   UNL     1      54.522  49.676   0.348  1.00  0.00    -0.000 C 
BRANCH  16  17
ATOM     17  C   UNL     1      53.609  49.405  -0.858  1.00  0.00    -0.003 C 
ATOM     18  C   UNL     1      53.593  47.934  -1.272  1.00  0.00     0.004 C 
ENDBRANCH  16  17
ENDBRANCH  15  16
ENDBRANCH  14  15
ENDBRANCH  13  14
ENDBRANCH  12  13
ENDBRANCH  11  12
ENDBRANCH   1  11
TORSDOF 14
ENDMDL
MODEL 8
REMARK VINA RESULT:    -3.823      3.957      8.542
REMARK INTER + INTRA:          -8.522
REMARK INTER:                  -7.699
REMARK INTRA:                  -0.823
REMARK UNBOUND:                -1.569
REMARK SMILES CCCCCCCCCCCCCCCC(=O)[O-]
REMARK SMILES IDX 9 1 10 2 11 3 12 4 13 5 14 6 15 7 16 8 17 9 18 10 8 11 7 12
REMARK SMILES IDX 6 13 5 14 4 15 3 16 2 17 1 18
REMARK H PARENT
REMARK Flexibility Score: inf
ROOT
ATOM      1  C   UNL     1      50.610  33.750   2.631  1.00  0.00     0.000 C 
ENDROOT
BRANCH   1   2
ATOM      2  C   UNL     1      51.753  33.267   1.721  1.00  0.00     0.000 C 
BRANCH   2   3
ATOM      3  C   UNL     1      51.254  32.459   0.510  1.00  0.00     0.000 C 
BRANCH   3   4
ATOM      4  C   UNL     1      49.944  32.963  -0.121  1.00  0.00     0.000 C 
BRANCH   4   5
ATOM      5  C   UNL     1      50.036  33.131  -1.645  1.00  0.00     0.000 C 
BRANCH   5   6
ATOM      6  C   UNL     1      51.499  33.133  -2.111  1.00  0.00     0.006 C 
BRANCH   6   7
ATOM      7  C   UNL     1      51.978  34.532  -2.519  1.00  0.00     0.053 C 
BRANCH   7   8
ATOM      8  C   UNL     1      53.274  34.889  -1.859  1.00  0.00     0.041 C 
ATOM      9  O   UNL     1      53.718  36.066  -1.924  1.00  0.00    -0.550 OA
ATOM     10  O   UNL     1      53.978  33.928  -1.143  1.00  0.00    -0.550 OA
ENDBRANCH   7   8
ENDBRANCH   6   7
ENDBRANCH   5   6
ENDBRANCH   4   5
ENDBRANCH   3   4
ENDBRANCH   2   3
ENDBRANCH   1   2
BRANCH   1  11
ATOM     11  C   UNL     1      50.841  33.391   4.108  1.00  0.00     0.000 C 
BRANCH  11  12
ATOM     12  C   UNL     1      49.540  33.374   4.924  1.00  0.00    -0.000 C 
BRANCH  12  13
ATOM     13  C   UNL     1      49.694  32.512   6.184  1.00  0.00    -0.000 C 
BRANCH  13  14
ATOM     14  C   UNL     1      49.800  33.389   7.442  1.00  0.00    -0.000 C 
BRANCH  14  15
ATOM     15  C   UNL     1      48.566  33.275   8.351  1.00  0.00    -0.000 C 
BRANCH  15  16
ATOM     16  C   UNL     1      48.425  34.472   9.308  1.00  0.00    -0.000 C 
BRANCH  16  17
ATOM     17  C   UNL     1      49.769  35.166   9.584  1.00  0.00    -0.003 C 
ATOM     18  C   UNL     1      50.362  34.791  10.941  1.00  0.00     0.004 C 
ENDBRANCH  16  17
ENDBRANCH  15  16
ENDBRANCH  14  15
ENDBRANCH  13  14
ENDBRANCH  12  13
ENDBRANCH  11  12
ENDBRANCH   1  11
TORSDOF 14
ENDMDL
MODEL 9
REMARK VINA RESULT:    -3.792     17.824     18.736
REMARK INTER + INTRA:          -8.464
REMARK INTER:                  -7.570
REMARK INTRA:                  -0.894
REMARK UNBOUND:                -1.569
REMARK SMILES CCCCCCCCCCCCCCCC(=O)[O-]
REMARK SMILES IDX 9 1 10 2 11 3 12 4 13 5 14 6 15 7 16 8 17 9 18 10 8 11 7 12
REMARK SMILES IDX 6 13 5 14 4 15 3 16 2 17 1 18
REMARK H PARENT
REMARK Flexibility Score: inf
ROOT
ATOM      1  C   UNL     1      48.117  51.996   0.480  1.00  0.00     0.000 C 
ENDROOT
BRANCH   1   2
ATOM      2  C   UNL     1      46.618  52.095   0.813  1.00  0.00     0.000 C 
BRANCH   2   3
ATOM      3  C   UNL     1      46.172  51.081   1.883  1.00  0.00     0.000 C 
BRANCH   3   4
ATOM      4  C   UNL     1      44.723  50.582   1.748  1.00  0.00     0.000 C 
BRANCH   4   5
ATOM      5  C   UNL     1      44.560  49.491   0.679  1.00  0.00     0.000 C 
BRANCH   5   6
ATOM      6  C   UNL     1      43.087  49.081   0.531  1.00  0.00     0.006 C 
BRANCH   6   7
ATOM      7  C   UNL     1      42.127  50.217   0.906  1.00  0.00     0.053 C 
BRANCH   7   8
ATOM      8  C   UNL     1      40.718  49.907   0.505  1.00  0.00     0.041 C 
ATOM      9  O   UNL     1      40.195  50.490  -0.482  1.00  0.00    -0.550 OA
ATOM     10  O   UNL     1      39.991  48.948   1.200  1.00  0.00    -0.550 OA
ENDBRANCH   7   8
ENDBRANCH   6   7
ENDBRANCH   5   6
ENDBRANCH   4   5
ENDBRANCH   3   4
ENDBRANCH   2   3
ENDBRANCH   1   2
BRANCH   1  11
ATOM     11  C   UNL     1      48.855  50.992   1.380  1.00  0.00     0.000 C 
BRANCH  11  12
ATOM     12  C   UNL     1      50.382  51.127   1.291  1.00  0.00    -0.000 C 
BRANCH  12  13
ATOM     13  C   UNL     1      51.026  51.006   2.678  1.00  0.00    -0.000 C 
BRANCH  13  14
ATOM     14  C   UNL     1      52.319  51.834   2.759  1.00  0.00    -0.000 C 
BRANCH  14  15
ATOM     15  C   UNL     1      53.531  51.001   3.206  1.00  0.00    -0.000 C 
BRANCH  15  16
ATOM     16  C   UNL     1      54.351  50.467   2.018  1.00  0.00    -0.000 C 
BRANCH  16  17
ATOM     17  C   UNL     1      54.252  51.374   0.781  1.00  0.00    -0.003 C 
ATOM     18  C   UNL     1      53.655  50.659  -0.431  1.00  0.00     0.004 C 
ENDBRANCH  16  17
ENDBRANCH  15  16
ENDBRANCH  14  15
ENDBRANCH  13  14
ENDBRANCH  12  13
ENDBRANCH  11  12
ENDBRANCH   1  11
TORSDOF 14
ENDMDL
