MODEL 1
REMARK VINA RESULT:    -3.790      0.000      0.000
REMARK INTER + INTRA:         -12.445
REMARK INTER:                  -8.663
REMARK INTRA:                  -3.782
REMARK UNBOUND:                -3.782
REMARK SMILES CCCCCCCCCCCCCCCCCCCCCCCC(=O)[O-]
REMARK SMILES IDX 13 1 14 2 15 3 16 4 17 5 18 6 19 7 20 8 21 9 22 10 23 11
REMARK SMILES IDX 24 12 25 13 26 14 12 15 11 16 10 17 9 18 8 19 7 20 6 21 5 22
REMARK SMILES IDX 4 23 3 24 2 25 1 26
REMARK H PARENT
REMARK Flexibility Score: inf
ROOT
ATOM      1  C   UNL     1      29.681  33.871   3.123  1.00  0.00     0.000 C 
ENDROOT
BRANCH   1   2
ATOM      2  C   UNL     1      29.962  35.163   2.337  1.00  0.00     0.000 C 
BRANCH   2   3
ATOM      3  C   UNL     1      30.495  34.888   0.923  1.00  0.00     0.000 C 
BRANCH   3   4
ATOM      4  C   UNL     1      30.604  33.383   0.615  1.00  0.00     0.000 C 
BRANCH   4   5
ATOM      5  C   UNL     1      31.908  33.034  -0.133  1.00  0.00     0.000 C 
BRANCH   5   6
ATOM      6  C   UNL     1      33.169  33.156   0.740  1.00  0.00     0.000 C 
BRANCH   6   7
ATOM      7  C   UNL     1      33.001  32.508   2.125  1.00  0.00     0.000 C 
BRANCH   7   8
ATOM      8  C   UNL     1      33.601  33.364   3.252  1.00  0.00     0.000 C 
BRANCH   8   9
ATOM      9  C   UNL     1      33.619  34.863   2.908  1.00  0.00     0.000 C 
BRANCH   9  10
ATOM     10  C   UNL     1      34.747  35.631   3.619  1.00  0.00     0.006 C 
BRANCH  10  11
ATOM     11  C   UNL     1      35.378  34.866   4.797  1.00  0.00     0.053 C 
BRANCH  11  12
ATOM     12  C   UNL     1      35.243  35.595   6.099  1.00  0.00     0.041 C 
ATOM     13  O   UNL     1      35.739  36.744   6.239  1.00  0.00    -0.550 OA
ATOM     14  O   UNL     1      34.598  34.991   7.171  1.00  0.00    -0.550 OA
ENDBRANCH  11  12
ENDBRANCH  10  11
ENDBRANCH   9  10
ENDBRANCH   8   9
ENDBRANCH   7   8
ENDBRANCH   6   7
ENDBRANCH   5   6
ENDBRANCH   4   5
ENDBRANCH   3   4
ENDBRANCH   2   3
ENDBRANCH   1   2
BRANCH   1  15
ATOM     15  C   UNL     1      28.591  34.053   4.194  1.00  0.00     0.000 C 
BRANCH  15  16
ATOM     16  C   UNL     1      27.196  33.530   3.793  1.00  0.00     0.000 C 
BRANCH  16  17
ATOM     17  C   UNL     1      27.113  32.894   2.391  1.00  0.00     0.000 C 
BRANCH  17  18
ATOM     18  C   UNL     1      26.165  33.605   1.409  1.00  0.00    -0.000 C 
BRANCH  18  19
ATOM     19  C   UNL     1      26.908  34.287   0.250  1.00  0.00    -0.000 C 
BRANCH  19  20
ATOM     20  C   UNL     1      26.751  35.811   0.317  1.00  0.00    -0.000 C 
BRANCH  20  21
ATOM     21  C   UNL     1      25.968  36.228   1.572  1.00  0.00    -0.000 C 
BRANCH  21  22
ATOM     22  C   UNL     1      24.668  36.983   1.242  1.00  0.00    -0.000 C 
BRANCH  22  23
ATOM     23  C   UNL     1      23.406  36.102   1.149  1.00  0.00    -0.000 C 
BRANCH  23  24
ATOM     24  C   UNL     1      22.921  35.808  -0.282  1.00  0.00    -0.000 C 
BRANCH  24  25
ATOM     25  C   UNL     1      22.790  34.305  -0.570  1.00  0.00    -0.003 C 
ATOM     26  C   UNL     1      23.837  33.845  -1.581  1.00  0.00     0.004 C 
ENDBRANCH  24  25
ENDBRANCH  23  24
ENDBRANCH  22  23
ENDBRANCH  21  22
ENDBRANCH  20  21
ENDBRANCH  19  20
ENDBRANCH  18  19
ENDBRANCH  17  18
ENDBRANCH  16  17
ENDBRANCH  15  16
ENDBRANCH   1  15
TORSDOF 22
ENDMDL
MODEL 2
REMARK VINA RESULT:    -3.774      1.416      4.639
REMARK INTER + INTRA:         -12.410
REMARK INTER:                  -8.358
REMARK INTRA:                  -4.052
REMARK UNBOUND:                -3.782
REMARK SMILES CCCCCCCCCCCCCCCCCCCCCCCC(=O)[O-]
REMARK SMILES IDX 13 1 14 2 15 3 16 4 17 5 18 6 19 7 20 8 21 9 22 10 23 11
REMARK SMILES IDX 24 12 25 13 26 14 12 15 11 16 10 17 9 18 8 19 7 20 6 21 5 22
REMARK SMILES IDX 4 23 3 24 2 25 1 26
REMARK H PARENT
REMARK Flexibility Score: inf
ROOT
ATOM      1  C   UNL     1      25.718  33.245   1.482  1.00  0.00     0.000 C 
ENDROOT
BRANCH   1   2
ATOM      2  C   UNL     1      27.116  33.309   2.119  1.00  0.00     0.000 C 
BRANCH   2   3
ATOM      3  C   UNL     1      27.066  33.652   3.615  1.00  0.00     0.000 C 
BRANCH   3   4
ATOM      4  C   UNL     1      28.462  33.666   4.265  1.00  0.00     0.000 C 
BRANCH   4   5
ATOM      5  C   UNL     1      29.504  32.897   3.425  1.00  0.00     0.000 C 
BRANCH   5   6
ATOM      6  C   UNL     1      30.951  33.094   3.908  1.00  0.00     0.000 C 
BRANCH   6   7
ATOM      7  C   UNL     1      31.987  32.891   2.789  1.00  0.00     0.000 C 
BRANCH   7   8
ATOM      8  C   UNL     1      33.382  33.408   3.177  1.00  0.00     0.000 C 
BRANCH   8   9
ATOM      9  C   UNL     1      33.574  34.896   2.838  1.00  0.00     0.000 C 
BRANCH   9  10
ATOM     10  C   UNL     1      34.930  35.451   3.310  1.00  0.00     0.006 C 
BRANCH  10  11
ATOM     11  C   UNL     1      35.498  34.740   4.552  1.00  0.00     0.053 C 
BRANCH  11  12
ATOM     12  C   UNL     1      35.082  35.395   5.833  1.00  0.00     0.041 C 
ATOM     13  O   UNL     1      34.753  34.697   6.829  1.00  0.00    -0.550 OA
ATOM     14  O   UNL     1      35.026  36.781   5.919  1.00  0.00    -0.550 OA
ENDBRANCH  11  12
ENDBRANCH  10  11
ENDBRANCH   9  10
ENDBRANCH   8   9
ENDBRANCH   7   8
ENDBRANCH   6   7
ENDBRANCH   5   6
ENDBRANCH   4   5
ENDBRANCH   3   4
ENDBRANCH   2   3
ENDBRANCH   1   2
BRANCH   1  15
ATOM     15  C   UNL     1      25.195  34.630   1.057  1.00  0.00     0.000 C 
BRANCH  15  16
ATOM     16  C   UNL     1      26.146  35.427   0.142  1.00  0.00     0.000 C 
BRANCH  16  17
ATOM     17  C   UNL     1      26.301  36.920   0.498  1.00  0.00     0.000 C 
BRANCH  17  18
ATOM     18  C   UNL     1      26.772  37.200   1.936  1.00  0.00    -0.000 C 
BRANCH  18  19
ATOM     19  C   UNL     1      28.230  37.681   2.003  1.00  0.00    -0.000 C 
BRANCH  19  20
ATOM     20  C   UNL     1      29.104  36.680   2.767  1.00  0.00    -0.000 C 
BRANCH  20  21
ATOM     21  C   UNL     1      30.285  36.210   1.904  1.00  0.00    -0.000 C 
BRANCH  21  22
ATOM     22  C   UNL     1      29.871  35.871   0.460  1.00  0.00    -0.000 C 
BRANCH  22  23
ATOM     23  C   UNL     1      29.935  34.374   0.096  1.00  0.00    -0.000 C 
BRANCH  23  24
ATOM     24  C   UNL     1      30.913  34.020  -1.039  1.00  0.00    -0.000 C 
BRANCH  24  25
ATOM     25  C   UNL     1      32.383  34.211  -0.640  1.00  0.00    -0.003 C 
ATOM     26  C   UNL     1      33.141  32.886  -0.682  1.00  0.00     0.004 C 
ENDBRANCH  24  25
ENDBRANCH  23  24
ENDBRANCH  22  23
ENDBRANCH  21  22
ENDBRANCH  20  21
ENDBRANCH  19  20
ENDBRANCH  18  19
ENDBRANCH  17  18
ENDBRANCH  16  17
ENDBRANCH  15  16
ENDBRANCH   1  15
TORSDOF 22
ENDMDL
MODEL 3
REMARK VINA RESULT:    -3.769      1.720      3.771
REMARK INTER + INTRA:         -12.399
REMARK INTER:                  -8.493
REMARK INTRA:                  -3.906
REMARK UNBOUND:                -3.782
REMARK SMILES CCCCCCCCCCCCCCCCCCCCCCCC(=O)[O-]
REMARK SMILES IDX 13 1 14 2 15 3 16 4 17 5 18 6 19 7 20 8 21 9 22 10 23 11
REMARK SMILES IDX 24 12 25 13 26 14 12 15 11 16 10 17 9 18 8 19 7 20 6 21 5 22
REMARK SMILES IDX 4 23 3 24 2 25 1 26
REMARK H PARENT
REMARK Flexibility Score: inf
ROOT
ATOM      1  C   UNL     1      27.112  32.852   2.291  1.00  0.00     0.000 C 
ENDROOT
BRANCH   1   2
ATOM      2  C   UNL     1      27.004  33.627   3.615  1.00  0.00     0.000 C 
BRANCH   2   3
ATOM      3  C   UNL     1      28.377  33.998   4.194  1.00  0.00     0.000 C 
BRANCH   3   4
ATOM      4  C   UNL     1      29.420  34.292   3.100  1.00  0.00     0.000 C 
BRANCH   4   5
ATOM      5  C   UNL     1      29.416  35.776   2.676  1.00  0.00     0.000 C 
BRANCH   5   6
ATOM      6  C   UNL     1      29.531  35.982   1.156  1.00  0.00     0.000 C 
BRANCH   6   7
ATOM      7  C   UNL     1      29.459  34.662   0.369  1.00  0.00     0.000 C 
BRANCH   7   8
ATOM      8  C   UNL     1      30.770  34.345  -0.370  1.00  0.00     0.000 C 
BRANCH   8   9
ATOM      9  C   UNL     1      31.334  32.962  -0.001  1.00  0.00     0.000 C 
BRANCH   9  10
ATOM     10  C   UNL     1      32.744  33.031   0.613  1.00  0.00     0.006 C 
BRANCH  10  11
ATOM     11  C   UNL     1      32.782  32.741   2.125  1.00  0.00     0.053 C 
BRANCH  11  12
ATOM     12  C   UNL     1      33.143  33.948   2.936  1.00  0.00     0.041 C 
ATOM     13  O   UNL     1      32.868  35.104   2.515  1.00  0.00    -0.550 OA
ATOM     14  O   UNL     1      33.814  33.799   4.143  1.00  0.00    -0.550 OA
ENDBRANCH  11  12
ENDBRANCH  10  11
ENDBRANCH   9  10
ENDBRANCH   8   9
ENDBRANCH   7   8
ENDBRANCH   6   7
ENDBRANCH   5   6
ENDBRANCH   4   5
ENDBRANCH   3   4
ENDBRANCH   2   3
ENDBRANCH   1   2
BRANCH   1  15
ATOM     15  C   UNL     1      26.022  33.249   1.280  1.00  0.00     0.000 C 
BRANCH  15  16
ATOM     16  C   UNL     1      25.302  34.576   1.592  1.00  0.00     0.000 C 
BRANCH  16  17
ATOM     17  C   UNL     1      25.853  35.811   0.850  1.00  0.00     0.000 C 
BRANCH  17  18
ATOM     18  C   UNL     1      25.640  37.153   1.574  1.00  0.00    -0.000 C 
BRANCH  18  19
ATOM     19  C   UNL     1      24.465  37.960   1.001  1.00  0.00    -0.000 C 
BRANCH  19  20
ATOM     20  C   UNL     1      23.166  37.648   1.752  1.00  0.00    -0.000 C 
BRANCH  20  21
ATOM     21  C   UNL     1      22.251  36.742   0.914  1.00  0.00    -0.000 C 
BRANCH  21  22
ATOM     22  C   UNL     1      22.494  36.882  -0.599  1.00  0.00    -0.000 C 
BRANCH  22  23
ATOM     23  C   UNL     1      22.890  35.579  -1.321  1.00  0.00    -0.000 C 
BRANCH  23  24
ATOM     24  C   UNL     1      22.295  34.293  -0.718  1.00  0.00    -0.000 C 
BRANCH  24  25
ATOM     25  C   UNL     1      23.117  33.041  -1.053  1.00  0.00    -0.003 C 
ATOM     26  C   UNL     1      22.617  31.829  -0.273  1.00  0.00     0.004 C 
ENDBRANCH  24  25
ENDBRANCH  23  24
ENDBRANCH  22  23
ENDBRANCH  21  22
ENDBRANCH  20  21
ENDBRANCH  19  20
ENDBRANCH  18  19
ENDBRANCH  17  18
ENDBRANCH  16  17
ENDBRANCH  15  16
ENDBRANCH   1  15
TORSDOF 22
ENDMDL
MODEL 4
REMARK VINA RESULT:    -3.756      4.123      8.745
REMARK INTER + INTRA:         -12.369
REMARK INTER:                  -8.003
REMARK INTRA:                  -4.366
REMARK UNBOUND:                -3.782
REMARK SMILES CCCCCCCCCCCCCCCCCCCCCCCC(=O)[O-]
REMARK SMILES IDX 13 1 14 2 15 3 16 4 17 5 18 6 19 7 20 8 21 9 22 10 23 11
REMARK SMILES IDX 24 12 25 13 26 14 12 15 11 16 10 17 9 18 8 19 7 20 6 21 5 22
REMARK SMILES IDX 4 23 3 24 2 25 1 26
REMARK H PARENT
REMARK Flexibility Score: inf
ROOT
ATOM      1  C   UNL     1      29.475  33.789   3.117  1.00  0.00     0.000 C 
ENDROOT
BRANCH   1   2
ATOM      2  C   UNL     1      28.511  32.891   2.323  1.00  0.00     0.000 C 
BRANCH   2   3
ATOM      3  C   UNL     1      27.080  32.925   2.881  1.00  0.00     0.000 C 
BRANCH   3   4
ATOM      4  C   UNL     1      26.063  33.477   1.866  1.00  0.00     0.000 C 
BRANCH   4   5
ATOM      5  C   UNL     1      26.745  34.013   0.590  1.00  0.00     0.000 C 
BRANCH   5   6
ATOM      6  C   UNL     1      26.435  35.492   0.301  1.00  0.00     0.000 C 
BRANCH   6   7
ATOM      7  C   UNL     1      25.905  36.242   1.536  1.00  0.00     0.000 C 
BRANCH   7   8
ATOM      8  C   UNL     1      24.603  37.006   1.247  1.00  0.00     0.000 C 
BRANCH   8   9
ATOM      9  C   UNL     1      23.387  36.071   1.119  1.00  0.00     0.000 C 
BRANCH   9  10
ATOM     10  C   UNL     1      22.820  36.014  -0.310  1.00  0.00     0.006 C 
BRANCH  10  11
ATOM     11  C   UNL     1      22.209  34.651  -0.685  1.00  0.00     0.053 C 
BRANCH  11  12
ATOM     12  C   UNL     1      23.243  33.581  -0.856  1.00  0.00     0.041 C 
ATOM     13  O   UNL     1      23.281  32.600  -0.067  1.00  0.00    -0.550 OA
ATOM     14  O   UNL     1      24.189  33.684  -1.868  1.00  0.00    -0.550 OA
ENDBRANCH  11  12
ENDBRANCH  10  11
ENDBRANCH   9  10
ENDBRANCH   8   9
ENDBRANCH   7   8
ENDBRANCH   6   7
ENDBRANCH   5   6
ENDBRANCH   4   5
ENDBRANCH   3   4
ENDBRANCH   2   3
ENDBRANCH   1   2
BRANCH   1  15
ATOM     15  C   UNL     1      28.850  35.144   3.493  1.00  0.00     0.000 C 
BRANCH  15  16
ATOM     16  C   UNL     1      29.431  36.356   2.738  1.00  0.00     0.000 C 
BRANCH  16  17
ATOM     17  C   UNL     1      30.871  36.175   2.217  1.00  0.00     0.000 C 
BRANCH  17  18
ATOM     18  C   UNL     1      31.093  36.605   0.756  1.00  0.00    -0.000 C 
BRANCH  18  19
ATOM     19  C   UNL     1      29.834  36.447  -0.111  1.00  0.00    -0.000 C 
BRANCH  19  20
ATOM     20  C   UNL     1      30.078  35.465  -1.262  1.00  0.00    -0.000 C 
BRANCH  20  21
ATOM     21  C   UNL     1      30.343  34.048  -0.730  1.00  0.00    -0.000 C 
BRANCH  21  22
ATOM     22  C   UNL     1      31.595  33.402  -1.349  1.00  0.00    -0.000 C 
BRANCH  22  23
ATOM     23  C   UNL     1      32.670  32.956  -0.337  1.00  0.00    -0.000 C 
BRANCH  23  24
ATOM     24  C   UNL     1      32.197  32.892   1.128  1.00  0.00    -0.000 C 
BRANCH  24  25
ATOM     25  C   UNL     1      33.351  32.670   2.117  1.00  0.00    -0.003 C 
ATOM     26  C   UNL     1      33.247  33.621   3.306  1.00  0.00     0.004 C 
ENDBRANCH  24  25
ENDBRANCH  23  24
ENDBRANCH  22  23
ENDBRANCH  21  22
ENDBRANCH  20  21
ENDBRANCH  19  20
ENDBRANCH  18  19
ENDBRANCH  17  18
ENDBRANCH  16  17
ENDBRANCH  15  16
ENDBRANCH   1  15
TORSDOF 22
ENDMDL
MODEL 5
REMARK VINA RESULT:    -3.756      4.355      8.396
REMARK INTER + INTRA:         -12.368
REMARK INTER:                  -8.099
REMARK INTRA:                  -4.268
REMARK UNBOUND:                -3.782
REMARK SMILES CCCCCCCCCCCCCCCCCCCCCCCC(=O)[O-]
REMARK SMILES IDX 13 1 14 2 15 3 16 4 17 5 18 6 19 7 20 8 21 9 22 10 23 11
REMARK SMILES IDX 24 12 25 13 26 14 12 15 11 16 10 17 9 18 8 19 7 20 6 21 5 22
REMARK SMILES IDX 4 23 3 24 2 25 1 26
REMARK H PARENT
REMARK Flexibility Score: inf
ROOT
ATOM      1  C   UNL     1      31.035  33.216   3.820  1.00  0.00     0.000 C 
ENDROOT
BRANCH   1   2
ATOM      2  C   UNL     1      29.572  32.989   3.407  1.00  0.00     0.000 C 
BRANCH   2   3
ATOM      3  C   UNL     1      28.617  34.016   4.033  1.00  0.00     0.000 C 
BRANCH   3   4
ATOM      4  C   UNL     1      27.145  33.756   3.664  1.00  0.00     0.000 C 
BRANCH   4   5
ATOM      5  C   UNL     1      27.007  32.877   2.402  1.00  0.00     0.000 C 
BRANCH   5   6
ATOM      6  C   UNL     1      26.036  33.452   1.356  1.00  0.00     0.000 C 
BRANCH   6   7
ATOM      7  C   UNL     1      25.789  34.960   1.537  1.00  0.00     0.000 C 
BRANCH   7   8
ATOM      8  C   UNL     1      26.100  35.764   0.264  1.00  0.00     0.000 C 
BRANCH   8   9
ATOM      9  C   UNL     1      26.112  34.887  -1.000  1.00  0.00     0.000 C 
BRANCH   9  10
ATOM     10  C   UNL     1      24.821  35.009  -1.829  1.00  0.00     0.006 C 
BRANCH  10  11
ATOM     11  C   UNL     1      23.996  33.711  -1.895  1.00  0.00     0.053 C 
BRANCH  11  12
ATOM     12  C   UNL     1      22.933  33.648  -0.842  1.00  0.00     0.041 C 
ATOM     13  O   UNL     1      22.608  34.682  -0.201  1.00  0.00    -0.550 OA
ATOM     14  O   UNL     1      22.321  32.436  -0.543  1.00  0.00    -0.550 OA
ENDBRANCH  11  12
ENDBRANCH  10  11
ENDBRANCH   9  10
ENDBRANCH   8   9
ENDBRANCH   7   8
ENDBRANCH   6   7
ENDBRANCH   5   6
ENDBRANCH   4   5
ENDBRANCH   3   4
ENDBRANCH   2   3
ENDBRANCH   1   2
BRANCH   1  15
ATOM     15  C   UNL     1      32.036  32.724   2.759  1.00  0.00     0.000 C 
BRANCH  15  16
ATOM     16  C   UNL     1      33.099  33.761   2.343  1.00  0.00     0.000 C 
BRANCH  16  17
ATOM     17  C   UNL     1      34.003  33.337   1.167  1.00  0.00     0.000 C 
BRANCH  17  18
ATOM     18  C   UNL     1      33.688  34.020  -0.176  1.00  0.00    -0.000 C 
BRANCH  18  19
ATOM     19  C   UNL     1      33.123  33.047  -1.222  1.00  0.00    -0.000 C 
BRANCH  19  20
ATOM     20  C   UNL     1      31.617  32.843  -1.027  1.00  0.00    -0.000 C 
BRANCH  20  21
ATOM     21  C   UNL     1      30.812  33.724  -1.996  1.00  0.00    -0.000 C 
BRANCH  21  22
ATOM     22  C   UNL     1      29.845  34.678  -1.273  1.00  0.00    -0.000 C 
BRANCH  22  23
ATOM     23  C   UNL     1      29.898  34.619   0.267  1.00  0.00    -0.000 C 
BRANCH  23  24
ATOM     24  C   UNL     1      29.547  35.937   0.982  1.00  0.00    -0.000 C 
BRANCH  24  25
ATOM     25  C   UNL     1      30.646  36.402   1.949  1.00  0.00    -0.003 C 
ATOM     26  C   UNL     1      31.819  37.020   1.193  1.00  0.00     0.004 C 
ENDBRANCH  24  25
ENDBRANCH  23  24
ENDBRANCH  22  23
ENDBRANCH  21  22
ENDBRANCH  20  21
ENDBRANCH  19  20
ENDBRANCH  18  19
ENDBRANCH  17  18
ENDBRANCH  16  17
ENDBRANCH  15  16
ENDBRANCH   1  15
TORSDOF 22
ENDMDL
MODEL 6
REMARK VINA RESULT:    -3.711      3.720      8.010
REMARK INTER + INTRA:         -12.265
REMARK INTER:                  -7.555
REMARK INTRA:                  -4.710
REMARK UNBOUND:                -3.782
REMARK SMILES CCCCCCCCCCCCCCCCCCCCCCCC(=O)[O-]
REMARK SMILES IDX 13 1 14 2 15 3 16 4 17 5 18 6 19 7 20 8 21 9 22 10 23 11
REMARK SMILES IDX 24 12 25 13 26 14 12 15 11 16 10 17 9 18 8 19 7 20 6 21 5 22
REMARK SMILES IDX 4 23 3 24 2 25 1 26
REMARK H PARENT
REMARK Flexibility Score: inf
ROOT
ATOM      1  C   UNL     1      29.546  36.619   2.114  1.00  0.00     0.000 C 
ENDROOT
BRANCH   1   2
ATOM      2  C   UNL     1      30.472  35.391   2.092  1.00  0.00     0.000 C 
BRANCH   2   3
ATOM      3  C   UNL     1      29.788  34.148   1.503  1.00  0.00     0.000 C 
BRANCH   3   4
ATOM      4  C   UNL     1      29.783  32.958   2.479  1.00  0.00     0.000 C 
BRANCH   4   5
ATOM      5  C   UNL     1      29.478  33.394   3.928  1.00  0.00     0.000 C 
BRANCH   5   6
ATOM      6  C   UNL     1      27.997  33.732   4.170  1.00  0.00     0.000 C 
BRANCH   6   7
ATOM      7  C   UNL     1      27.049  32.965   3.231  1.00  0.00     0.000 C 
BRANCH   7   8
ATOM      8  C   UNL     1      26.090  33.897   2.474  1.00  0.00     0.000 C 
BRANCH   8   9
ATOM      9  C   UNL     1      25.970  33.535   0.983  1.00  0.00     0.000 C 
BRANCH   9  10
ATOM     10  C   UNL     1      25.125  34.544   0.184  1.00  0.00     0.006 C 
BRANCH  10  11
ATOM     11  C   UNL     1      24.372  35.561   1.061  1.00  0.00     0.053 C 
BRANCH  11  12
ATOM     12  C   UNL     1      24.584  36.976   0.617  1.00  0.00     0.041 C 
ATOM     13  O   UNL     1      24.647  37.256  -0.610  1.00  0.00    -0.550 OA
ATOM     14  O   UNL     1      24.746  37.984   1.559  1.00  0.00    -0.550 OA
ENDBRANCH  11  12
ENDBRANCH  10  11
ENDBRANCH   9  10
ENDBRANCH   8   9
ENDBRANCH   7   8
ENDBRANCH   6   7
ENDBRANCH   5   6
ENDBRANCH   4   5
ENDBRANCH   3   4
ENDBRANCH   2   3
ENDBRANCH   1   2
BRANCH   1  15
ATOM     15  C   UNL     1      28.259  36.407   1.297  1.00  0.00     0.000 C 
BRANCH  15  16
ATOM     16  C   UNL     1      28.217  37.158  -0.049  1.00  0.00     0.000 C 
BRANCH  16  17
ATOM     17  C   UNL     1      28.014  36.266  -1.291  1.00  0.00     0.000 C 
BRANCH  17  18
ATOM     18  C   UNL     1      29.225  35.398  -1.675  1.00  0.00    -0.000 C 
BRANCH  18  19
ATOM     19  C   UNL     1      30.551  36.173  -1.637  1.00  0.00    -0.000 C 
BRANCH  19  20
ATOM     20  C   UNL     1      31.739  35.223  -1.450  1.00  0.00    -0.000 C 
BRANCH  20  21
ATOM     21  C   UNL     1      31.392  33.807  -1.937  1.00  0.00    -0.000 C 
BRANCH  21  22
ATOM     22  C   UNL     1      31.948  32.706  -1.016  1.00  0.00    -0.000 C 
BRANCH  22  23
ATOM     23  C   UNL     1      33.251  33.068  -0.276  1.00  0.00    -0.000 C 
BRANCH  23  24
ATOM     24  C   UNL     1      33.254  32.748   1.230  1.00  0.00    -0.000 C 
BRANCH  24  25
ATOM     25  C   UNL     1      33.827  33.891   2.081  1.00  0.00    -0.003 C 
ATOM     26  C   UNL     1      33.522  33.680   3.562  1.00  0.00     0.004 C 
ENDBRANCH  24  25
ENDBRANCH  23  24
ENDBRANCH  22  23
ENDBRANCH  21  22
ENDBRANCH  20  21
ENDBRANCH  19  20
ENDBRANCH  18  19
ENDBRANCH  17  18
ENDBRANCH  16  17
ENDBRANCH  15  16
ENDBRANCH   1  15
TORSDOF 22
ENDMDL
MODEL 7
REMARK VINA RESULT:    -3.690      1.945      5.281
REMARK INTER + INTRA:         -12.217
REMARK INTER:                  -7.951
REMARK INTRA:                  -4.265
REMARK UNBOUND:                -3.782
REMARK SMILES CCCCCCCCCCCCCCCCCCCCCCCC(=O)[O-]
REMARK SMILES IDX 13 1 14 2 15 3 16 4 17 5 18 6 19 7 20 8 21 9 22 10 23 11
REMARK SMILES IDX 24 12 25 13 26 14 12 15 11 16 10 17 9 18 8 19 7 20 6 21 5 22
REMARK SMILES IDX 4 23 3 24 2 25 1 26
REMARK H PARENT
REMARK Flexibility Score: inf
ROOT
ATOM      1  C   UNL     1      27.200  34.638   0.397  1.00  0.00     0.000 C 
ENDROOT
BRANCH   1   2
ATOM      2  C   UNL     1      27.582  35.955   1.094  1.00  0.00     0.000 C 
BRANCH   2   3
ATOM      3  C   UNL     1      29.102  36.153   1.183  1.00  0.00     0.000 C 
BRANCH   3   4
ATOM      4  C   UNL     1      29.519  36.977   2.415  1.00  0.00     0.000 C 
BRANCH   4   5
ATOM      5  C   UNL     1      31.051  37.131   2.523  1.00  0.00     0.000 C 
BRANCH   5   6
ATOM      6  C   UNL     1      31.786  36.922   1.187  1.00  0.00     0.000 C 
BRANCH   6   7
ATOM      7  C   UNL     1      33.276  36.589   1.372  1.00  0.00     0.000 C 
BRANCH   7   8
ATOM      8  C   UNL     1      33.686  36.526   2.853  1.00  0.00     0.000 C 
BRANCH   8   9
ATOM      9  C   UNL     1      34.157  35.123   3.275  1.00  0.00     0.000 C 
BRANCH   9  10
ATOM     10  C   UNL     1      35.395  35.154   4.189  1.00  0.00     0.006 C 
BRANCH  10  11
ATOM     11  C   UNL     1      35.119  34.682   5.629  1.00  0.00     0.053 C 
BRANCH  11  12
ATOM     12  C   UNL     1      34.891  35.821   6.576  1.00  0.00     0.041 C 
ATOM     13  O   UNL     1      35.081  37.008   6.202  1.00  0.00    -0.550 OA
ATOM     14  O   UNL     1      34.500  35.568   7.885  1.00  0.00    -0.550 OA
ENDBRANCH  11  12
ENDBRANCH  10  11
ENDBRANCH   9  10
ENDBRANCH   8   9
ENDBRANCH   7   8
ENDBRANCH   6   7
ENDBRANCH   5   6
ENDBRANCH   4   5
ENDBRANCH   3   4
ENDBRANCH   2   3
ENDBRANCH   1   2
BRANCH   1  15
ATOM     15  C   UNL     1      26.346  33.719   1.290  1.00  0.00     0.000 C 
BRANCH  15  16
ATOM     16  C   UNL     1      27.135  32.953   2.370  1.00  0.00     0.000 C 
BRANCH  16  17
ATOM     17  C   UNL     1      27.190  33.637   3.752  1.00  0.00     0.000 C 
BRANCH  17  18
ATOM     18  C   UNL     1      28.603  33.998   4.244  1.00  0.00    -0.000 C 
BRANCH  18  19
ATOM     19  C   UNL     1      29.657  32.953   3.849  1.00  0.00    -0.000 C 
BRANCH  19  20
ATOM     20  C   UNL     1      30.948  33.628   3.370  1.00  0.00    -0.000 C 
BRANCH  20  21
ATOM     21  C   UNL     1      31.562  32.863   2.187  1.00  0.00    -0.000 C 
BRANCH  21  22
ATOM     22  C   UNL     1      30.689  32.920   0.921  1.00  0.00    -0.000 C 
BRANCH  22  23
ATOM     23  C   UNL     1      31.385  33.498  -0.328  1.00  0.00    -0.000 C 
BRANCH  23  24
ATOM     24  C   UNL     1      32.717  32.821  -0.702  1.00  0.00    -0.000 C 
BRANCH  24  25
ATOM     25  C   UNL     1      33.833  33.831  -1.009  1.00  0.00    -0.003 C 
ATOM     26  C   UNL     1      35.027  33.629  -0.080  1.00  0.00     0.004 C 
ENDBRANCH  24  25
ENDBRANCH  23  24
ENDBRANCH  22  23
ENDBRANCH  21  22
ENDBRANCH  20  21
ENDBRANCH  19  20
ENDBRANCH  18  19
ENDBRANCH  17  18
ENDBRANCH  16  17
ENDBRANCH  15  16
ENDBRANCH   1  15
TORSDOF 22
ENDMDL
MODEL 8
REMARK VINA RESULT:    -3.686      1.950      4.275
REMARK INTER + INTRA:         -12.209
REMARK INTER:                  -7.695
REMARK INTRA:                  -4.515
REMARK UNBOUND:                -3.782
REMARK SMILES CCCCCCCCCCCCCCCCCCCCCCCC(=O)[O-]
REMARK SMILES IDX 13 1 14 2 15 3 16 4 17 5 18 6 19 7 20 8 21 9 22 10 23 11
REMARK SMILES IDX 24 12 25 13 26 14 12 15 11 16 10 17 9 18 8 19 7 20 6 21 5 22
REMARK SMILES IDX 4 23 3 24 2 25 1 26
REMARK H PARENT
REMARK Flexibility Score: inf
ROOT
ATOM      1  C   UNL     1      26.793  32.897   2.043  1.00  0.00     0.000 C 
ENDROOT
BRANCH   1   2
ATOM      2  C   UNL     1      26.737  33.710   3.347  1.00  0.00     0.000 C 
BRANCH   2   3
ATOM      3  C   UNL     1      28.088  33.747   4.077  1.00  0.00     0.000 C 
BRANCH   3   4
ATOM      4  C   UNL     1      29.202  33.028   3.293  1.00  0.00     0.000 C 
BRANCH   4   5
ATOM      5  C   UNL     1      30.496  32.880   4.123  1.00  0.00     0.000 C 
BRANCH   5   6
ATOM      6  C   UNL     1      31.772  33.233   3.339  1.00  0.00     0.000 C 
BRANCH   6   7
ATOM      7  C   UNL     1      31.666  32.893   1.843  1.00  0.00     0.000 C 
BRANCH   7   8
ATOM      8  C   UNL     1      33.040  32.827   1.156  1.00  0.00     0.000 C 
BRANCH   8   9
ATOM      9  C   UNL     1      33.088  33.645  -0.146  1.00  0.00     0.000 C 
BRANCH   9  10
ATOM     10  C   UNL     1      33.406  35.132   0.089  1.00  0.00     0.006 C 
BRANCH  10  11
ATOM     11  C   UNL     1      34.568  35.375   1.068  1.00  0.00     0.053 C 
BRANCH  11  12
ATOM     12  C   UNL     1      34.145  36.131   2.291  1.00  0.00     0.041 C 
ATOM     13  O   UNL     1      34.339  35.647   3.438  1.00  0.00    -0.550 OA
ATOM     14  O   UNL     1      33.506  37.358   2.163  1.00  0.00    -0.550 OA
ENDBRANCH  11  12
ENDBRANCH  10  11
ENDBRANCH   9  10
ENDBRANCH   8   9
ENDBRANCH   7   8
ENDBRANCH   6   7
ENDBRANCH   5   6
ENDBRANCH   4   5
ENDBRANCH   3   4
ENDBRANCH   2   3
ENDBRANCH   1   2
BRANCH   1  15
ATOM     15  C   UNL     1      26.010  33.559   0.896  1.00  0.00     0.000 C 
BRANCH  15  16
ATOM     16  C   UNL     1      24.642  34.144   1.300  1.00  0.00     0.000 C 
BRANCH  16  17
ATOM     17  C   UNL     1      24.432  35.630   0.941  1.00  0.00     0.000 C 
BRANCH  17  18
ATOM     18  C   UNL     1      25.488  36.226  -0.007  1.00  0.00    -0.000 C 
BRANCH  18  19
ATOM     19  C   UNL     1      26.238  37.417   0.610  1.00  0.00    -0.000 C 
BRANCH  19  20
ATOM     20  C   UNL     1      26.737  37.082   2.020  1.00  0.00    -0.000 C 
BRANCH  20  21
ATOM     21  C   UNL     1      28.030  37.847   2.341  1.00  0.00    -0.000 C 
BRANCH  21  22
ATOM     22  C   UNL     1      29.092  36.966   3.023  1.00  0.00    -0.000 C 
BRANCH  22  23
ATOM     23  C   UNL     1      30.118  36.322   2.069  1.00  0.00    -0.000 C 
BRANCH  23  24
ATOM     24  C   UNL     1      30.283  37.034   0.713  1.00  0.00    -0.000 C 
BRANCH  24  25
ATOM     25  C   UNL     1      29.692  36.234  -0.456  1.00  0.00    -0.003 C 
ATOM     26  C   UNL     1      29.333  34.814  -0.026  1.00  0.00     0.004 C 
ENDBRANCH  24  25
ENDBRANCH  23  24
ENDBRANCH  22  23
ENDBRANCH  21  22
ENDBRANCH  20  21
ENDBRANCH  19  20
ENDBRANCH  18  19
ENDBRANCH  17  18
ENDBRANCH  16  17
ENDBRANCH  15  16
ENDBRANCH   1  15
TORSDOF 22
ENDMDL
MODEL 9
REMARK VINA RESULT:    -3.591      1.373      2.672
REMARK INTER + INTRA:         -11.990
REMARK INTER:                  -7.721
REMARK INTRA:                  -4.269
REMARK UNBOUND:                -3.782
REMARK SMILES CCCCCCCCCCCCCCCCCCCCCCCC(=O)[O-]
REMARK SMILES IDX 13 1 14 2 15 3 16 4 17 5 18 6 19 7 20 8 21 9 22 10 23 11
REMARK SMILES IDX 24 12 25 13 26 14 12 15 11 16 10 17 9 18 8 19 7 20 6 21 5 22
REMARK SMILES IDX 4 23 3 24 2 25 1 26
REMARK H PARENT
REMARK Flexibility Score: inf
ROOT
ATOM      1  C   UNL     1      28.595  34.002   4.249  1.00  0.00     0.000 C 
ENDROOT
BRANCH   1   2
ATOM      2  C   UNL     1      29.427  34.797   3.229  1.00  0.00     0.000 C 
BRANCH   2   3
ATOM      3  C   UNL     1      29.032  36.281   3.176  1.00  0.00     0.000 C 
BRANCH   3   4
ATOM      4  C   UNL     1      29.753  37.044   2.050  1.00  0.00     0.000 C 
BRANCH   4   5
ATOM      5  C   UNL     1      31.048  36.334   1.600  1.00  0.00     0.000 C 
BRANCH   5   6
ATOM      6  C   UNL     1      31.030  35.899   0.125  1.00  0.00     0.000 C 
BRANCH   6   7
ATOM      7  C   UNL     1      31.759  34.565  -0.111  1.00  0.00     0.000 C 
BRANCH   7   8
ATOM      8  C   UNL     1      30.876  33.347   0.203  1.00  0.00     0.000 C 
BRANCH   8   9
ATOM      9  C   UNL     1      31.379  32.553   1.421  1.00  0.00     0.000 C 
BRANCH   9  10
ATOM     10  C   UNL     1      32.831  32.889   1.801  1.00  0.00     0.006 C 
BRANCH  10  11
ATOM     11  C   UNL     1      32.995  33.420   3.237  1.00  0.00     0.053 C 
BRANCH  11  12
ATOM     12  C   UNL     1      34.024  34.503   3.339  1.00  0.00     0.041 C 
ATOM     13  O   UNL     1      34.519  34.809   4.457  1.00  0.00    -0.550 OA
ATOM     14  O   UNL     1      34.415  35.200   2.202  1.00  0.00    -0.550 OA
ENDBRANCH  11  12
ENDBRANCH  10  11
ENDBRANCH   9  10
ENDBRANCH   8   9
ENDBRANCH   7   8
ENDBRANCH   6   7
ENDBRANCH   5   6
ENDBRANCH   4   5
ENDBRANCH   3   4
ENDBRANCH   2   3
ENDBRANCH   1   2
BRANCH   1  15
ATOM     15  C   UNL     1      27.216  33.594   3.700  1.00  0.00     0.000 C 
BRANCH  15  16
ATOM     16  C   UNL     1      27.242  32.950   2.300  1.00  0.00     0.000 C 
BRANCH  16  17
ATOM     17  C   UNL     1      26.392  33.668   1.232  1.00  0.00     0.000 C 
BRANCH  17  18
ATOM     18  C   UNL     1      27.178  34.603   0.295  1.00  0.00    -0.000 C 
BRANCH  18  19
ATOM     19  C   UNL     1      26.679  36.055   0.346  1.00  0.00    -0.000 C 
BRANCH  19  20
ATOM     20  C   UNL     1      25.810  36.295   1.586  1.00  0.00    -0.000 C 
BRANCH  20  21
ATOM     21  C   UNL     1      25.216  37.712   1.574  1.00  0.00    -0.000 C 
BRANCH  21  22
ATOM     22  C   UNL     1      23.741  37.737   1.134  1.00  0.00    -0.000 C 
BRANCH  22  23
ATOM     23  C   UNL     1      23.036  36.366   1.133  1.00  0.00    -0.000 C 
BRANCH  23  24
ATOM     24  C   UNL     1      22.712  35.802  -0.263  1.00  0.00    -0.000 C 
BRANCH  24  25
ATOM     25  C   UNL     1      23.119  34.330  -0.420  1.00  0.00    -0.003 C 
ATOM     26  C   UNL     1      24.005  34.131  -1.647  1.00  0.00     0.004 C 
ENDBRANCH  24  25
ENDBRANCH  23  24
ENDBRANCH  22  23
ENDBRANCH  21  22
ENDBRANCH  20  21
ENDBRANCH  19  20
ENDBRANCH  18  19
ENDBRANCH  17  18
ENDBRANCH  16  17
ENDBRANCH  15  16
ENDBRANCH   1  15
TORSDOF 22
ENDMDL
