MODEL 1
REMARK VINA RESULT:    -4.048      0.000      0.000
REMARK INTER + INTRA:          -6.731
REMARK INTER:                  -6.177
REMARK INTRA:                  -0.554
REMARK UNBOUND:                -0.554
REMARK SMILES O=C([O-])CCCCCCCCC(=O)[O-]
REMARK SMILES IDX 7 1 6 2 5 3 4 4 2 5 1 6 3 7 8 8 9 9 10 10 11 11 12 12 13 13
REMARK SMILES IDX 14 14
REMARK H PARENT
REMARK Flexibility Score: inf
ROOT
ATOM      1  C   UNL     1      27.214  33.710   3.687  1.00  0.00     0.000 C 
ENDROOT
BRANCH   1   2
ATOM      2  C   UNL     1      27.189  32.907   2.375  1.00  0.00     0.000 C 
BRANCH   2   3
ATOM      3  C   UNL     1      26.618  33.712   1.195  1.00  0.00     0.006 C 
BRANCH   3   4
ATOM      4  C   UNL     1      25.240  34.308   1.514  1.00  0.00     0.053 C 
BRANCH   4   5
ATOM      5  C   UNL     1      24.163  33.699   0.668  1.00  0.00     0.041 C 
ATOM      6  O   UNL     1      23.991  32.451   0.664  1.00  0.00    -0.550 OA
ATOM      7  O   UNL     1      23.325  34.511  -0.085  1.00  0.00    -0.550 OA
ENDBRANCH   4   5
ENDBRANCH   3   4
ENDBRANCH   2   3
ENDBRANCH   1   2
BRANCH   1   8
ATOM      8  C   UNL     1      28.621  34.103   4.181  1.00  0.00     0.000 C 
BRANCH   8   9
ATOM      9  C   UNL     1      29.707  33.025   3.989  1.00  0.00     0.000 C 
BRANCH   9  10
ATOM     10  C   UNL     1      30.936  33.477   3.173  1.00  0.00     0.006 C 
BRANCH  10  11
ATOM     11  C   UNL     1      30.941  32.991   1.714  1.00  0.00     0.053 C 
BRANCH  11  12
ATOM     12  C   UNL     1      32.332  32.779   1.201  1.00  0.00     0.041 C 
ATOM     13  O   UNL     1      33.257  32.451   1.991  1.00  0.00    -0.550 OA
ATOM     14  O   UNL     1      32.614  32.977  -0.145  1.00  0.00    -0.550 OA
ENDBRANCH  11  12
ENDBRANCH  10  11
ENDBRANCH   9  10
ENDBRANCH   8   9
ENDBRANCH   1   8
TORSDOF 9
ENDMDL
MODEL 2
REMARK VINA RESULT:    -4.001      1.035      6.825
REMARK INTER + INTRA:          -6.659
REMARK INTER:                  -6.149
REMARK INTRA:                  -0.510
REMARK UNBOUND:                -0.554
REMARK SMILES O=C([O-])CCCCCCCCC(=O)[O-]
REMARK SMILES IDX 7 1 6 2 5 3 4 4 2 5 1 6 3 7 8 8 9 9 10 10 11 11 12 12 13 13
REMARK SMILES IDX 14 14
REMARK H PARENT
REMARK Flexibility Score: inf
ROOT
ATOM      1  C   UNL     1      27.226  33.604   3.680  1.00  0.00     0.000 C 
ENDROOT
BRANCH   1   2
ATOM      2  C   UNL     1      28.614  34.184   4.003  1.00  0.00     0.000 C 
BRANCH   2   3
ATOM      3  C   UNL     1      29.719  33.114   4.016  1.00  0.00     0.006 C 
BRANCH   3   4
ATOM      4  C   UNL     1      31.012  33.607   3.350  1.00  0.00     0.053 C 
BRANCH   4   5
ATOM      5  C   UNL     1      31.402  32.744   2.190  1.00  0.00     0.041 C 
ATOM      6  O   UNL     1      30.544  32.412   1.330  1.00  0.00    -0.550 OA
ATOM      7  O   UNL     1      32.721  32.336   2.038  1.00  0.00    -0.550 OA
ENDBRANCH   4   5
ENDBRANCH   3   4
ENDBRANCH   2   3
ENDBRANCH   1   2
BRANCH   1   8
ATOM      8  C   UNL     1      27.106  32.941   2.293  1.00  0.00     0.000 C 
BRANCH   8   9
ATOM      9  C   UNL     1      27.053  33.920   1.102  1.00  0.00     0.000 C 
BRANCH   9  10
ATOM     10  C   UNL     1      25.742  33.891   0.293  1.00  0.00     0.006 C 
BRANCH  10  11
ATOM     11  C   UNL     1      24.665  32.953   0.862  1.00  0.00     0.053 C 
BRANCH  11  12
ATOM     12  C   UNL     1      23.393  33.018   0.074  1.00  0.00     0.041 C 
ATOM     13  O   UNL     1      22.907  34.132  -0.255  1.00  0.00    -0.550 OA
ATOM     14  O   UNL     1      22.727  31.847  -0.269  1.00  0.00    -0.550 OA
ENDBRANCH  11  12
ENDBRANCH  10  11
ENDBRANCH   9  10
ENDBRANCH   8   9
ENDBRANCH   1   8
TORSDOF 9
ENDMDL
MODEL 3
REMARK VINA RESULT:    -3.982      1.225      6.120
REMARK INTER + INTRA:          -6.631
REMARK INTER:                  -5.877
REMARK INTRA:                  -0.754
REMARK UNBOUND:                -0.554
REMARK SMILES O=C([O-])CCCCCCCCC(=O)[O-]
REMARK SMILES IDX 7 1 6 2 5 3 4 4 2 5 1 6 3 7 8 8 9 9 10 10 11 11 12 12 13 13
REMARK SMILES IDX 14 14
REMARK H PARENT
REMARK Flexibility Score: inf
ROOT
ATOM      1  C   UNL     1      28.629  34.013   4.253  1.00  0.00     0.000 C 
ENDROOT
BRANCH   1   2
ATOM      2  C   UNL     1      29.733  32.993   3.926  1.00  0.00     0.000 C 
BRANCH   2   3
ATOM      3  C   UNL     1      30.842  33.579   3.037  1.00  0.00     0.006 C 
BRANCH   3   4
ATOM      4  C   UNL     1      30.894  32.907   1.657  1.00  0.00     0.053 C 
BRANCH   4   5
ATOM      5  C   UNL     1      30.471  33.845   0.568  1.00  0.00     0.041 C 
ATOM      6  O   UNL     1      29.772  34.857   0.839  1.00  0.00    -0.550 OA
ATOM      7  O   UNL     1      30.880  33.622  -0.741  1.00  0.00    -0.550 OA
ENDBRANCH   4   5
ENDBRANCH   3   4
ENDBRANCH   2   3
ENDBRANCH   1   2
BRANCH   1   8
ATOM      8  C   UNL     1      27.228  33.648   3.721  1.00  0.00     0.000 C 
BRANCH   8   9
ATOM      9  C   UNL     1      27.217  32.851   2.400  1.00  0.00     0.000 C 
BRANCH   9  10
ATOM     10  C   UNL     1      26.459  33.526   1.239  1.00  0.00     0.006 C 
BRANCH  10  11
ATOM     11  C   UNL     1      25.053  34.028   1.606  1.00  0.00     0.053 C 
BRANCH  11  12
ATOM     12  C   UNL     1      24.022  33.574   0.620  1.00  0.00     0.041 C 
ATOM     13  O   UNL     1      23.690  32.361   0.561  1.00  0.00    -0.550 OA
ATOM     14  O   UNL     1      23.451  34.488  -0.258  1.00  0.00    -0.550 OA
ENDBRANCH  11  12
ENDBRANCH  10  11
ENDBRANCH   9  10
ENDBRANCH   8   9
ENDBRANCH   1   8
TORSDOF 9
ENDMDL
MODEL 4
REMARK VINA RESULT:    -3.970      0.204      6.723
REMARK INTER + INTRA:          -6.612
REMARK INTER:                  -6.039
REMARK INTRA:                  -0.573
REMARK UNBOUND:                -0.554
REMARK SMILES O=C([O-])CCCCCCCCC(=O)[O-]
REMARK SMILES IDX 7 1 6 2 5 3 4 4 2 5 1 6 3 7 8 8 9 9 10 10 11 11 12 12 13 13
REMARK SMILES IDX 14 14
REMARK H PARENT
REMARK Flexibility Score: inf
ROOT
ATOM      1  C   UNL     1      28.621  34.022   4.264  1.00  0.00     0.000 C 
ENDROOT
BRANCH   1   2
ATOM      2  C   UNL     1      29.749  33.069   3.831  1.00  0.00     0.000 C 
BRANCH   2   3
ATOM      3  C   UNL     1      30.764  33.736   2.887  1.00  0.00     0.006 C 
BRANCH   3   4
ATOM      4  C   UNL     1      30.923  32.966   1.569  1.00  0.00     0.053 C 
BRANCH   4   5
ATOM      5  C   UNL     1      32.365  32.752   1.223  1.00  0.00     0.041 C 
ATOM      6  O   UNL     1      32.772  32.961   0.050  1.00  0.00    -0.550 OA
ATOM      7  O   UNL     1      33.266  32.358   2.204  1.00  0.00    -0.550 OA
ENDBRANCH   4   5
ENDBRANCH   3   4
ENDBRANCH   2   3
ENDBRANCH   1   2
BRANCH   1   8
ATOM      8  C   UNL     1      27.229  33.685   3.690  1.00  0.00     0.000 C 
BRANCH   8   9
ATOM      9  C   UNL     1      27.241  32.871   2.381  1.00  0.00     0.000 C 
BRANCH   9  10
ATOM     10  C   UNL     1      26.643  33.595   1.158  1.00  0.00     0.006 C 
BRANCH  10  11
ATOM     11  C   UNL     1      25.372  34.406   1.460  1.00  0.00     0.053 C 
BRANCH  11  12
ATOM     12  C   UNL     1      24.174  33.852   0.752  1.00  0.00     0.041 C 
ATOM     13  O   UNL     1      24.014  32.606   0.654  1.00  0.00    -0.550 OA
ATOM     14  O   UNL     1      23.250  34.712   0.172  1.00  0.00    -0.550 OA
ENDBRANCH  11  12
ENDBRANCH  10  11
ENDBRANCH   9  10
ENDBRANCH   8   9
ENDBRANCH   1   8
TORSDOF 9
ENDMDL
MODEL 5
REMARK VINA RESULT:    -3.963      1.203      1.546
REMARK INTER + INTRA:          -6.603
REMARK INTER:                  -5.889
REMARK INTRA:                  -0.714
REMARK UNBOUND:                -0.554
REMARK SMILES O=C([O-])CCCCCCCCC(=O)[O-]
REMARK SMILES IDX 7 1 6 2 5 3 4 4 2 5 1 6 3 7 8 8 9 9 10 10 11 11 12 12 13 13
REMARK SMILES IDX 14 14
REMARK H PARENT
REMARK Flexibility Score: inf
ROOT
ATOM      1  C   UNL     1      27.205  33.801   3.659  1.00  0.00     0.000 C 
ENDROOT
BRANCH   1   2
ATOM      2  C   UNL     1      27.109  32.907   2.410  1.00  0.00     0.000 C 
BRANCH   2   3
ATOM      3  C   UNL     1      26.467  33.625   1.211  1.00  0.00     0.006 C 
BRANCH   3   4
ATOM      4  C   UNL     1      24.965  33.864   1.415  1.00  0.00     0.053 C 
BRANCH   4   5
ATOM      5  C   UNL     1      24.150  33.230   0.329  1.00  0.00     0.041 C 
ATOM      6  O   UNL     1      23.488  32.184   0.562  1.00  0.00    -0.550 OA
ATOM      7  O   UNL     1      24.091  33.816  -0.929  1.00  0.00    -0.550 OA
ENDBRANCH   4   5
ENDBRANCH   3   4
ENDBRANCH   2   3
ENDBRANCH   1   2
BRANCH   1   8
ATOM      8  C   UNL     1      28.639  34.070   4.158  1.00  0.00     0.000 C 
BRANCH   8   9
ATOM      9  C   UNL     1      29.643  32.925   3.911  1.00  0.00     0.000 C 
BRANCH   9  10
ATOM     10  C   UNL     1      30.931  33.337   3.171  1.00  0.00     0.006 C 
BRANCH  10  11
ATOM     11  C   UNL     1      30.735  34.449   2.127  1.00  0.00     0.053 C 
BRANCH  11  12
ATOM     12  C   UNL     1      30.483  33.894   0.760  1.00  0.00     0.041 C 
ATOM     13  O   UNL     1      29.649  34.446  -0.006  1.00  0.00    -0.550 OA
ATOM     14  O   UNL     1      31.146  32.746   0.342  1.00  0.00    -0.550 OA
ENDBRANCH  11  12
ENDBRANCH  10  11
ENDBRANCH   9  10
ENDBRANCH   8   9
ENDBRANCH   1   8
TORSDOF 9
ENDMDL
MODEL 6
REMARK VINA RESULT:    -3.909      0.965      1.599
REMARK INTER + INTRA:          -6.520
REMARK INTER:                  -5.813
REMARK INTRA:                  -0.707
REMARK UNBOUND:                -0.554
REMARK SMILES O=C([O-])CCCCCCCCC(=O)[O-]
REMARK SMILES IDX 7 1 6 2 5 3 4 4 2 5 1 6 3 7 8 8 9 9 10 10 11 11 12 12 13 13
REMARK SMILES IDX 14 14
REMARK H PARENT
REMARK Flexibility Score: inf
ROOT
ATOM      1  C   UNL     1      28.646  34.236   3.823  1.00  0.00     0.000 C 
ENDROOT
BRANCH   1   2
ATOM      2  C   UNL     1      27.234  33.655   3.634  1.00  0.00     0.000 C 
BRANCH   2   3
ATOM      3  C   UNL     1      27.076  32.891   2.308  1.00  0.00     0.006 C 
BRANCH   3   4
ATOM      4  C   UNL     1      26.543  33.788   1.183  1.00  0.00     0.053 C 
BRANCH   4   5
ATOM      5  C   UNL     1      25.048  33.735   1.093  1.00  0.00     0.041 C 
ATOM      6  O   UNL     1      24.364  34.776   1.278  1.00  0.00    -0.550 OA
ATOM      7  O   UNL     1      24.412  32.543   0.766  1.00  0.00    -0.550 OA
ENDBRANCH   4   5
ENDBRANCH   3   4
ENDBRANCH   2   3
ENDBRANCH   1   2
BRANCH   1   8
ATOM      8  C   UNL     1      29.740  33.196   4.138  1.00  0.00     0.000 C 
BRANCH   8   9
ATOM      9  C   UNL     1      30.961  33.226   3.197  1.00  0.00     0.000 C 
BRANCH   9  10
ATOM     10  C   UNL     1      30.755  34.014   1.887  1.00  0.00     0.006 C 
BRANCH  10  11
ATOM     11  C   UNL     1      30.855  33.162   0.612  1.00  0.00     0.053 C 
BRANCH  11  12
ATOM     12  C   UNL     1      32.233  33.189   0.028  1.00  0.00     0.041 C 
ATOM     13  O   UNL     1      33.136  33.887   0.562  1.00  0.00    -0.550 OA
ATOM     14  O   UNL     1      32.513  32.468  -1.127  1.00  0.00    -0.550 OA
ENDBRANCH  11  12
ENDBRANCH  10  11
ENDBRANCH   9  10
ENDBRANCH   8   9
ENDBRANCH   1   8
TORSDOF 9
ENDMDL
MODEL 7
REMARK VINA RESULT:    -3.786      2.169      2.314
REMARK INTER + INTRA:          -6.332
REMARK INTER:                  -5.523
REMARK INTRA:                  -0.809
REMARK UNBOUND:                -0.554
REMARK SMILES O=C([O-])CCCCCCCCC(=O)[O-]
REMARK SMILES IDX 7 1 6 2 5 3 4 4 2 5 1 6 3 7 8 8 9 9 10 10 11 11 12 12 13 13
REMARK SMILES IDX 14 14
REMARK H PARENT
REMARK Flexibility Score: inf
ROOT
ATOM      1  C   UNL     1      27.160  33.553   3.770  1.00  0.00     0.000 C 
ENDROOT
BRANCH   1   2
ATOM      2  C   UNL     1      27.161  32.891   2.381  1.00  0.00     0.000 C 
BRANCH   2   3
ATOM      3  C   UNL     1      26.938  33.898   1.240  1.00  0.00     0.006 C 
BRANCH   3   4
ATOM      4  C   UNL     1      26.166  35.140   1.707  1.00  0.00     0.053 C 
BRANCH   4   5
ATOM      5  C   UNL     1      27.019  36.371   1.664  1.00  0.00     0.041 C 
ATOM      6  O   UNL     1      28.264  36.274   1.499  1.00  0.00    -0.550 OA
ATOM      7  O   UNL     1      26.435  37.627   1.769  1.00  0.00    -0.550 OA
ENDBRANCH   4   5
ENDBRANCH   3   4
ENDBRANCH   2   3
ENDBRANCH   1   2
BRANCH   1   8
ATOM      8  C   UNL     1      28.546  34.003   4.276  1.00  0.00     0.000 C 
BRANCH   8   9
ATOM      9  C   UNL     1      29.727  33.122   3.821  1.00  0.00     0.000 C 
BRANCH   9  10
ATOM     10  C   UNL     1      30.759  33.831   2.921  1.00  0.00     0.006 C 
BRANCH  10  11
ATOM     11  C   UNL     1      30.899  33.223   1.516  1.00  0.00     0.053 C 
BRANCH  11  12
ATOM     12  C   UNL     1      32.299  32.772   1.239  1.00  0.00     0.041 C 
ATOM     13  O   UNL     1      33.049  32.409   2.185  1.00  0.00    -0.550 OA
ATOM     14  O   UNL     1      32.789  32.782  -0.062  1.00  0.00    -0.550 OA
ENDBRANCH  11  12
ENDBRANCH  10  11
ENDBRANCH   9  10
ENDBRANCH   8   9
ENDBRANCH   1   8
TORSDOF 9
ENDMDL
MODEL 8
REMARK VINA RESULT:    -3.769      1.446      6.434
REMARK INTER + INTRA:          -6.305
REMARK INTER:                  -5.935
REMARK INTRA:                  -0.371
REMARK UNBOUND:                -0.554
REMARK SMILES O=C([O-])CCCCCCCCC(=O)[O-]
REMARK SMILES IDX 7 1 6 2 5 3 4 4 2 5 1 6 3 7 8 8 9 9 10 10 11 11 12 12 13 13
REMARK SMILES IDX 14 14
REMARK H PARENT
REMARK Flexibility Score: inf
ROOT
ATOM      1  C   UNL     1      30.793  33.495   2.877  1.00  0.00     0.000 C 
ENDROOT
BRANCH   1   2
ATOM      2  C   UNL     1      32.282  33.253   3.183  1.00  0.00     0.000 C 
BRANCH   2   3
ATOM      3  C   UNL     1      33.017  32.536   2.038  1.00  0.00     0.006 C 
BRANCH   3   4
ATOM      4  C   UNL     1      33.274  33.465   0.843  1.00  0.00     0.053 C 
BRANCH   4   5
ATOM      5  C   UNL     1      32.678  32.922  -0.420  1.00  0.00     0.041 C 
ATOM      6  O   UNL     1      33.422  32.452  -1.320  1.00  0.00    -0.550 OA
ATOM      7  O   UNL     1      31.299  32.901  -0.586  1.00  0.00    -0.550 OA
ENDBRANCH   4   5
ENDBRANCH   3   4
ENDBRANCH   2   3
ENDBRANCH   1   2
BRANCH   1   8
ATOM      8  C   UNL     1      29.830  33.171   4.037  1.00  0.00     0.000 C 
BRANCH   8   9
ATOM      9  C   UNL     1      28.438  33.826   3.935  1.00  0.00     0.000 C 
BRANCH   9  10
ATOM     10  C   UNL     1      27.821  33.828   2.522  1.00  0.00     0.006 C 
BRANCH  10  11
ATOM     11  C   UNL     1      26.488  33.071   2.411  1.00  0.00     0.053 C 
BRANCH  11  12
ATOM     12  C   UNL     1      25.813  33.317   1.098  1.00  0.00     0.041 C 
ATOM     13  O   UNL     1      26.339  34.081   0.246  1.00  0.00    -0.550 OA
ATOM     14  O   UNL     1      24.583  32.728   0.827  1.00  0.00    -0.550 OA
ENDBRANCH  11  12
ENDBRANCH  10  11
ENDBRANCH   9  10
ENDBRANCH   8   9
ENDBRANCH   1   8
TORSDOF 9
ENDMDL
MODEL 9
REMARK VINA RESULT:    -3.756      2.388      5.642
REMARK INTER + INTRA:          -6.286
REMARK INTER:                  -5.397
REMARK INTRA:                  -0.889
REMARK UNBOUND:                -0.554
REMARK SMILES O=C([O-])CCCCCCCCC(=O)[O-]
REMARK SMILES IDX 7 1 6 2 5 3 4 4 2 5 1 6 3 7 8 8 9 9 10 10 11 11 12 12 13 13
REMARK SMILES IDX 14 14
REMARK H PARENT
REMARK Flexibility Score: inf
ROOT
ATOM      1  C   UNL     1      28.670  34.100   4.034  1.00  0.00     0.000 C 
ENDROOT
BRANCH   1   2
ATOM      2  C   UNL     1      29.784  33.038   4.070  1.00  0.00     0.000 C 
BRANCH   2   3
ATOM      3  C   UNL     1      30.956  33.373   3.132  1.00  0.00     0.006 C 
BRANCH   3   4
ATOM      4  C   UNL     1      30.632  33.058   1.665  1.00  0.00     0.053 C 
BRANCH   4   5
ATOM      5  C   UNL     1      30.473  34.306   0.852  1.00  0.00     0.041 C 
ATOM      6  O   UNL     1      30.083  34.238  -0.344  1.00  0.00    -0.550 OA
ATOM      7  O   UNL     1      30.719  35.547   1.426  1.00  0.00    -0.550 OA
ENDBRANCH   4   5
ENDBRANCH   3   4
ENDBRANCH   2   3
ENDBRANCH   1   2
BRANCH   1   8
ATOM      8  C   UNL     1      27.256  33.549   3.761  1.00  0.00     0.000 C 
BRANCH   8   9
ATOM      9  C   UNL     1      27.045  32.956   2.353  1.00  0.00     0.000 C 
BRANCH   9  10
ATOM     10  C   UNL     1      26.733  33.988   1.251  1.00  0.00     0.006 C 
BRANCH  10  11
ATOM     11  C   UNL     1      25.679  35.035   1.644  1.00  0.00     0.053 C 
BRANCH  11  12
ATOM     12  C   UNL     1      26.277  36.399   1.798  1.00  0.00     0.041 C 
ATOM     13  O   UNL     1      25.536  37.401   1.985  1.00  0.00    -0.550 OA
ATOM     14  O   UNL     1      27.653  36.570   1.703  1.00  0.00    -0.550 OA
ENDBRANCH  11  12
ENDBRANCH  10  11
ENDBRANCH   9  10
ENDBRANCH   8   9
ENDBRANCH   1   8
TORSDOF 9
ENDMDL
