MODEL 1
REMARK VINA RESULT:    -4.397      0.000      0.000
REMARK INTER + INTRA:          -5.063
REMARK INTER:                  -4.911
REMARK INTRA:                  -0.152
REMARK UNBOUND:                -0.152
REMARK SMILES COc1cc2ccc(=O)oc2cc1OC
REMARK SMILES IDX 3 1 13 2 12 3 11 4 5 5 4 6 6 7 7 8 8 9 9 10 10 11 2 12 1 13
REMARK SMILES IDX 14 14 15 15
REMARK H PARENT
REMARK Flexibility Score: inf
ROOT
ATOM      1  C   UNL     1     -33.315 -22.116 -36.532  1.00  0.00     0.161 A 
ATOM      2  C   UNL     1     -32.601 -23.281 -36.201  1.00  0.00     0.164 A 
ATOM      3  C   UNL     1     -31.780 -23.297 -35.056  1.00  0.00     0.098 A 
ATOM      4  C   UNL     1     -31.672 -22.162 -34.247  1.00  0.00     0.142 A 
ATOM      5  C   UNL     1     -32.389 -20.994 -34.578  1.00  0.00     0.022 A 
ATOM      6  C   UNL     1     -33.207 -20.973 -35.716  1.00  0.00     0.062 A 
ATOM      7  C   UNL     1     -32.260 -19.875 -33.749  1.00  0.00     0.019 A 
ATOM      8  C   UNL     1     -31.434 -19.946 -32.627  1.00  0.00     0.094 A 
ATOM      9  C   UNL     1     -30.754 -21.139 -32.361  1.00  0.00     0.336 A 
ATOM     10  O   UNL     1     -30.004 -21.223 -31.354  1.00  0.00    -0.246 OA
ATOM     11  O   UNL     1     -30.895 -22.187 -33.167  1.00  0.00    -0.423 OA
ENDROOT
BRANCH   1  12
ATOM     12  O   UNL     1     -34.123 -22.137 -37.680  1.00  0.00    -0.493 OA
ATOM     13  C   UNL     1     -33.707 -21.694 -38.968  1.00  0.00     0.278 C 
ENDBRANCH   1  12
BRANCH   2  14
ATOM     14  O   UNL     1     -32.733 -24.402 -37.036  1.00  0.00    -0.493 OA
ATOM     15  C   UNL     1     -31.733 -24.856 -37.941  1.00  0.00     0.278 C 
ENDBRANCH   2  14
TORSDOF 2
ENDMDL
MODEL 2
REMARK VINA RESULT:    -3.556      1.561      5.281
REMARK INTER + INTRA:          -4.124
REMARK INTER:                  -4.021
REMARK INTRA:                  -0.103
REMARK UNBOUND:                -0.152
REMARK SMILES COc1cc2ccc(=O)oc2cc1OC
REMARK SMILES IDX 3 1 13 2 12 3 11 4 5 5 4 6 6 7 7 8 8 9 9 10 10 11 2 12 1 13
REMARK SMILES IDX 14 14 15 15
REMARK H PARENT
REMARK Flexibility Score: inf
ROOT
ATOM      1  C   UNL     1     -31.275 -20.512 -32.287  1.00  0.00     0.161 A 
ATOM      2  C   UNL     1     -30.841 -21.824 -32.541  1.00  0.00     0.164 A 
ATOM      3  C   UNL     1     -31.280 -22.494 -33.701  1.00  0.00     0.098 A 
ATOM      4  C   UNL     1     -32.145 -21.862 -34.598  1.00  0.00     0.142 A 
ATOM      5  C   UNL     1     -32.581 -20.546 -34.343  1.00  0.00     0.022 A 
ATOM      6  C   UNL     1     -32.146 -19.875 -33.192  1.00  0.00     0.062 A 
ATOM      7  C   UNL     1     -33.446 -19.940 -35.260  1.00  0.00     0.019 A 
ATOM      8  C   UNL     1     -33.849 -20.649 -36.392  1.00  0.00     0.094 A 
ATOM      9  C   UNL     1     -33.375 -21.952 -36.579  1.00  0.00     0.336 A 
ATOM     10  O   UNL     1     -33.728 -22.609 -37.594  1.00  0.00    -0.246 OA
ATOM     11  O   UNL     1     -32.554 -22.503 -35.690  1.00  0.00    -0.423 OA
ENDROOT
BRANCH   1  12
ATOM     12  O   UNL     1     -30.817 -19.875 -31.122  1.00  0.00    -0.493 OA
ATOM     13  C   UNL     1     -31.487 -19.910 -29.866  1.00  0.00     0.278 C 
ENDBRANCH   1  12
BRANCH   2  14
ATOM     14  O   UNL     1     -29.972 -22.428 -31.618  1.00  0.00    -0.493 OA
ATOM     15  C   UNL     1     -30.386 -23.302 -30.574  1.00  0.00     0.278 C 
ENDBRANCH   2  14
TORSDOF 2
ENDMDL
MODEL 3
REMARK VINA RESULT:    -3.241      1.408      2.809
REMARK INTER + INTRA:          -3.773
REMARK INTER:                  -4.003
REMARK INTRA:                   0.230
REMARK UNBOUND:                -0.152
REMARK SMILES COc1cc2ccc(=O)oc2cc1OC
REMARK SMILES IDX 3 1 13 2 12 3 11 4 5 5 4 6 6 7 7 8 8 9 9 10 10 11 2 12 1 13
REMARK SMILES IDX 14 14 15 15
REMARK H PARENT
REMARK Flexibility Score: inf
ROOT
ATOM      1  C   UNL     1     -32.946 -22.165 -35.494  1.00  0.00     0.161 A 
ATOM      2  C   UNL     1     -33.251 -20.803 -35.326  1.00  0.00     0.164 A 
ATOM      3  C   UNL     1     -32.682 -20.087 -34.254  1.00  0.00     0.098 A 
ATOM      4  C   UNL     1     -31.819 -20.722 -33.357  1.00  0.00     0.142 A 
ATOM      5  C   UNL     1     -31.514 -22.088 -33.525  1.00  0.00     0.022 A 
ATOM      6  C   UNL     1     -32.076 -22.805 -34.590  1.00  0.00     0.062 A 
ATOM      7  C   UNL     1     -30.646 -22.695 -32.611  1.00  0.00     0.019 A 
ATOM      8  C   UNL     1     -30.113 -21.938 -31.568  1.00  0.00     0.094 A 
ATOM      9  C   UNL     1     -30.461 -20.587 -31.465  1.00  0.00     0.336 A 
ATOM     10  O   UNL     1     -29.989 -19.887 -30.530  1.00  0.00    -0.246 OA
ATOM     11  O   UNL     1     -31.288 -20.036 -32.348  1.00  0.00    -0.423 OA
ENDROOT
BRANCH   1  12
ATOM     12  O   UNL     1     -33.530 -22.847 -36.574  1.00  0.00    -0.493 OA
ATOM     13  C   UNL     1     -32.958 -23.983 -37.215  1.00  0.00     0.278 C 
ENDBRANCH   1  12
BRANCH   2  14
ATOM     14  O   UNL     1     -34.121 -20.198 -36.246  1.00  0.00    -0.493 OA
ATOM     15  C   UNL     1     -33.884 -20.116 -37.648  1.00  0.00     0.278 C 
ENDBRANCH   2  14
TORSDOF 2
ENDMDL
MODEL 4
REMARK VINA RESULT:    -3.188      1.636      5.770
REMARK INTER + INTRA:          -3.713
REMARK INTER:                  -3.713
REMARK INTRA:                   0.000
REMARK UNBOUND:                -0.152
REMARK SMILES COc1cc2ccc(=O)oc2cc1OC
REMARK SMILES IDX 3 1 13 2 12 3 11 4 5 5 4 6 6 7 7 8 8 9 9 10 10 11 2 12 1 13
REMARK SMILES IDX 14 14 15 15
REMARK H PARENT
REMARK Flexibility Score: inf
ROOT
ATOM      1  C   UNL     1     -30.737 -22.050 -32.391  1.00  0.00     0.161 A 
ATOM      2  C   UNL     1     -31.143 -20.704 -32.411  1.00  0.00     0.164 A 
ATOM      3  C   UNL     1     -31.926 -20.226 -33.481  1.00  0.00     0.098 A 
ATOM      4  C   UNL     1     -32.300 -21.080 -34.522  1.00  0.00     0.142 A 
ATOM      5  C   UNL     1     -31.892 -22.430 -34.502  1.00  0.00     0.022 A 
ATOM      6  C   UNL     1     -31.114 -22.911 -33.440  1.00  0.00     0.062 A 
ATOM      7  C   UNL     1     -32.282 -23.260 -35.558  1.00  0.00     0.019 A 
ATOM      8  C   UNL     1     -33.057 -22.734 -36.592  1.00  0.00     0.094 A 
ATOM      9  C   UNL     1     -33.424 -21.385 -36.543  1.00  0.00     0.336 A 
ATOM     10  O   UNL     1     -34.124 -20.891 -37.467  1.00  0.00    -0.246 OA
ATOM     11  O   UNL     1     -33.039 -20.618 -35.527  1.00  0.00    -0.423 OA
ENDROOT
BRANCH   1  12
ATOM     12  O   UNL     1     -29.959 -22.492 -31.310  1.00  0.00    -0.493 OA
ATOM     13  C   UNL     1     -30.405 -23.409 -30.315  1.00  0.00     0.278 C 
ENDBRANCH   1  12
BRANCH   2  14
ATOM     14  O   UNL     1     -30.750 -19.875 -31.349  1.00  0.00    -0.493 OA
ATOM     15  C   UNL     1     -31.341 -19.888 -30.054  1.00  0.00     0.278 C 
ENDBRANCH   2  14
TORSDOF 2
ENDMDL
MODEL 5
REMARK VINA RESULT:    -1.969      1.771      2.621
REMARK INTER + INTRA:          -2.352
REMARK INTER:                  -2.770
REMARK INTRA:                   0.418
REMARK UNBOUND:                -0.152
REMARK SMILES COc1cc2ccc(=O)oc2cc1OC
REMARK SMILES IDX 3 1 13 2 12 3 11 4 5 5 4 6 6 7 7 8 8 9 9 10 10 11 2 12 1 13
REMARK SMILES IDX 14 14 15 15
REMARK H PARENT
REMARK Flexibility Score: inf
ROOT
ATOM      1  C   UNL     1     -32.042 -21.149 -34.374  1.00  0.00     0.161 A 
ATOM      2  C   UNL     1     -31.782 -22.522 -34.223  1.00  0.00     0.164 A 
ATOM      3  C   UNL     1     -31.201 -22.998 -33.030  1.00  0.00     0.098 A 
ATOM      4  C   UNL     1     -30.881 -22.113 -31.997  1.00  0.00     0.142 A 
ATOM      5  C   UNL     1     -31.142 -20.735 -32.148  1.00  0.00     0.022 A 
ATOM      6  C   UNL     1     -31.720 -20.257 -33.331  1.00  0.00     0.062 A 
ATOM      7  C   UNL     1     -30.811 -19.875 -31.096  1.00  0.00     0.019 A 
ATOM      8  C   UNL     1     -30.238 -20.399 -29.937  1.00  0.00     0.094 A 
ATOM      9  C   UNL     1     -30.009 -21.777 -29.859  1.00  0.00     0.336 A 
ATOM     10  O   UNL     1     -29.492 -22.270 -28.822  1.00  0.00    -0.246 OA
ATOM     11  O   UNL     1     -30.333 -22.572 -30.875  1.00  0.00    -0.423 OA
ENDROOT
BRANCH   1  12
ATOM     12  O   UNL     1     -32.622 -20.711 -35.575  1.00  0.00    -0.493 OA
ATOM     13  C   UNL     1     -33.855 -21.194 -36.099  1.00  0.00     0.278 C 
ENDBRANCH   1  12
BRANCH   2  14
ATOM     14  O   UNL     1     -32.116 -23.382 -35.281  1.00  0.00    -0.493 OA
ATOM     15  C   UNL     1     -31.303 -23.604 -36.428  1.00  0.00     0.278 C 
ENDBRANCH   2  14
TORSDOF 2
ENDMDL
MODEL 6
REMARK VINA RESULT:    -1.804      1.472      5.254
REMARK INTER + INTRA:          -2.168
REMARK INTER:                  -2.436
REMARK INTRA:                   0.268
REMARK UNBOUND:                -0.152
REMARK SMILES COc1cc2ccc(=O)oc2cc1OC
REMARK SMILES IDX 3 1 13 2 12 3 11 4 5 5 4 6 6 7 7 8 8 9 9 10 10 11 2 12 1 13
REMARK SMILES IDX 14 14 15 15
REMARK H PARENT
REMARK Flexibility Score: inf
ROOT
ATOM      1  C   UNL     1     -31.429 -20.774 -33.094  1.00  0.00     0.161 A 
ATOM      2  C   UNL     1     -30.284 -21.568 -33.283  1.00  0.00     0.164 A 
ATOM      3  C   UNL     1     -30.232 -22.475 -34.360  1.00  0.00     0.098 A 
ATOM      4  C   UNL     1     -31.311 -22.592 -35.240  1.00  0.00     0.142 A 
ATOM      5  C   UNL     1     -32.459 -21.796 -35.051  1.00  0.00     0.022 A 
ATOM      6  C   UNL     1     -32.516 -20.891 -33.983  1.00  0.00     0.062 A 
ATOM      7  C   UNL     1     -33.523 -21.935 -35.949  1.00  0.00     0.019 A 
ATOM      8  C   UNL     1     -33.418 -22.849 -36.997  1.00  0.00     0.094 A 
ATOM      9  C   UNL     1     -32.247 -23.604 -37.122  1.00  0.00     0.336 A 
ATOM     10  O   UNL     1     -32.133 -24.435 -38.062  1.00  0.00    -0.246 OA
ATOM     11  O   UNL     1     -31.252 -23.452 -36.254  1.00  0.00    -0.423 OA
ENDROOT
BRANCH   1  12
ATOM     12  O   UNL     1     -31.445 -19.880 -32.012  1.00  0.00    -0.493 OA
ATOM     13  C   UNL     1     -31.469 -20.270 -30.643  1.00  0.00     0.278 C 
ENDBRANCH   1  12
BRANCH   2  14
ATOM     14  O   UNL     1     -29.219 -21.424 -32.380  1.00  0.00    -0.493 OA
ATOM     15  C   UNL     1     -28.296 -20.340 -32.387  1.00  0.00     0.278 C 
ENDBRANCH   2  14
TORSDOF 2
ENDMDL
