MODEL 1
REMARK VINA RESULT:    -3.245      0.000      0.000
REMARK INTER + INTRA:          -3.639
REMARK INTER:                  -3.624
REMARK INTRA:                  -0.015
REMARK UNBOUND:                -0.015
REMARK SMILES CCCC(=O)[O-]
REMARK SMILES IDX 3 1 4 2 5 3 6 4 2 5 1 6
REMARK H PARENT
REMARK Flexibility Score: inf
ROOT
ATOM      1  C   UNL     1      15.954  29.061  63.667  1.00  0.00     0.052 C 
ENDROOT
BRANCH   1   2
ATOM      2  C   UNL     1      15.761  27.627  64.044  1.00  0.00     0.041 C 
ATOM      3  O   UNL     1      14.605  27.128  64.068  1.00  0.00    -0.550 OA
ATOM      4  O   UNL     1      16.852  26.853  64.419  1.00  0.00    -0.550 OA
ENDBRANCH   1   2
BRANCH   1   5
ATOM      5  C   UNL     1      16.347  29.178  62.192  1.00  0.00     0.003 C 
ATOM      6  C   UNL     1      17.507  30.152  62.007  1.00  0.00     0.004 C 
ENDBRANCH   1   5
TORSDOF 2
ENDMDL
MODEL 2
REMARK VINA RESULT:    -3.214      2.316      3.188
REMARK INTER + INTRA:          -3.605
REMARK INTER:                  -3.566
REMARK INTRA:                  -0.039
REMARK UNBOUND:                -0.015
REMARK SMILES CCCC(=O)[O-]
REMARK SMILES IDX 3 1 4 2 5 3 6 4 2 5 1 6
REMARK H PARENT
REMARK Flexibility Score: inf
ROOT
ATOM      1  C   UNL     1      15.357  29.016  62.322  1.00  0.00     0.052 C 
ENDROOT
BRANCH   1   2
ATOM      2  C   UNL     1      13.869  28.993  62.179  1.00  0.00     0.041 C 
ATOM      3  O   UNL     1      13.229  30.068  62.039  1.00  0.00    -0.550 OA
ATOM      4  O   UNL     1      13.183  27.787  62.248  1.00  0.00    -0.550 OA
ENDBRANCH   1   2
BRANCH   1   5
ATOM      5  C   UNL     1      15.756  28.901  63.796  1.00  0.00     0.003 C 
ATOM      6  C   UNL     1      16.234  27.490  64.127  1.00  0.00     0.004 C 
ENDBRANCH   1   5
TORSDOF 2
ENDMDL
MODEL 3
REMARK VINA RESULT:    -3.152      6.593      7.201
REMARK INTER + INTRA:          -3.535
REMARK INTER:                  -3.499
REMARK INTRA:                  -0.036
REMARK UNBOUND:                -0.015
REMARK SMILES CCCC(=O)[O-]
REMARK SMILES IDX 3 1 4 2 5 3 6 4 2 5 1 6
REMARK H PARENT
REMARK Flexibility Score: inf
ROOT
ATOM      1  C   UNL     1       9.846  29.791  60.213  1.00  0.00     0.052 C 
ENDROOT
BRANCH   1   2
ATOM      2  C   UNL     1      11.027  29.421  61.052  1.00  0.00     0.041 C 
ATOM      3  O   UNL     1      11.111  29.824  62.242  1.00  0.00    -0.550 OA
ATOM      4  O   UNL     1      12.061  28.671  60.506  1.00  0.00    -0.550 OA
ENDBRANCH   1   2
BRANCH   1   5
ATOM      5  C   UNL     1       8.592  29.061  60.702  1.00  0.00     0.003 C 
ATOM      6  C   UNL     1       7.540  30.047  61.199  1.00  0.00     0.004 C 
ENDBRANCH   1   5
TORSDOF 2
ENDMDL
MODEL 4
REMARK VINA RESULT:    -3.149      6.472      7.133
REMARK INTER + INTRA:          -3.531
REMARK INTER:                  -3.495
REMARK INTRA:                  -0.037
REMARK UNBOUND:                -0.015
REMARK SMILES CCCC(=O)[O-]
REMARK SMILES IDX 3 1 4 2 5 3 6 4 2 5 1 6
REMARK H PARENT
REMARK Flexibility Score: inf
ROOT
ATOM      1  C   UNL     1      10.007  29.707  60.125  1.00  0.00     0.052 C 
ENDROOT
BRANCH   1   2
ATOM      2  C   UNL     1      11.111  29.374  61.077  1.00  0.00     0.041 C 
ATOM      3  O   UNL     1      12.025  28.580  60.735  1.00  0.00    -0.550 OA
ATOM      4  O   UNL     1      11.104  29.904  62.362  1.00  0.00    -0.550 OA
ENDBRANCH   1   2
BRANCH   1   5
ATOM      5  C   UNL     1       8.725  28.962  60.509  1.00  0.00     0.003 C 
ATOM      6  C   UNL     1       7.742  29.888  61.219  1.00  0.00     0.004 C 
ENDBRANCH   1   5
TORSDOF 2
ENDMDL
MODEL 5
REMARK VINA RESULT:    -3.126      2.572      3.311
REMARK INTER + INTRA:          -3.507
REMARK INTER:                  -3.467
REMARK INTRA:                  -0.039
REMARK UNBOUND:                -0.015
REMARK SMILES CCCC(=O)[O-]
REMARK SMILES IDX 3 1 4 2 5 3 6 4 2 5 1 6
REMARK H PARENT
REMARK Flexibility Score: inf
ROOT
ATOM      1  C   UNL     1      15.182  28.712  62.644  1.00  0.00     0.052 C 
ENDROOT
BRANCH   1   2
ATOM      2  C   UNL     1      16.030  29.623  61.815  1.00  0.00     0.041 C 
ATOM      3  O   UNL     1      15.777  29.787  60.593  1.00  0.00    -0.550 OA
ATOM      4  O   UNL     1      17.131  30.254  62.381  1.00  0.00    -0.550 OA
ENDBRANCH   1   2
BRANCH   1   5
ATOM      5  C   UNL     1      15.791  28.533  64.037  1.00  0.00     0.003 C 
ATOM      6  C   UNL     1      16.484  27.179  64.164  1.00  0.00     0.004 C 
ENDBRANCH   1   5
TORSDOF 2
ENDMDL
MODEL 6
REMARK VINA RESULT:    -3.096      7.351      7.989
REMARK INTER + INTRA:          -3.472
REMARK INTER:                  -3.430
REMARK INTRA:                  -0.042
REMARK UNBOUND:                -0.015
REMARK SMILES CCCC(=O)[O-]
REMARK SMILES IDX 3 1 4 2 5 3 6 4 2 5 1 6
REMARK H PARENT
REMARK Flexibility Score: inf
ROOT
ATOM      1  C   UNL     1       8.995  28.843  59.995  1.00  0.00     0.052 C 
ENDROOT
BRANCH   1   2
ATOM      2  C   UNL     1       8.641  29.544  61.268  1.00  0.00     0.041 C 
ATOM      3  O   UNL     1       9.490  29.646  62.192  1.00  0.00    -0.550 OA
ATOM      4  O   UNL     1       7.358  30.043  61.454  1.00  0.00    -0.550 OA
ENDBRANCH   1   2
BRANCH   1   5
ATOM      5  C   UNL     1       9.361  29.859  58.909  1.00  0.00     0.003 C 
ATOM      6  C   UNL     1      10.857  30.159  58.919  1.00  0.00     0.004 C 
ENDBRANCH   1   5
TORSDOF 2
ENDMDL
MODEL 7
REMARK VINA RESULT:    -3.093      1.431      2.078
REMARK INTER + INTRA:          -3.470
REMARK INTER:                  -3.435
REMARK INTRA:                  -0.035
REMARK UNBOUND:                -0.015
REMARK SMILES CCCC(=O)[O-]
REMARK SMILES IDX 3 1 4 2 5 3 6 4 2 5 1 6
REMARK H PARENT
REMARK Flexibility Score: inf
ROOT
ATOM      1  C   UNL     1      14.890  29.568  62.392  1.00  0.00     0.052 C 
ENDROOT
BRANCH   1   2
ATOM      2  C   UNL     1      14.385  28.246  62.875  1.00  0.00     0.041 C 
ATOM      3  O   UNL     1      15.023  27.606  63.752  1.00  0.00    -0.550 OA
ATOM      4  O   UNL     1      13.236  27.695  62.321  1.00  0.00    -0.550 OA
ENDBRANCH   1   2
BRANCH   1   5
ATOM      5  C   UNL     1      16.142  29.382  61.531  1.00  0.00     0.003 C 
ATOM      6  C   UNL     1      17.341  30.103  62.141  1.00  0.00     0.004 C 
ENDBRANCH   1   5
TORSDOF 2
ENDMDL
MODEL 8
REMARK VINA RESULT:    -3.088      2.063      2.557
REMARK INTER + INTRA:          -3.464
REMARK INTER:                  -3.427
REMARK INTRA:                  -0.036
REMARK UNBOUND:                -0.015
REMARK SMILES CCCC(=O)[O-]
REMARK SMILES IDX 3 1 4 2 5 3 6 4 2 5 1 6
REMARK H PARENT
REMARK Flexibility Score: inf
ROOT
ATOM      1  C   UNL     1      15.303  28.750  63.184  1.00  0.00     0.052 C 
ENDROOT
BRANCH   1   2
ATOM      2  C   UNL     1      14.059  28.696  62.355  1.00  0.00     0.041 C 
ATOM      3  O   UNL     1      13.290  27.703  62.432  1.00  0.00    -0.550 OA
ATOM      4  O   UNL     1      13.774  29.720  61.461  1.00  0.00    -0.550 OA
ENDBRANCH   1   2
BRANCH   1   5
ATOM      5  C   UNL     1      16.545  28.718  62.289  1.00  0.00     0.003 C 
ATOM      6  C   UNL     1      17.220  30.085  62.235  1.00  0.00     0.004 C 
ENDBRANCH   1   5
TORSDOF 2
ENDMDL
MODEL 9
REMARK VINA RESULT:    -3.006      5.553      6.131
REMARK INTER + INTRA:          -3.372
REMARK INTER:                  -3.339
REMARK INTRA:                  -0.033
REMARK UNBOUND:                -0.015
REMARK SMILES CCCC(=O)[O-]
REMARK SMILES IDX 3 1 4 2 5 3 6 4 2 5 1 6
REMARK H PARENT
REMARK Flexibility Score: inf
ROOT
ATOM      1  C   UNL     1      11.557  28.844  60.232  1.00  0.00     0.052 C 
ENDROOT
BRANCH   1   2
ATOM      2  C   UNL     1      11.779  29.472  61.570  1.00  0.00     0.041 C 
ATOM      3  O   UNL     1      10.799  29.841  62.268  1.00  0.00    -0.550 OA
ATOM      4  O   UNL     1      13.072  29.696  62.027  1.00  0.00    -0.550 OA
ENDBRANCH   1   2
BRANCH   1   5
ATOM      5  C   UNL     1      10.727  29.769  59.337  1.00  0.00     0.003 C 
ATOM      6  C   UNL     1       9.506  29.043  58.778  1.00  0.00     0.004 C 
ENDBRANCH   1   5
TORSDOF 2
ENDMDL
