MODEL 1
REMARK VINA RESULT:    12.089      0.000      0.000
REMARK INTER + INTRA:          20.631
REMARK INTER:                  21.276
REMARK INTRA:                  -0.644
REMARK UNBOUND:                -0.644
REMARK SMILES CCCCCCCCCCCCCCC(=O)[O-]
REMARK SMILES IDX 9 1 10 2 11 3 12 4 13 5 14 6 15 7 16 8 17 9 8 10 7 11 6 12
REMARK SMILES IDX 5 13 4 14 3 15 2 16 1 17
REMARK H PARENT
REMARK Flexibility Score: inf
ROOT
ATOM      1  C   UNL     1     -12.692   0.163 -17.997  1.00  0.00     0.000 C 
ENDROOT
BRANCH   1   2
ATOM      2  C   UNL     1     -11.947  -1.152 -17.686  1.00  0.00     0.000 C 
BRANCH   2   3
ATOM      3  C   UNL     1     -10.511  -1.238 -18.235  1.00  0.00     0.000 C 
BRANCH   3   4
ATOM      4  C   UNL     1      -9.459  -0.732 -17.234  1.00  0.00     0.000 C 
BRANCH   4   5
ATOM      5  C   UNL     1      -8.040  -1.210 -17.579  1.00  0.00     0.006 C 
BRANCH   5   6
ATOM      6  C   UNL     1      -6.963  -0.533 -16.721  1.00  0.00     0.053 C 
BRANCH   6   7
ATOM      7  C   UNL     1      -7.084  -0.966 -15.294  1.00  0.00     0.041 C 
ATOM      8  O   UNL     1      -6.875  -2.167 -14.976  1.00  0.00    -0.550 OA
ATOM      9  O   UNL     1      -7.380  -0.034 -14.306  1.00  0.00    -0.550 OA
ENDBRANCH   6   7
ENDBRANCH   5   6
ENDBRANCH   4   5
ENDBRANCH   3   4
ENDBRANCH   2   3
ENDBRANCH   1   2
BRANCH   1  10
ATOM     10  C   UNL     1     -12.599   1.239 -16.901  1.00  0.00     0.000 C 
BRANCH  10  11
ATOM     11  C   UNL     1     -11.970   2.548 -17.401  1.00  0.00    -0.000 C 
BRANCH  11  12
ATOM     12  C   UNL     1     -12.863   3.220 -18.454  1.00  0.00    -0.000 C 
BRANCH  12  13
ATOM     13  C   UNL     1     -14.360   3.162 -18.098  1.00  0.00    -0.000 C 
BRANCH  13  14
ATOM     14  C   UNL     1     -15.190   4.367 -18.579  1.00  0.00    -0.000 C 
BRANCH  14  15
ATOM     15  C   UNL     1     -14.357   5.396 -19.358  1.00  0.00    -0.000 C 
BRANCH  15  16
ATOM     16  C   UNL     1     -15.259   6.313 -20.192  1.00  0.00    -0.003 C 
ATOM     17  C   UNL     1     -15.107   7.770 -19.768  1.00  0.00     0.004 C 
ENDBRANCH  15  16
ENDBRANCH  14  15
ENDBRANCH  13  14
ENDBRANCH  12  13
ENDBRANCH  11  12
ENDBRANCH  10  11
ENDBRANCH   1  10
TORSDOF 13
ENDMDL
MODEL 2
REMARK VINA RESULT:    12.128      4.461      8.671
REMARK INTER + INTRA:          20.702
REMARK INTER:                  21.246
REMARK INTRA:                  -0.545
REMARK UNBOUND:                -0.644
REMARK SMILES CCCCCCCCCCCCCCC(=O)[O-]
REMARK SMILES IDX 9 1 10 2 11 3 12 4 13 5 14 6 15 7 16 8 17 9 8 10 7 11 6 12
REMARK SMILES IDX 5 13 4 14 3 15 2 16 1 17
REMARK H PARENT
REMARK Flexibility Score: inf
ROOT
ATOM      1  C   UNL     1     -12.589   3.046 -17.918  1.00  0.00     0.000 C 
ENDROOT
BRANCH   1   2
ATOM      2  C   UNL     1     -11.720   3.343 -16.679  1.00  0.00     0.000 C 
BRANCH   2   3
ATOM      3  C   UNL     1     -11.341   4.822 -16.482  1.00  0.00     0.000 C 
BRANCH   3   4
ATOM      4  C   UNL     1     -12.534   5.690 -16.048  1.00  0.00     0.000 C 
BRANCH   4   5
ATOM      5  C   UNL     1     -12.191   7.188 -16.014  1.00  0.00     0.006 C 
BRANCH   5   6
ATOM      6  C   UNL     1     -13.286   8.060 -16.643  1.00  0.00     0.053 C 
BRANCH   6   7
ATOM      7  C   UNL     1     -14.300   8.447 -15.613  1.00  0.00     0.041 C 
ATOM      8  O   UNL     1     -14.129   8.134 -14.405  1.00  0.00    -0.550 OA
ATOM      9  O   UNL     1     -15.412   9.197 -15.978  1.00  0.00    -0.550 OA
ENDBRANCH   6   7
ENDBRANCH   5   6
ENDBRANCH   4   5
ENDBRANCH   3   4
ENDBRANCH   2   3
ENDBRANCH   1   2
BRANCH   1  10
ATOM     10  C   UNL     1     -12.941   1.562 -18.128  1.00  0.00     0.000 C 
BRANCH  10  11
ATOM     11  C   UNL     1     -12.232   0.633 -17.133  1.00  0.00    -0.000 C 
BRANCH  11  12
ATOM     12  C   UNL     1     -12.038  -0.768 -17.731  1.00  0.00    -0.000 C 
BRANCH  12  13
ATOM     13  C   UNL     1     -10.600  -1.017 -18.225  1.00  0.00    -0.000 C 
BRANCH  13  14
ATOM     14  C   UNL     1      -9.493  -0.629 -17.227  1.00  0.00    -0.000 C 
BRANCH  14  15
ATOM     15  C   UNL     1      -8.200  -1.433 -17.424  1.00  0.00    -0.000 C 
BRANCH  15  16
ATOM     16  C   UNL     1      -7.048  -0.826 -16.614  1.00  0.00    -0.003 C 
ATOM     17  C   UNL     1      -7.117  -1.252 -15.151  1.00  0.00     0.004 C 
ENDBRANCH  15  16
ENDBRANCH  14  15
ENDBRANCH  13  14
ENDBRANCH  12  13
ENDBRANCH  11  12
ENDBRANCH  10  11
ENDBRANCH   1  10
TORSDOF 13
ENDMDL
MODEL 3
REMARK VINA RESULT:    12.417      4.373      8.754
REMARK INTER + INTRA:          21.209
REMARK INTER:                  21.753
REMARK INTRA:                  -0.544
REMARK UNBOUND:                -0.644
REMARK SMILES CCCCCCCCCCCCCCC(=O)[O-]
REMARK SMILES IDX 9 1 10 2 11 3 12 4 13 5 14 6 15 7 16 8 17 9 8 10 7 11 6 12
REMARK SMILES IDX 5 13 4 14 3 15 2 16 1 17
REMARK H PARENT
REMARK Flexibility Score: inf
ROOT
ATOM      1  C   UNL     1     -12.981   0.647 -17.618  1.00  0.00     0.000 C 
ENDROOT
BRANCH   1   2
ATOM      2  C   UNL     1     -12.160   1.842 -17.089  1.00  0.00     0.000 C 
BRANCH   2   3
ATOM      3  C   UNL     1     -12.289   3.140 -17.906  1.00  0.00     0.000 C 
BRANCH   3   4
ATOM      4  C   UNL     1     -13.752   3.559 -18.131  1.00  0.00     0.000 C 
BRANCH   4   5
ATOM      5  C   UNL     1     -13.901   4.594 -19.258  1.00  0.00     0.006 C 
BRANCH   5   6
ATOM      6  C   UNL     1     -15.188   5.421 -19.135  1.00  0.00     0.053 C 
BRANCH   6   7
ATOM      7  C   UNL     1     -15.081   6.675 -19.943  1.00  0.00     0.041 C 
ATOM      8  O   UNL     1     -14.595   6.642 -21.104  1.00  0.00    -0.550 OA
ATOM      9  O   UNL     1     -15.566   7.874 -19.434  1.00  0.00    -0.550 OA
ENDBRANCH   6   7
ENDBRANCH   5   6
ENDBRANCH   4   5
ENDBRANCH   3   4
ENDBRANCH   2   3
ENDBRANCH   1   2
BRANCH   1  10
ATOM     10  C   UNL     1     -12.633  -0.713 -16.988  1.00  0.00     0.000 C 
BRANCH  10  11
ATOM     11  C   UNL     1     -11.854  -1.631 -17.941  1.00  0.00    -0.000 C 
BRANCH  11  12
ATOM     12  C   UNL     1     -10.532  -0.981 -18.373  1.00  0.00    -0.000 C 
BRANCH  12  13
ATOM     13  C   UNL     1      -9.466  -0.991 -17.261  1.00  0.00    -0.000 C 
BRANCH  13  14
ATOM     14  C   UNL     1      -8.038  -1.323 -17.733  1.00  0.00    -0.000 C 
BRANCH  14  15
ATOM     15  C   UNL     1      -6.964  -0.476 -17.035  1.00  0.00    -0.000 C 
BRANCH  15  16
ATOM     16  C   UNL     1      -7.209  -0.416 -15.523  1.00  0.00    -0.003 C 
ATOM     17  C   UNL     1      -6.962  -1.772 -14.871  1.00  0.00     0.004 C 
ENDBRANCH  15  16
ENDBRANCH  14  15
ENDBRANCH  13  14
ENDBRANCH  12  13
ENDBRANCH  11  12
ENDBRANCH  10  11
ENDBRANCH   1  10
TORSDOF 13
ENDMDL
MODEL 4
REMARK VINA RESULT:    12.828      4.485      8.493
REMARK INTER + INTRA:          21.932
REMARK INTER:                  22.541
REMARK INTRA:                  -0.609
REMARK UNBOUND:                -0.644
REMARK SMILES CCCCCCCCCCCCCCC(=O)[O-]
REMARK SMILES IDX 9 1 10 2 11 3 12 4 13 5 14 6 15 7 16 8 17 9 8 10 7 11 6 12
REMARK SMILES IDX 5 13 4 14 3 15 2 16 1 17
REMARK H PARENT
REMARK Flexibility Score: inf
ROOT
ATOM      1  C   UNL     1     -13.146   1.865 -18.080  1.00  0.00     0.000 C 
ENDROOT
BRANCH   1   2
ATOM      2  C   UNL     1     -12.554   3.279 -17.901  1.00  0.00     0.000 C 
BRANCH   2   3
ATOM      3  C   UNL     1     -11.644   3.458 -16.672  1.00  0.00     0.000 C 
BRANCH   3   4
ATOM      4  C   UNL     1     -11.435   4.935 -16.296  1.00  0.00     0.000 C 
BRANCH   4   5
ATOM      5  C   UNL     1     -12.736   5.750 -16.365  1.00  0.00     0.006 C 
BRANCH   5   6
ATOM      6  C   UNL     1     -12.746   6.933 -15.388  1.00  0.00     0.053 C 
BRANCH   6   7
ATOM      7  C   UNL     1     -13.469   8.098 -15.986  1.00  0.00     0.041 C 
ATOM      8  O   UNL     1     -14.423   8.638 -15.368  1.00  0.00    -0.550 OA
ATOM      9  O   UNL     1     -13.056   8.621 -17.206  1.00  0.00    -0.550 OA
ENDBRANCH   6   7
ENDBRANCH   5   6
ENDBRANCH   4   5
ENDBRANCH   3   4
ENDBRANCH   2   3
ENDBRANCH   1   2
BRANCH   1  10
ATOM     10  C   UNL     1     -12.567   0.792 -17.142  1.00  0.00     0.000 C 
BRANCH  10  11
ATOM     11  C   UNL     1     -11.808  -0.312 -17.894  1.00  0.00    -0.000 C 
BRANCH  11  12
ATOM     12  C   UNL     1     -10.404  -0.511 -17.306  1.00  0.00    -0.000 C 
BRANCH  12  13
ATOM     13  C   UNL     1      -9.536  -1.476 -18.135  1.00  0.00    -0.000 C 
BRANCH  13  14
ATOM     14  C   UNL     1      -8.231  -1.927 -17.453  1.00  0.00    -0.000 C 
BRANCH  14  15
ATOM     15  C   UNL     1      -7.312  -0.754 -17.081  1.00  0.00    -0.000 C 
BRANCH  15  16
ATOM     16  C   UNL     1      -7.411  -0.432 -15.585  1.00  0.00    -0.003 C 
ATOM     17  C   UNL     1      -6.978  -1.623 -14.735  1.00  0.00     0.004 C 
ENDBRANCH  15  16
ENDBRANCH  14  15
ENDBRANCH  13  14
ENDBRANCH  12  13
ENDBRANCH  11  12
ENDBRANCH  10  11
ENDBRANCH   1  10
TORSDOF 13
ENDMDL
MODEL 5
REMARK VINA RESULT:    14.526      4.435      7.022
REMARK INTER + INTRA:          24.921
REMARK INTER:                  25.598
REMARK INTRA:                  -0.676
REMARK UNBOUND:                -0.644
REMARK SMILES CCCCCCCCCCCCCCC(=O)[O-]
REMARK SMILES IDX 9 1 10 2 11 3 12 4 13 5 14 6 15 7 16 8 17 9 8 10 7 11 6 12
REMARK SMILES IDX 5 13 4 14 3 15 2 16 1 17
REMARK H PARENT
REMARK Flexibility Score: inf
ROOT
ATOM      1  C   UNL     1     -13.259  -1.841 -16.738  1.00  0.00     0.000 C 
ENDROOT
BRANCH   1   2
ATOM      2  C   UNL     1     -13.089  -0.336 -17.031  1.00  0.00     0.000 C 
BRANCH   2   3
ATOM      3  C   UNL     1     -11.678   0.091 -17.473  1.00  0.00     0.000 C 
BRANCH   3   4
ATOM      4  C   UNL     1     -10.995  -0.950 -18.375  1.00  0.00     0.000 C 
BRANCH   4   5
ATOM      5  C   UNL     1      -9.706  -1.512 -17.754  1.00  0.00     0.006 C 
BRANCH   5   6
ATOM      6  C   UNL     1      -9.091  -0.567 -16.713  1.00  0.00     0.053 C 
BRANCH   6   7
ATOM      7  C   UNL     1      -7.614  -0.786 -16.617  1.00  0.00     0.041 C 
ATOM      8  O   UNL     1      -6.883  -0.633 -17.631  1.00  0.00    -0.550 OA
ATOM      9  O   UNL     1      -7.036  -1.110 -15.395  1.00  0.00    -0.550 OA
ENDBRANCH   6   7
ENDBRANCH   5   6
ENDBRANCH   4   5
ENDBRANCH   3   4
ENDBRANCH   2   3
ENDBRANCH   1   2
BRANCH   1  10
ATOM     10  C   UNL     1     -14.268  -2.180 -15.627  1.00  0.00     0.000 C 
BRANCH  10  11
ATOM     11  C   UNL     1     -14.495  -3.690 -15.466  1.00  0.00    -0.000 C 
BRANCH  11  12
ATOM     12  C   UNL     1     -14.189  -4.142 -14.031  1.00  0.00    -0.000 C 
BRANCH  12  13
ATOM     13  C   UNL     1     -14.607  -3.104 -12.972  1.00  0.00    -0.000 C 
BRANCH  13  14
ATOM     14  C   UNL     1     -15.122  -3.698 -11.647  1.00  0.00    -0.000 C 
BRANCH  14  15
ATOM     15  C   UNL     1     -14.509  -3.025 -10.411  1.00  0.00    -0.000 C 
BRANCH  15  16
ATOM     16  C   UNL     1     -14.881  -1.539 -10.354  1.00  0.00    -0.003 C 
ATOM     17  C   UNL     1     -13.716  -0.698  -9.840  1.00  0.00     0.004 C 
ENDBRANCH  15  16
ENDBRANCH  14  15
ENDBRANCH  13  14
ENDBRANCH  12  13
ENDBRANCH  11  12
ENDBRANCH  10  11
ENDBRANCH   1  10
TORSDOF 13
ENDMDL
MODEL 6
REMARK VINA RESULT:    14.740      4.889      7.874
REMARK INTER + INTRA:          25.298
REMARK INTER:                  25.826
REMARK INTRA:                  -0.528
REMARK UNBOUND:                -0.644
REMARK SMILES CCCCCCCCCCCCCCC(=O)[O-]
REMARK SMILES IDX 9 1 10 2 11 3 12 4 13 5 14 6 15 7 16 8 17 9 8 10 7 11 6 12
REMARK SMILES IDX 5 13 4 14 3 15 2 16 1 17
REMARK H PARENT
REMARK Flexibility Score: inf
ROOT
ATOM      1  C   UNL     1     -14.375  -2.530 -16.372  1.00  0.00     0.000 C 
ENDROOT
BRANCH   1   2
ATOM      2  C   UNL     1     -14.339  -3.583 -15.245  1.00  0.00     0.000 C 
BRANCH   2   3
ATOM      3  C   UNL     1     -15.155  -3.228 -13.988  1.00  0.00     0.000 C 
BRANCH   3   4
ATOM      4  C   UNL     1     -14.377  -3.473 -12.684  1.00  0.00     0.000 C 
BRANCH   4   5
ATOM      5  C   UNL     1     -15.216  -3.170 -11.433  1.00  0.00     0.006 C 
BRANCH   5   6
ATOM      6  C   UNL     1     -14.353  -2.806 -10.217  1.00  0.00     0.053 C 
BRANCH   6   7
ATOM      7  C   UNL     1     -14.276  -1.320 -10.059  1.00  0.00     0.041 C 
ATOM      8  O   UNL     1     -13.411  -0.807  -9.300  1.00  0.00    -0.550 OA
ATOM      9  O   UNL     1     -15.126  -0.498 -10.788  1.00  0.00    -0.550 OA
ENDBRANCH   6   7
ENDBRANCH   5   6
ENDBRANCH   4   5
ENDBRANCH   3   4
ENDBRANCH   2   3
ENDBRANCH   1   2
BRANCH   1  10
ATOM     10  C   UNL     1     -13.017  -1.890 -16.710  1.00  0.00     0.000 C 
BRANCH  10  11
ATOM     11  C   UNL     1     -13.154  -0.582 -17.503  1.00  0.00    -0.000 C 
BRANCH  11  12
ATOM     12  C   UNL     1     -11.785   0.082 -17.706  1.00  0.00    -0.000 C 
BRANCH  12  13
ATOM     13  C   UNL     1     -10.608  -0.893 -17.518  1.00  0.00    -0.000 C 
BRANCH  13  14
ATOM     14  C   UNL     1      -9.323  -0.261 -16.953  1.00  0.00    -0.000 C 
BRANCH  14  15
ATOM     15  C   UNL     1      -8.044  -0.907 -17.505  1.00  0.00    -0.000 C 
BRANCH  15  16
ATOM     16  C   UNL     1      -6.875  -0.733 -16.529  1.00  0.00    -0.003 C 
ATOM     17  C   UNL     1      -7.225  -1.278 -15.147  1.00  0.00     0.004 C 
ENDBRANCH  15  16
ENDBRANCH  14  15
ENDBRANCH  13  14
ENDBRANCH  12  13
ENDBRANCH  11  12
ENDBRANCH  10  11
ENDBRANCH   1  10
TORSDOF 13
ENDMDL
MODEL 7
REMARK VINA RESULT:    15.037      5.032      6.741
REMARK INTER + INTRA:          25.820
REMARK INTER:                  26.448
REMARK INTRA:                  -0.628
REMARK UNBOUND:                -0.644
REMARK SMILES CCCCCCCCCCCCCCC(=O)[O-]
REMARK SMILES IDX 9 1 10 2 11 3 12 4 13 5 14 6 15 7 16 8 17 9 8 10 7 11 6 12
REMARK SMILES IDX 5 13 4 14 3 15 2 16 1 17
REMARK H PARENT
REMARK Flexibility Score: inf
ROOT
ATOM      1  C   UNL     1     -14.780  -2.965 -14.872  1.00  0.00     0.000 C 
ENDROOT
BRANCH   1   2
ATOM      2  C   UNL     1     -14.341  -4.238 -14.120  1.00  0.00     0.000 C 
BRANCH   2   3
ATOM      3  C   UNL     1     -13.970  -4.032 -12.640  1.00  0.00     0.000 C 
BRANCH   3   4
ATOM      4  C   UNL     1     -15.113  -3.411 -11.820  1.00  0.00     0.000 C 
BRANCH   4   5
ATOM      5  C   UNL     1     -14.603  -2.602 -10.617  1.00  0.00     0.006 C 
BRANCH   5   6
ATOM      6  C   UNL     1     -15.354  -1.276 -10.434  1.00  0.00     0.053 C 
BRANCH   6   7
ATOM      7  C   UNL     1     -14.411  -0.121 -10.554  1.00  0.00     0.041 C 
ATOM      8  O   UNL     1     -14.641   0.802 -11.380  1.00  0.00    -0.550 OA
ATOM      9  O   UNL     1     -13.304  -0.037  -9.719  1.00  0.00    -0.550 OA
ENDBRANCH   6   7
ENDBRANCH   5   6
ENDBRANCH   4   5
ENDBRANCH   3   4
ENDBRANCH   2   3
ENDBRANCH   1   2
BRANCH   1  10
ATOM     10  C   UNL     1     -14.203  -2.813 -16.290  1.00  0.00     0.000 C 
BRANCH  10  11
ATOM     11  C   UNL     1     -13.405  -1.514 -16.475  1.00  0.00    -0.000 C 
BRANCH  11  12
ATOM     12  C   UNL     1     -12.312  -1.688 -17.540  1.00  0.00    -0.000 C 
BRANCH  12  13
ATOM     13  C   UNL     1     -11.593  -0.370 -17.884  1.00  0.00    -0.000 C 
BRANCH  13  14
ATOM     14  C   UNL     1     -12.172   0.884 -17.202  1.00  0.00    -0.000 C 
BRANCH  14  15
ATOM     15  C   UNL     1     -13.111   1.684 -18.116  1.00  0.00    -0.000 C 
BRANCH  15  16
ATOM     16  C   UNL     1     -12.843   3.189 -17.997  1.00  0.00    -0.003 C 
ATOM     17  C   UNL     1     -11.781   3.477 -16.940  1.00  0.00     0.004 C 
ENDBRANCH  15  16
ENDBRANCH  14  15
ENDBRANCH  13  14
ENDBRANCH  12  13
ENDBRANCH  11  12
ENDBRANCH  10  11
ENDBRANCH   1  10
TORSDOF 13
ENDMDL
