MODEL 1
REMARK VINA RESULT:    -3.515      0.000      0.000
REMARK INTER + INTRA:          -4.856
REMARK INTER:                  -4.748
REMARK INTRA:                  -0.108
REMARK UNBOUND:                -0.108
REMARK SMILES C=C1CCC=C(C)CC[C@H]2[C@H]1CC2(C)C
REMARK SMILES IDX 11 1 12 2 13 3 10 4 14 5 15 6 9 7 8 8 6 9 7 10 5 11 2 13
REMARK SMILES IDX 1 14 3 15 4 16
REMARK H PARENT
REMARK Flexibility Score: 70.00
ROOT
ATOM      1  C   UNL     1     135.706 136.693 131.067  1.00  0.00     0.018 C 
ATOM      2  C   UNL     1     134.477 137.502 130.639  1.00  0.00     0.015 C 
ATOM      3  C   UNL     1     133.586 136.650 131.554  1.00  0.00    -0.031 C 
ATOM      4  C   UNL     1     134.838 135.882 132.050  1.00  0.00     0.002 C 
ATOM      5  C   UNL     1     132.917 137.479 132.666  1.00  0.00     0.011 C 
ATOM      6  C   UNL     1     132.545 135.837 130.759  1.00  0.00     0.011 C 
ENDROOT
BRANCH   4   7
ATOM      7  C   UNL     1     134.880 134.357 131.794  1.00  0.00     0.009 C 
BRANCH   7   8
ATOM      8  C   UNL     1     135.926 133.632 132.656  1.00  0.00     0.030 C 
BRANCH   8   9
ATOM      9  C   UNL     1     137.283 133.518 131.979  1.00  0.00    -0.077 C 
ATOM     10  C   UNL     1     137.527 132.348 131.061  1.00  0.00     0.039 C 
ATOM     11  C   UNL     1     138.283 134.421 132.135  1.00  0.00    -0.028 CG0
ATOM     12  G   UNL     1     138.191 135.710 132.924  1.00  0.00     0.000 G0
ENDBRANCH   8   9
ENDBRANCH   7   8
ENDBRANCH   4   7
BRANCH   1  13
ATOM     13  C   UNL     1     136.830 137.546 131.640  1.00  0.00    -0.074 C 
ATOM     14  C   UNL     1     136.609 138.866 131.772  1.00  0.00     0.008 C 
BRANCH  13  15
ATOM     15  C   UNL     1     138.199 136.986 132.001  1.00  0.00     0.035 C 
BRANCH  15  16
ATOM     16  C   UNL     1     138.187 135.728 132.901  1.00  0.00     0.032 CG0
ATOM     17  G   UNL     1     138.284 134.423 132.141  1.00  0.00     0.000 G0
ENDBRANCH  15  16
ENDBRANCH  13  15
ENDBRANCH   1  13
TORSDOF 0
ENDMDL
MODEL 2
REMARK VINA RESULT:    -3.478      1.680      4.035
REMARK INTER + INTRA:          -4.805
REMARK INTER:                  -4.681
REMARK INTRA:                  -0.124
REMARK UNBOUND:                -0.108
REMARK SMILES C=C1CCC=C(C)CC[C@H]2[C@H]1CC2(C)C
REMARK SMILES IDX 11 1 12 2 13 3 10 4 14 5 15 6 9 7 8 8 6 9 7 10 5 11 2 13
REMARK SMILES IDX 1 14 3 15 4 16
REMARK H PARENT
REMARK Flexibility Score: 70.00
ROOT
ATOM      1  C   UNL     1     136.805 137.988 131.293  1.00  0.00     0.018 C 
ATOM      2  C   UNL     1     137.600 139.222 130.856  1.00  0.00     0.015 C 
ATOM      3  C   UNL     1     136.730 140.113 131.756  1.00  0.00    -0.031 C 
ATOM      4  C   UNL     1     135.976 138.856 132.262  1.00  0.00     0.002 C 
ATOM      5  C   UNL     1     137.545 140.806 132.864  1.00  0.00     0.011 C 
ATOM      6  C   UNL     1     135.908 141.134 130.944  1.00  0.00     0.011 C 
ENDROOT
BRANCH   4   7
ATOM      7  C   UNL     1     134.454 138.792 131.999  1.00  0.00     0.009 C 
BRANCH   7   8
ATOM      8  C   UNL     1     133.741 137.734 132.857  1.00  0.00     0.030 C 
BRANCH   8   9
ATOM      9  C   UNL     1     133.638 136.379 132.173  1.00  0.00    -0.077 C 
ATOM     10  C   UNL     1     132.466 136.129 131.258  1.00  0.00     0.039 C 
ATOM     11  C   UNL     1     134.552 135.389 132.319  1.00  0.00    -0.028 CG0
ATOM     12  G   UNL     1     135.843 135.489 133.103  1.00  0.00     0.000 G0
ENDBRANCH   8   9
ENDBRANCH   7   8
ENDBRANCH   4   7
BRANCH   1  13
ATOM     13  C   UNL     1     137.670 136.883 131.885  1.00  0.00    -0.074 C 
ATOM     14  C   UNL     1     138.980 137.133 132.049  1.00  0.00     0.008 C 
BRANCH  13  15
ATOM     15  C   UNL     1     137.132 135.500 132.229  1.00  0.00     0.035 C 
BRANCH  15  16
ATOM     16  C   UNL     1     135.860 135.481 133.109  1.00  0.00     0.032 CG0
ATOM     17  G   UNL     1     134.567 135.406 132.325  1.00  0.00     0.000 G0
ENDBRANCH  15  16
ENDBRANCH  13  15
ENDBRANCH   1  13
TORSDOF 0
ENDMDL
MODEL 3
REMARK VINA RESULT:    -3.448      1.670      4.018
REMARK INTER + INTRA:          -4.766
REMARK INTER:                  -4.779
REMARK INTRA:                   0.014
REMARK UNBOUND:                -0.108
REMARK SMILES C=C1CCC=C(C)CC[C@H]2[C@H]1CC2(C)C
REMARK SMILES IDX 11 1 12 2 13 3 10 4 14 5 15 6 9 7 8 8 6 9 7 10 5 11 2 13
REMARK SMILES IDX 1 14 3 15 4 16
REMARK H PARENT
REMARK Flexibility Score: 70.00
ROOT
ATOM      1  C   UNL     1     136.926 135.675 130.962  1.00  0.00     0.018 C 
ATOM      2  C   UNL     1     136.098 134.407 130.729  1.00  0.00     0.015 C 
ATOM      3  C   UNL     1     136.928 133.660 131.783  1.00  0.00    -0.031 C 
ATOM      4  C   UNL     1     137.714 134.963 132.080  1.00  0.00     0.002 C 
ATOM      5  C   UNL     1     136.078 133.191 132.979  1.00  0.00     0.011 C 
ATOM      6  C   UNL     1     137.728 132.491 131.173  1.00  0.00     0.011 C 
ENDROOT
BRANCH   4   7
ATOM      7  C   UNL     1     139.241 134.937 131.836  1.00  0.00     0.009 C 
BRANCH   7   8
ATOM      8  C   UNL     1     140.005 135.944 132.712  1.00  0.00     0.030 C 
BRANCH   8   9
ATOM      9  C   UNL     1     140.170 137.305 132.053  1.00  0.00    -0.077 C 
ATOM     10  C   UNL     1     141.433 137.573 131.275  1.00  0.00     0.039 C 
ATOM     11  C   UNL     1     139.237 138.287 132.105  1.00  0.00    -0.028 CG0
ATOM     12  G   UNL     1     137.868 138.169 132.742  1.00  0.00     0.000 G0
ENDBRANCH   8   9
ENDBRANCH   7   8
ENDBRANCH   4   7
BRANCH   1  13
ATOM     13  C   UNL     1     136.088 136.890 131.340  1.00  0.00    -0.074 C 
ATOM     14  C   UNL     1     134.751 136.779 131.259  1.00  0.00     0.008 C 
BRANCH  13  15
ATOM     15  C   UNL     1     136.697 138.230 131.735  1.00  0.00     0.035 C 
BRANCH  15  16
ATOM     16  C   UNL     1     137.865 138.157 132.746  1.00  0.00     0.032 CG0
ATOM     17  G   UNL     1     139.235 138.302 132.118  1.00  0.00     0.000 G0
ENDBRANCH  15  16
ENDBRANCH  13  15
ENDBRANCH   1  13
TORSDOF 0
ENDMDL
MODEL 4
REMARK VINA RESULT:    -3.444      2.337      4.267
REMARK INTER + INTRA:          -4.760
REMARK INTER:                  -4.852
REMARK INTRA:                   0.092
REMARK UNBOUND:                -0.108
REMARK SMILES C=C1CCC=C(C)CC[C@H]2[C@H]1CC2(C)C
REMARK SMILES IDX 11 1 12 2 13 3 10 4 14 5 15 6 9 7 8 8 6 9 7 10 5 11 2 13
REMARK SMILES IDX 1 14 3 15 4 16
REMARK H PARENT
REMARK Flexibility Score: 70.00
ROOT
ATOM      1  C   UNL     1     137.398 133.625 133.282  1.00  0.00     0.018 C 
ATOM      2  C   UNL     1     135.905 133.290 133.360  1.00  0.00     0.015 C 
ATOM      3  C   UNL     1     135.637 134.610 134.098  1.00  0.00    -0.031 C 
ATOM      4  C   UNL     1     137.134 134.990 133.950  1.00  0.00     0.002 C 
ATOM      5  C   UNL     1     134.704 135.548 133.310  1.00  0.00     0.011 C 
ATOM      6  C   UNL     1     135.120 134.380 135.532  1.00  0.00     0.011 C 
ENDROOT
BRANCH   4   7
ATOM      7  C   UNL     1     137.940 135.204 135.252  1.00  0.00     0.009 C 
BRANCH   7   8
ATOM      8  C   UNL     1     139.450 135.353 135.005  1.00  0.00     0.030 C 
BRANCH   8   9
ATOM      9  C   UNL     1     139.796 136.530 134.107  1.00  0.00    -0.077 C 
ATOM     10  C   UNL     1     139.913 137.896 134.734  1.00  0.00     0.039 C 
ATOM     11  C   UNL     1     140.028 136.422 132.776  1.00  0.00    -0.028 CG0
ATOM     12  G   UNL     1     140.064 135.128 131.990  1.00  0.00     0.000 G0
ENDBRANCH   8   9
ENDBRANCH   7   8
ENDBRANCH   4   7
BRANCH   1  13
ATOM     13  C   UNL     1     137.953 133.619 131.864  1.00  0.00    -0.074 C 
ATOM     14  C   UNL     1     137.790 132.502 131.133  1.00  0.00     0.008 C 
BRANCH  13  15
ATOM     15  C   UNL     1     138.734 134.784 131.270  1.00  0.00     0.035 C 
BRANCH  15  16
ATOM     16  C   UNL     1     140.064 135.124 131.983  1.00  0.00     0.032 CG0
ATOM     17  G   UNL     1     140.025 136.408 132.784  1.00  0.00     0.000 G0
ENDBRANCH  15  16
ENDBRANCH  13  15
ENDBRANCH   1  13
TORSDOF 0
ENDMDL
MODEL 5
REMARK VINA RESULT:    -3.441      2.049      3.493
REMARK INTER + INTRA:          -4.755
REMARK INTER:                  -4.825
REMARK INTRA:                   0.070
REMARK UNBOUND:                -0.108
REMARK SMILES C=C1CCC=C(C)CC[C@H]2[C@H]1CC2(C)C
REMARK SMILES IDX 11 1 12 2 13 3 10 4 14 5 15 6 9 7 8 8 6 9 7 10 5 11 2 13
REMARK SMILES IDX 1 14 3 15 4 16
REMARK H PARENT
REMARK Flexibility Score: 70.00
ROOT
ATOM      1  C   UNL     1     133.614 136.262 133.213  1.00  0.00     0.018 C 
ATOM      2  C   UNL     1     133.227 137.743 133.274  1.00  0.00     0.015 C 
ATOM      3  C   UNL     1     134.496 138.051 134.082  1.00  0.00    -0.031 C 
ATOM      4  C   UNL     1     134.931 136.568 133.953  1.00  0.00     0.002 C 
ATOM      5  C   UNL     1     135.444 139.016 133.347  1.00  0.00     0.011 C 
ATOM      6  C   UNL     1     134.173 138.557 135.503  1.00  0.00     0.011 C 
ENDROOT
BRANCH   4   7
ATOM      7  C   UNL     1     135.102 135.765 135.264  1.00  0.00     0.009 C 
BRANCH   7   8
ATOM      8  C   UNL     1     135.243 134.253 135.027  1.00  0.00     0.030 C 
BRANCH   8   9
ATOM      9  C   UNL     1     136.478 133.887 134.218  1.00  0.00    -0.077 C 
ATOM     10  C   UNL     1     137.793 133.756 134.944  1.00  0.00     0.039 C 
ATOM     11  C   UNL     1     136.463 133.649 132.884  1.00  0.00    -0.028 CG0
ATOM     12  G   UNL     1     135.230 133.624 132.007  1.00  0.00     0.000 G0
ENDBRANCH   8   9
ENDBRANCH   7   8
ENDBRANCH   4   7
BRANCH   1  13
ATOM     13  C   UNL     1     133.701 135.711 131.796  1.00  0.00    -0.074 C 
ATOM     14  C   UNL     1     132.627 135.857 131.000  1.00  0.00     0.008 C 
BRANCH  13  15
ATOM     15  C   UNL     1     134.912 134.951 131.271  1.00  0.00     0.035 C 
BRANCH  15  16
ATOM     16  C   UNL     1     135.222 133.616 131.989  1.00  0.00     0.032 CG0
ATOM     17  G   UNL     1     136.458 133.657 132.862  1.00  0.00     0.000 G0
ENDBRANCH  15  16
ENDBRANCH  13  15
ENDBRANCH   1  13
TORSDOF 0
ENDMDL
MODEL 6
REMARK VINA RESULT:    -3.422      2.759      5.007
REMARK INTER + INTRA:          -4.731
REMARK INTER:                  -4.831
REMARK INTRA:                   0.101
REMARK UNBOUND:                -0.108
REMARK SMILES C=C1CCC=C(C)CC[C@H]2[C@H]1CC2(C)C
REMARK SMILES IDX 11 1 12 2 13 3 10 4 14 5 15 6 9 7 8 8 6 9 7 10 5 11 2 13
REMARK SMILES IDX 1 14 3 15 4 16
REMARK H PARENT
REMARK Flexibility Score: 70.00
ROOT
ATOM      1  C   UNL     1     139.156 134.145 130.605  1.00  0.00     0.018 C 
ATOM      2  C   UNL     1     138.198 132.986 130.895  1.00  0.00     0.015 C 
ATOM      3  C   UNL     1     137.472 133.837 131.948  1.00  0.00    -0.031 C 
ATOM      4  C   UNL     1     138.388 135.039 131.601  1.00  0.00     0.002 C 
ATOM      5  C   UNL     1     135.996 134.089 131.588  1.00  0.00     0.011 C 
ATOM      6  C   UNL     1     137.610 133.248 133.367  1.00  0.00     0.011 C 
ENDROOT
BRANCH   4   7
ATOM      7  C   UNL     1     139.276 135.601 132.735  1.00  0.00     0.009 C 
BRANCH   7   8
ATOM      8  C   UNL     1     140.228 136.710 132.257  1.00  0.00     0.030 C 
BRANCH   8   9
ATOM      9  C   UNL     1     139.507 137.868 131.584  1.00  0.00    -0.077 C 
ATOM     10  C   UNL     1     138.951 138.966 132.455  1.00  0.00     0.039 C 
ATOM     11  C   UNL     1     139.352 137.983 130.242  1.00  0.00    -0.028 CG0
ATOM     12  G   UNL     1     139.931 137.045 129.205  1.00  0.00     0.000 G0
ENDBRANCH   8   9
ENDBRANCH   7   8
ENDBRANCH   4   7
BRANCH   1  13
ATOM     13  C   UNL     1     139.183 134.565 129.141  1.00  0.00    -0.074 C 
ATOM     14  C   UNL     1     139.515 133.635 128.229  1.00  0.00     0.008 C 
BRANCH  13  15
ATOM     15  C   UNL     1     138.920 135.992 128.679  1.00  0.00     0.035 C 
BRANCH  15  16
ATOM     16  C   UNL     1     139.924 137.052 129.191  1.00  0.00     0.032 CG0
ATOM     17  G   UNL     1     139.360 137.978 130.248  1.00  0.00     0.000 G0
ENDBRANCH  15  16
ENDBRANCH  13  15
ENDBRANCH   1  13
TORSDOF 0
ENDMDL
MODEL 7
REMARK VINA RESULT:    -3.398      3.337      5.349
REMARK INTER + INTRA:          -4.698
REMARK INTER:                  -4.604
REMARK INTRA:                  -0.093
REMARK UNBOUND:                -0.108
REMARK SMILES C=C1CCC=C(C)CC[C@H]2[C@H]1CC2(C)C
REMARK SMILES IDX 11 1 12 2 13 3 10 4 14 5 15 6 9 7 8 8 6 9 7 10 5 11 2 13
REMARK SMILES IDX 1 14 3 15 4 16
REMARK H PARENT
REMARK Flexibility Score: 70.00
ROOT
ATOM      1  C   UNL     1     134.202 138.811 132.356  1.00  0.00     0.018 C 
ATOM      2  C   UNL     1     134.302 139.429 130.957  1.00  0.00     0.015 C 
ATOM      3  C   UNL     1     135.741 139.879 131.248  1.00  0.00    -0.031 C 
ATOM      4  C   UNL     1     135.673 139.185 132.633  1.00  0.00     0.002 C 
ATOM      5  C   UNL     1     136.766 139.224 130.303  1.00  0.00     0.011 C 
ATOM      6  C   UNL     1     135.882 141.414 131.249  1.00  0.00     0.011 C 
ENDROOT
BRANCH   4   7
ATOM      7  C   UNL     1     135.856 140.079 133.881  1.00  0.00     0.009 C 
BRANCH   7   8
ATOM      8  C   UNL     1     136.262 139.285 135.134  1.00  0.00     0.030 C 
BRANCH   8   9
ATOM      9  C   UNL     1     135.072 138.830 135.964  1.00  0.00    -0.077 C 
ATOM     10  C   UNL     1     134.563 139.748 137.046  1.00  0.00     0.039 C 
ATOM     11  C   UNL     1     134.425 137.654 135.775  1.00  0.00    -0.028 CG0
ATOM     12  G   UNL     1     134.717 136.655 134.676  1.00  0.00     0.000 G0
ENDBRANCH   8   9
ENDBRANCH   7   8
ENDBRANCH   4   7
BRANCH   1  13
ATOM     13  C   UNL     1     133.829 137.335 132.346  1.00  0.00    -0.074 C 
ATOM     14  C   UNL     1     133.632 136.746 131.154  1.00  0.00     0.008 C 
BRANCH  13  15
ATOM     15  C   UNL     1     133.604 136.525 133.617  1.00  0.00     0.035 C 
BRANCH  15  16
ATOM     16  C   UNL     1     134.715 136.643 134.686  1.00  0.00     0.032 CG0
ATOM     17  G   UNL     1     134.419 137.650 135.776  1.00  0.00     0.000 G0
ENDBRANCH  15  16
ENDBRANCH  13  15
ENDBRANCH   1  13
TORSDOF 0
ENDMDL
MODEL 8
REMARK VINA RESULT:    -3.342      2.172      4.618
REMARK INTER + INTRA:          -4.623
REMARK INTER:                  -4.525
REMARK INTRA:                  -0.097
REMARK UNBOUND:                -0.108
REMARK SMILES C=C1CCC=C(C)CC[C@H]2[C@H]1CC2(C)C
REMARK SMILES IDX 11 1 12 2 13 3 10 4 14 5 15 6 9 7 8 8 6 9 7 10 5 11 2 13
REMARK SMILES IDX 1 14 3 15 4 16
REMARK H PARENT
REMARK Flexibility Score: 70.00
ROOT
ATOM      1  C   UNL     1     137.161 138.821 132.378  1.00  0.00     0.018 C 
ATOM      2  C   UNL     1     138.486 139.550 132.621  1.00  0.00     0.015 C 
ATOM      3  C   UNL     1     139.214 138.552 131.707  1.00  0.00    -0.031 C 
ATOM      4  C   UNL     1     137.861 137.861 131.395  1.00  0.00     0.002 C 
ATOM      5  C   UNL     1     139.836 139.229 130.472  1.00  0.00     0.011 C 
ATOM      6  C   UNL     1     140.258 137.716 132.474  1.00  0.00     0.011 C 
ENDROOT
BRANCH   4   7
ATOM      7  C   UNL     1     137.723 136.371 131.786  1.00  0.00     0.009 C 
BRANCH   7   8
ATOM      8  C   UNL     1     136.550 135.672 131.079  1.00  0.00     0.030 C 
BRANCH   8   9
ATOM      9  C   UNL     1     135.253 135.730 131.872  1.00  0.00    -0.077 C 
ATOM     10  C   UNL     1     134.989 134.647 132.888  1.00  0.00     0.039 C 
ATOM     11  C   UNL     1     134.329 136.711 131.736  1.00  0.00    -0.028 CG0
ATOM     12  G   UNL     1     134.464 137.934 130.854  1.00  0.00     0.000 G0
ENDBRANCH   8   9
ENDBRANCH   7   8
ENDBRANCH   4   7
BRANCH   1  13
ATOM     13  C   UNL     1     136.059 139.722 131.835  1.00  0.00    -0.074 C 
ATOM     14  C   UNL     1     136.370 141.003 131.574  1.00  0.00     0.008 C 
BRANCH  13  15
ATOM     15  C   UNL     1     134.622 139.255 131.644  1.00  0.00     0.035 C 
BRANCH  15  16
ATOM     16  C   UNL     1     134.451 137.932 130.860  1.00  0.00     0.032 CG0
ATOM     17  G   UNL     1     134.333 136.705 131.739  1.00  0.00     0.000 G0
ENDBRANCH  15  16
ENDBRANCH  13  15
ENDBRANCH   1  13
TORSDOF 0
ENDMDL
MODEL 9
REMARK VINA RESULT:    -3.313      2.342      4.803
REMARK INTER + INTRA:          -4.583
REMARK INTER:                  -4.670
REMARK INTRA:                   0.087
REMARK UNBOUND:                -0.108
REMARK SMILES C=C1CCC=C(C)CC[C@H]2[C@H]1CC2(C)C
REMARK SMILES IDX 11 1 12 2 13 3 10 4 14 5 15 6 9 7 8 8 6 9 7 10 5 11 2 13
REMARK SMILES IDX 1 14 3 15 4 16
REMARK H PARENT
REMARK Flexibility Score: 70.00
ROOT
ATOM      1  C   UNL     1     135.715 133.883 132.858  1.00  0.00     0.018 C 
ATOM      2  C   UNL     1     137.047 133.195 133.176  1.00  0.00     0.015 C 
ATOM      3  C   UNL     1     137.675 133.806 131.914  1.00  0.00    -0.031 C 
ATOM      4  C   UNL     1     136.354 134.569 131.633  1.00  0.00     0.002 C 
ATOM      5  C   UNL     1     138.850 134.748 132.238  1.00  0.00     0.011 C 
ATOM      6  C   UNL     1     138.085 132.731 130.889  1.00  0.00     0.011 C 
ENDROOT
BRANCH   4   7
ATOM      7  C   UNL     1     135.628 134.258 130.304  1.00  0.00     0.009 C 
BRANCH   7   8
ATOM      8  C   UNL     1     134.171 134.748 130.288  1.00  0.00     0.030 C 
BRANCH   8   9
ATOM      9  C   UNL     1     134.049 136.263 130.351  1.00  0.00    -0.077 C 
ATOM     10  C   UNL     1     134.214 137.045 129.073  1.00  0.00     0.039 C 
ATOM     11  C   UNL     1     133.778 136.952 131.486  1.00  0.00    -0.028 CG0
ATOM     12  G   UNL     1     133.475 136.341 132.837  1.00  0.00     0.000 G0
ENDBRANCH   8   9
ENDBRANCH   7   8
ENDBRANCH   4   7
BRANCH   1  13
ATOM     13  C   UNL     1     135.201 134.768 133.986  1.00  0.00    -0.074 C 
ATOM     14  C   UNL     1     135.125 134.233 135.217  1.00  0.00     0.008 C 
BRANCH  13  15
ATOM     15  C   UNL     1     134.710 136.194 133.768  1.00  0.00     0.035 C 
BRANCH  15  16
ATOM     16  C   UNL     1     133.476 136.338 132.846  1.00  0.00     0.032 CG0
ATOM     17  G   UNL     1     133.782 136.953 131.497  1.00  0.00     0.000 G0
ENDBRANCH  15  16
ENDBRANCH  13  15
ENDBRANCH   1  13
TORSDOF 0
ENDMDL
