MODEL 1
REMARK VINA RESULT:    -5.146      0.000      0.000
REMARK INTER + INTRA:         -15.632
REMARK INTER:                 -13.420
REMARK INTRA:                  -2.212
REMARK UNBOUND:                -2.212
REMARK SMILES CCCCCCCCCCCCCCCCCCCCCCCCCCCCCO
REMARK SMILES IDX 16 1 15 2 14 3 13 4 12 5 11 6 10 7 9 8 8 9 7 10 6 11 5 12
REMARK SMILES IDX 4 13 3 14 2 15 1 16 17 17 18 18 19 19 20 20 21 21 22 22
REMARK SMILES IDX 23 23 24 24 25 25 26 26 27 27 28 28 29 29 30 30
REMARK H PARENT 30 31
REMARK Flexibility Score: inf
ROOT
ATOM      1  C   UNL     1       0.357 -22.105 -11.115  1.00  0.00     0.000 C 
ENDROOT
BRANCH   1   2
ATOM      2  C   UNL     1       0.496 -22.144  -9.584  1.00  0.00     0.000 C 
BRANCH   2   3
ATOM      3  C   UNL     1       0.924 -23.526  -9.058  1.00  0.00     0.000 C 
BRANCH   3   4
ATOM      4  C   UNL     1       0.302 -24.722  -9.804  1.00  0.00     0.000 C 
BRANCH   4   5
ATOM      5  C   UNL     1       1.313 -25.719 -10.410  1.00  0.00     0.000 C 
BRANCH   5   6
ATOM      6  C   UNL     1       2.484 -26.104  -9.487  1.00  0.00     0.000 C 
BRANCH   6   7
ATOM      7  C   UNL     1       3.838 -26.266 -10.200  1.00  0.00     0.000 C 
BRANCH   7   8
ATOM      8  C   UNL     1       4.072 -27.683 -10.775  1.00  0.00    -0.000 C 
BRANCH   8   9
ATOM      9  C   UNL     1       2.851 -28.613 -10.661  1.00  0.00    -0.000 C 
BRANCH   9  10
ATOM     10  C   UNL     1       2.315 -29.055 -12.033  1.00  0.00    -0.000 C 
BRANCH  10  11
ATOM     11  C   UNL     1       3.028 -30.326 -12.518  1.00  0.00    -0.000 C 
BRANCH  11  12
ATOM     12  C   UNL     1       2.614 -31.581 -11.732  1.00  0.00    -0.000 C 
BRANCH  12  13
ATOM     13  C   UNL     1       3.809 -32.283 -11.063  1.00  0.00    -0.000 C 
BRANCH  13  14
ATOM     14  C   UNL     1       5.120 -31.496 -11.229  1.00  0.00    -0.000 C 
BRANCH  14  15
ATOM     15  C   UNL     1       6.196 -32.293 -11.981  1.00  0.00    -0.003 C 
ATOM     16  C   UNL     1       5.670 -33.662 -12.403  1.00  0.00     0.004 C 
ENDBRANCH  14  15
ENDBRANCH  13  14
ENDBRANCH  12  13
ENDBRANCH  11  12
ENDBRANCH  10  11
ENDBRANCH   9  10
ENDBRANCH   8   9
ENDBRANCH   7   8
ENDBRANCH   6   7
ENDBRANCH   5   6
ENDBRANCH   4   5
ENDBRANCH   3   4
ENDBRANCH   2   3
ENDBRANCH   1   2
BRANCH   1  17
ATOM     17  C   UNL     1      -1.074 -21.731 -11.559  1.00  0.00     0.000 C 
BRANCH  17  18
ATOM     18  C   UNL     1      -1.898 -22.939 -12.037  1.00  0.00     0.000 C 
BRANCH  18  19
ATOM     19  C   UNL     1      -3.169 -23.165 -11.203  1.00  0.00     0.000 C 
BRANCH  19  20
ATOM     20  C   UNL     1      -3.228 -22.269  -9.945  1.00  0.00     0.000 C 
BRANCH  20  21
ATOM     21  C   UNL     1      -4.661 -21.956  -9.479  1.00  0.00     0.000 C 
BRANCH  21  22
ATOM     22  C   UNL     1      -5.239 -20.627 -10.005  1.00  0.00     0.000 C 
BRANCH  22  23
ATOM     23  C   UNL     1      -5.868 -20.734 -11.412  1.00  0.00     0.000 C 
BRANCH  23  24
ATOM     24  C   UNL     1      -4.963 -20.162 -12.516  1.00  0.00     0.000 C 
BRANCH  24  25
ATOM     25  C   UNL     1      -5.679 -19.089 -13.363  1.00  0.00     0.000 C 
BRANCH  25  26
ATOM     26  C   UNL     1      -6.402 -19.662 -14.595  1.00  0.00     0.000 C 
BRANCH  26  27
ATOM     27  C   UNL     1      -6.400 -18.696 -15.791  1.00  0.00     0.002 C 
BRANCH  27  28
ATOM     28  C   UNL     1      -7.712 -17.905 -15.916  1.00  0.00     0.028 C 
BRANCH  28  29
ATOM     29  C   UNL     1      -8.068 -17.107 -14.653  1.00  0.00     0.156 C 
BRANCH  29  30
ATOM     30  O   UNL     1      -7.153 -16.068 -14.436  1.00  0.00    -0.396 OA
ATOM     31  H   UNL     1      -6.269 -16.399 -14.740  1.00  0.00     0.210 HD
ENDBRANCH  29  30
ENDBRANCH  28  29
ENDBRANCH  27  28
ENDBRANCH  26  27
ENDBRANCH  25  26
ENDBRANCH  24  25
ENDBRANCH  23  24
ENDBRANCH  22  23
ENDBRANCH  21  22
ENDBRANCH  20  21
ENDBRANCH  19  20
ENDBRANCH  18  19
ENDBRANCH  17  18
ENDBRANCH   1  17
TORSDOF 28
ENDMDL
MODEL 2
REMARK VINA RESULT:    -5.050      4.327     13.957
REMARK INTER + INTRA:         -15.380
REMARK INTER:                 -13.646
REMARK INTRA:                  -1.734
REMARK UNBOUND:                -2.212
REMARK SMILES CCCCCCCCCCCCCCCCCCCCCCCCCCCCCO
REMARK SMILES IDX 16 1 15 2 14 3 13 4 12 5 11 6 10 7 9 8 8 9 7 10 6 11 5 12
REMARK SMILES IDX 4 13 3 14 2 15 1 16 17 17 18 18 19 19 20 20 21 21 22 22
REMARK SMILES IDX 23 23 24 24 25 25 26 26 27 27 28 28 29 29 30 30
REMARK H PARENT 30 31
REMARK Flexibility Score: inf
ROOT
ATOM      1  C   UNL     1      -0.953 -22.376 -12.061  1.00  0.00     0.000 C 
ENDROOT
BRANCH   1   2
ATOM      2  C   UNL     1      -2.006 -23.460 -11.769  1.00  0.00     0.000 C 
BRANCH   2   3
ATOM      3  C   UNL     1      -3.395 -22.875 -11.458  1.00  0.00     0.000 C 
BRANCH   3   4
ATOM      4  C   UNL     1      -3.509 -22.172 -10.092  1.00  0.00     0.000 C 
BRANCH   4   5
ATOM      5  C   UNL     1      -4.921 -21.666  -9.728  1.00  0.00     0.000 C 
BRANCH   5   6
ATOM      6  C   UNL     1      -5.770 -21.182 -10.919  1.00  0.00     0.000 C 
BRANCH   6   7
ATOM      7  C   UNL     1      -5.366 -19.807 -11.480  1.00  0.00     0.000 C 
BRANCH   7   8
ATOM      8  C   UNL     1      -5.243 -19.777 -13.021  1.00  0.00    -0.000 C 
BRANCH   8   9
ATOM      9  C   UNL     1      -6.329 -18.940 -13.720  1.00  0.00    -0.000 C 
BRANCH   9  10
ATOM     10  C   UNL     1      -6.384 -19.189 -15.236  1.00  0.00    -0.000 C 
BRANCH  10  11
ATOM     11  C   UNL     1      -7.109 -18.042 -15.955  1.00  0.00    -0.000 C 
BRANCH  11  12
ATOM     12  C   UNL     1      -8.530 -17.803 -15.418  1.00  0.00    -0.000 C 
BRANCH  12  13
ATOM     13  C   UNL     1      -9.608 -17.943 -16.509  1.00  0.00    -0.000 C 
BRANCH  13  14
ATOM     14  C   UNL     1      -9.058 -17.660 -17.917  1.00  0.00    -0.000 C 
BRANCH  14  15
ATOM     15  C   UNL     1     -10.103 -17.899 -19.017  1.00  0.00    -0.003 C 
ATOM     16  C   UNL     1     -10.125 -16.741 -20.012  1.00  0.00     0.004 C 
ENDBRANCH  14  15
ENDBRANCH  13  14
ENDBRANCH  12  13
ENDBRANCH  11  12
ENDBRANCH  10  11
ENDBRANCH   9  10
ENDBRANCH   8   9
ENDBRANCH   7   8
ENDBRANCH   6   7
ENDBRANCH   5   6
ENDBRANCH   4   5
ENDBRANCH   3   4
ENDBRANCH   2   3
ENDBRANCH   1   2
BRANCH   1  17
ATOM     17  C   UNL     1       0.341 -22.589 -11.246  1.00  0.00     0.000 C 
BRANCH  17  18
ATOM     18  C   UNL     1       0.087 -22.804  -9.745  1.00  0.00     0.000 C 
BRANCH  18  19
ATOM     19  C   UNL     1       0.769 -24.068  -9.197  1.00  0.00     0.000 C 
BRANCH  19  20
ATOM     20  C   UNL     1       0.552 -25.304 -10.098  1.00  0.00     0.000 C 
BRANCH  20  21
ATOM     21  C   UNL     1       1.006 -26.625  -9.450  1.00  0.00     0.000 C 
BRANCH  21  22
ATOM     22  C   UNL     1       2.495 -26.970  -9.653  1.00  0.00     0.000 C 
BRANCH  22  23
ATOM     23  C   UNL     1       2.981 -26.807 -11.110  1.00  0.00     0.000 C 
BRANCH  23  24
ATOM     24  C   UNL     1       2.919 -28.118 -11.910  1.00  0.00     0.000 C 
BRANCH  24  25
ATOM     25  C   UNL     1       2.846 -29.359 -10.997  1.00  0.00     0.000 C 
BRANCH  25  26
ATOM     26  C   UNL     1       2.597 -30.671 -11.763  1.00  0.00     0.000 C 
BRANCH  26  27
ATOM     27  C   UNL     1       3.830 -31.147 -12.548  1.00  0.00     0.002 C 
BRANCH  27  28
ATOM     28  C   UNL     1       4.693 -32.139 -11.750  1.00  0.00     0.028 C 
BRANCH  28  29
ATOM     29  C   UNL     1       6.188 -32.064 -12.095  1.00  0.00     0.156 C 
BRANCH  29  30
ATOM     30  O   UNL     1       6.723 -33.342 -12.309  1.00  0.00    -0.396 OA
ATOM     31  H   UNL     1       5.974 -33.984 -12.207  1.00  0.00     0.210 HD
ENDBRANCH  29  30
ENDBRANCH  28  29
ENDBRANCH  27  28
ENDBRANCH  26  27
ENDBRANCH  25  26
ENDBRANCH  24  25
ENDBRANCH  23  24
ENDBRANCH  22  23
ENDBRANCH  21  22
ENDBRANCH  20  21
ENDBRANCH  19  20
ENDBRANCH  18  19
ENDBRANCH  17  18
ENDBRANCH   1  17
TORSDOF 28
ENDMDL
MODEL 3
REMARK VINA RESULT:    -5.002      4.221     13.796
REMARK INTER + INTRA:         -15.255
REMARK INTER:                 -13.170
REMARK INTRA:                  -2.085
REMARK UNBOUND:                -2.212
REMARK SMILES CCCCCCCCCCCCCCCCCCCCCCCCCCCCCO
REMARK SMILES IDX 16 1 15 2 14 3 13 4 12 5 11 6 10 7 9 8 8 9 7 10 6 11 5 12
REMARK SMILES IDX 4 13 3 14 2 15 1 16 17 17 18 18 19 19 20 20 21 21 22 22
REMARK SMILES IDX 23 23 24 24 25 25 26 26 27 27 28 28 29 29 30 30
REMARK H PARENT 30 31
REMARK Flexibility Score: inf
ROOT
ATOM      1  C   UNL     1       1.355 -23.566  -8.929  1.00  0.00     0.000 C 
ENDROOT
BRANCH   1   2
ATOM      2  C   UNL     1       0.038 -23.147  -9.606  1.00  0.00     0.000 C 
BRANCH   2   3
ATOM      3  C   UNL     1       0.248 -22.134 -10.744  1.00  0.00     0.000 C 
BRANCH   3   4
ATOM      4  C   UNL     1      -0.749 -22.258 -11.913  1.00  0.00     0.000 C 
BRANCH   4   5
ATOM      5  C   UNL     1      -1.670 -23.494 -11.864  1.00  0.00     0.000 C 
BRANCH   5   6
ATOM      6  C   UNL     1      -3.140 -23.200 -11.509  1.00  0.00     0.000 C 
BRANCH   6   7
ATOM      7  C   UNL     1      -3.421 -21.748 -11.086  1.00  0.00     0.000 C 
BRANCH   7   8
ATOM      8  C   UNL     1      -4.919 -21.454 -10.830  1.00  0.00    -0.000 C 
BRANCH   8   9
ATOM      9  C   UNL     1      -5.733 -21.199 -12.111  1.00  0.00    -0.000 C 
BRANCH   9  10
ATOM     10  C   UNL     1      -5.683 -19.729 -12.560  1.00  0.00    -0.000 C 
BRANCH  10  11
ATOM     11  C   UNL     1      -5.663 -19.624 -14.093  1.00  0.00    -0.000 C 
BRANCH  11  12
ATOM     12  C   UNL     1      -6.970 -19.057 -14.671  1.00  0.00    -0.000 C 
BRANCH  12  13
ATOM     13  C   UNL     1      -6.835 -17.588 -15.112  1.00  0.00    -0.000 C 
BRANCH  13  14
ATOM     14  C   UNL     1      -7.772 -16.652 -14.331  1.00  0.00    -0.000 C 
BRANCH  14  15
ATOM     15  C   UNL     1      -8.280 -17.280 -13.024  1.00  0.00    -0.003 C 
ATOM     16  C   UNL     1      -9.722 -16.867 -12.742  1.00  0.00     0.004 C 
ENDBRANCH  14  15
ENDBRANCH  13  14
ENDBRANCH  12  13
ENDBRANCH  11  12
ENDBRANCH  10  11
ENDBRANCH   9  10
ENDBRANCH   8   9
ENDBRANCH   7   8
ENDBRANCH   6   7
ENDBRANCH   5   6
ENDBRANCH   4   5
ENDBRANCH   3   4
ENDBRANCH   2   3
ENDBRANCH   1   2
BRANCH   1  17
ATOM     17  C   UNL     1       1.902 -24.895  -9.494  1.00  0.00     0.000 C 
BRANCH  17  18
ATOM     18  C   UNL     1       0.801 -25.835 -10.012  1.00  0.00     0.000 C 
BRANCH  18  19
ATOM     19  C   UNL     1       1.245 -27.306 -10.063  1.00  0.00     0.000 C 
BRANCH  19  20
ATOM     20  C   UNL     1       2.740 -27.493  -9.723  1.00  0.00     0.000 C 
BRANCH  20  21
ATOM     21  C   UNL     1       3.399 -28.667 -10.469  1.00  0.00     0.000 C 
BRANCH  21  22
ATOM     22  C   UNL     1       2.758 -29.016 -11.827  1.00  0.00     0.000 C 
BRANCH  22  23
ATOM     23  C   UNL     1       3.112 -30.429 -12.340  1.00  0.00     0.000 C 
BRANCH  23  24
ATOM     24  C   UNL     1       1.910 -31.388 -12.325  1.00  0.00     0.000 C 
BRANCH  24  25
ATOM     25  C   UNL     1       2.205 -32.684 -11.542  1.00  0.00     0.000 C 
BRANCH  25  26
ATOM     26  C   UNL     1       3.064 -32.461 -10.286  1.00  0.00     0.000 C 
BRANCH  26  27
ATOM     27  C   UNL     1       4.168 -33.518 -10.121  1.00  0.00     0.002 C 
BRANCH  27  28
ATOM     28  C   UNL     1       5.555 -32.996 -10.529  1.00  0.00     0.028 C 
BRANCH  28  29
ATOM     29  C   UNL     1       5.719 -32.818 -12.046  1.00  0.00     0.156 C 
BRANCH  29  30
ATOM     30  O   UNL     1       6.998 -33.208 -12.466  1.00  0.00    -0.396 OA
ATOM     31  H   UNL     1       6.892 -33.606 -13.369  1.00  0.00     0.210 HD
ENDBRANCH  29  30
ENDBRANCH  28  29
ENDBRANCH  27  28
ENDBRANCH  26  27
ENDBRANCH  25  26
ENDBRANCH  24  25
ENDBRANCH  23  24
ENDBRANCH  22  23
ENDBRANCH  21  22
ENDBRANCH  20  21
ENDBRANCH  19  20
ENDBRANCH  18  19
ENDBRANCH  17  18
ENDBRANCH   1  17
TORSDOF 28
ENDMDL
MODEL 4
REMARK VINA RESULT:    -4.921      3.120     12.897
REMARK INTER + INTRA:         -15.043
REMARK INTER:                 -12.806
REMARK INTRA:                  -2.237
REMARK UNBOUND:                -2.212
REMARK SMILES CCCCCCCCCCCCCCCCCCCCCCCCCCCCCO
REMARK SMILES IDX 16 1 15 2 14 3 13 4 12 5 11 6 10 7 9 8 8 9 7 10 6 11 5 12
REMARK SMILES IDX 4 13 3 14 2 15 1 16 17 17 18 18 19 19 20 20 21 21 22 22
REMARK SMILES IDX 23 23 24 24 25 25 26 26 27 27 28 28 29 29 30 30
REMARK H PARENT 30 31
REMARK Flexibility Score: inf
ROOT
ATOM      1  C   UNL     1       0.753 -26.040  -9.906  1.00  0.00     0.000 C 
ENDROOT
BRANCH   1   2
ATOM      2  C   UNL     1       1.336 -24.619 -10.004  1.00  0.00     0.000 C 
BRANCH   2   3
ATOM      3  C   UNL     1       0.848 -23.694  -8.876  1.00  0.00     0.000 C 
BRANCH   3   4
ATOM      4  C   UNL     1      -0.280 -22.724  -9.278  1.00  0.00     0.000 C 
BRANCH   4   5
ATOM      5  C   UNL     1       0.060 -21.761 -10.435  1.00  0.00     0.000 C 
BRANCH   5   6
ATOM      6  C   UNL     1      -0.960 -21.739 -11.589  1.00  0.00     0.000 C 
BRANCH   6   7
ATOM      7  C   UNL     1      -1.505 -23.121 -11.991  1.00  0.00     0.000 C 
BRANCH   7   8
ATOM      8  C   UNL     1      -2.933 -23.402 -11.468  1.00  0.00    -0.000 C 
BRANCH   8   9
ATOM      9  C   UNL     1      -3.619 -22.178 -10.837  1.00  0.00    -0.000 C 
BRANCH   9  10
ATOM     10  C   UNL     1      -4.939 -21.813 -11.537  1.00  0.00    -0.000 C 
BRANCH  10  11
ATOM     11  C   UNL     1      -4.828 -20.455 -12.245  1.00  0.00    -0.000 C 
BRANCH  11  12
ATOM     12  C   UNL     1      -5.958 -20.215 -13.260  1.00  0.00    -0.000 C 
BRANCH  12  13
ATOM     13  C   UNL     1      -5.951 -18.784 -13.828  1.00  0.00    -0.000 C 
BRANCH  13  14
ATOM     14  C   UNL     1      -6.547 -18.711 -15.243  1.00  0.00    -0.000 C 
BRANCH  14  15
ATOM     15  C   UNL     1      -7.558 -17.566 -15.400  1.00  0.00    -0.003 C 
ATOM     16  C   UNL     1      -7.650 -16.736 -14.121  1.00  0.00     0.004 C 
ENDBRANCH  14  15
ENDBRANCH  13  14
ENDBRANCH  12  13
ENDBRANCH  11  12
ENDBRANCH  10  11
ENDBRANCH   9  10
ENDBRANCH   8   9
ENDBRANCH   7   8
ENDBRANCH   6   7
ENDBRANCH   5   6
ENDBRANCH   4   5
ENDBRANCH   3   4
ENDBRANCH   2   3
ENDBRANCH   1   2
BRANCH   1  17
ATOM     17  C   UNL     1       1.675 -26.993  -9.116  1.00  0.00     0.000 C 
BRANCH  17  18
ATOM     18  C   UNL     1       2.499 -27.929 -10.017  1.00  0.00     0.000 C 
BRANCH  18  19
ATOM     19  C   UNL     1       4.011 -27.667  -9.928  1.00  0.00     0.000 C 
BRANCH  19  20
ATOM     20  C   UNL     1       4.766 -28.773  -9.156  1.00  0.00     0.000 C 
BRANCH  20  21
ATOM     21  C   UNL     1       4.404 -30.198  -9.612  1.00  0.00     0.000 C 
BRANCH  21  22
ATOM     22  C   UNL     1       5.404 -30.840 -10.594  1.00  0.00     0.000 C 
BRANCH  22  23
ATOM     23  C   UNL     1       5.375 -32.384 -10.596  1.00  0.00     0.000 C 
BRANCH  23  24
ATOM     24  C   UNL     1       4.282 -32.960 -11.511  1.00  0.00     0.000 C 
BRANCH  24  25
ATOM     25  C   UNL     1       3.020 -33.376 -10.726  1.00  0.00     0.000 C 
BRANCH  25  26
ATOM     26  C   UNL     1       1.720 -32.780 -11.294  1.00  0.00     0.000 C 
BRANCH  26  27
ATOM     27  C   UNL     1       1.934 -32.041 -12.625  1.00  0.00     0.002 C 
BRANCH  27  28
ATOM     28  C   UNL     1       2.169 -30.534 -12.435  1.00  0.00     0.028 C 
BRANCH  28  29
ATOM     29  C   UNL     1       3.079 -29.917 -13.507  1.00  0.00     0.156 C 
BRANCH  29  30
ATOM     30  O   UNL     1       2.927 -28.524 -13.560  1.00  0.00    -0.396 OA
ATOM     31  H   UNL     1       3.828 -28.134 -13.415  1.00  0.00     0.210 HD
ENDBRANCH  29  30
ENDBRANCH  28  29
ENDBRANCH  27  28
ENDBRANCH  26  27
ENDBRANCH  25  26
ENDBRANCH  24  25
ENDBRANCH  23  24
ENDBRANCH  22  23
ENDBRANCH  21  22
ENDBRANCH  20  21
ENDBRANCH  19  20
ENDBRANCH  18  19
ENDBRANCH  17  18
ENDBRANCH   1  17
TORSDOF 28
ENDMDL
MODEL 5
REMARK VINA RESULT:    -4.917      1.263      3.820
REMARK INTER + INTRA:         -15.035
REMARK INTER:                 -12.257
REMARK INTRA:                  -2.778
REMARK UNBOUND:                -2.212
REMARK SMILES CCCCCCCCCCCCCCCCCCCCCCCCCCCCCO
REMARK SMILES IDX 16 1 15 2 14 3 13 4 12 5 11 6 10 7 9 8 8 9 7 10 6 11 5 12
REMARK SMILES IDX 4 13 3 14 2 15 1 16 17 17 18 18 19 19 20 20 21 21 22 22
REMARK SMILES IDX 23 23 24 24 25 25 26 26 27 27 28 28 29 29 30 30
REMARK H PARENT 30 31
REMARK Flexibility Score: inf
ROOT
ATOM      1  C   UNL     1       0.623 -25.946 -10.633  1.00  0.00     0.000 C 
ENDROOT
BRANCH   1   2
ATOM      2  C   UNL     1       1.321 -27.312 -10.521  1.00  0.00     0.000 C 
BRANCH   2   3
ATOM      3  C   UNL     1       1.996 -27.528  -9.156  1.00  0.00     0.000 C 
BRANCH   3   4
ATOM      4  C   UNL     1       3.198 -28.493  -9.174  1.00  0.00     0.000 C 
BRANCH   4   5
ATOM      5  C   UNL     1       4.509 -27.901  -9.731  1.00  0.00     0.000 C 
BRANCH   5   6
ATOM      6  C   UNL     1       5.793 -28.634  -9.299  1.00  0.00     0.000 C 
BRANCH   6   7
ATOM      7  C   UNL     1       5.689 -30.169  -9.304  1.00  0.00     0.000 C 
BRANCH   7   8
ATOM      8  C   UNL     1       7.007 -30.880  -9.694  1.00  0.00    -0.000 C 
BRANCH   8   9
ATOM      9  C   UNL     1       6.806 -32.148 -10.543  1.00  0.00    -0.000 C 
BRANCH   9  10
ATOM     10  C   UNL     1       5.987 -31.883 -11.817  1.00  0.00    -0.000 C 
BRANCH  10  11
ATOM     11  C   UNL     1       5.141 -33.110 -12.190  1.00  0.00    -0.000 C 
BRANCH  11  12
ATOM     12  C   UNL     1       3.899 -33.274 -11.299  1.00  0.00    -0.000 C 
BRANCH  12  13
ATOM     13  C   UNL     1       3.255 -31.927 -10.925  1.00  0.00    -0.000 C 
BRANCH  13  14
ATOM     14  C   UNL     1       2.231 -31.455 -11.970  1.00  0.00    -0.000 C 
BRANCH  14  15
ATOM     15  C   UNL     1       2.652 -30.149 -12.660  1.00  0.00    -0.003 C 
ATOM     16  C   UNL     1       3.213 -30.421 -14.054  1.00  0.00     0.004 C 
ENDBRANCH  14  15
ENDBRANCH  13  14
ENDBRANCH  12  13
ENDBRANCH  11  12
ENDBRANCH  10  11
ENDBRANCH   9  10
ENDBRANCH   8   9
ENDBRANCH   7   8
ENDBRANCH   6   7
ENDBRANCH   5   6
ENDBRANCH   4   5
ENDBRANCH   3   4
ENDBRANCH   2   3
ENDBRANCH   1   2
BRANCH   1  17
ATOM     17  C   UNL     1       0.614 -25.186  -9.289  1.00  0.00     0.000 C 
BRANCH  17  18
ATOM     18  C   UNL     1       0.942 -23.690  -9.433  1.00  0.00     0.000 C 
BRANCH  18  19
ATOM     19  C   UNL     1      -0.304 -22.826  -9.687  1.00  0.00     0.000 C 
BRANCH  19  20
ATOM     20  C   UNL     1      -0.150 -21.899 -10.913  1.00  0.00     0.000 C 
BRANCH  20  21
ATOM     21  C   UNL     1      -0.986 -22.341 -12.128  1.00  0.00     0.000 C 
BRANCH  21  22
ATOM     22  C   UNL     1      -1.852 -23.596 -11.899  1.00  0.00     0.000 C 
BRANCH  22  23
ATOM     23  C   UNL     1      -3.357 -23.293 -11.727  1.00  0.00     0.000 C 
BRANCH  23  24
ATOM     24  C   UNL     1      -3.630 -21.842 -11.299  1.00  0.00     0.000 C 
BRANCH  24  25
ATOM     25  C   UNL     1      -4.976 -21.315 -11.838  1.00  0.00     0.000 C 
BRANCH  25  26
ATOM     26  C   UNL     1      -5.197 -19.815 -11.577  1.00  0.00     0.000 C 
BRANCH  26  27
ATOM     27  C   UNL     1      -6.049 -19.139 -12.663  1.00  0.00     0.002 C 
BRANCH  27  28
ATOM     28  C   UNL     1      -5.980 -19.873 -14.012  1.00  0.00     0.028 C 
BRANCH  28  29
ATOM     29  C   UNL     1      -6.335 -18.983 -15.212  1.00  0.00     0.156 C 
BRANCH  29  30
ATOM     30  O   UNL     1      -6.353 -17.629 -14.850  1.00  0.00    -0.396 OA
ATOM     31  H   UNL     1      -6.668 -17.126 -15.645  1.00  0.00     0.210 HD
ENDBRANCH  29  30
ENDBRANCH  28  29
ENDBRANCH  27  28
ENDBRANCH  26  27
ENDBRANCH  25  26
ENDBRANCH  24  25
ENDBRANCH  23  24
ENDBRANCH  22  23
ENDBRANCH  21  22
ENDBRANCH  20  21
ENDBRANCH  19  20
ENDBRANCH  18  19
ENDBRANCH  17  18
ENDBRANCH   1  17
TORSDOF 28
ENDMDL
MODEL 6
REMARK VINA RESULT:    -4.880      1.531      4.951
REMARK INTER + INTRA:         -14.937
REMARK INTER:                 -11.864
REMARK INTRA:                  -3.073
REMARK UNBOUND:                -2.212
REMARK SMILES CCCCCCCCCCCCCCCCCCCCCCCCCCCCCO
REMARK SMILES IDX 16 1 15 2 14 3 13 4 12 5 11 6 10 7 9 8 8 9 7 10 6 11 5 12
REMARK SMILES IDX 4 13 3 14 2 15 1 16 17 17 18 18 19 19 20 20 21 21 22 22
REMARK SMILES IDX 23 23 24 24 25 25 26 26 27 27 28 28 29 29 30 30
REMARK H PARENT 30 31
REMARK Flexibility Score: inf
ROOT
ATOM      1  C   UNL     1       2.425 -27.297  -8.966  1.00  0.00     0.000 C 
ENDROOT
BRANCH   1   2
ATOM      2  C   UNL     1       3.427 -28.464  -8.924  1.00  0.00     0.000 C 
BRANCH   2   3
ATOM      3  C   UNL     1       4.755 -28.137  -9.628  1.00  0.00     0.000 C 
BRANCH   3   4
ATOM      4  C   UNL     1       5.929 -29.063  -9.257  1.00  0.00     0.000 C 
BRANCH   4   5
ATOM      5  C   UNL     1       5.542 -30.523  -8.940  1.00  0.00     0.000 C 
BRANCH   5   6
ATOM      6  C   UNL     1       6.591 -31.579  -9.338  1.00  0.00     0.000 C 
BRANCH   6   7
ATOM      7  C   UNL     1       7.035 -31.521 -10.810  1.00  0.00     0.000 C 
BRANCH   7   8
ATOM      8  C   UNL     1       5.968 -32.044 -11.801  1.00  0.00    -0.000 C 
BRANCH   8   9
ATOM      9  C   UNL     1       5.396 -33.425 -11.434  1.00  0.00    -0.000 C 
BRANCH   9  10
ATOM     10  C   UNL     1       3.858 -33.451 -11.449  1.00  0.00    -0.000 C 
BRANCH  10  11
ATOM     11  C   UNL     1       3.282 -32.110 -10.972  1.00  0.00    -0.000 C 
BRANCH  11  12
ATOM     12  C   UNL     1       2.229 -31.535 -11.935  1.00  0.00    -0.000 C 
BRANCH  12  13
ATOM     13  C   UNL     1       2.230 -29.996 -11.964  1.00  0.00    -0.000 C 
BRANCH  13  14
ATOM     14  C   UNL     1       2.954 -29.433 -13.198  1.00  0.00    -0.000 C 
BRANCH  14  15
ATOM     15  C   UNL     1       3.357 -30.528 -14.197  1.00  0.00    -0.003 C 
ATOM     16  C   UNL     1       2.575 -30.396 -15.501  1.00  0.00     0.004 C 
ENDBRANCH  14  15
ENDBRANCH  13  14
ENDBRANCH  12  13
ENDBRANCH  11  12
ENDBRANCH  10  11
ENDBRANCH   9  10
ENDBRANCH   8   9
ENDBRANCH   7   8
ENDBRANCH   6   7
ENDBRANCH   5   6
ENDBRANCH   4   5
ENDBRANCH   3   4
ENDBRANCH   2   3
ENDBRANCH   1   2
BRANCH   1  17
ATOM     17  C   UNL     1       2.429 -26.577 -10.331  1.00  0.00     0.000 C 
BRANCH  17  18
ATOM     18  C   UNL     1       1.876 -25.143 -10.264  1.00  0.00     0.000 C 
BRANCH  18  19
ATOM     19  C   UNL     1       0.776 -24.975  -9.203  1.00  0.00     0.000 C 
BRANCH  19  20
ATOM     20  C   UNL     1       0.021 -23.633  -9.330  1.00  0.00     0.000 C 
BRANCH  20  21
ATOM     21  C   UNL     1       0.383 -22.841 -10.600  1.00  0.00     0.000 C 
BRANCH  21  22
ATOM     22  C   UNL     1      -0.804 -22.143 -11.291  1.00  0.00     0.000 C 
BRANCH  22  23
ATOM     23  C   UNL     1      -1.707 -23.100 -12.101  1.00  0.00     0.000 C 
BRANCH  23  24
ATOM     24  C   UNL     1      -3.118 -23.236 -11.507  1.00  0.00     0.000 C 
BRANCH  24  25
ATOM     25  C   UNL     1      -3.473 -22.066 -10.566  1.00  0.00     0.000 C 
BRANCH  25  26
ATOM     26  C   UNL     1      -4.829 -21.412 -10.885  1.00  0.00     0.000 C 
BRANCH  26  27
ATOM     27  C   UNL     1      -4.808 -20.598 -12.189  1.00  0.00     0.002 C 
BRANCH  27  28
ATOM     28  C   UNL     1      -5.842 -19.461 -12.194  1.00  0.00     0.028 C 
BRANCH  28  29
ATOM     29  C   UNL     1      -6.149 -18.920 -13.599  1.00  0.00     0.156 C 
BRANCH  29  30
ATOM     30  O   UNL     1      -6.766 -19.896 -14.393  1.00  0.00    -0.396 OA
ATOM     31  H   UNL     1      -6.111 -20.148 -15.095  1.00  0.00     0.210 HD
ENDBRANCH  29  30
ENDBRANCH  28  29
ENDBRANCH  27  28
ENDBRANCH  26  27
ENDBRANCH  25  26
ENDBRANCH  24  25
ENDBRANCH  23  24
ENDBRANCH  22  23
ENDBRANCH  21  22
ENDBRANCH  20  21
ENDBRANCH  19  20
ENDBRANCH  18  19
ENDBRANCH  17  18
ENDBRANCH   1  17
TORSDOF 28
ENDMDL
MODEL 7
REMARK VINA RESULT:    -4.815      1.140      3.053
REMARK INTER + INTRA:         -14.767
REMARK INTER:                 -12.245
REMARK INTRA:                  -2.522
REMARK UNBOUND:                -2.212
REMARK SMILES CCCCCCCCCCCCCCCCCCCCCCCCCCCCCO
REMARK SMILES IDX 16 1 15 2 14 3 13 4 12 5 11 6 10 7 9 8 8 9 7 10 6 11 5 12
REMARK SMILES IDX 4 13 3 14 2 15 1 16 17 17 18 18 19 19 20 20 21 21 22 22
REMARK SMILES IDX 23 23 24 24 25 25 26 26 27 27 28 28 29 29 30 30
REMARK H PARENT 30 31
REMARK Flexibility Score: inf
ROOT
ATOM      1  C   UNL     1       2.506 -24.973  -9.130  1.00  0.00     0.000 C 
ENDROOT
BRANCH   1   2
ATOM      2  C   UNL     1       4.037 -25.123  -9.110  1.00  0.00     0.000 C 
BRANCH   2   3
ATOM      3  C   UNL     1       4.544 -26.203 -10.081  1.00  0.00     0.000 C 
BRANCH   3   4
ATOM      4  C   UNL     1       4.659 -27.615  -9.474  1.00  0.00     0.000 C 
BRANCH   4   5
ATOM      5  C   UNL     1       3.883 -28.719 -10.222  1.00  0.00     0.000 C 
BRANCH   5   6
ATOM      6  C   UNL     1       2.514 -28.290 -10.784  1.00  0.00     0.000 C 
BRANCH   6   7
ATOM      7  C   UNL     1       2.267 -28.689 -12.249  1.00  0.00     0.000 C 
BRANCH   7   8
ATOM      8  C   UNL     1       3.407 -29.535 -12.863  1.00  0.00    -0.000 C 
BRANCH   8   9
ATOM      9  C   UNL     1       3.038 -31.012 -13.088  1.00  0.00    -0.000 C 
BRANCH   9  10
ATOM     10  C   UNL     1       1.849 -31.464 -12.223  1.00  0.00    -0.000 C 
BRANCH  10  11
ATOM     11  C   UNL     1       2.143 -32.811 -11.547  1.00  0.00    -0.000 C 
BRANCH  11  12
ATOM     12  C   UNL     1       3.631 -32.997 -11.204  1.00  0.00    -0.000 C 
BRANCH  12  13
ATOM     13  C   UNL     1       3.996 -32.425  -9.822  1.00  0.00    -0.000 C 
BRANCH  13  14
ATOM     14  C   UNL     1       5.486 -32.062  -9.712  1.00  0.00    -0.000 C 
BRANCH  14  15
ATOM     15  C   UNL     1       6.063 -31.530 -11.033  1.00  0.00    -0.003 C 
ATOM     16  C   UNL     1       7.159 -32.451 -11.563  1.00  0.00     0.004 C 
ENDBRANCH  14  15
ENDBRANCH  13  14
ENDBRANCH  12  13
ENDBRANCH  11  12
ENDBRANCH  10  11
ENDBRANCH   9  10
ENDBRANCH   8   9
ENDBRANCH   7   8
ENDBRANCH   6   7
ENDBRANCH   5   6
ENDBRANCH   4   5
ENDBRANCH   3   4
ENDBRANCH   2   3
ENDBRANCH   1   2
BRANCH   1  17
ATOM     17  C   UNL     1       2.061 -23.515  -8.879  1.00  0.00     0.000 C 
BRANCH  17  18
ATOM     18  C   UNL     1       0.586 -23.260  -9.231  1.00  0.00     0.000 C 
BRANCH  18  19
ATOM     19  C   UNL     1       0.178 -23.872 -10.581  1.00  0.00     0.000 C 
BRANCH  19  20
ATOM     20  C   UNL     1      -0.899 -23.041 -11.314  1.00  0.00     0.000 C 
BRANCH  20  21
ATOM     21  C   UNL     1      -2.083 -23.881 -11.824  1.00  0.00     0.000 C 
BRANCH  21  22
ATOM     22  C   UNL     1      -3.468 -23.229 -11.642  1.00  0.00     0.000 C 
BRANCH  22  23
ATOM     23  C   UNL     1      -3.410 -21.770 -11.138  1.00  0.00     0.000 C 
BRANCH  23  24
ATOM     24  C   UNL     1      -4.803 -21.161 -10.907  1.00  0.00     0.000 C 
BRANCH  24  25
ATOM     25  C   UNL     1      -5.594 -20.992 -12.221  1.00  0.00     0.000 C 
BRANCH  25  26
ATOM     26  C   UNL     1      -5.648 -19.538 -12.723  1.00  0.00     0.000 C 
BRANCH  26  27
ATOM     27  C   UNL     1      -6.116 -19.428 -14.183  1.00  0.00     0.002 C 
BRANCH  27  28
ATOM     28  C   UNL     1      -7.296 -18.457 -14.354  1.00  0.00     0.028 C 
BRANCH  28  29
ATOM     29  C   UNL     1      -6.936 -17.191 -15.146  1.00  0.00     0.156 C 
BRANCH  29  30
ATOM     30  O   UNL     1      -7.340 -16.035 -14.463  1.00  0.00    -0.396 OA
ATOM     31  H   UNL     1      -7.123 -15.267 -15.051  1.00  0.00     0.210 HD
ENDBRANCH  29  30
ENDBRANCH  28  29
ENDBRANCH  27  28
ENDBRANCH  26  27
ENDBRANCH  25  26
ENDBRANCH  24  25
ENDBRANCH  23  24
ENDBRANCH  22  23
ENDBRANCH  21  22
ENDBRANCH  20  21
ENDBRANCH  19  20
ENDBRANCH  18  19
ENDBRANCH  17  18
ENDBRANCH   1  17
TORSDOF 28
ENDMDL
MODEL 8
REMARK VINA RESULT:    -4.796      1.206      2.531
REMARK INTER + INTRA:         -14.718
REMARK INTER:                 -12.647
REMARK INTRA:                  -2.072
REMARK UNBOUND:                -2.212
REMARK SMILES CCCCCCCCCCCCCCCCCCCCCCCCCCCCCO
REMARK SMILES IDX 16 1 15 2 14 3 13 4 12 5 11 6 10 7 9 8 8 9 7 10 6 11 5 12
REMARK SMILES IDX 4 13 3 14 2 15 1 16 17 17 18 18 19 19 20 20 21 21 22 22
REMARK SMILES IDX 23 23 24 24 25 25 26 26 27 27 28 28 29 29 30 30
REMARK H PARENT 30 31
REMARK Flexibility Score: inf
ROOT
ATOM      1  C   UNL     1       1.007 -23.408 -10.356  1.00  0.00     0.000 C 
ENDROOT
BRANCH   1   2
ATOM      2  C   UNL     1       0.363 -24.769 -10.037  1.00  0.00     0.000 C 
BRANCH   2   3
ATOM      3  C   UNL     1       1.142 -25.564  -8.975  1.00  0.00     0.000 C 
BRANCH   3   4
ATOM      4  C   UNL     1       1.769 -26.877  -9.480  1.00  0.00     0.000 C 
BRANCH   4   5
ATOM      5  C   UNL     1       2.712 -26.733 -10.694  1.00  0.00     0.000 C 
BRANCH   5   6
ATOM      6  C   UNL     1       3.928 -27.678 -10.693  1.00  0.00     0.000 C 
BRANCH   6   7
ATOM      7  C   UNL     1       3.898 -28.764  -9.603  1.00  0.00     0.000 C 
BRANCH   7   8
ATOM      8  C   UNL     1       5.168 -29.646  -9.570  1.00  0.00    -0.000 C 
BRANCH   8   9
ATOM      9  C   UNL     1       4.882 -31.157  -9.643  1.00  0.00    -0.000 C 
BRANCH   9  10
ATOM     10  C   UNL     1       5.466 -31.809 -10.908  1.00  0.00    -0.000 C 
BRANCH  10  11
ATOM     11  C   UNL     1       4.370 -32.525 -11.711  1.00  0.00    -0.000 C 
BRANCH  11  12
ATOM     12  C   UNL     1       2.954 -32.228 -11.190  1.00  0.00    -0.000 C 
BRANCH  12  13
ATOM     13  C   UNL     1       2.044 -31.610 -12.266  1.00  0.00    -0.000 C 
BRANCH  13  14
ATOM     14  C   UNL     1       2.581 -30.268 -12.791  1.00  0.00    -0.000 C 
BRANCH  14  15
ATOM     15  C   UNL     1       3.337 -30.414 -14.120  1.00  0.00    -0.003 C 
ATOM     16  C   UNL     1       2.391 -30.261 -15.308  1.00  0.00     0.004 C 
ENDBRANCH  14  15
ENDBRANCH  13  14
ENDBRANCH  12  13
ENDBRANCH  11  12
ENDBRANCH  10  11
ENDBRANCH   9  10
ENDBRANCH   8   9
ENDBRANCH   7   8
ENDBRANCH   6   7
ENDBRANCH   5   6
ENDBRANCH   4   5
ENDBRANCH   3   4
ENDBRANCH   2   3
ENDBRANCH   1   2
BRANCH   1  17
ATOM     17  C   UNL     1       0.843 -22.402  -9.196  1.00  0.00     0.000 C 
BRANCH  17  18
ATOM     18  C   UNL     1      -0.060 -21.209  -9.549  1.00  0.00     0.000 C 
BRANCH  18  19
ATOM     19  C   UNL     1      -1.522 -21.617  -9.796  1.00  0.00     0.000 C 
BRANCH  19  20
ATOM     20  C   UNL     1      -1.849 -21.794 -11.296  1.00  0.00     0.000 C 
BRANCH  20  21
ATOM     21  C   UNL     1      -3.112 -22.635 -11.554  1.00  0.00     0.000 C 
BRANCH  21  22
ATOM     22  C   UNL     1      -4.409 -22.063 -10.949  1.00  0.00     0.000 C 
BRANCH  22  23
ATOM     23  C   UNL     1      -4.796 -20.673 -11.501  1.00  0.00     0.000 C 
BRANCH  23  24
ATOM     24  C   UNL     1      -5.851 -20.745 -12.617  1.00  0.00     0.000 C 
BRANCH  24  25
ATOM     25  C   UNL     1      -5.879 -19.466 -13.479  1.00  0.00     0.000 C 
BRANCH  25  26
ATOM     26  C   UNL     1      -6.206 -19.731 -14.959  1.00  0.00     0.000 C 
BRANCH  26  27
ATOM     27  C   UNL     1      -6.688 -18.472 -15.699  1.00  0.00     0.002 C 
BRANCH  27  28
ATOM     28  C   UNL     1      -8.052 -17.974 -15.195  1.00  0.00     0.028 C 
BRANCH  28  29
ATOM     29  C   UNL     1      -7.982 -16.616 -14.481  1.00  0.00     0.156 C 
BRANCH  29  30
ATOM     30  O   UNL     1      -6.653 -16.219 -14.278  1.00  0.00    -0.396 OA
ATOM     31  H   UNL     1      -6.555 -15.327 -14.700  1.00  0.00     0.210 HD
ENDBRANCH  29  30
ENDBRANCH  28  29
ENDBRANCH  27  28
ENDBRANCH  26  27
ENDBRANCH  25  26
ENDBRANCH  24  25
ENDBRANCH  23  24
ENDBRANCH  22  23
ENDBRANCH  21  22
ENDBRANCH  20  21
ENDBRANCH  19  20
ENDBRANCH  18  19
ENDBRANCH  17  18
ENDBRANCH   1  17
TORSDOF 28
ENDMDL
MODEL 9
REMARK VINA RESULT:    -2.605      3.357     12.618
REMARK INTER + INTRA:          -9.006
REMARK INTER:                  -5.829
REMARK INTRA:                  -3.177
REMARK UNBOUND:                -2.212
REMARK SMILES CCCCCCCCCCCCCCCCCCCCCCCCCCCCCO
REMARK SMILES IDX 16 1 15 2 14 3 13 4 12 5 11 6 10 7 9 8 8 9 7 10 6 11 5 12
REMARK SMILES IDX 4 13 3 14 2 15 1 16 17 17 18 18 19 19 20 20 21 21 22 22
REMARK SMILES IDX 23 23 24 24 25 25 26 26 27 27 28 28 29 29 30 30
REMARK H PARENT 30 31
REMARK Flexibility Score: inf
ROOT
ATOM      1  C   UNL     1       3.719 -28.614  -8.930  1.00  0.00     0.000 C 
ENDROOT
BRANCH   1   2
ATOM      2  C   UNL     1       4.328 -27.693 -10.001  1.00  0.00     0.000 C 
BRANCH   2   3
ATOM      3  C   UNL     1       3.272 -26.841 -10.726  1.00  0.00     0.000 C 
BRANCH   3   4
ATOM      4  C   UNL     1       1.933 -27.557 -10.989  1.00  0.00     0.000 C 
BRANCH   4   5
ATOM      5  C   UNL     1       0.726 -27.009 -10.200  1.00  0.00     0.000 C 
BRANCH   5   6
ATOM      6  C   UNL     1       0.972 -25.673  -9.473  1.00  0.00     0.000 C 
BRANCH   6   7
ATOM      7  C   UNL     1       0.628 -24.420 -10.298  1.00  0.00     0.000 C 
BRANCH   7   8
ATOM      8  C   UNL     1      -0.133 -23.339  -9.496  1.00  0.00    -0.000 C 
BRANCH   8   9
ATOM      9  C   UNL     1      -0.855 -22.301 -10.373  1.00  0.00    -0.000 C 
BRANCH   9  10
ATOM     10  C   UNL     1      -1.452 -22.917 -11.649  1.00  0.00    -0.000 C 
BRANCH  10  11
ATOM     11  C   UNL     1      -2.947 -22.589 -11.770  1.00  0.00    -0.000 C 
BRANCH  11  12
ATOM     12  C   UNL     1      -3.394 -21.471 -10.812  1.00  0.00    -0.000 C 
BRANCH  12  13
ATOM     13  C   UNL     1      -4.764 -21.752 -10.170  1.00  0.00    -0.000 C 
BRANCH  13  14
ATOM     14  C   UNL     1      -5.931 -21.230 -11.025  1.00  0.00    -0.000 C 
BRANCH  14  15
ATOM     15  C   UNL     1      -5.658 -19.835 -11.607  1.00  0.00    -0.003 C 
ATOM     16  C   UNL     1      -5.600 -19.878 -13.131  1.00  0.00     0.004 C 
ENDBRANCH  14  15
ENDBRANCH  13  14
ENDBRANCH  12  13
ENDBRANCH  11  12
ENDBRANCH  10  11
ENDBRANCH   9  10
ENDBRANCH   8   9
ENDBRANCH   7   8
ENDBRANCH   6   7
ENDBRANCH   5   6
ENDBRANCH   4   5
ENDBRANCH   3   4
ENDBRANCH   2   3
ENDBRANCH   1   2
BRANCH   1  17
ATOM     17  C   UNL     1       4.228 -30.067  -9.056  1.00  0.00     0.000 C 
BRANCH  17  18
ATOM     18  C   UNL     1       5.269 -30.252 -10.172  1.00  0.00     0.000 C 
BRANCH  18  19
ATOM     19  C   UNL     1       6.305 -31.341  -9.851  1.00  0.00     0.000 C 
BRANCH  19  20
ATOM     20  C   UNL     1       6.623 -32.242 -11.065  1.00  0.00     0.000 C 
BRANCH  20  21
ATOM     21  C   UNL     1       6.041 -33.662 -10.947  1.00  0.00     0.000 C 
BRANCH  21  22
ATOM     22  C   UNL     1       5.324 -33.963  -9.616  1.00  0.00     0.000 C 
BRANCH  22  23
ATOM     23  C   UNL     1       3.794 -34.125  -9.753  1.00  0.00     0.000 C 
BRANCH  23  24
ATOM     24  C   UNL     1       3.281 -33.786 -11.162  1.00  0.00     0.000 C 
BRANCH  24  25
ATOM     25  C   UNL     1       1.815 -33.306 -11.152  1.00  0.00     0.000 C 
BRANCH  25  26
ATOM     26  C   UNL     1       1.493 -32.294 -12.265  1.00  0.00     0.000 C 
BRANCH  26  27
ATOM     27  C   UNL     1       2.286 -30.984 -12.129  1.00  0.00     0.002 C 
BRANCH  27  28
ATOM     28  C   UNL     1       3.370 -30.834 -13.209  1.00  0.00     0.028 C 
BRANCH  28  29
ATOM     29  C   UNL     1       2.901 -30.045 -14.441  1.00  0.00     0.156 C 
BRANCH  29  30
ATOM     30  O   UNL     1       2.894 -28.666 -14.186  1.00  0.00    -0.396 OA
ATOM     31  H   UNL     1       3.717 -28.468 -13.669  1.00  0.00     0.210 HD
ENDBRANCH  29  30
ENDBRANCH  28  29
ENDBRANCH  27  28
ENDBRANCH  26  27
ENDBRANCH  25  26
ENDBRANCH  24  25
ENDBRANCH  23  24
ENDBRANCH  22  23
ENDBRANCH  21  22
ENDBRANCH  20  21
ENDBRANCH  19  20
ENDBRANCH  18  19
ENDBRANCH  17  18
ENDBRANCH   1  17
TORSDOF 28
ENDMDL
