MODEL 1
REMARK VINA RESULT:    -4.949      0.000      0.000
REMARK INTER + INTRA:         -14.995
REMARK INTER:                 -11.313
REMARK INTRA:                  -3.682
REMARK UNBOUND:                -3.682
REMARK SMILES CCCCCCCCCCCCCCCCCCCCCCCC(=O)[O-]
REMARK SMILES IDX 13 1 14 2 15 3 16 4 17 5 18 6 19 7 20 8 21 9 22 10 23 11
REMARK SMILES IDX 24 12 25 13 26 14 12 15 11 16 10 17 9 18 8 19 7 20 6 21 5 22
REMARK SMILES IDX 4 23 3 24 2 25 1 26
REMARK H PARENT
REMARK Flexibility Score: inf
ROOT
ATOM      1  C   UNL     1       6.764   1.761  16.452  1.00  0.00     0.000 C 
ENDROOT
BRANCH   1   2
ATOM      2  C   UNL     1       5.864   2.315  15.327  1.00  0.00     0.000 C 
BRANCH   2   3
ATOM      3  C   UNL     1       6.479   2.304  13.912  1.00  0.00     0.000 C 
BRANCH   3   4
ATOM      4  C   UNL     1       7.888   2.928  13.830  1.00  0.00     0.000 C 
BRANCH   4   5
ATOM      5  C   UNL     1       7.864   4.438  13.523  1.00  0.00     0.000 C 
BRANCH   5   6
ATOM      6  C   UNL     1       8.885   5.229  14.357  1.00  0.00     0.000 C 
BRANCH   6   7
ATOM      7  C   UNL     1       8.237   5.979  15.535  1.00  0.00     0.000 C 
BRANCH   7   8
ATOM      8  C   UNL     1       7.834   5.033  16.682  1.00  0.00     0.000 C 
BRANCH   8   9
ATOM      9  C   UNL     1       7.403   5.751  17.975  1.00  0.00     0.000 C 
BRANCH   9  10
ATOM     10  C   UNL     1       6.999   4.774  19.091  1.00  0.00     0.006 C 
BRANCH  10  11
ATOM     11  C   UNL     1       8.175   4.507  20.039  1.00  0.00     0.053 C 
BRANCH  11  12
ATOM     12  C   UNL     1       8.048   5.317  21.292  1.00  0.00     0.041 C 
ATOM     13  O   UNL     1       8.810   5.093  22.271  1.00  0.00    -0.550 OA
ATOM     14  O   UNL     1       7.121   6.349  21.365  1.00  0.00    -0.550 OA
ENDBRANCH  11  12
ENDBRANCH  10  11
ENDBRANCH   9  10
ENDBRANCH   8   9
ENDBRANCH   7   8
ENDBRANCH   6   7
ENDBRANCH   5   6
ENDBRANCH   4   5
ENDBRANCH   3   4
ENDBRANCH   2   3
ENDBRANCH   1   2
BRANCH   1  15
ATOM     15  C   UNL     1       6.056   0.836  17.462  1.00  0.00     0.000 C 
BRANCH  15  16
ATOM     16  C   UNL     1       7.009   0.277  18.527  1.00  0.00     0.000 C 
BRANCH  16  17
ATOM     17  C   UNL     1       8.459   0.677  18.232  1.00  0.00     0.000 C 
BRANCH  17  18
ATOM     18  C   UNL     1       9.321  -0.512  17.770  1.00  0.00    -0.000 C 
BRANCH  18  19
ATOM     19  C   UNL     1       8.593  -1.870  17.845  1.00  0.00    -0.000 C 
BRANCH  19  20
ATOM     20  C   UNL     1       8.234  -2.421  16.454  1.00  0.00    -0.000 C 
BRANCH  20  21
ATOM     21  C   UNL     1       8.782  -1.539  15.319  1.00  0.00    -0.000 C 
BRANCH  21  22
ATOM     22  C   UNL     1       7.678  -1.091  14.344  1.00  0.00    -0.000 C 
BRANCH  22  23
ATOM     23  C   UNL     1       6.270  -1.464  14.844  1.00  0.00    -0.000 C 
BRANCH  23  24
ATOM     24  C   UNL     1       5.181  -1.151  13.805  1.00  0.00    -0.000 C 
BRANCH  24  25
ATOM     25  C   UNL     1       3.778  -1.352  14.394  1.00  0.00    -0.003 C 
ATOM     26  C   UNL     1       3.164  -0.020  14.822  1.00  0.00     0.004 C 
ENDBRANCH  24  25
ENDBRANCH  23  24
ENDBRANCH  22  23
ENDBRANCH  21  22
ENDBRANCH  20  21
ENDBRANCH  19  20
ENDBRANCH  18  19
ENDBRANCH  17  18
ENDBRANCH  16  17
ENDBRANCH  15  16
ENDBRANCH   1  15
TORSDOF 22
ENDMDL
MODEL 2
REMARK VINA RESULT:    -4.908      1.460      3.818
REMARK INTER + INTRA:         -14.901
REMARK INTER:                 -10.926
REMARK INTRA:                  -3.975
REMARK UNBOUND:                -3.682
REMARK SMILES CCCCCCCCCCCCCCCCCCCCCCCC(=O)[O-]
REMARK SMILES IDX 13 1 14 2 15 3 16 4 17 5 18 6 19 7 20 8 21 9 22 10 23 11
REMARK SMILES IDX 24 12 25 13 26 14 12 15 11 16 10 17 9 18 8 19 7 20 6 21 5 22
REMARK SMILES IDX 4 23 3 24 2 25 1 26
REMARK H PARENT
REMARK Flexibility Score: inf
ROOT
ATOM      1  C   UNL     1       4.582   0.581  17.235  1.00  0.00     0.000 C 
ENDROOT
BRANCH   1   2
ATOM      2  C   UNL     1       5.453   1.847  17.362  1.00  0.00     0.000 C 
BRANCH   2   3
ATOM      3  C   UNL     1       6.959   1.604  17.591  1.00  0.00     0.000 C 
BRANCH   3   4
ATOM      4  C   UNL     1       7.880   2.406  16.647  1.00  0.00     0.000 C 
BRANCH   4   5
ATOM      5  C   UNL     1       7.169   3.601  15.981  1.00  0.00     0.000 C 
BRANCH   5   6
ATOM      6  C   UNL     1       8.147   4.705  15.547  1.00  0.00     0.000 C 
BRANCH   6   7
ATOM      7  C   UNL     1       8.113   5.930  16.478  1.00  0.00     0.000 C 
BRANCH   7   8
ATOM      8  C   UNL     1       6.957   5.863  17.494  1.00  0.00     0.000 C 
BRANCH   8   9
ATOM      9  C   UNL     1       7.406   5.884  18.968  1.00  0.00     0.000 C 
BRANCH   9  10
ATOM     10  C   UNL     1       7.095   4.569  19.702  1.00  0.00     0.006 C 
BRANCH  10  11
ATOM     11  C   UNL     1       8.385   3.892  20.184  1.00  0.00     0.053 C 
BRANCH  11  12
ATOM     12  C   UNL     1       8.609   4.146  21.643  1.00  0.00     0.041 C 
ATOM     13  O   UNL     1       9.198   5.194  22.021  1.00  0.00    -0.550 OA
ATOM     14  O   UNL     1       8.128   3.249  22.589  1.00  0.00    -0.550 OA
ENDBRANCH  11  12
ENDBRANCH  10  11
ENDBRANCH   9  10
ENDBRANCH   8   9
ENDBRANCH   7   8
ENDBRANCH   6   7
ENDBRANCH   5   6
ENDBRANCH   4   5
ENDBRANCH   3   4
ENDBRANCH   2   3
ENDBRANCH   1   2
BRANCH   1  15
ATOM     15  C   UNL     1       3.201   0.797  16.583  1.00  0.00     0.000 C 
BRANCH  15  16
ATOM     16  C   UNL     1       3.197   1.944  15.563  1.00  0.00     0.000 C 
BRANCH  16  17
ATOM     17  C   UNL     1       3.447   1.418  14.144  1.00  0.00     0.000 C 
BRANCH  17  18
ATOM     18  C   UNL     1       4.797   1.881  13.568  1.00  0.00    -0.000 C 
BRANCH  18  19
ATOM     19  C   UNL     1       5.923   0.837  13.714  1.00  0.00    -0.000 C 
BRANCH  19  20
ATOM     20  C   UNL     1       5.385  -0.604  13.761  1.00  0.00    -0.000 C 
BRANCH  20  21
ATOM     21  C   UNL     1       6.134  -1.471  14.788  1.00  0.00    -0.000 C 
BRANCH  21  22
ATOM     22  C   UNL     1       7.556  -0.952  15.064  1.00  0.00    -0.000 C 
BRANCH  22  23
ATOM     23  C   UNL     1       8.282  -1.778  16.142  1.00  0.00    -0.000 C 
BRANCH  23  24
ATOM     24  C   UNL     1       9.796  -1.863  15.891  1.00  0.00    -0.000 C 
BRANCH  24  25
ATOM     25  C   UNL     1      10.275  -3.322  15.881  1.00  0.00    -0.003 C 
ATOM     26  C   UNL     1       9.207  -4.256  16.449  1.00  0.00     0.004 C 
ENDBRANCH  24  25
ENDBRANCH  23  24
ENDBRANCH  22  23
ENDBRANCH  21  22
ENDBRANCH  20  21
ENDBRANCH  19  20
ENDBRANCH  18  19
ENDBRANCH  17  18
ENDBRANCH  16  17
ENDBRANCH  15  16
ENDBRANCH   1  15
TORSDOF 22
ENDMDL
MODEL 3
REMARK VINA RESULT:    -4.875     11.959     15.383
REMARK INTER + INTRA:         -14.828
REMARK INTER:                 -10.027
REMARK INTRA:                  -4.801
REMARK UNBOUND:                -3.682
REMARK SMILES CCCCCCCCCCCCCCCCCCCCCCCC(=O)[O-]
REMARK SMILES IDX 13 1 14 2 15 3 16 4 17 5 18 6 19 7 20 8 21 9 22 10 23 11
REMARK SMILES IDX 24 12 25 13 26 14 12 15 11 16 10 17 9 18 8 19 7 20 6 21 5 22
REMARK SMILES IDX 4 23 3 24 2 25 1 26
REMARK H PARENT
REMARK Flexibility Score: inf
ROOT
ATOM      1  C   UNL     1      16.746  -3.757  22.383  1.00  0.00     0.000 C 
ENDROOT
BRANCH   1   2
ATOM      2  C   UNL     1      17.532  -3.804  21.057  1.00  0.00     0.000 C 
BRANCH   2   3
ATOM      3  C   UNL     1      16.736  -3.418  19.792  1.00  0.00     0.000 C 
BRANCH   3   4
ATOM      4  C   UNL     1      16.606  -4.554  18.756  1.00  0.00     0.000 C 
BRANCH   4   5
ATOM      5  C   UNL     1      16.589  -5.957  19.395  1.00  0.00     0.000 C 
BRANCH   5   6
ATOM      6  C   UNL     1      17.354  -6.997  18.561  1.00  0.00     0.000 C 
BRANCH   6   7
ATOM      7  C   UNL     1      18.517  -7.642  19.336  1.00  0.00     0.000 C 
BRANCH   7   8
ATOM      8  C   UNL     1      19.484  -6.596  19.921  1.00  0.00     0.000 C 
BRANCH   8   9
ATOM      9  C   UNL     1      20.962  -6.823  19.552  1.00  0.00     0.000 C 
BRANCH   9  10
ATOM     10  C   UNL     1      21.603  -5.593  18.887  1.00  0.00     0.006 C 
BRANCH  10  11
ATOM     11  C   UNL     1      20.531  -4.604  18.413  1.00  0.00     0.053 C 
BRANCH  11  12
ATOM     12  C   UNL     1      21.141  -3.287  18.048  1.00  0.00     0.041 C 
ATOM     13  O   UNL     1      20.409  -2.330  17.677  1.00  0.00    -0.550 OA
ATOM     14  O   UNL     1      22.513  -3.098  18.161  1.00  0.00    -0.550 OA
ENDBRANCH  11  12
ENDBRANCH  10  11
ENDBRANCH   9  10
ENDBRANCH   8   9
ENDBRANCH   7   8
ENDBRANCH   6   7
ENDBRANCH   5   6
ENDBRANCH   4   5
ENDBRANCH   3   4
ENDBRANCH   2   3
ENDBRANCH   1   2
BRANCH   1  15
ATOM     15  C   UNL     1      17.553  -4.145  23.638  1.00  0.00     0.000 C 
BRANCH  15  16
ATOM     16  C   UNL     1      18.933  -4.728  23.303  1.00  0.00     0.000 C 
BRANCH  16  17
ATOM     17  C   UNL     1      19.940  -4.433  24.421  1.00  0.00     0.000 C 
BRANCH  17  18
ATOM     18  C   UNL     1      21.396  -4.427  23.921  1.00  0.00    -0.000 C 
BRANCH  18  19
ATOM     19  C   UNL     1      21.524  -4.503  22.386  1.00  0.00    -0.000 C 
BRANCH  19  20
ATOM     20  C   UNL     1      22.521  -3.472  21.828  1.00  0.00    -0.000 C 
BRANCH  20  21
ATOM     21  C   UNL     1      21.975  -2.036  21.902  1.00  0.00    -0.000 C 
BRANCH  21  22
ATOM     22  C   UNL     1      20.544  -1.926  21.345  1.00  0.00    -0.000 C 
BRANCH  22  23
ATOM     23  C   UNL     1      19.798  -0.695  21.891  1.00  0.00    -0.000 C 
BRANCH  23  24
ATOM     24  C   UNL     1      19.291  -0.910  23.327  1.00  0.00    -0.000 C 
BRANCH  24  25
ATOM     25  C   UNL     1      17.915  -0.261  23.532  1.00  0.00    -0.003 C 
ATOM     26  C   UNL     1      17.164  -0.133  22.208  1.00  0.00     0.004 C 
ENDBRANCH  24  25
ENDBRANCH  23  24
ENDBRANCH  22  23
ENDBRANCH  21  22
ENDBRANCH  20  21
ENDBRANCH  19  20
ENDBRANCH  18  19
ENDBRANCH  17  18
ENDBRANCH  16  17
ENDBRANCH  15  16
ENDBRANCH   1  15
TORSDOF 22
ENDMDL
MODEL 4
REMARK VINA RESULT:    -4.862     11.468     14.464
REMARK INTER + INTRA:         -14.797
REMARK INTER:                  -9.836
REMARK INTRA:                  -4.961
REMARK UNBOUND:                -3.682
REMARK SMILES CCCCCCCCCCCCCCCCCCCCCCCC(=O)[O-]
REMARK SMILES IDX 13 1 14 2 15 3 16 4 17 5 18 6 19 7 20 8 21 9 22 10 23 11
REMARK SMILES IDX 24 12 25 13 26 14 12 15 11 16 10 17 9 18 8 19 7 20 6 21 5 22
REMARK SMILES IDX 4 23 3 24 2 25 1 26
REMARK H PARENT
REMARK Flexibility Score: inf
ROOT
ATOM      1  C   UNL     1      19.138  -5.993  21.481  1.00  0.00     0.000 C 
ENDROOT
BRANCH   1   2
ATOM      2  C   UNL     1      19.425  -4.634  22.151  1.00  0.00     0.000 C 
BRANCH   2   3
ATOM      3  C   UNL     1      20.034  -4.701  23.567  1.00  0.00     0.000 C 
BRANCH   3   4
ATOM      4  C   UNL     1      21.462  -4.124  23.670  1.00  0.00     0.000 C 
BRANCH   4   5
ATOM      5  C   UNL     1      22.123  -3.900  22.295  1.00  0.00     0.000 C 
BRANCH   5   6
ATOM      6  C   UNL     1      22.474  -2.425  22.039  1.00  0.00     0.000 C 
BRANCH   6   7
ATOM      7  C   UNL     1      22.050  -1.504  23.197  1.00  0.00     0.000 C 
BRANCH   7   8
ATOM      8  C   UNL     1      20.845  -0.618  22.831  1.00  0.00     0.000 C 
BRANCH   8   9
ATOM      9  C   UNL     1      19.568  -0.920  23.638  1.00  0.00     0.000 C 
BRANCH   9  10
ATOM     10  C   UNL     1      18.323  -1.064  22.747  1.00  0.00     0.006 C 
BRANCH  10  11
ATOM     11  C   UNL     1      17.056  -1.229  23.596  1.00  0.00     0.053 C 
BRANCH  11  12
ATOM     12  C   UNL     1      16.714  -2.676  23.773  1.00  0.00     0.041 C 
ATOM     13  O   UNL     1      17.022  -3.275  24.838  1.00  0.00    -0.550 OA
ATOM     14  O   UNL     1      16.013  -3.353  22.783  1.00  0.00    -0.550 OA
ENDBRANCH  11  12
ENDBRANCH  10  11
ENDBRANCH   9  10
ENDBRANCH   8   9
ENDBRANCH   7   8
ENDBRANCH   6   7
ENDBRANCH   5   6
ENDBRANCH   4   5
ENDBRANCH   3   4
ENDBRANCH   2   3
ENDBRANCH   1   2
BRANCH   1  15
ATOM     15  C   UNL     1      19.516  -6.082  19.989  1.00  0.00     0.000 C 
BRANCH  15  16
ATOM     16  C   UNL     1      21.019  -6.306  19.768  1.00  0.00     0.000 C 
BRANCH  16  17
ATOM     17  C   UNL     1      21.613  -5.206  18.880  1.00  0.00     0.000 C 
BRANCH  17  18
ATOM     18  C   UNL     1      20.537  -4.297  18.260  1.00  0.00    -0.000 C 
BRANCH  18  19
ATOM     19  C   UNL     1      20.821  -2.791  18.437  1.00  0.00    -0.000 C 
BRANCH  19  20
ATOM     20  C   UNL     1      19.958  -2.157  19.542  1.00  0.00    -0.000 C 
BRANCH  20  21
ATOM     21  C   UNL     1      19.124  -0.973  19.023  1.00  0.00    -0.000 C 
BRANCH  21  22
ATOM     22  C   UNL     1      17.612  -1.261  19.067  1.00  0.00    -0.000 C 
BRANCH  22  23
ATOM     23  C   UNL     1      17.300  -2.663  19.622  1.00  0.00    -0.000 C 
BRANCH  23  24
ATOM     24  C   UNL     1      16.504  -3.520  18.625  1.00  0.00    -0.000 C 
BRANCH  24  25
ATOM     25  C   UNL     1      16.277  -4.937  19.170  1.00  0.00    -0.003 C 
ATOM     26  C   UNL     1      16.356  -5.976  18.052  1.00  0.00     0.004 C 
ENDBRANCH  24  25
ENDBRANCH  23  24
ENDBRANCH  22  23
ENDBRANCH  21  22
ENDBRANCH  20  21
ENDBRANCH  19  20
ENDBRANCH  18  19
ENDBRANCH  17  18
ENDBRANCH  16  17
ENDBRANCH  15  16
ENDBRANCH   1  15
TORSDOF 22
ENDMDL
MODEL 5
REMARK VINA RESULT:    -4.859     12.328     15.571
REMARK INTER + INTRA:         -14.790
REMARK INTER:                 -10.397
REMARK INTRA:                  -4.393
REMARK UNBOUND:                -3.682
REMARK SMILES CCCCCCCCCCCCCCCCCCCCCCCC(=O)[O-]
REMARK SMILES IDX 13 1 14 2 15 3 16 4 17 5 18 6 19 7 20 8 21 9 22 10 23 11
REMARK SMILES IDX 24 12 25 13 26 14 12 15 11 16 10 17 9 18 8 19 7 20 6 21 5 22
REMARK SMILES IDX 4 23 3 24 2 25 1 26
REMARK H PARENT
REMARK Flexibility Score: inf
ROOT
ATOM      1  C   UNL     1      22.651  -1.103  23.048  1.00  0.00     0.000 C 
ENDROOT
BRANCH   1   2
ATOM      2  C   UNL     1      21.978  -2.037  22.022  1.00  0.00     0.000 C 
BRANCH   2   3
ATOM      3  C   UNL     1      22.558  -3.464  21.934  1.00  0.00     0.000 C 
BRANCH   3   4
ATOM      4  C   UNL     1      21.736  -4.529  22.692  1.00  0.00     0.000 C 
BRANCH   4   5
ATOM      5  C   UNL     1      20.283  -4.090  22.962  1.00  0.00     0.000 C 
BRANCH   5   6
ATOM      6  C   UNL     1      19.275  -5.237  22.785  1.00  0.00     0.000 C 
BRANCH   6   7
ATOM      7  C   UNL     1      19.418  -5.950  21.429  1.00  0.00     0.000 C 
BRANCH   7   8
ATOM      8  C   UNL     1      19.126  -5.016  20.240  1.00  0.00     0.000 C 
BRANCH   8   9
ATOM      9  C   UNL     1      19.101  -5.720  18.871  1.00  0.00     0.000 C 
BRANCH   9  10
ATOM     10  C   UNL     1      20.023  -5.047  17.840  1.00  0.00     0.006 C 
BRANCH  10  11
ATOM     11  C   UNL     1      21.338  -4.599  18.490  1.00  0.00     0.053 C 
BRANCH  11  12
ATOM     12  C   UNL     1      21.728  -3.231  18.022  1.00  0.00     0.041 C 
ATOM     13  O   UNL     1      21.035  -2.637  17.152  1.00  0.00    -0.550 OA
ATOM     14  O   UNL     1      22.828  -2.590  18.579  1.00  0.00    -0.550 OA
ENDBRANCH  11  12
ENDBRANCH  10  11
ENDBRANCH   9  10
ENDBRANCH   8   9
ENDBRANCH   7   8
ENDBRANCH   6   7
ENDBRANCH   5   6
ENDBRANCH   4   5
ENDBRANCH   3   4
ENDBRANCH   2   3
ENDBRANCH   1   2
BRANCH   1  15
ATOM     15  C   UNL     1      21.762  -0.683  24.235  1.00  0.00     0.000 C 
BRANCH  15  16
ATOM     16  C   UNL     1      20.443  -0.035  23.792  1.00  0.00     0.000 C 
BRANCH  16  17
ATOM     17  C   UNL     1      19.241  -0.885  24.223  1.00  0.00     0.000 C 
BRANCH  17  18
ATOM     18  C   UNL     1      17.951  -0.058  24.369  1.00  0.00    -0.000 C 
BRANCH  18  19
ATOM     19  C   UNL     1      16.733  -0.887  24.825  1.00  0.00    -0.000 C 
BRANCH  19  20
ATOM     20  C   UNL     1      17.112  -2.330  25.202  1.00  0.00    -0.000 C 
BRANCH  20  21
ATOM     21  C   UNL     1      16.485  -3.363  24.252  1.00  0.00    -0.000 C 
BRANCH  21  22
ATOM     22  C   UNL     1      15.762  -2.701  23.065  1.00  0.00    -0.000 C 
BRANCH  22  23
ATOM     23  C   UNL     1      16.489  -2.944  21.729  1.00  0.00    -0.000 C 
BRANCH  23  24
ATOM     24  C   UNL     1      16.946  -1.634  21.067  1.00  0.00    -0.000 C 
BRANCH  24  25
ATOM     25  C   UNL     1      18.476  -1.574  20.955  1.00  0.00    -0.003 C 
ATOM     26  C   UNL     1      18.911  -1.264  19.522  1.00  0.00     0.004 C 
ENDBRANCH  24  25
ENDBRANCH  23  24
ENDBRANCH  22  23
ENDBRANCH  21  22
ENDBRANCH  20  21
ENDBRANCH  19  20
ENDBRANCH  18  19
ENDBRANCH  17  18
ENDBRANCH  16  17
ENDBRANCH  15  16
ENDBRANCH   1  15
TORSDOF 22
ENDMDL
MODEL 6
REMARK VINA RESULT:    -4.846     12.017     15.309
REMARK INTER + INTRA:         -14.761
REMARK INTER:                 -10.244
REMARK INTRA:                  -4.517
REMARK UNBOUND:                -3.682
REMARK SMILES CCCCCCCCCCCCCCCCCCCCCCCC(=O)[O-]
REMARK SMILES IDX 13 1 14 2 15 3 16 4 17 5 18 6 19 7 20 8 21 9 22 10 23 11
REMARK SMILES IDX 24 12 25 13 26 14 12 15 11 16 10 17 9 18 8 19 7 20 6 21 5 22
REMARK SMILES IDX 4 23 3 24 2 25 1 26
REMARK H PARENT
REMARK Flexibility Score: inf
ROOT
ATOM      1  C   UNL     1      16.437  -1.701  23.741  1.00  0.00     0.000 C 
ENDROOT
BRANCH   1   2
ATOM      2  C   UNL     1      16.182  -2.950  22.872  1.00  0.00     0.000 C 
BRANCH   2   3
ATOM      3  C   UNL     1      17.188  -4.106  23.049  1.00  0.00     0.000 C 
BRANCH   3   4
ATOM      4  C   UNL     1      18.221  -4.226  21.908  1.00  0.00     0.000 C 
BRANCH   4   5
ATOM      5  C   UNL     1      19.439  -5.092  22.285  1.00  0.00     0.000 C 
BRANCH   5   6
ATOM      6  C   UNL     1      19.987  -4.767  23.684  1.00  0.00     0.000 C 
BRANCH   6   7
ATOM      7  C   UNL     1      21.473  -4.366  23.662  1.00  0.00     0.000 C 
BRANCH   7   8
ATOM      8  C   UNL     1      22.070  -4.400  22.242  1.00  0.00     0.000 C 
BRANCH   8   9
ATOM      9  C   UNL     1      22.657  -3.057  21.768  1.00  0.00     0.000 C 
BRANCH   9  10
ATOM     10  C   UNL     1      22.837  -2.992  20.243  1.00  0.00     0.006 C 
BRANCH  10  11
ATOM     11  C   UNL     1      21.483  -2.842  19.537  1.00  0.00     0.053 C 
BRANCH  11  12
ATOM     12  C   UNL     1      21.648  -2.876  18.049  1.00  0.00     0.041 C 
ATOM     13  O   UNL     1      22.735  -3.262  17.540  1.00  0.00    -0.550 OA
ATOM     14  O   UNL     1      20.588  -2.527  17.221  1.00  0.00    -0.550 OA
ENDBRANCH  11  12
ENDBRANCH  10  11
ENDBRANCH   9  10
ENDBRANCH   8   9
ENDBRANCH   7   8
ENDBRANCH   6   7
ENDBRANCH   5   6
ENDBRANCH   4   5
ENDBRANCH   3   4
ENDBRANCH   2   3
ENDBRANCH   1   2
BRANCH   1  15
ATOM     15  C   UNL     1      16.829  -1.989  25.203  1.00  0.00     0.000 C 
BRANCH  15  16
ATOM     16  C   UNL     1      17.202  -0.720  25.982  1.00  0.00     0.000 C 
BRANCH  16  17
ATOM     17  C   UNL     1      16.945   0.536  25.141  1.00  0.00     0.000 C 
BRANCH  17  18
ATOM     18  C   UNL     1      18.135   1.512  25.152  1.00  0.00    -0.000 C 
BRANCH  18  19
ATOM     19  C   UNL     1      19.479   0.845  25.510  1.00  0.00    -0.000 C 
BRANCH  19  20
ATOM     20  C   UNL     1      20.360   0.597  24.273  1.00  0.00    -0.000 C 
BRANCH  20  21
ATOM     21  C   UNL     1      20.298  -0.864  23.797  1.00  0.00    -0.000 C 
BRANCH  21  22
ATOM     22  C   UNL     1      19.801  -0.984  22.345  1.00  0.00    -0.000 C 
BRANCH  22  23
ATOM     23  C   UNL     1      19.433   0.383  21.738  1.00  0.00    -0.000 C 
BRANCH  23  24
ATOM     24  C   UNL     1      17.997   0.410  21.190  1.00  0.00    -0.000 C 
BRANCH  24  25
ATOM     25  C   UNL     1      17.735  -0.786  20.263  1.00  0.00    -0.003 C 
ATOM     26  C   UNL     1      17.089  -0.335  18.954  1.00  0.00     0.004 C 
ENDBRANCH  24  25
ENDBRANCH  23  24
ENDBRANCH  22  23
ENDBRANCH  21  22
ENDBRANCH  20  21
ENDBRANCH  19  20
ENDBRANCH  18  19
ENDBRANCH  17  18
ENDBRANCH  16  17
ENDBRANCH  15  16
ENDBRANCH   1  15
TORSDOF 22
ENDMDL
MODEL 7
REMARK VINA RESULT:    -4.764      7.839     10.780
REMARK INTER + INTRA:         -14.573
REMARK INTER:                 -10.814
REMARK INTRA:                  -3.759
REMARK UNBOUND:                -3.682
REMARK SMILES CCCCCCCCCCCCCCCCCCCCCCCC(=O)[O-]
REMARK SMILES IDX 13 1 14 2 15 3 16 4 17 5 18 6 19 7 20 8 21 9 22 10 23 11
REMARK SMILES IDX 24 12 25 13 26 14 12 15 11 16 10 17 9 18 8 19 7 20 6 21 5 22
REMARK SMILES IDX 4 23 3 24 2 25 1 26
REMARK H PARENT
REMARK Flexibility Score: inf
ROOT
ATOM      1  C   UNL     1      14.512   2.547   7.620  1.00  0.00     0.000 C 
ENDROOT
BRANCH   1   2
ATOM      2  C   UNL     1      14.230   2.999   6.172  1.00  0.00     0.000 C 
BRANCH   2   3
ATOM      3  C   UNL     1      14.182   4.525   5.944  1.00  0.00     0.000 C 
BRANCH   3   4
ATOM      4  C   UNL     1      13.377   5.298   7.011  1.00  0.00     0.000 C 
BRANCH   4   5
ATOM      5  C   UNL     1      12.287   6.205   6.405  1.00  0.00     0.000 C 
BRANCH   5   6
ATOM      6  C   UNL     1      10.867   5.766   6.797  1.00  0.00     0.000 C 
BRANCH   6   7
ATOM      7  C   UNL     1      10.440   4.454   6.114  1.00  0.00     0.000 C 
BRANCH   7   8
ATOM      8  C   UNL     1       9.548   3.584   7.020  1.00  0.00     0.000 C 
BRANCH   8   9
ATOM      9  C   UNL     1      10.011   3.514   8.487  1.00  0.00     0.000 C 
BRANCH   9  10
ATOM     10  C   UNL     1      10.931   2.313   8.763  1.00  0.00     0.006 C 
BRANCH  10  11
ATOM     11  C   UNL     1      10.526   1.598  10.058  1.00  0.00     0.053 C 
BRANCH  11  12
ATOM     12  C   UNL     1       9.542   0.504   9.781  1.00  0.00     0.041 C 
ATOM     13  O   UNL     1       8.415   0.507  10.345  1.00  0.00    -0.550 OA
ATOM     14  O   UNL     1       9.849  -0.496   8.866  1.00  0.00    -0.550 OA
ENDBRANCH  11  12
ENDBRANCH  10  11
ENDBRANCH   9  10
ENDBRANCH   8   9
ENDBRANCH   7   8
ENDBRANCH   6   7
ENDBRANCH   5   6
ENDBRANCH   4   5
ENDBRANCH   3   4
ENDBRANCH   2   3
ENDBRANCH   1   2
BRANCH   1  15
ATOM     15  C   UNL     1      14.253   1.054   7.902  1.00  0.00     0.000 C 
BRANCH  15  16
ATOM     16  C   UNL     1      15.019   0.538   9.128  1.00  0.00     0.000 C 
BRANCH  16  17
ATOM     17  C   UNL     1      16.052   1.567   9.604  1.00  0.00     0.000 C 
BRANCH  17  18
ATOM     18  C   UNL     1      16.075   1.720  11.135  1.00  0.00    -0.000 C 
BRANCH  18  19
ATOM     19  C   UNL     1      14.782   2.330  11.715  1.00  0.00    -0.000 C 
BRANCH  19  20
ATOM     20  C   UNL     1      14.745   3.863  11.583  1.00  0.00    -0.000 C 
BRANCH  20  21
ATOM     21  C   UNL     1      13.705   4.333  10.552  1.00  0.00    -0.000 C 
BRANCH  21  22
ATOM     22  C   UNL     1      12.381   4.760  11.212  1.00  0.00    -0.000 C 
BRANCH  22  23
ATOM     23  C   UNL     1      11.715   5.938  10.475  1.00  0.00    -0.000 C 
BRANCH  23  24
ATOM     24  C   UNL     1      10.493   6.483  11.234  1.00  0.00    -0.000 C 
BRANCH  24  25
ATOM     25  C   UNL     1      10.922   7.375  12.407  1.00  0.00    -0.003 C 
ATOM     26  C   UNL     1      10.453   6.794  13.741  1.00  0.00     0.004 C 
ENDBRANCH  24  25
ENDBRANCH  23  24
ENDBRANCH  22  23
ENDBRANCH  21  22
ENDBRANCH  20  21
ENDBRANCH  19  20
ENDBRANCH  18  19
ENDBRANCH  17  18
ENDBRANCH  16  17
ENDBRANCH  15  16
ENDBRANCH   1  15
TORSDOF 22
ENDMDL
MODEL 8
REMARK VINA RESULT:    -4.755     12.203     15.234
REMARK INTER + INTRA:         -14.552
REMARK INTER:                 -10.494
REMARK INTRA:                  -4.058
REMARK UNBOUND:                -3.682
REMARK SMILES CCCCCCCCCCCCCCCCCCCCCCCC(=O)[O-]
REMARK SMILES IDX 13 1 14 2 15 3 16 4 17 5 18 6 19 7 20 8 21 9 22 10 23 11
REMARK SMILES IDX 24 12 25 13 26 14 12 15 11 16 10 17 9 18 8 19 7 20 6 21 5 22
REMARK SMILES IDX 4 23 3 24 2 25 1 26
REMARK H PARENT
REMARK Flexibility Score: inf
ROOT
ATOM      1  C   UNL     1      18.854  -0.405  23.824  1.00  0.00     0.000 C 
ENDROOT
BRANCH   1   2
ATOM      2  C   UNL     1      19.700   0.865  23.598  1.00  0.00     0.000 C 
BRANCH   2   3
ATOM      3  C   UNL     1      21.211   0.721  23.876  1.00  0.00     0.000 C 
BRANCH   3   4
ATOM      4  C   UNL     1      21.692  -0.739  24.015  1.00  0.00     0.000 C 
BRANCH   4   5
ATOM      5  C   UNL     1      22.761  -1.125  22.973  1.00  0.00     0.000 C 
BRANCH   5   6
ATOM      6  C   UNL     1      22.336  -2.319  22.102  1.00  0.00     0.000 C 
BRANCH   6   7
ATOM      7  C   UNL     1      21.333  -3.245  22.812  1.00  0.00     0.000 C 
BRANCH   7   8
ATOM      8  C   UNL     1      20.995  -4.495  21.976  1.00  0.00     0.000 C 
BRANCH   8   9
ATOM      9  C   UNL     1      21.968  -4.762  20.813  1.00  0.00     0.000 C 
BRANCH   9  10
ATOM     10  C   UNL     1      21.307  -5.513  19.646  1.00  0.00     0.006 C 
BRANCH  10  11
ATOM     11  C   UNL     1      20.393  -4.580  18.841  1.00  0.00     0.053 C 
BRANCH  11  12
ATOM     12  C   UNL     1      21.168  -3.841  17.795  1.00  0.00     0.041 C 
ATOM     13  O   UNL     1      20.817  -2.682  17.445  1.00  0.00    -0.550 OA
ATOM     14  O   UNL     1      22.307  -4.411  17.238  1.00  0.00    -0.550 OA
ENDBRANCH  11  12
ENDBRANCH  10  11
ENDBRANCH   9  10
ENDBRANCH   8   9
ENDBRANCH   7   8
ENDBRANCH   6   7
ENDBRANCH   5   6
ENDBRANCH   4   5
ENDBRANCH   3   4
ENDBRANCH   2   3
ENDBRANCH   1   2
BRANCH   1  15
ATOM     15  C   UNL     1      17.331  -0.176  23.881  1.00  0.00     0.000 C 
BRANCH  15  16
ATOM     16  C   UNL     1      16.743  -0.422  25.277  1.00  0.00     0.000 C 
BRANCH  16  17
ATOM     17  C   UNL     1      17.005  -1.861  25.738  1.00  0.00     0.000 C 
BRANCH  17  18
ATOM     18  C   UNL     1      16.062  -2.879  25.072  1.00  0.00    -0.000 C 
BRANCH  18  19
ATOM     19  C   UNL     1      16.754  -4.202  24.683  1.00  0.00    -0.000 C 
BRANCH  19  20
ATOM     20  C   UNL     1      17.566  -4.080  23.381  1.00  0.00    -0.000 C 
BRANCH  20  21
ATOM     21  C   UNL     1      16.754  -3.429  22.249  1.00  0.00    -0.000 C 
BRANCH  21  22
ATOM     22  C   UNL     1      17.397  -3.652  20.868  1.00  0.00    -0.000 C 
BRANCH  22  23
ATOM     23  C   UNL     1      17.647  -2.329  20.120  1.00  0.00    -0.000 C 
BRANCH  23  24
ATOM     24  C   UNL     1      19.001  -1.700  20.487  1.00  0.00    -0.000 C 
BRANCH  24  25
ATOM     25  C   UNL     1      19.045  -0.214  20.101  1.00  0.00    -0.003 C 
ATOM     26  C   UNL     1      17.997   0.108  19.036  1.00  0.00     0.004 C 
ENDBRANCH  24  25
ENDBRANCH  23  24
ENDBRANCH  22  23
ENDBRANCH  21  22
ENDBRANCH  20  21
ENDBRANCH  19  20
ENDBRANCH  18  19
ENDBRANCH  17  18
ENDBRANCH  16  17
ENDBRANCH  15  16
ENDBRANCH   1  15
TORSDOF 22
ENDMDL
MODEL 9
REMARK VINA RESULT:    -4.715     12.569     15.260
REMARK INTER + INTRA:         -14.462
REMARK INTER:                  -9.883
REMARK INTRA:                  -4.579
REMARK UNBOUND:                -3.682
REMARK SMILES CCCCCCCCCCCCCCCCCCCCCCCC(=O)[O-]
REMARK SMILES IDX 13 1 14 2 15 3 16 4 17 5 18 6 19 7 20 8 21 9 22 10 23 11
REMARK SMILES IDX 24 12 25 13 26 14 12 15 11 16 10 17 9 18 8 19 7 20 6 21 5 22
REMARK SMILES IDX 4 23 3 24 2 25 1 26
REMARK H PARENT
REMARK Flexibility Score: inf
ROOT
ATOM      1  C   UNL     1      22.249  -3.125  21.261  1.00  0.00     0.000 C 
ENDROOT
BRANCH   1   2
ATOM      2  C   UNL     1      22.476  -2.885  19.754  1.00  0.00     0.000 C 
BRANCH   2   3
ATOM      3  C   UNL     1      21.350  -3.375  18.821  1.00  0.00     0.000 C 
BRANCH   3   4
ATOM      4  C   UNL     1      20.492  -2.243  18.216  1.00  0.00     0.000 C 
BRANCH   4   5
ATOM      5  C   UNL     1      19.799  -1.374  19.284  1.00  0.00     0.000 C 
BRANCH   5   6
ATOM      6  C   UNL     1      18.299  -1.685  19.420  1.00  0.00     0.000 C 
BRANCH   6   7
ATOM      7  C   UNL     1      18.001  -2.697  20.540  1.00  0.00     0.000 C 
BRANCH   7   8
ATOM      8  C   UNL     1      16.725  -3.516  20.267  1.00  0.00     0.000 C 
BRANCH   8   9
ATOM      9  C   UNL     1      16.972  -5.022  20.056  1.00  0.00     0.000 C 
BRANCH   9  10
ATOM     10  C   UNL     1      18.395  -5.327  19.558  1.00  0.00     0.006 C 
BRANCH  10  11
ATOM     11  C   UNL     1      18.875  -6.691  20.071  1.00  0.00     0.053 C 
BRANCH  11  12
ATOM     12  C   UNL     1      19.910  -7.272  19.158  1.00  0.00     0.041 C 
ATOM     13  O   UNL     1      21.121  -7.294  19.506  1.00  0.00    -0.550 OA
ATOM     14  O   UNL     1      19.534  -7.833  17.944  1.00  0.00    -0.550 OA
ENDBRANCH  11  12
ENDBRANCH  10  11
ENDBRANCH   9  10
ENDBRANCH   8   9
ENDBRANCH   7   8
ENDBRANCH   6   7
ENDBRANCH   5   6
ENDBRANCH   4   5
ENDBRANCH   3   4
ENDBRANCH   2   3
ENDBRANCH   1   2
BRANCH   1  15
ATOM     15  C   UNL     1      21.435  -4.388  21.608  1.00  0.00     0.000 C 
BRANCH  15  16
ATOM     16  C   UNL     1      20.923  -4.389  23.054  1.00  0.00     0.000 C 
BRANCH  16  17
ATOM     17  C   UNL     1      19.475  -4.890  23.124  1.00  0.00     0.000 C 
BRANCH  17  18
ATOM     18  C   UNL     1      18.604  -4.054  24.078  1.00  0.00    -0.000 C 
BRANCH  18  19
ATOM     19  C   UNL     1      17.089  -4.275  23.886  1.00  0.00    -0.000 C 
BRANCH  19  20
ATOM     20  C   UNL     1      16.245  -3.192  24.582  1.00  0.00    -0.000 C 
BRANCH  20  21
ATOM     21  C   UNL     1      17.107  -2.227  25.413  1.00  0.00    -0.000 C 
BRANCH  21  22
ATOM     22  C   UNL     1      16.515  -0.806  25.456  1.00  0.00    -0.000 C 
BRANCH  22  23
ATOM     23  C   UNL     1      17.381   0.210  24.687  1.00  0.00    -0.000 C 
BRANCH  23  24
ATOM     24  C   UNL     1      17.490  -0.131  23.192  1.00  0.00    -0.000 C 
BRANCH  24  25
ATOM     25  C   UNL     1      18.878   0.226  22.642  1.00  0.00    -0.003 C 
ATOM     26  C   UNL     1      19.934  -0.766  23.127  1.00  0.00     0.004 C 
ENDBRANCH  24  25
ENDBRANCH  23  24
ENDBRANCH  22  23
ENDBRANCH  21  22
ENDBRANCH  20  21
ENDBRANCH  19  20
ENDBRANCH  18  19
ENDBRANCH  17  18
ENDBRANCH  16  17
ENDBRANCH  15  16
ENDBRANCH   1  15
TORSDOF 22
ENDMDL
