MODEL 1
REMARK VINA RESULT:    -5.880      0.000      0.000
REMARK INTER + INTRA:          -6.655
REMARK INTER:                  -6.567
REMARK INTRA:                  -0.087
REMARK UNBOUND:                -0.087
REMARK SMILES CCc1ccc(O)cc1O
REMARK SMILES IDX 3 1 9 2 8 3 6 4 5 5 4 6 2 7 1 8 10 9 7 11
REMARK H PARENT 10 10 7 12
REMARK Flexibility Score: inf
ROOT
ATOM      1  C   UNL     1     -14.183  61.386  38.951  1.00  0.00    -0.006 A 
ATOM      2  C   UNL     1     -13.214  62.376  39.210  1.00  0.00     0.122 A 
ATOM      3  C   UNL     1     -11.973  62.012  39.753  1.00  0.00     0.092 A 
ATOM      4  C   UNL     1     -11.694  60.674  40.049  1.00  0.00     0.119 A 
ATOM      5  C   UNL     1     -12.662  59.693  39.805  1.00  0.00     0.047 A 
ATOM      6  C   UNL     1     -13.900  60.046  39.264  1.00  0.00     0.011 A 
ENDROOT
BRANCH   1   7
ATOM      7  C   UNL     1     -15.537  61.752  38.396  1.00  0.00     0.036 C 
ATOM      8  C   UNL     1     -16.600  60.765  38.869  1.00  0.00     0.009 C 
ENDBRANCH   1   7
BRANCH   2   9
ATOM      9  O   UNL     1     -13.486  63.715  38.931  1.00  0.00    -0.508 OA
ATOM     10  H   UNL     1     -14.431  64.079  38.948  1.00  0.00     0.293 HD
ENDBRANCH   2   9
BRANCH   4  11
ATOM     11  O   UNL     1     -10.456  60.333  40.588  1.00  0.00    -0.508 OA
ATOM     12  H   UNL     1     -10.336  60.175  41.582  1.00  0.00     0.293 HD
ENDBRANCH   4  11
TORSDOF 3
ENDMDL
MODEL 2
REMARK VINA RESULT:    -5.470      2.203      3.665
REMARK INTER + INTRA:          -6.197
REMARK INTER:                  -6.108
REMARK INTRA:                  -0.090
REMARK UNBOUND:                -0.087
REMARK SMILES CCc1ccc(O)cc1O
REMARK SMILES IDX 3 1 9 2 8 3 6 4 5 5 4 6 2 7 1 8 10 9 7 11
REMARK H PARENT 10 10 7 12
REMARK Flexibility Score: inf
ROOT
ATOM      1  C   UNL     1     -13.185  62.274  38.995  1.00  0.00    -0.006 A 
ATOM      2  C   UNL     1     -14.443  62.775  38.604  1.00  0.00     0.122 A 
ATOM      3  C   UNL     1     -15.497  61.887  38.342  1.00  0.00     0.092 A 
ATOM      4  C   UNL     1     -15.306  60.507  38.457  1.00  0.00     0.119 A 
ATOM      5  C   UNL     1     -14.053  60.008  38.832  1.00  0.00     0.047 A 
ATOM      6  C   UNL     1     -12.998  60.885  39.095  1.00  0.00     0.011 A 
ENDROOT
BRANCH   1   7
ATOM      7  C   UNL     1     -12.026  63.203  39.253  1.00  0.00     0.036 C 
ATOM      8  C   UNL     1     -10.742  62.649  38.643  1.00  0.00     0.009 C 
ENDBRANCH   1   7
BRANCH   2   9
ATOM      9  O   UNL     1     -14.641  64.150  38.473  1.00  0.00    -0.508 OA
ATOM     10  H   UNL     1     -14.624  64.605  37.568  1.00  0.00     0.293 HD
ENDBRANCH   2   9
BRANCH   4  11
ATOM     11  O   UNL     1     -16.365  59.642  38.193  1.00  0.00    -0.508 OA
ATOM     12  H   UNL     1     -16.747  59.038  38.911  1.00  0.00     0.293 HD
ENDBRANCH   4  11
TORSDOF 3
ENDMDL
MODEL 3
REMARK VINA RESULT:    -5.361     17.596     18.730
REMARK INTER + INTRA:          -6.075
REMARK INTER:                  -5.989
REMARK INTRA:                  -0.086
REMARK UNBOUND:                -0.087
REMARK SMILES CCc1ccc(O)cc1O
REMARK SMILES IDX 3 1 9 2 8 3 6 4 5 5 4 6 2 7 1 8 10 9 7 11
REMARK H PARENT 10 10 7 12
REMARK Flexibility Score: inf
ROOT
ATOM      1  C   UNL     1     -12.294  49.688  53.947  1.00  0.00    -0.006 A 
ATOM      2  C   UNL     1     -11.570  50.834  53.559  1.00  0.00     0.122 A 
ATOM      3  C   UNL     1     -10.228  50.974  53.941  1.00  0.00     0.092 A 
ATOM      4  C   UNL     1      -9.605  49.989  54.713  1.00  0.00     0.119 A 
ATOM      5  C   UNL     1     -10.327  48.858  55.111  1.00  0.00     0.047 A 
ATOM      6  C   UNL     1     -11.664  48.710  54.734  1.00  0.00     0.011 A 
ENDROOT
BRANCH   1   7
ATOM      7  C   UNL     1     -13.747  49.526  53.577  1.00  0.00     0.036 C 
ATOM      8  C   UNL     1     -14.060  48.071  53.241  1.00  0.00     0.009 C 
ENDBRANCH   1   7
BRANCH   2   9
ATOM      9  O   UNL     1     -12.186  51.829  52.800  1.00  0.00    -0.508 OA
ATOM     10  H   UNL     1     -12.140  51.829  51.788  1.00  0.00     0.293 HD
ENDBRANCH   2   9
BRANCH   4  11
ATOM     11  O   UNL     1      -8.271  50.146  55.082  1.00  0.00    -0.508 OA
ATOM     12  H   UNL     1      -7.755  50.989  54.858  1.00  0.00     0.293 HD
ENDBRANCH   4  11
TORSDOF 3
ENDMDL
MODEL 4
REMARK VINA RESULT:    -5.354     16.704     18.190
REMARK INTER + INTRA:          -6.067
REMARK INTER:                  -5.980
REMARK INTRA:                  -0.087
REMARK UNBOUND:                -0.087
REMARK SMILES CCc1ccc(O)cc1O
REMARK SMILES IDX 3 1 9 2 8 3 6 4 5 5 4 6 2 7 1 8 10 9 7 11
REMARK H PARENT 10 10 7 12
REMARK Flexibility Score: inf
ROOT
ATOM      1  C   UNL     1     -12.145  50.491  53.379  1.00  0.00    -0.006 A 
ATOM      2  C   UNL     1     -13.020  50.588  52.279  1.00  0.00     0.122 A 
ATOM      3  C   UNL     1     -13.951  49.568  52.035  1.00  0.00     0.092 A 
ATOM      4  C   UNL     1     -14.011  48.449  52.870  1.00  0.00     0.119 A 
ATOM      5  C   UNL     1     -13.133  48.345  53.956  1.00  0.00     0.047 A 
ATOM      6  C   UNL     1     -12.202  49.356  54.206  1.00  0.00     0.011 A 
ENDROOT
BRANCH   1   7
ATOM      7  C   UNL     1     -11.113  51.558  53.648  1.00  0.00     0.036 C 
ATOM      8  C   UNL     1      -9.922  50.980  54.404  1.00  0.00     0.009 C 
ENDBRANCH   1   7
BRANCH   2   9
ATOM      9  O   UNL     1     -12.960  51.694  51.430  1.00  0.00    -0.508 OA
ATOM     10  H   UNL     1     -12.177  51.842  50.806  1.00  0.00     0.293 HD
ENDBRANCH   2   9
BRANCH   4  11
ATOM     11  O   UNL     1     -14.943  47.446  52.612  1.00  0.00    -0.508 OA
ATOM     12  H   UNL     1     -15.931  47.583  52.789  1.00  0.00     0.293 HD
ENDBRANCH   4  11
TORSDOF 3
ENDMDL
MODEL 5
REMARK VINA RESULT:    -5.339     15.212     16.849
REMARK INTER + INTRA:          -6.050
REMARK INTER:                  -5.943
REMARK INTRA:                  -0.107
REMARK UNBOUND:                -0.087
REMARK SMILES CCc1ccc(O)cc1O
REMARK SMILES IDX 3 1 9 2 8 3 6 4 5 5 4 6 2 7 1 8 10 9 7 11
REMARK H PARENT 10 10 7 12
REMARK Flexibility Score: inf
ROOT
ATOM      1  C   UNL     1      -6.258  61.357  55.137  1.00  0.00    -0.006 A 
ATOM      2  C   UNL     1      -5.469  61.652  54.007  1.00  0.00     0.122 A 
ATOM      3  C   UNL     1      -5.962  62.517  53.019  1.00  0.00     0.092 A 
ATOM      4  C   UNL     1      -7.235  63.081  53.142  1.00  0.00     0.119 A 
ATOM      5  C   UNL     1      -8.024  62.777  54.258  1.00  0.00     0.047 A 
ATOM      6  C   UNL     1      -7.541  61.917  55.247  1.00  0.00     0.011 A 
ENDROOT
BRANCH   1   7
ATOM      7  C   UNL     1      -5.766  60.406  56.200  1.00  0.00     0.036 C 
ATOM      8  C   UNL     1      -6.250  58.986  55.922  1.00  0.00     0.009 C 
ENDBRANCH   1   7
BRANCH   2   9
ATOM      9  O   UNL     1      -4.202  61.084  53.867  1.00  0.00    -0.508 OA
ATOM     10  H   UNL     1      -3.370  61.657  53.794  1.00  0.00     0.293 HD
ENDBRANCH   2   9
BRANCH   4  11
ATOM     11  O   UNL     1      -7.706  63.938  52.151  1.00  0.00    -0.508 OA
ATOM     12  H   UNL     1      -7.172  64.119  51.309  1.00  0.00     0.293 HD
ENDBRANCH   4  11
TORSDOF 3
ENDMDL
MODEL 6
REMARK VINA RESULT:    -5.292      1.790      4.223
REMARK INTER + INTRA:          -5.998
REMARK INTER:                  -5.913
REMARK INTRA:                  -0.085
REMARK UNBOUND:                -0.087
REMARK SMILES CCc1ccc(O)cc1O
REMARK SMILES IDX 3 1 9 2 8 3 6 4 5 5 4 6 2 7 1 8 10 9 7 11
REMARK H PARENT 10 10 7 12
REMARK Flexibility Score: inf
ROOT
ATOM      1  C   UNL     1     -11.312  62.252  39.556  1.00  0.00    -0.006 A 
ATOM      2  C   UNL     1     -11.456  60.961  40.103  1.00  0.00     0.122 A 
ATOM      3  C   UNL     1     -12.712  60.336  40.095  1.00  0.00     0.092 A 
ATOM      4  C   UNL     1     -13.826  60.990  39.559  1.00  0.00     0.119 A 
ATOM      5  C   UNL     1     -13.686  62.279  39.029  1.00  0.00     0.047 A 
ATOM      6  C   UNL     1     -12.439  62.908  39.032  1.00  0.00     0.011 A 
ENDROOT
BRANCH   1   7
ATOM      7  C   UNL     1      -9.981  62.960  39.579  1.00  0.00     0.036 C 
ATOM      8  C   UNL     1      -9.863  63.928  38.406  1.00  0.00     0.009 C 
ENDBRANCH   1   7
BRANCH   2   9
ATOM      9  O   UNL     1     -10.356  60.304  40.653  1.00  0.00    -0.508 OA
ATOM     10  H   UNL     1      -9.431  60.389  40.248  1.00  0.00     0.293 HD
ENDBRANCH   2   9
BRANCH   4  11
ATOM     11  O   UNL     1     -15.064  60.353  39.560  1.00  0.00    -0.508 OA
ATOM     12  H   UNL     1     -15.400  59.845  38.750  1.00  0.00     0.293 HD
ENDBRANCH   4  11
TORSDOF 3
ENDMDL
MODEL 7
REMARK VINA RESULT:    -5.266      1.730      3.695
REMARK INTER + INTRA:          -5.969
REMARK INTER:                  -5.865
REMARK INTRA:                  -0.104
REMARK UNBOUND:                -0.087
REMARK SMILES CCc1ccc(O)cc1O
REMARK SMILES IDX 3 1 9 2 8 3 6 4 5 5 4 6 2 7 1 8 10 9 7 11
REMARK H PARENT 10 10 7 12
REMARK Flexibility Score: inf
ROOT
ATOM      1  C   UNL     1     -12.520  61.403  39.068  1.00  0.00    -0.006 A 
ATOM      2  C   UNL     1     -13.430  62.478  39.022  1.00  0.00     0.122 A 
ATOM      3  C   UNL     1     -14.756  62.253  38.625  1.00  0.00     0.092 A 
ATOM      4  C   UNL     1     -15.181  60.971  38.266  1.00  0.00     0.119 A 
ATOM      5  C   UNL     1     -14.274  59.905  38.298  1.00  0.00     0.047 A 
ATOM      6  C   UNL     1     -12.951  60.120  38.692  1.00  0.00     0.011 A 
ENDROOT
BRANCH   1   7
ATOM      7  C   UNL     1     -11.080  61.621  39.461  1.00  0.00     0.036 C 
ATOM      8  C   UNL     1     -10.862  61.275  40.931  1.00  0.00     0.009 C 
ENDBRANCH   1   7
BRANCH   2   9
ATOM      9  O   UNL     1     -13.014  63.765  39.365  1.00  0.00    -0.508 OA
ATOM     10  H   UNL     1     -13.072  64.104  40.318  1.00  0.00     0.293 HD
ENDBRANCH   2   9
BRANCH   4  11
ATOM     11  O   UNL     1     -16.502  60.768  37.875  1.00  0.00    -0.508 OA
ATOM     12  H   UNL     1     -16.750  60.623  36.903  1.00  0.00     0.293 HD
ENDBRANCH   4  11
TORSDOF 3
ENDMDL
MODEL 8
REMARK VINA RESULT:    -5.206     17.510     18.946
REMARK INTER + INTRA:          -5.902
REMARK INTER:                  -5.809
REMARK INTRA:                  -0.092
REMARK UNBOUND:                -0.087
REMARK SMILES CCc1ccc(O)cc1O
REMARK SMILES IDX 3 1 9 2 8 3 6 4 5 5 4 6 2 7 1 8 10 9 7 11
REMARK H PARENT 10 10 7 12
REMARK Flexibility Score: inf
ROOT
ATOM      1  C   UNL     1     -12.101  49.934  53.822  1.00  0.00    -0.006 A 
ATOM      2  C   UNL     1     -11.572  48.885  54.601  1.00  0.00     0.122 A 
ATOM      3  C   UNL     1     -10.280  48.996  55.135  1.00  0.00     0.092 A 
ATOM      4  C   UNL     1      -9.508  50.137  54.891  1.00  0.00     0.119 A 
ATOM      5  C   UNL     1     -10.028  51.172  54.106  1.00  0.00     0.047 A 
ATOM      6  C   UNL     1     -11.314  51.070  53.570  1.00  0.00     0.011 A 
ENDROOT
BRANCH   1   7
ATOM      7  C   UNL     1     -13.475  49.828  53.209  1.00  0.00     0.036 C 
ATOM      8  C   UNL     1     -13.434  50.171  51.724  1.00  0.00     0.009 C 
ENDBRANCH   1   7
BRANCH   2   9
ATOM      9  O   UNL     1     -12.327  47.737  54.839  1.00  0.00    -0.508 OA
ATOM     10  H   UNL     1     -12.865  47.293  54.104  1.00  0.00     0.293 HD
ENDBRANCH   2   9
BRANCH   4  11
ATOM     11  O   UNL     1      -8.227  50.228  55.431  1.00  0.00    -0.508 OA
ATOM     12  H   UNL     1      -8.016  49.875  56.357  1.00  0.00     0.293 HD
ENDBRANCH   4  11
TORSDOF 3
ENDMDL
MODEL 9
REMARK VINA RESULT:    -5.159      2.137      2.984
REMARK INTER + INTRA:          -5.849
REMARK INTER:                  -5.760
REMARK INTRA:                  -0.089
REMARK UNBOUND:                -0.087
REMARK SMILES CCc1ccc(O)cc1O
REMARK SMILES IDX 3 1 9 2 8 3 6 4 5 5 4 6 2 7 1 8 10 9 7 11
REMARK H PARENT 10 10 7 12
REMARK Flexibility Score: inf
ROOT
ATOM      1  C   UNL     1     -11.944  61.478  39.667  1.00  0.00    -0.006 A 
ATOM      2  C   UNL     1     -11.893  62.704  38.974  1.00  0.00     0.122 A 
ATOM      3  C   UNL     1     -10.705  63.449  38.962  1.00  0.00     0.092 A 
ATOM      4  C   UNL     1      -9.573  62.991  39.643  1.00  0.00     0.119 A 
ATOM      5  C   UNL     1      -9.628  61.780  40.344  1.00  0.00     0.047 A 
ATOM      6  C   UNL     1     -10.806  61.030  40.360  1.00  0.00     0.011 A 
ENDROOT
BRANCH   1   7
ATOM      7  C   UNL     1     -13.216  60.670  39.723  1.00  0.00     0.036 C 
ATOM      8  C   UNL     1     -13.413  60.066  41.109  1.00  0.00     0.009 C 
ENDBRANCH   1   7
BRANCH   2   9
ATOM      9  O   UNL     1     -13.019  63.178  38.302  1.00  0.00    -0.508 OA
ATOM     10  H   UNL     1     -13.186  64.170  38.181  1.00  0.00     0.293 HD
ENDBRANCH   2   9
BRANCH   4  11
ATOM     11  O   UNL     1      -8.403  63.746  39.619  1.00  0.00    -0.508 OA
ATOM     12  H   UNL     1      -7.973  64.029  38.746  1.00  0.00     0.293 HD
ENDBRANCH   4  11
TORSDOF 3
ENDMDL
