MODEL 1
REMARK VINA RESULT:    -4.446      0.000      0.000
REMARK INTER + INTRA:          -7.082
REMARK INTER:                  -6.006
REMARK INTRA:                  -1.076
REMARK UNBOUND:                -1.076
REMARK SMILES CC(=O)CCC=C(C)CCC=C(C)C
REMARK SMILES IDX 7 1 6 2 8 3 9 4 10 5 11 6 13 7 12 8 14 9 5 10 4 11 2 12 3 13
REMARK SMILES IDX 1 14
REMARK H PARENT
REMARK Flexibility Score: inf
ROOT
ATOM      1  C   UNL     1      14.783  18.140  16.723  1.00  0.00    -0.077 C 
ATOM      2  C   UNL     1      14.515  16.812  16.699  1.00  0.00    -0.028 C 
ATOM      3  C   UNL     1      15.297  18.734  18.009  1.00  0.00     0.039 C 
ENDROOT
BRANCH   1   4
ATOM      4  C   UNL     1      14.599  19.050  15.522  1.00  0.00     0.034 C 
BRANCH   4   5
ATOM      5  C   UNL     1      13.551  20.133  15.801  1.00  0.00     0.032 C 
BRANCH   5   6
ATOM      6  C   UNL     1      12.157  19.570  15.688  1.00  0.00    -0.028 C 
ATOM      7  C   UNL     1       9.935  18.844  16.504  1.00  0.00     0.039 C 
ATOM      8  C   UNL     1      11.322  19.384  16.736  1.00  0.00    -0.080 C 
ATOM      9  C   UNL     1      11.746  19.664  18.157  1.00  0.00     0.039 C 
ENDBRANCH   5   6
ENDBRANCH   4   5
ENDBRANCH   1   4
BRANCH   2  10
ATOM     10  C   UNL     1      13.972  16.039  15.519  1.00  0.00     0.035 C 
BRANCH  10  11
ATOM     11  C   UNL     1      14.908  14.887  15.131  1.00  0.00     0.079 C 
BRANCH  11  12
ATOM     12  C   UNL     1      14.586  13.622  15.883  1.00  0.00     0.130 C 
ATOM     13  O   UNL     1      15.415  13.140  16.640  1.00  0.00    -0.300 OA
ATOM     14  C   UNL     1      13.274  12.922  15.691  1.00  0.00     0.087 C 
ENDBRANCH  11  12
ENDBRANCH  10  11
ENDBRANCH   2  10
TORSDOF 6
ENDMDL
MODEL 2
REMARK VINA RESULT:    -4.439      2.911      5.241
REMARK INTER + INTRA:          -7.071
REMARK INTER:                  -5.948
REMARK INTRA:                  -1.123
REMARK UNBOUND:                -1.076
REMARK SMILES CC(=O)CCC=C(C)CCC=C(C)C
REMARK SMILES IDX 7 1 6 2 8 3 9 4 10 5 11 6 13 7 12 8 14 9 5 10 4 11 2 12 3 13
REMARK SMILES IDX 1 14
REMARK H PARENT
REMARK Flexibility Score: inf
ROOT
ATOM      1  C   UNL     1      11.676  20.529  16.515  1.00  0.00    -0.077 C 
ATOM      2  C   UNL     1      10.906  19.934  15.573  1.00  0.00    -0.028 C 
ATOM      3  C   UNL     1      12.104  21.956  16.280  1.00  0.00     0.039 C 
ENDROOT
BRANCH   1   4
ATOM      4  C   UNL     1      12.118  19.837  17.790  1.00  0.00     0.034 C 
BRANCH   4   5
ATOM      5  C   UNL     1      13.617  19.515  17.758  1.00  0.00     0.032 C 
BRANCH   5   6
ATOM      6  C   UNL     1      13.845  18.068  17.397  1.00  0.00    -0.028 C 
ATOM      7  C   UNL     1      14.494  16.173  15.941  1.00  0.00     0.039 C 
ATOM      8  C   UNL     1      14.267  17.643  16.184  1.00  0.00    -0.080 C 
ATOM      9  C   UNL     1      14.485  18.594  15.032  1.00  0.00     0.039 C 
ENDBRANCH   5   6
ENDBRANCH   4   5
ENDBRANCH   1   4
BRANCH   2  10
ATOM     10  C   UNL     1      10.398  18.511  15.613  1.00  0.00     0.035 C 
BRANCH  10  11
ATOM     11  C   UNL     1       9.035  18.426  16.313  1.00  0.00     0.079 C 
BRANCH  11  12
ATOM     12  C   UNL     1       8.214  17.268  15.809  1.00  0.00     0.130 C 
ATOM     13  O   UNL     1       7.144  17.010  16.338  1.00  0.00    -0.300 OA
ATOM     14  C   UNL     1       8.705  16.402  14.687  1.00  0.00     0.087 C 
ENDBRANCH  11  12
ENDBRANCH  10  11
ENDBRANCH   2  10
TORSDOF 6
ENDMDL
MODEL 3
REMARK VINA RESULT:    -4.322      1.890      3.624
REMARK INTER + INTRA:          -6.915
REMARK INTER:                  -6.052
REMARK INTRA:                  -0.862
REMARK UNBOUND:                -1.076
REMARK SMILES CC(=O)CCC=C(C)CCC=C(C)C
REMARK SMILES IDX 7 1 6 2 8 3 9 4 10 5 11 6 13 7 12 8 14 9 5 10 4 11 2 12 3 13
REMARK SMILES IDX 1 14
REMARK H PARENT
REMARK Flexibility Score: inf
ROOT
ATOM      1  C   UNL     1      12.499  20.196  17.054  1.00  0.00    -0.077 C 
ATOM      2  C   UNL     1      13.804  19.896  17.262  1.00  0.00    -0.028 C 
ATOM      3  C   UNL     1      12.162  21.587  16.578  1.00  0.00     0.039 C 
ENDROOT
BRANCH   1   4
ATOM      4  C   UNL     1      11.370  19.205  17.266  1.00  0.00     0.034 C 
BRANCH   4   5
ATOM      5  C   UNL     1      10.493  19.086  16.015  1.00  0.00     0.032 C 
BRANCH   5   6
ATOM      6  C   UNL     1       9.151  18.488  16.358  1.00  0.00    -0.028 C 
ATOM      7  C   UNL     1       7.236  16.938  16.120  1.00  0.00     0.039 C 
ATOM      8  C   UNL     1       8.567  17.482  15.670  1.00  0.00    -0.080 C 
ATOM      9  C   UNL     1       9.186  16.898  14.423  1.00  0.00     0.039 C 
ENDBRANCH   5   6
ENDBRANCH   4   5
ENDBRANCH   1   4
BRANCH   2  10
ATOM     10  C   UNL     1      14.339  18.572  17.758  1.00  0.00     0.035 C 
BRANCH  10  11
ATOM     11  C   UNL     1      15.157  17.860  16.673  1.00  0.00     0.079 C 
BRANCH  11  12
ATOM     12  C   UNL     1      14.369  16.769  15.998  1.00  0.00     0.130 C 
ATOM     13  O   UNL     1      14.530  15.606  16.340  1.00  0.00    -0.300 OA
ATOM     14  C   UNL     1      13.411  17.080  14.887  1.00  0.00     0.087 C 
ENDBRANCH  11  12
ENDBRANCH  10  11
ENDBRANCH   2  10
TORSDOF 6
ENDMDL
MODEL 4
REMARK VINA RESULT:    -4.308      3.951      7.032
REMARK INTER + INTRA:          -6.895
REMARK INTER:                  -6.216
REMARK INTRA:                  -0.678
REMARK UNBOUND:                -1.076
REMARK SMILES CC(=O)CCC=C(C)CCC=C(C)C
REMARK SMILES IDX 7 1 6 2 8 3 9 4 10 5 11 6 13 7 12 8 14 9 5 10 4 11 2 12 3 13
REMARK SMILES IDX 1 14
REMARK H PARENT
REMARK Flexibility Score: inf
ROOT
ATOM      1  C   UNL     1      11.375  19.802  16.895  1.00  0.00    -0.077 C 
ATOM      2  C   UNL     1      11.575  20.839  16.047  1.00  0.00    -0.028 C 
ATOM      3  C   UNL     1      10.244  18.851  16.592  1.00  0.00     0.039 C 
ENDROOT
BRANCH   1   4
ATOM      4  C   UNL     1      12.233  19.546  18.120  1.00  0.00     0.034 C 
BRANCH   4   5
ATOM      5  C   UNL     1      13.700  19.321  17.734  1.00  0.00     0.032 C 
BRANCH   5   6
ATOM      6  C   UNL     1      13.942  17.877  17.372  1.00  0.00    -0.028 C 
ATOM      7  C   UNL     1      14.510  15.979  15.887  1.00  0.00     0.039 C 
ATOM      8  C   UNL     1      14.257  17.445  16.130  1.00  0.00    -0.080 C 
ATOM      9  C   UNL     1      14.329  18.382  14.950  1.00  0.00     0.039 C 
ENDBRANCH   5   6
ENDBRANCH   4   5
ENDBRANCH   1   4
BRANCH   2  10
ATOM     10  C   UNL     1      12.635  21.908  16.191  1.00  0.00     0.035 C 
BRANCH  10  11
ATOM     11  C   UNL     1      12.275  23.161  15.383  1.00  0.00     0.079 C 
BRANCH  11  12
ATOM     12  C   UNL     1      12.201  24.390  16.251  1.00  0.00     0.130 C 
ATOM     13  O   UNL     1      11.356  24.458  17.131  1.00  0.00    -0.300 OA
ATOM     14  C   UNL     1      13.125  25.550  16.031  1.00  0.00     0.087 C 
ENDBRANCH  11  12
ENDBRANCH  10  11
ENDBRANCH   2  10
TORSDOF 6
ENDMDL
MODEL 5
REMARK VINA RESULT:    -4.262      3.835      5.955
REMARK INTER + INTRA:          -6.833
REMARK INTER:                  -6.170
REMARK INTRA:                  -0.663
REMARK UNBOUND:                -1.076
REMARK SMILES CC(=O)CCC=C(C)CCC=C(C)C
REMARK SMILES IDX 7 1 6 2 8 3 9 4 10 5 11 6 13 7 12 8 14 9 5 10 4 11 2 12 3 13
REMARK SMILES IDX 1 14
REMARK H PARENT
REMARK Flexibility Score: inf
ROOT
ATOM      1  C   UNL     1      12.389  22.436  16.144  1.00  0.00    -0.077 C 
ATOM      2  C   UNL     1      11.816  21.317  16.649  1.00  0.00    -0.028 C 
ATOM      3  C   UNL     1      11.715  23.758  16.411  1.00  0.00     0.039 C 
ENDROOT
BRANCH   1   4
ATOM      4  C   UNL     1      13.673  22.423  15.336  1.00  0.00     0.034 C 
BRANCH   4   5
ATOM      5  C   UNL     1      13.900  23.766  14.632  1.00  0.00     0.032 C 
BRANCH   5   6
ATOM      6  C   UNL     1      15.252  24.333  14.984  1.00  0.00    -0.028 C 
ATOM      7  C   UNL     1      16.843  25.873  16.093  1.00  0.00     0.039 C 
ATOM      8  C   UNL     1      15.444  25.410  15.780  1.00  0.00    -0.080 C 
ATOM      9  C   UNL     1      14.291  26.204  16.344  1.00  0.00     0.039 C 
ENDBRANCH   5   6
ENDBRANCH   4   5
ENDBRANCH   1   4
BRANCH   2  10
ATOM     10  C   UNL     1      12.323  19.904  16.471  1.00  0.00     0.035 C 
BRANCH  10  11
ATOM     11  C   UNL     1      12.831  19.325  17.798  1.00  0.00     0.079 C 
BRANCH  11  12
ATOM     12  C   UNL     1      13.998  18.393  17.595  1.00  0.00     0.130 C 
ATOM     13  O   UNL     1      13.835  17.341  16.996  1.00  0.00    -0.300 OA
ATOM     14  C   UNL     1      15.353  18.719  18.149  1.00  0.00     0.087 C 
ENDBRANCH  11  12
ENDBRANCH  10  11
ENDBRANCH   2  10
TORSDOF 6
ENDMDL
MODEL 6
REMARK VINA RESULT:    -4.216      3.942      6.914
REMARK INTER + INTRA:          -6.771
REMARK INTER:                  -5.509
REMARK INTRA:                  -1.262
REMARK UNBOUND:                -1.076
REMARK SMILES CC(=O)CCC=C(C)CCC=C(C)C
REMARK SMILES IDX 7 1 6 2 8 3 9 4 10 5 11 6 13 7 12 8 14 9 5 10 4 11 2 12 3 13
REMARK SMILES IDX 1 14
REMARK H PARENT
REMARK Flexibility Score: inf
ROOT
ATOM      1  C   UNL     1      11.859  20.285  15.442  1.00  0.00    -0.077 C 
ATOM      2  C   UNL     1      12.813  20.958  14.754  1.00  0.00    -0.028 C 
ATOM      3  C   UNL     1      11.107  19.193  14.722  1.00  0.00     0.039 C 
ENDROOT
BRANCH   1   4
ATOM      4  C   UNL     1      11.520  20.568  16.893  1.00  0.00     0.034 C 
BRANCH   4   5
ATOM      5  C   UNL     1      11.889  19.382  17.792  1.00  0.00     0.032 C 
BRANCH   5   6
ATOM      6  C   UNL     1      13.348  19.434  18.173  1.00  0.00    -0.028 C 
ATOM      7  C   UNL     1      15.725  18.745  18.128  1.00  0.00     0.039 C 
ATOM      8  C   UNL     1      14.288  18.582  17.706  1.00  0.00    -0.080 C 
ATOM      9  C   UNL     1      13.944  17.430  16.794  1.00  0.00     0.039 C 
ENDBRANCH   5   6
ENDBRANCH   4   5
ENDBRANCH   1   4
BRANCH   2  10
ATOM     10  C   UNL     1      13.654  22.095  15.289  1.00  0.00     0.035 C 
BRANCH  10  11
ATOM     11  C   UNL     1      13.129  23.451  14.802  1.00  0.00     0.079 C 
BRANCH  11  12
ATOM     12  C   UNL     1      12.857  24.394  15.945  1.00  0.00     0.130 C 
ATOM     13  O   UNL     1      13.704  25.214  16.267  1.00  0.00    -0.300 OA
ATOM     14  C   UNL     1      11.576  24.320  16.721  1.00  0.00     0.087 C 
ENDBRANCH  11  12
ENDBRANCH  10  11
ENDBRANCH   2  10
TORSDOF 6
ENDMDL
MODEL 7
REMARK VINA RESULT:    -4.197      3.475      5.686
REMARK INTER + INTRA:          -6.746
REMARK INTER:                  -5.834
REMARK INTRA:                  -0.912
REMARK UNBOUND:                -1.076
REMARK SMILES CC(=O)CCC=C(C)CCC=C(C)C
REMARK SMILES IDX 7 1 6 2 8 3 9 4 10 5 11 6 13 7 12 8 14 9 5 10 4 11 2 12 3 13
REMARK SMILES IDX 1 14
REMARK H PARENT
REMARK Flexibility Score: inf
ROOT
ATOM      1  C   UNL     1      11.152  19.423  15.206  1.00  0.00    -0.077 C 
ATOM      2  C   UNL     1       9.942  18.958  14.814  1.00  0.00    -0.028 C 
ATOM      3  C   UNL     1      12.317  19.242  14.265  1.00  0.00     0.039 C 
ENDROOT
BRANCH   1   4
ATOM      4  C   UNL     1      11.389  20.120  16.533  1.00  0.00     0.034 C 
BRANCH   4   5
ATOM      5  C   UNL     1      11.767  19.116  17.628  1.00  0.00     0.032 C 
BRANCH   5   6
ATOM      6  C   UNL     1      13.196  19.315  18.066  1.00  0.00    -0.028 C 
ATOM      7  C   UNL     1      15.620  18.821  18.176  1.00  0.00     0.039 C 
ATOM      8  C   UNL     1      14.222  18.510  17.707  1.00  0.00    -0.080 C 
ATOM      9  C   UNL     1      14.013  17.269  16.874  1.00  0.00     0.039 C 
ENDBRANCH   5   6
ENDBRANCH   4   5
ENDBRANCH   1   4
BRANCH   2  10
ATOM     10  C   UNL     1       8.665  19.023  15.621  1.00  0.00     0.035 C 
BRANCH  10  11
ATOM     11  C   UNL     1       8.372  17.682  16.307  1.00  0.00     0.079 C 
BRANCH  11  12
ATOM     12  C   UNL     1       7.276  16.919  15.609  1.00  0.00     0.130 C 
ATOM     13  O   UNL     1       6.109  17.225  15.803  1.00  0.00    -0.300 OA
ATOM     14  C   UNL     1       7.592  15.765  14.705  1.00  0.00     0.087 C 
ENDBRANCH  11  12
ENDBRANCH  10  11
ENDBRANCH   2  10
TORSDOF 6
ENDMDL
MODEL 8
REMARK VINA RESULT:    -4.194      2.090      5.511
REMARK INTER + INTRA:          -6.741
REMARK INTER:                  -6.041
REMARK INTRA:                  -0.700
REMARK UNBOUND:                -1.076
REMARK SMILES CC(=O)CCC=C(C)CCC=C(C)C
REMARK SMILES IDX 7 1 6 2 8 3 9 4 10 5 11 6 13 7 12 8 14 9 5 10 4 11 2 12 3 13
REMARK SMILES IDX 1 14
REMARK H PARENT
REMARK Flexibility Score: inf
ROOT
ATOM      1  C   UNL     1      15.125  17.951  16.742  1.00  0.00    -0.077 C 
ATOM      2  C   UNL     1      14.648  19.076  17.326  1.00  0.00    -0.028 C 
ATOM      3  C   UNL     1      16.534  17.976  16.205  1.00  0.00     0.039 C 
ENDROOT
BRANCH   1   4
ATOM      4  C   UNL     1      14.319  16.672  16.610  1.00  0.00     0.034 C 
BRANCH   4   5
ATOM      5  C   UNL     1      14.917  15.744  15.547  1.00  0.00     0.032 C 
BRANCH   5   6
ATOM      6  C   UNL     1      15.033  14.335  16.071  1.00  0.00    -0.028 C 
ATOM      7  C   UNL     1      14.421  11.947  16.299  1.00  0.00     0.039 C 
ATOM      8  C   UNL     1      14.193  13.328  15.740  1.00  0.00    -0.080 C 
ATOM      9  C   UNL     1      12.992  13.544  14.852  1.00  0.00     0.039 C 
ENDBRANCH   5   6
ENDBRANCH   4   5
ENDBRANCH   1   4
BRANCH   2  10
ATOM     10  C   UNL     1      13.261  19.256  17.900  1.00  0.00     0.035 C 
BRANCH  10  11
ATOM     11  C   UNL     1      12.369  20.072  16.955  1.00  0.00     0.079 C 
BRANCH  11  12
ATOM     12  C   UNL     1      11.480  19.190  16.118  1.00  0.00     0.130 C 
ATOM     13  O   UNL     1      11.897  18.740  15.061  1.00  0.00    -0.300 OA
ATOM     14  C   UNL     1      10.076  18.882  16.542  1.00  0.00     0.087 C 
ENDBRANCH  11  12
ENDBRANCH  10  11
ENDBRANCH   2  10
TORSDOF 6
ENDMDL
MODEL 9
REMARK VINA RESULT:    -4.121      2.602      5.371
REMARK INTER + INTRA:          -6.643
REMARK INTER:                  -5.528
REMARK INTRA:                  -1.115
REMARK UNBOUND:                -1.076
REMARK SMILES CC(=O)CCC=C(C)CCC=C(C)C
REMARK SMILES IDX 7 1 6 2 8 3 9 4 10 5 11 6 13 7 12 8 14 9 5 10 4 11 2 12 3 13
REMARK SMILES IDX 1 14
REMARK H PARENT
REMARK Flexibility Score: inf
ROOT
ATOM      1  C   UNL     1      14.858  14.287  15.479  1.00  0.00    -0.077 C 
ATOM      2  C   UNL     1      14.739  15.402  16.238  1.00  0.00    -0.028 C 
ATOM      3  C   UNL     1      14.740  12.949  16.165  1.00  0.00     0.039 C 
ENDROOT
BRANCH   1   4
ATOM      4  C   UNL     1      15.092  14.318  13.980  1.00  0.00     0.034 C 
BRANCH   4   5
ATOM      5  C   UNL     1      13.953  13.622  13.225  1.00  0.00     0.032 C 
BRANCH   5   6
ATOM      6  C   UNL     1      12.703  14.466  13.247  1.00  0.00    -0.028 C 
ATOM      7  C   UNL     1      10.357  15.023  13.810  1.00  0.00     0.039 C 
ATOM      8  C   UNL     1      11.537  14.086  13.818  1.00  0.00    -0.080 C 
ATOM      9  C   UNL     1      11.355  12.722  14.438  1.00  0.00     0.039 C 
ENDBRANCH   5   6
ENDBRANCH   4   5
ENDBRANCH   1   4
BRANCH   2  10
ATOM     10  C   UNL     1      14.851  16.827  15.743  1.00  0.00     0.035 C 
BRANCH  10  11
ATOM     11  C   UNL     1      13.593  17.635  16.087  1.00  0.00     0.079 C 
BRANCH  11  12
ATOM     12  C   UNL     1      13.762  18.422  17.361  1.00  0.00     0.130 C 
ATOM     13  O   UNL     1      12.780  18.898  17.912  1.00  0.00    -0.300 OA
ATOM     14  C   UNL     1      15.121  18.664  17.946  1.00  0.00     0.087 C 
ENDBRANCH  11  12
ENDBRANCH  10  11
ENDBRANCH   2  10
TORSDOF 6
ENDMDL
