MODEL 1
REMARK VINA RESULT:    -6.344      0.000      0.000
REMARK INTER + INTRA:         -10.567
REMARK INTER:                  -8.941
REMARK INTRA:                  -1.626
REMARK UNBOUND:                -1.626
REMARK SMILES COc1c(O[C@H]2O[C@H](C(=O)[O-])[C@@H](O)[C@@H](O)[C@@H]2O)cc(O)c2c(=O)cc(-c3ccccc3)oc12
REMARK SMILES IDX 5 1 6 2 8 3 12 4 7 5 14 6 16 7 9 8 10 9 11 10 13 11 15 13
REMARK SMILES IDX 17 15 4 17 3 18 18 19 33 20 19 21 21 22 32 23 22 24 25 25
REMARK SMILES IDX 24 26 23 27 2 28 1 29 20 30 26 32 27 33 31 34 28 35 30 36
REMARK SMILES IDX 29 37
REMARK H PARENT 13 12 15 14 17 16 20 31
REMARK Flexibility Score: inf
ROOT
ATOM      1  O   UNL     1      24.483  13.788  11.100  1.00  0.00    -0.458 OA
ENDROOT
BRANCH   1   2
ATOM      2  C   UNL     1      23.143  13.792  10.595  1.00  0.00     0.339 C 
ATOM      3  C   UNL     1      22.227  13.446  12.728  1.00  0.00     0.199 C 
ATOM      4  C   UNL     1      21.568  14.845  12.798  1.00  0.00     0.180 C 
ATOM      5  O   UNL     1      22.290  12.980  11.389  1.00  0.00    -0.328 OA
ATOM      6  C   UNL     1      22.277  15.859  11.865  1.00  0.00     0.181 C 
ATOM      7  C   UNL     1      22.607  15.236  10.483  1.00  0.00     0.214 C 
BRANCH   3   8
ATOM      8  C   UNL     1      21.429  12.470  13.544  1.00  0.00     0.073 C 
ATOM      9  O   UNL     1      21.464  12.503  14.802  1.00  0.00    -0.547 OA
ATOM     10  O   UNL     1      20.685  11.484  12.910  1.00  0.00    -0.547 OA
ENDBRANCH   3   8
BRANCH   4  11
ATOM     11  O   UNL     1      21.520  15.323  14.125  1.00  0.00    -0.387 OA
ATOM     12  H   UNL     1      21.228  14.579  14.711  1.00  0.00     0.211 HD
ENDBRANCH   4  11
BRANCH   6  13
ATOM     13  O   UNL     1      23.424  16.419  12.459  1.00  0.00    -0.387 OA
ATOM     14  H   UNL     1      23.536  17.341  12.104  1.00  0.00     0.211 HD
ENDBRANCH   6  13
BRANCH   7  15
ATOM     15  O   UNL     1      21.479  15.275   9.641  1.00  0.00    -0.384 OA
ATOM     16  H   UNL     1      21.770  14.979   8.738  1.00  0.00     0.211 HD
ENDBRANCH   7  15
ENDBRANCH   1   2
BRANCH   1  17
ATOM     17  C   UNL     1      25.618  14.181  10.377  1.00  0.00     0.172 A 
ATOM     18  C   UNL     1      26.469  15.132  10.955  1.00  0.00     0.205 A 
ATOM     19  C   UNL     1      25.926  13.634   9.121  1.00  0.00     0.097 A 
ATOM     20  C   UNL     1      27.615  15.566  10.254  1.00  0.00     0.188 A 
ATOM     21  C   UNL     1      27.063  14.050   8.419  1.00  0.00     0.134 A 
ATOM     22  C   UNL     1      27.918  15.025   8.978  1.00  0.00     0.111 A 
ATOM     23  O   UNL     1      28.403  16.497  10.783  1.00  0.00    -0.452 OA
ATOM     24  C   UNL     1      29.068  15.502   8.312  1.00  0.00     0.197 A 
ATOM     25  C   UNL     1      29.497  16.962  10.188  1.00  0.00     0.138 A 
ATOM     26  C   UNL     1      29.859  16.474   8.923  1.00  0.00     0.100 A 
ATOM     27  O   UNL     1      29.392  15.080   7.165  1.00  0.00    -0.289 OA
BRANCH  18  28
ATOM     28  O   UNL     1      26.134  15.605  12.234  1.00  0.00    -0.490 OA
ATOM     29  C   UNL     1      26.681  15.104  13.459  1.00  0.00     0.278 C 
ENDBRANCH  18  28
BRANCH  21  30
ATOM     30  O   UNL     1      27.330  13.496   7.171  1.00  0.00    -0.507 OA
ATOM     31  H   UNL     1      27.846  14.005   6.463  1.00  0.00     0.293 HD
ENDBRANCH  21  30
BRANCH  25  32
ATOM     32  C   UNL     1      30.303  17.989  10.884  1.00  0.00     0.017 A 
ATOM     33  C   UNL     1      30.894  19.023  10.151  1.00  0.00     0.012 A 
ATOM     34  C   UNL     1      30.442  17.983  12.287  1.00  0.00     0.012 A 
ATOM     35  C   UNL     1      31.631  20.024  10.794  1.00  0.00     0.001 A 
ATOM     36  C   UNL     1      31.173  18.987  12.930  1.00  0.00     0.001 A 
ATOM     37  C   UNL     1      31.767  20.009  12.182  1.00  0.00     0.000 A 
ENDBRANCH  25  32
ENDBRANCH   1  17
TORSDOF 9
ENDMDL
MODEL 2
REMARK VINA RESULT:    -6.066      2.746      5.983
REMARK INTER + INTRA:         -10.175
REMARK INTER:                  -8.853
REMARK INTRA:                  -1.322
REMARK UNBOUND:                -1.626
REMARK SMILES COc1c(O[C@H]2O[C@H](C(=O)[O-])[C@@H](O)[C@@H](O)[C@@H]2O)cc(O)c2c(=O)cc(-c3ccccc3)oc12
REMARK SMILES IDX 5 1 6 2 8 3 12 4 7 5 14 6 16 7 9 8 10 9 11 10 13 11 15 13
REMARK SMILES IDX 17 15 4 17 3 18 18 19 33 20 19 21 21 22 32 23 22 24 25 25
REMARK SMILES IDX 24 26 23 27 2 28 1 29 20 30 26 32 27 33 31 34 28 35 30 36
REMARK SMILES IDX 29 37
REMARK H PARENT 13 12 15 14 17 16 20 31
REMARK Flexibility Score: inf
ROOT
ATOM      1  O   UNL     1      25.180  14.588  11.975  1.00  0.00    -0.458 OA
ENDROOT
BRANCH   1   2
ATOM      2  C   UNL     1      24.195  15.592  12.239  1.00  0.00     0.339 C 
ATOM      3  C   UNL     1      22.443  14.214  11.505  1.00  0.00     0.199 C 
ATOM      4  C   UNL     1      21.811  14.074  12.911  1.00  0.00     0.180 C 
ATOM      5  O   UNL     1      23.086  15.471  11.360  1.00  0.00    -0.328 OA
ATOM      6  C   UNL     1      22.849  14.325  14.033  1.00  0.00     0.181 C 
ATOM      7  C   UNL     1      23.753  15.547  13.719  1.00  0.00     0.214 C 
BRANCH   3   8
ATOM      8  C   UNL     1      21.375  14.093  10.456  1.00  0.00     0.073 C 
ATOM      9  O   UNL     1      21.035  12.965  10.012  1.00  0.00    -0.547 OA
ATOM     10  O   UNL     1      20.791  15.236   9.928  1.00  0.00    -0.547 OA
ENDBRANCH   3   8
BRANCH   4  11
ATOM     11  O   UNL     1      21.186  12.818  13.069  1.00  0.00    -0.387 OA
ATOM     12  H   UNL     1      21.803  12.227  13.570  1.00  0.00     0.211 HD
ENDBRANCH   4  11
BRANCH   6  13
ATOM     13  O   UNL     1      23.619  13.180  14.314  1.00  0.00    -0.387 OA
ATOM     14  H   UNL     1      23.694  12.647  13.479  1.00  0.00     0.211 HD
ENDBRANCH   6  13
BRANCH   7  15
ATOM     15  O   UNL     1      23.104  16.745  14.073  1.00  0.00    -0.384 OA
ATOM     16  H   UNL     1      22.678  16.603  14.959  1.00  0.00     0.211 HD
ENDBRANCH   7  15
ENDBRANCH   1   2
BRANCH   1  17
ATOM     17  C   UNL     1      26.015  14.553  10.848  1.00  0.00     0.172 A 
ATOM     18  C   UNL     1      25.941  13.434  10.009  1.00  0.00     0.205 A 
ATOM     19  C   UNL     1      26.887  15.608  10.537  1.00  0.00     0.097 A 
ATOM     20  C   UNL     1      26.774  13.352   8.873  1.00  0.00     0.188 A 
ATOM     21  C   UNL     1      27.713  15.543   9.409  1.00  0.00     0.134 A 
ATOM     22  C   UNL     1      27.667  14.411   8.566  1.00  0.00     0.111 A 
ATOM     23  O   UNL     1      26.734  12.273   8.098  1.00  0.00    -0.452 OA
ATOM     24  C   UNL     1      28.489  14.275   7.426  1.00  0.00     0.197 A 
ATOM     25  C   UNL     1      27.486  12.116   7.013  1.00  0.00     0.138 A 
ATOM     26  C   UNL     1      28.394  13.123   6.648  1.00  0.00     0.100 A 
ATOM     27  O   UNL     1      29.322  15.168   7.100  1.00  0.00    -0.289 OA
BRANCH  18  28
ATOM     28  O   UNL     1      25.013  12.434  10.347  1.00  0.00    -0.490 OA
ATOM     29  C   UNL     1      25.329  11.239  11.069  1.00  0.00     0.278 C 
ENDBRANCH  18  28
BRANCH  21  30
ATOM     30  O   UNL     1      28.576  16.601   9.138  1.00  0.00    -0.507 OA
ATOM     31  H   UNL     1      28.652  17.398   9.758  1.00  0.00     0.293 HD
ENDBRANCH  21  30
BRANCH  25  32
ATOM     32  C   UNL     1      27.342  10.876   6.220  1.00  0.00     0.017 A 
ATOM     33  C   UNL     1      27.161   9.652   6.870  1.00  0.00     0.012 A 
ATOM     34  C   UNL     1      27.324  10.907   4.810  1.00  0.00     0.012 A 
ATOM     35  C   UNL     1      26.987   8.472   6.138  1.00  0.00     0.001 A 
ATOM     36  C   UNL     1      27.144   9.729   4.078  1.00  0.00     0.001 A 
ATOM     37  C   UNL     1      26.974   8.511   4.744  1.00  0.00     0.000 A 
ENDBRANCH  25  32
ENDBRANCH   1  17
TORSDOF 9
ENDMDL
MODEL 3
REMARK VINA RESULT:    -6.039      2.201      4.211
REMARK INTER + INTRA:         -10.137
REMARK INTER:                  -9.096
REMARK INTRA:                  -1.041
REMARK UNBOUND:                -1.626
REMARK SMILES COc1c(O[C@H]2O[C@H](C(=O)[O-])[C@@H](O)[C@@H](O)[C@@H]2O)cc(O)c2c(=O)cc(-c3ccccc3)oc12
REMARK SMILES IDX 5 1 6 2 8 3 12 4 7 5 14 6 16 7 9 8 10 9 11 10 13 11 15 13
REMARK SMILES IDX 17 15 4 17 3 18 18 19 33 20 19 21 21 22 32 23 22 24 25 25
REMARK SMILES IDX 24 26 23 27 2 28 1 29 20 30 26 32 27 33 31 34 28 35 30 36
REMARK SMILES IDX 29 37
REMARK H PARENT 13 12 15 14 17 16 20 31
REMARK Flexibility Score: inf
ROOT
ATOM      1  O   UNL     1      21.653  13.556  11.148  1.00  0.00    -0.458 OA
ENDROOT
BRANCH   1   2
ATOM      2  C   UNL     1      21.303  14.049  12.446  1.00  0.00     0.339 C 
ATOM      3  C   UNL     1      19.007  13.775  12.046  1.00  0.00     0.199 C 
ATOM      4  C   UNL     1      18.843  12.642  13.088  1.00  0.00     0.180 C 
ATOM      5  O   UNL     1      20.031  14.679  12.433  1.00  0.00    -0.328 OA
ATOM      6  C   UNL     1      20.185  11.916  13.360  1.00  0.00     0.181 C 
ATOM      7  C   UNL     1      21.364  12.915  13.494  1.00  0.00     0.214 C 
BRANCH   3   8
ATOM      8  C   UNL     1      17.716  14.532  11.915  1.00  0.00     0.073 C 
ATOM      9  O   UNL     1      17.495  15.254  10.908  1.00  0.00    -0.547 OA
ATOM     10  O   UNL     1      16.778  14.481  12.936  1.00  0.00    -0.547 OA
ENDBRANCH   3   8
BRANCH   4  11
ATOM     11  O   UNL     1      17.841  11.728  12.700  1.00  0.00    -0.387 OA
ATOM     12  H   UNL     1      18.183  10.811  12.852  1.00  0.00     0.211 HD
ENDBRANCH   4  11
BRANCH   6  13
ATOM     13  O   UNL     1      20.461  10.928  12.396  1.00  0.00    -0.387 OA
ATOM     14  H   UNL     1      21.388  11.071  12.064  1.00  0.00     0.211 HD
ENDBRANCH   6  13
BRANCH   7  15
ATOM     15  O   UNL     1      21.411  13.453  14.794  1.00  0.00    -0.384 OA
ATOM     16  H   UNL     1      22.230  13.101  15.233  1.00  0.00     0.211 HD
ENDBRANCH   7  15
ENDBRANCH   1   2
BRANCH   1  17
ATOM     17  C   UNL     1      22.931  13.122  10.768  1.00  0.00     0.172 A 
ATOM     18  C   UNL     1      23.911  14.092  10.524  1.00  0.00     0.205 A 
ATOM     19  C   UNL     1      23.249  11.759  10.653  1.00  0.00     0.097 A 
ATOM     20  C   UNL     1      25.206  13.697  10.125  1.00  0.00     0.188 A 
ATOM     21  C   UNL     1      24.531  11.354  10.266  1.00  0.00     0.134 A 
ATOM     22  C   UNL     1      25.523  12.321   9.994  1.00  0.00     0.111 A 
ATOM     23  O   UNL     1      26.126  14.618   9.854  1.00  0.00    -0.452 OA
ATOM     24  C   UNL     1      26.828  11.978   9.578  1.00  0.00     0.197 A 
ATOM     25  C   UNL     1      27.366  14.331   9.471  1.00  0.00     0.138 A 
ATOM     26  C   UNL     1      27.752  12.990   9.318  1.00  0.00     0.100 A 
ATOM     27  O   UNL     1      27.179  10.774   9.422  1.00  0.00    -0.289 OA
BRANCH  18  28
ATOM     28  O   UNL     1      23.546  15.437  10.704  1.00  0.00    -0.490 OA
ATOM     29  C   UNL     1      23.978  16.261  11.792  1.00  0.00     0.278 C 
ENDBRANCH  18  28
BRANCH  21  30
ATOM     30  O   UNL     1      24.807   9.995  10.149  1.00  0.00    -0.507 OA
ATOM     31  H   UNL     1      25.123   9.446  10.940  1.00  0.00     0.293 HD
ENDBRANCH  21  30
BRANCH  25  32
ATOM     32  C   UNL     1      28.307  15.443   9.213  1.00  0.00     0.017 A 
ATOM     33  C   UNL     1      28.224  16.614   9.973  1.00  0.00     0.012 A 
ATOM     34  C   UNL     1      29.331  15.327   8.250  1.00  0.00     0.012 A 
ATOM     35  C   UNL     1      29.127  17.663   9.769  1.00  0.00     0.001 A 
ATOM     36  C   UNL     1      30.237  16.373   8.051  1.00  0.00     0.001 A 
ATOM     37  C   UNL     1      30.135  17.542   8.812  1.00  0.00     0.000 A 
ENDBRANCH  25  32
ENDBRANCH   1  17
TORSDOF 9
ENDMDL
MODEL 4
REMARK VINA RESULT:    -5.985      3.086      5.739
REMARK INTER + INTRA:         -10.060
REMARK INTER:                  -8.882
REMARK INTRA:                  -1.178
REMARK UNBOUND:                -1.626
REMARK SMILES COc1c(O[C@H]2O[C@H](C(=O)[O-])[C@@H](O)[C@@H](O)[C@@H]2O)cc(O)c2c(=O)cc(-c3ccccc3)oc12
REMARK SMILES IDX 5 1 6 2 8 3 12 4 7 5 14 6 16 7 9 8 10 9 11 10 13 11 15 13
REMARK SMILES IDX 17 15 4 17 3 18 18 19 33 20 19 21 21 22 32 23 22 24 25 25
REMARK SMILES IDX 24 26 23 27 2 28 1 29 20 30 26 32 27 33 31 34 28 35 30 36
REMARK SMILES IDX 29 37
REMARK H PARENT 13 12 15 14 17 16 20 31
REMARK Flexibility Score: inf
ROOT
ATOM      1  O   UNL     1      22.273  14.224  11.678  1.00  0.00    -0.458 OA
ENDROOT
BRANCH   1   2
ATOM      2  C   UNL     1      22.024  14.171  13.086  1.00  0.00     0.339 C 
ATOM      3  C   UNL     1      19.698  14.136  12.781  1.00  0.00     0.199 C 
ATOM      4  C   UNL     1      19.535  12.688  13.303  1.00  0.00     0.180 C 
ATOM      5  O   UNL     1      20.788  14.787  13.417  1.00  0.00    -0.328 OA
ATOM      6  C   UNL     1      20.850  11.880  13.167  1.00  0.00     0.181 C 
ATOM      7  C   UNL     1      22.086  12.714  13.597  1.00  0.00     0.214 C 
BRANCH   3   8
ATOM      8  C   UNL     1      18.443  14.915  13.054  1.00  0.00     0.073 C 
ATOM      9  O   UNL     1      18.339  15.625  14.089  1.00  0.00    -0.547 OA
ATOM     10  O   UNL     1      17.363  14.814  12.188  1.00  0.00    -0.547 OA
ENDBRANCH   3   8
BRANCH   4  11
ATOM     11  O   UNL     1      18.465  12.028  12.662  1.00  0.00    -0.387 OA
ATOM     12  H   UNL     1      18.370  12.409  11.751  1.00  0.00     0.211 HD
ENDBRANCH   4  11
BRANCH   6  13
ATOM     13  O   UNL     1      21.019  11.347  11.875  1.00  0.00    -0.387 OA
ATOM     14  H   UNL     1      21.784  11.814  11.446  1.00  0.00     0.211 HD
ENDBRANCH   6  13
BRANCH   7  15
ATOM     15  O   UNL     1      22.236  12.692  14.997  1.00  0.00    -0.384 OA
ATOM     16  H   UNL     1      21.556  13.308  15.379  1.00  0.00     0.211 HD
ENDBRANCH   7  15
ENDBRANCH   1   2
BRANCH   1  17
ATOM     17  C   UNL     1      23.525  14.450  11.087  1.00  0.00     0.172 A 
ATOM     18  C   UNL     1      24.107  13.404  10.361  1.00  0.00     0.205 A 
ATOM     19  C   UNL     1      24.181  15.687  11.187  1.00  0.00     0.097 A 
ATOM     20  C   UNL     1      25.373  13.584   9.764  1.00  0.00     0.188 A 
ATOM     21  C   UNL     1      25.433  15.881  10.592  1.00  0.00     0.134 A 
ATOM     22  C   UNL     1      26.044  14.829   9.876  1.00  0.00     0.111 A 
ATOM     23  O   UNL     1      25.946  12.580   9.107  1.00  0.00    -0.452 OA
ATOM     24  C   UNL     1      27.315  14.955   9.273  1.00  0.00     0.197 A 
ATOM     25  C   UNL     1      27.136  12.666   8.519  1.00  0.00     0.138 A 
ATOM     26  C   UNL     1      27.858  13.867   8.591  1.00  0.00     0.100 A 
ATOM     27  O   UNL     1      27.980  16.027   9.347  1.00  0.00    -0.289 OA
BRANCH  18  28
ATOM     28  O   UNL     1      23.379  12.207  10.256  1.00  0.00    -0.490 OA
ATOM     29  C   UNL     1      23.943  10.896  10.379  1.00  0.00     0.278 C 
ENDBRANCH  18  28
BRANCH  21  30
ATOM     30  O   UNL     1      26.061  17.116  10.723  1.00  0.00    -0.507 OA
ATOM     31  H   UNL     1      27.068  17.210  10.661  1.00  0.00     0.293 HD
ENDBRANCH  21  30
BRANCH  25  32
ATOM     32  C   UNL     1      27.663  11.484   7.804  1.00  0.00     0.017 A 
ATOM     33  C   UNL     1      26.936  10.290   7.803  1.00  0.00     0.012 A 
ATOM     34  C   UNL     1      28.866  11.550   7.070  1.00  0.00     0.012 A 
ATOM     35  C   UNL     1      27.400   9.171   7.103  1.00  0.00     0.001 A 
ATOM     36  C   UNL     1      29.326  10.433   6.365  1.00  0.00     0.001 A 
ATOM     37  C   UNL     1      28.592   9.243   6.382  1.00  0.00     0.000 A 
ENDBRANCH  25  32
ENDBRANCH   1  17
TORSDOF 9
ENDMDL
MODEL 5
REMARK VINA RESULT:    -5.974      3.970     10.586
REMARK INTER + INTRA:         -10.045
REMARK INTER:                  -9.022
REMARK INTRA:                  -1.022
REMARK UNBOUND:                -1.626
REMARK SMILES COc1c(O[C@H]2O[C@H](C(=O)[O-])[C@@H](O)[C@@H](O)[C@@H]2O)cc(O)c2c(=O)cc(-c3ccccc3)oc12
REMARK SMILES IDX 5 1 6 2 8 3 12 4 7 5 14 6 16 7 9 8 10 9 11 10 13 11 15 13
REMARK SMILES IDX 17 15 4 17 3 18 18 19 33 20 19 21 21 22 32 23 22 24 25 25
REMARK SMILES IDX 24 26 23 27 2 28 1 29 20 30 26 32 27 33 31 34 28 35 30 36
REMARK SMILES IDX 29 37
REMARK H PARENT 13 12 15 14 17 16 20 31
REMARK Flexibility Score: inf
ROOT
ATOM      1  O   UNL     1      22.682  13.965  12.264  1.00  0.00    -0.458 OA
ENDROOT
BRANCH   1   2
ATOM      2  C   UNL     1      24.002  13.647  12.715  1.00  0.00     0.339 C 
ATOM      3  C   UNL     1      24.587  12.683  10.657  1.00  0.00     0.199 C 
ATOM      4  C   UNL     1      25.618  13.782  10.303  1.00  0.00     0.180 C 
ATOM      5  O   UNL     1      24.508  12.492  12.061  1.00  0.00    -0.328 OA
ATOM      6  C   UNL     1      25.321  15.106  11.051  1.00  0.00     0.181 C 
ATOM      7  C   UNL     1      24.946  14.858  12.536  1.00  0.00     0.214 C 
BRANCH   3   8
ATOM      8  C   UNL     1      24.990  11.386  10.014  1.00  0.00     0.073 C 
ATOM      9  O   UNL     1      26.036  11.312   9.318  1.00  0.00    -0.547 OA
ATOM     10  O   UNL     1      24.176  10.269  10.140  1.00  0.00    -0.547 OA
ENDBRANCH   3   8
BRANCH   4  11
ATOM     11  O   UNL     1      25.687  13.991   8.909  1.00  0.00    -0.387 OA
ATOM     12  H   UNL     1      26.122  13.200   8.500  1.00  0.00     0.211 HD
ENDBRANCH   4  11
BRANCH   6  13
ATOM     13  O   UNL     1      24.341  15.879  10.400  1.00  0.00    -0.387 OA
ATOM     14  H   UNL     1      24.774  16.347   9.637  1.00  0.00     0.211 HD
ENDBRANCH   6  13
BRANCH   7  15
ATOM     15  O   UNL     1      26.105  14.694  13.318  1.00  0.00    -0.384 OA
ATOM     16  H   UNL     1      26.883  14.955  12.757  1.00  0.00     0.211 HD
ENDBRANCH   7  15
ENDBRANCH   1   2
BRANCH   1  17
ATOM     17  C   UNL     1      21.496  13.608  12.923  1.00  0.00     0.172 A 
ATOM     18  C   UNL     1      20.330  13.484  12.158  1.00  0.00     0.205 A 
ATOM     19  C   UNL     1      21.462  13.354  14.304  1.00  0.00     0.097 A 
ATOM     20  C   UNL     1      19.113  13.141  12.785  1.00  0.00     0.188 A 
ATOM     21  C   UNL     1      20.263  13.006  14.936  1.00  0.00     0.134 A 
ATOM     22  C   UNL     1      19.074  12.899  14.183  1.00  0.00     0.111 A 
ATOM     23  O   UNL     1      17.997  13.061  12.068  1.00  0.00    -0.452 OA
ATOM     24  C   UNL     1      17.830  12.573  14.765  1.00  0.00     0.197 A 
ATOM     25  C   UNL     1      16.811  12.748  12.581  1.00  0.00     0.138 A 
ATOM     26  C   UNL     1      16.696  12.496  13.957  1.00  0.00     0.100 A 
ATOM     27  O   UNL     1      17.714  12.362  16.006  1.00  0.00    -0.289 OA
BRANCH  18  28
ATOM     28  O   UNL     1      20.439  13.702  10.775  1.00  0.00    -0.490 OA
ATOM     29  C   UNL     1      20.645  14.981  10.165  1.00  0.00     0.278 C 
ENDBRANCH  18  28
BRANCH  21  30
ATOM     30  O   UNL     1      20.263  12.774  16.309  1.00  0.00    -0.507 OA
ATOM     31  H   UNL     1      20.961  13.183  16.917  1.00  0.00     0.293 HD
ENDBRANCH  21  30
BRANCH  25  32
ATOM     32  C   UNL     1      15.642  12.675  11.678  1.00  0.00     0.017 A 
ATOM     33  C   UNL     1      15.806  12.900  10.308  1.00  0.00     0.012 A 
ATOM     34  C   UNL     1      14.364  12.324  12.162  1.00  0.00     0.012 A 
ATOM     35  C   UNL     1      14.719  12.801   9.432  1.00  0.00     0.001 A 
ATOM     36  C   UNL     1      13.280  12.219  11.286  1.00  0.00     0.001 A 
ATOM     37  C   UNL     1      13.458  12.457   9.919  1.00  0.00     0.000 A 
ENDBRANCH  25  32
ENDBRANCH   1  17
TORSDOF 9
ENDMDL
MODEL 6
REMARK VINA RESULT:    -5.762      5.159     11.971
REMARK INTER + INTRA:          -9.746
REMARK INTER:                  -8.132
REMARK INTRA:                  -1.614
REMARK UNBOUND:                -1.626
REMARK SMILES COc1c(O[C@H]2O[C@H](C(=O)[O-])[C@@H](O)[C@@H](O)[C@@H]2O)cc(O)c2c(=O)cc(-c3ccccc3)oc12
REMARK SMILES IDX 5 1 6 2 8 3 12 4 7 5 14 6 16 7 9 8 10 9 11 10 13 11 15 13
REMARK SMILES IDX 17 15 4 17 3 18 18 19 33 20 19 21 21 22 32 23 22 24 25 25
REMARK SMILES IDX 24 26 23 27 2 28 1 29 20 30 26 32 27 33 31 34 28 35 30 36
REMARK SMILES IDX 29 37
REMARK H PARENT 13 12 15 14 17 16 20 31
REMARK Flexibility Score: inf
ROOT
ATOM      1  O   UNL     1      19.566  14.367  12.534  1.00  0.00    -0.458 OA
ENDROOT
BRANCH   1   2
ATOM      2  C   UNL     1      20.412  14.154  11.400  1.00  0.00     0.339 C 
ATOM      3  C   UNL     1      22.343  14.738  12.600  1.00  0.00     0.199 C 
ATOM      4  C   UNL     1      22.939  13.309  12.562  1.00  0.00     0.180 C 
ATOM      5  O   UNL     1      21.557  14.993  11.446  1.00  0.00    -0.328 OA
ATOM      6  C   UNL     1      21.839  12.236  12.361  1.00  0.00     0.181 C 
ATOM      7  C   UNL     1      20.806  12.664  11.285  1.00  0.00     0.214 C 
BRANCH   3   8
ATOM      8  C   UNL     1      23.453  15.747  12.663  1.00  0.00     0.073 C 
ATOM      9  O   UNL     1      23.961  16.211  11.608  1.00  0.00    -0.547 OA
ATOM     10  O   UNL     1      23.966  16.136  13.893  1.00  0.00    -0.547 OA
ENDBRANCH   3   8
BRANCH   4  11
ATOM     11  O   UNL     1      23.705  13.042  13.716  1.00  0.00    -0.387 OA
ATOM     12  H   UNL     1      23.669  13.840  14.302  1.00  0.00     0.211 HD
ENDBRANCH   4  11
BRANCH   6  13
ATOM     13  O   UNL     1      21.204  11.890  13.569  1.00  0.00    -0.387 OA
ATOM     14  H   UNL     1      21.668  12.366  14.308  1.00  0.00     0.211 HD
ENDBRANCH   6  13
BRANCH   7  15
ATOM     15  O   UNL     1      21.292  12.384   9.994  1.00  0.00    -0.384 OA
ATOM     16  H   UNL     1      22.005  11.698  10.086  1.00  0.00     0.211 HD
ENDBRANCH   7  15
ENDBRANCH   1   2
BRANCH   1  17
ATOM     17  C   UNL     1      18.303  13.785  12.719  1.00  0.00     0.172 A 
ATOM     18  C   UNL     1      18.043  13.150  13.940  1.00  0.00     0.205 A 
ATOM     19  C   UNL     1      17.305  13.847  11.733  1.00  0.00     0.097 A 
ATOM     20  C   UNL     1      16.790  12.539  14.160  1.00  0.00     0.188 A 
ATOM     21  C   UNL     1      16.056  13.252  11.942  1.00  0.00     0.134 A 
ATOM     22  C   UNL     1      15.786  12.588  13.159  1.00  0.00     0.111 A 
ATOM     23  O   UNL     1      16.555  11.901  15.303  1.00  0.00    -0.452 OA
ATOM     24  C   UNL     1      14.555  11.949  13.422  1.00  0.00     0.197 A 
ATOM     25  C   UNL     1      15.405  11.298  15.588  1.00  0.00     0.138 A 
ATOM     26  C   UNL     1      14.366  11.305  14.644  1.00  0.00     0.100 A 
ATOM     27  O   UNL     1      13.621  11.935  12.571  1.00  0.00    -0.289 OA
BRANCH  18  28
ATOM     28  O   UNL     1      19.064  13.165  14.905  1.00  0.00    -0.490 OA
ATOM     29  C   UNL     1      19.198  14.149  15.936  1.00  0.00     0.278 C 
ENDBRANCH  18  28
BRANCH  21  30
ATOM     30  O   UNL     1      15.095  13.321  10.938  1.00  0.00    -0.507 OA
ATOM     31  H   UNL     1      15.268  13.812  10.069  1.00  0.00     0.293 HD
ENDBRANCH  21  30
BRANCH  25  32
ATOM     32  C   UNL     1      15.256  10.634  16.901  1.00  0.00     0.017 A 
ATOM     33  C   UNL     1      14.111   9.879  17.173  1.00  0.00     0.012 A 
ATOM     34  C   UNL     1      16.277  10.695  17.872  1.00  0.00     0.012 A 
ATOM     35  C   UNL     1      13.967   9.214  18.395  1.00  0.00     0.001 A 
ATOM     36  C   UNL     1      16.136  10.025  19.091  1.00  0.00     0.001 A 
ATOM     37  C   UNL     1      14.980   9.282  19.352  1.00  0.00     0.000 A 
ENDBRANCH  25  32
ENDBRANCH   1  17
TORSDOF 9
ENDMDL
MODEL 7
REMARK VINA RESULT:    -5.692      4.227     10.777
REMARK INTER + INTRA:          -9.647
REMARK INTER:                  -8.569
REMARK INTRA:                  -1.078
REMARK UNBOUND:                -1.626
REMARK SMILES COc1c(O[C@H]2O[C@H](C(=O)[O-])[C@@H](O)[C@@H](O)[C@@H]2O)cc(O)c2c(=O)cc(-c3ccccc3)oc12
REMARK SMILES IDX 5 1 6 2 8 3 12 4 7 5 14 6 16 7 9 8 10 9 11 10 13 11 15 13
REMARK SMILES IDX 17 15 4 17 3 18 18 19 33 20 19 21 21 22 32 23 22 24 25 25
REMARK SMILES IDX 24 26 23 27 2 28 1 29 20 30 26 32 27 33 31 34 28 35 30 36
REMARK SMILES IDX 29 37
REMARK H PARENT 13 12 15 14 17 16 20 31
REMARK Flexibility Score: inf
ROOT
ATOM      1  O   UNL     1      21.660  13.546  11.677  1.00  0.00    -0.458 OA
ENDROOT
BRANCH   1   2
ATOM      2  C   UNL     1      22.745  14.154  12.385  1.00  0.00     0.339 C 
ATOM      3  C   UNL     1      24.351  13.141  11.005  1.00  0.00     0.199 C 
ATOM      4  C   UNL     1      24.808  14.474  10.364  1.00  0.00     0.180 C 
ATOM      5  O   UNL     1      23.910  13.343  12.340  1.00  0.00    -0.328 OA
ATOM      6  C   UNL     1      23.705  15.559  10.452  1.00  0.00     0.181 C 
ATOM      7  C   UNL     1      23.022  15.574  11.845  1.00  0.00     0.214 C 
BRANCH   3   8
ATOM      8  C   UNL     1      25.493  12.166  11.014  1.00  0.00     0.073 C 
ATOM      9  O   UNL     1      26.158  11.965  12.064  1.00  0.00    -0.547 OA
ATOM     10  O   UNL     1      25.859  11.518   9.843  1.00  0.00    -0.547 OA
ENDBRANCH   3   8
BRANCH   4  11
ATOM     11  O   UNL     1      25.229  14.284   9.031  1.00  0.00    -0.387 OA
ATOM     12  H   UNL     1      24.531  13.763   8.558  1.00  0.00     0.211 HD
ENDBRANCH   4  11
BRANCH   6  13
ATOM     13  O   UNL     1      22.756  15.441   9.420  1.00  0.00    -0.387 OA
ATOM     14  H   UNL     1      22.090  14.754   9.690  1.00  0.00     0.211 HD
ENDBRANCH   6  13
BRANCH   7  15
ATOM     15  O   UNL     1      23.794  16.307  12.767  1.00  0.00    -0.384 OA
ATOM     16  H   UNL     1      24.148  15.664  13.437  1.00  0.00     0.211 HD
ENDBRANCH   7  15
ENDBRANCH   1   2
BRANCH   1  17
ATOM     17  C   UNL     1      20.302  13.713  11.985  1.00  0.00     0.172 A 
ATOM     18  C   UNL     1      19.788  13.020  13.089  1.00  0.00     0.205 A 
ATOM     19  C   UNL     1      19.470  14.563  11.239  1.00  0.00     0.097 A 
ATOM     20  C   UNL     1      18.423  13.149  13.423  1.00  0.00     0.188 A 
ATOM     21  C   UNL     1      18.117  14.705  11.566  1.00  0.00     0.134 A 
ATOM     22  C   UNL     1      17.577  13.996  12.661  1.00  0.00     0.111 A 
ATOM     23  O   UNL     1      17.923  12.461  14.446  1.00  0.00    -0.452 OA
ATOM     24  C   UNL     1      16.217  14.079  13.028  1.00  0.00     0.197 A 
ATOM     25  C   UNL     1      16.650  12.524  14.825  1.00  0.00     0.138 A 
ATOM     26  C   UNL     1      15.755  13.340  14.116  1.00  0.00     0.100 A 
ATOM     27  O   UNL     1      15.400  14.798  12.385  1.00  0.00    -0.289 OA
BRANCH  18  28
ATOM     28  O   UNL     1      20.681  12.224  13.825  1.00  0.00    -0.490 OA
ATOM     29  C   UNL     1      21.248  12.589  15.088  1.00  0.00     0.278 C 
ENDBRANCH  18  28
BRANCH  21  30
ATOM     30  O   UNL     1      17.318  15.546  10.796  1.00  0.00    -0.507 OA
ATOM     31  H   UNL     1      17.487  16.543  10.748  1.00  0.00     0.293 HD
ENDBRANCH  21  30
BRANCH  25  32
ATOM     32  C   UNL     1      16.215  11.723  15.990  1.00  0.00     0.017 A 
ATOM     33  C   UNL     1      17.035  11.633  17.119  1.00  0.00     0.012 A 
ATOM     34  C   UNL     1      14.955  11.089  16.012  1.00  0.00     0.012 A 
ATOM     35  C   UNL     1      16.626  10.910  18.244  1.00  0.00     0.001 A 
ATOM     36  C   UNL     1      14.543  10.372  17.140  1.00  0.00     0.001 A 
ATOM     37  C   UNL     1      15.380  10.283  18.257  1.00  0.00     0.000 A 
ENDBRANCH  25  32
ENDBRANCH   1  17
TORSDOF 9
ENDMDL
MODEL 8
REMARK VINA RESULT:    -5.653      3.992      8.986
REMARK INTER + INTRA:          -9.593
REMARK INTER:                  -8.124
REMARK INTRA:                  -1.469
REMARK UNBOUND:                -1.626
REMARK SMILES COc1c(O[C@H]2O[C@H](C(=O)[O-])[C@@H](O)[C@@H](O)[C@@H]2O)cc(O)c2c(=O)cc(-c3ccccc3)oc12
REMARK SMILES IDX 5 1 6 2 8 3 12 4 7 5 14 6 16 7 9 8 10 9 11 10 13 11 15 13
REMARK SMILES IDX 17 15 4 17 3 18 18 19 33 20 19 21 21 22 32 23 22 24 25 25
REMARK SMILES IDX 24 26 23 27 2 28 1 29 20 30 26 32 27 33 31 34 28 35 30 36
REMARK SMILES IDX 29 37
REMARK H PARENT 13 12 15 14 17 16 20 31
REMARK Flexibility Score: inf
ROOT
ATOM      1  O   UNL     1      28.475  11.077   7.010  1.00  0.00    -0.458 OA
ENDROOT
BRANCH   1   2
ATOM      2  C   UNL     1      28.442  11.005   5.581  1.00  0.00     0.339 C 
ATOM      3  C   UNL     1      29.818   9.104   5.541  1.00  0.00     0.199 C 
ATOM      4  C   UNL     1      28.703   8.166   5.018  1.00  0.00     0.180 C 
ATOM      5  O   UNL     1      29.633  10.429   5.065  1.00  0.00    -0.328 OA
ATOM      6  C   UNL     1      27.292   8.711   5.355  1.00  0.00     0.181 C 
ATOM      7  C   UNL     1      27.189  10.238   5.102  1.00  0.00     0.214 C 
BRANCH   3   8
ATOM      8  C   UNL     1      31.157   8.606   5.078  1.00  0.00     0.073 C 
ATOM      9  O   UNL     1      32.217   9.011   5.622  1.00  0.00    -0.547 OA
ATOM     10  O   UNL     1      31.236   7.730   4.003  1.00  0.00    -0.547 OA
ENDBRANCH   3   8
BRANCH   4  11
ATOM     11  O   UNL     1      28.870   6.851   5.503  1.00  0.00    -0.387 OA
ATOM     12  H   UNL     1      28.717   6.862   6.482  1.00  0.00     0.211 HD
ENDBRANCH   4  11
BRANCH   6  13
ATOM     13  O   UNL     1      26.892   8.382   6.664  1.00  0.00    -0.387 OA
ATOM     14  H   UNL     1      26.037   7.878   6.608  1.00  0.00     0.211 HD
ENDBRANCH   6  13
BRANCH   7  15
ATOM     15  O   UNL     1      26.946  10.498   3.740  1.00  0.00    -0.384 OA
ATOM     16  H   UNL     1      26.954   9.626   3.264  1.00  0.00     0.211 HD
ENDBRANCH   7  15
ENDBRANCH   1   2
BRANCH   1  17
ATOM     17  C   UNL     1      27.934  12.120   7.777  1.00  0.00     0.172 A 
ATOM     18  C   UNL     1      26.861  11.823   8.626  1.00  0.00     0.205 A 
ATOM     19  C   UNL     1      28.455  13.423   7.731  1.00  0.00     0.097 A 
ATOM     20  C   UNL     1      26.278  12.847   9.404  1.00  0.00     0.188 A 
ATOM     21  C   UNL     1      27.891  14.445   8.503  1.00  0.00     0.134 A 
ATOM     22  C   UNL     1      26.793  14.168   9.346  1.00  0.00     0.111 A 
ATOM     23  O   UNL     1      25.233  12.577  10.180  1.00  0.00    -0.452 OA
ATOM     24  C   UNL     1      26.167  15.159  10.133  1.00  0.00     0.197 A 
ATOM     25  C   UNL     1      24.626  13.482  10.941  1.00  0.00     0.138 A 
ATOM     26  C   UNL     1      25.080  14.810  10.934  1.00  0.00     0.100 A 
ATOM     27  O   UNL     1      26.558  16.360  10.120  1.00  0.00    -0.289 OA
BRANCH  18  28
ATOM     28  O   UNL     1      26.417  10.491   8.665  1.00  0.00    -0.490 OA
ATOM     29  C   UNL     1      26.741   9.554   9.698  1.00  0.00     0.278 C 
ENDBRANCH  18  28
BRANCH  21  30
ATOM     30  O   UNL     1      28.423  15.729   8.422  1.00  0.00    -0.507 OA
ATOM     31  H   UNL     1      27.915  16.488   7.985  1.00  0.00     0.293 HD
ENDBRANCH  21  30
BRANCH  25  32
ATOM     32  C   UNL     1      23.481  13.058  11.775  1.00  0.00     0.017 A 
ATOM     33  C   UNL     1      22.482  12.248  11.226  1.00  0.00     0.012 A 
ATOM     34  C   UNL     1      23.401  13.405  13.140  1.00  0.00     0.012 A 
ATOM     35  C   UNL     1      21.409  11.806  12.007  1.00  0.00     0.001 A 
ATOM     36  C   UNL     1      22.332  12.958  13.923  1.00  0.00     0.001 A 
ATOM     37  C   UNL     1      21.335  12.157  13.356  1.00  0.00     0.000 A 
ENDBRANCH  25  32
ENDBRANCH   1  17
TORSDOF 9
ENDMDL
MODEL 9
REMARK VINA RESULT:    -5.589      3.670     10.105
REMARK INTER + INTRA:          -9.502
REMARK INTER:                  -8.206
REMARK INTRA:                  -1.296
REMARK UNBOUND:                -1.626
REMARK SMILES COc1c(O[C@H]2O[C@H](C(=O)[O-])[C@@H](O)[C@@H](O)[C@@H]2O)cc(O)c2c(=O)cc(-c3ccccc3)oc12
REMARK SMILES IDX 5 1 6 2 8 3 12 4 7 5 14 6 16 7 9 8 10 9 11 10 13 11 15 13
REMARK SMILES IDX 17 15 4 17 3 18 18 19 33 20 19 21 21 22 32 23 22 24 25 25
REMARK SMILES IDX 24 26 23 27 2 28 1 29 20 30 26 32 27 33 31 34 28 35 30 36
REMARK SMILES IDX 29 37
REMARK H PARENT 13 12 15 14 17 16 20 31
REMARK Flexibility Score: inf
ROOT
ATOM      1  O   UNL     1      23.416  13.627  12.048  1.00  0.00    -0.458 OA
ENDROOT
BRANCH   1   2
ATOM      2  C   UNL     1      24.226  14.801  12.161  1.00  0.00     0.339 C 
ATOM      3  C   UNL     1      26.143  13.556  12.691  1.00  0.00     0.199 C 
ATOM      4  C   UNL     1      26.875  13.903  11.372  1.00  0.00     0.180 C 
ATOM      5  O   UNL     1      25.283  14.612  13.090  1.00  0.00    -0.328 OA
ATOM      6  C   UNL     1      25.879  14.294  10.251  1.00  0.00     0.181 C 
ATOM      7  C   UNL     1      24.760  15.232  10.776  1.00  0.00     0.214 C 
BRANCH   3   8
ATOM      8  C   UNL     1      27.150  13.313  13.779  1.00  0.00     0.073 C 
ATOM      9  O   UNL     1      26.808  12.769  14.862  1.00  0.00    -0.547 OA
ATOM     10  O   UNL     1      28.460  13.741  13.617  1.00  0.00    -0.547 OA
ENDBRANCH   3   8
BRANCH   4  11
ATOM     11  O   UNL     1      27.717  12.849  10.959  1.00  0.00    -0.387 OA
ATOM     12  H   UNL     1      27.840  12.919   9.978  1.00  0.00     0.211 HD
ENDBRANCH   4  11
BRANCH   6  13
ATOM     13  O   UNL     1      25.338  13.168   9.602  1.00  0.00    -0.387 OA
ATOM     14  H   UNL     1      25.445  13.296   8.621  1.00  0.00     0.211 HD
ENDBRANCH   6  13
BRANCH   7  15
ATOM     15  O   UNL     1      25.210  16.565  10.817  1.00  0.00    -0.384 OA
ATOM     16  H   UNL     1      26.140  16.576  10.467  1.00  0.00     0.211 HD
ENDBRANCH   7  15
ENDBRANCH   1   2
BRANCH   1  17
ATOM     17  C   UNL     1      22.179  13.436  12.681  1.00  0.00     0.172 A 
ATOM     18  C   UNL     1      21.018  13.559  11.907  1.00  0.00     0.205 A 
ATOM     19  C   UNL     1      22.084  13.107  14.042  1.00  0.00     0.097 A 
ATOM     20  C   UNL     1      19.753  13.389  12.508  1.00  0.00     0.188 A 
ATOM     21  C   UNL     1      20.836  12.929  14.649  1.00  0.00     0.134 A 
ATOM     22  C   UNL     1      19.655  13.072  13.888  1.00  0.00     0.111 A 
ATOM     23  O   UNL     1      18.648  13.545  11.785  1.00  0.00    -0.452 OA
ATOM     24  C   UNL     1      18.366  12.927  14.445  1.00  0.00     0.197 A 
ATOM     25  C   UNL     1      17.420  13.406  12.274  1.00  0.00     0.138 A 
ATOM     26  C   UNL     1      17.247  13.093  13.632  1.00  0.00     0.100 A 
ATOM     27  O   UNL     1      18.200  12.662  15.670  1.00  0.00    -0.289 OA
BRANCH  18  28
ATOM     28  O   UNL     1      21.180  13.840  10.540  1.00  0.00    -0.490 OA
ATOM     29  C   UNL     1      21.130  15.151   9.966  1.00  0.00     0.278 C 
ENDBRANCH  18  28
BRANCH  21  30
ATOM     30  O   UNL     1      20.778  12.617  16.004  1.00  0.00    -0.507 OA
ATOM     31  H   UNL     1      21.613  12.574  16.576  1.00  0.00     0.293 HD
ENDBRANCH  21  30
BRANCH  25  32
ATOM     32  C   UNL     1      16.267  13.588  11.366  1.00  0.00     0.017 A 
ATOM     33  C   UNL     1      15.777  14.873  11.113  1.00  0.00     0.012 A 
ATOM     34  C   UNL     1      15.682  12.493  10.698  1.00  0.00     0.012 A 
ATOM     35  C   UNL     1      14.711  15.071  10.230  1.00  0.00     0.001 A 
ATOM     36  C   UNL     1      14.620  12.691   9.810  1.00  0.00     0.001 A 
ATOM     37  C   UNL     1      14.134  13.982   9.575  1.00  0.00     0.000 A 
ENDBRANCH  25  32
ENDBRANCH   1  17
TORSDOF 9
ENDMDL
