MODEL 1
REMARK VINA RESULT:    -5.249      0.000      0.000
REMARK INTER + INTRA:          -8.805
REMARK INTER:                  -8.165
REMARK INTRA:                  -0.641
REMARK UNBOUND:                -0.641
REMARK SMILES COc1cc(CNC(=O)CCCCC=CC(C)C)ccc1O
REMARK SMILES IDX 11 1 12 2 13 3 14 4 15 5 16 6 17 7 18 8 10 9 8 10 9 11 7 12
REMARK SMILES IDX 6 14 5 15 4 16 19 17 3 18 20 19 21 20 2 21 1 22 22 23
REMARK H PARENT 7 13 22 24
REMARK Flexibility Score: inf
ROOT
ATOM      1  C   UNL     1     115.523 255.872 337.538  1.00  0.00     0.010 C 
ENDROOT
BRANCH   1   2
ATOM      2  C   UNL     1     114.485 257.006 337.487  1.00  0.00     0.005 C 
BRANCH   2   3
ATOM      3  C   UNL     1     113.510 256.836 336.314  1.00  0.00     0.027 C 
BRANCH   3   4
ATOM      4  C   UNL     1     113.548 258.028 335.385  1.00  0.00    -0.031 C 
ATOM      5  C   UNL     1     113.555 257.954 334.042  1.00  0.00    -0.028 C 
BRANCH   5   6
ATOM      6  C   UNL     1     113.433 256.668 333.249  1.00  0.00     0.005 C 
ATOM      7  C   UNL     1     114.811 256.229 332.743  1.00  0.00     0.012 C 
ATOM      8  C   UNL     1     112.474 256.862 332.070  1.00  0.00     0.012 C 
ENDBRANCH   5   6
ENDBRANCH   3   4
ENDBRANCH   2   3
ENDBRANCH   1   2
BRANCH   1   9
ATOM      9  C   UNL     1     116.755 256.246 338.372  1.00  0.00     0.100 C 
BRANCH   9  10
ATOM     10  C   UNL     1     117.062 255.202 339.405  1.00  0.00     0.220 C 
ATOM     11  O   UNL     1     118.077 254.469 339.259  1.00  0.00    -0.275 OA
ATOM     12  N   UNL     1     116.186 255.013 340.525  1.00  0.00    -0.352 N 
ATOM     13  H   UNL     1     115.331 255.609 340.608  1.00  0.00     0.163 HD
BRANCH  12  14
ATOM     14  C   UNL     1     116.426 253.996 341.545  1.00  0.00     0.151 C 
BRANCH  14  15
ATOM     15  C   UNL     1     115.301 253.983 342.545  1.00  0.00    -0.025 A 
ATOM     16  C   UNL     1     115.375 254.785 343.695  1.00  0.00     0.056 A 
ATOM     17  C   UNL     1     114.184 253.158 342.352  1.00  0.00     0.009 A 
ATOM     18  C   UNL     1     114.337 254.771 344.647  1.00  0.00     0.160 A 
ATOM     19  C   UNL     1     113.152 253.141 343.289  1.00  0.00     0.050 A 
ATOM     20  C   UNL     1     113.220 253.942 344.434  1.00  0.00     0.157 A 
BRANCH  18  21
ATOM     21  O   UNL     1     114.384 255.560 345.807  1.00  0.00    -0.493 OA
ATOM     22  C   UNL     1     115.404 256.511 346.099  1.00  0.00     0.278 C 
ENDBRANCH  18  21
BRANCH  20  23
ATOM     23  O   UNL     1     112.169 253.900 345.349  1.00  0.00    -0.504 OA
ATOM     24  H   UNL     1     111.219 254.135 345.090  1.00  0.00     0.293 HD
ENDBRANCH  20  23
ENDBRANCH  14  15
ENDBRANCH  12  14
ENDBRANCH   9  10
ENDBRANCH   1   9
TORSDOF 10
ENDMDL
MODEL 2
REMARK VINA RESULT:    -4.472      2.677     10.160
REMARK INTER + INTRA:          -7.596
REMARK INTER:                  -7.069
REMARK INTRA:                  -0.527
REMARK UNBOUND:                -0.641
REMARK SMILES COc1cc(CNC(=O)CCCCC=CC(C)C)ccc1O
REMARK SMILES IDX 11 1 12 2 13 3 14 4 15 5 16 6 17 7 18 8 10 9 8 10 9 11 7 12
REMARK SMILES IDX 6 14 5 15 4 16 19 17 3 18 20 19 21 20 2 21 1 22 22 23
REMARK H PARENT 7 13 22 24
REMARK Flexibility Score: inf
ROOT
ATOM      1  C   UNL     1     115.465 255.910 346.102  1.00  0.00     0.010 C 
ENDROOT
BRANCH   1   2
ATOM      2  C   UNL     1     115.794 257.409 346.001  1.00  0.00     0.005 C 
BRANCH   2   3
ATOM      3  C   UNL     1     116.010 258.040 347.382  1.00  0.00     0.027 C 
BRANCH   3   4
ATOM      4  C   UNL     1     117.405 257.773 347.900  1.00  0.00    -0.031 C 
ATOM      5  C   UNL     1     117.750 257.750 349.201  1.00  0.00    -0.028 C 
BRANCH   5   6
ATOM      6  C   UNL     1     116.775 257.895 350.352  1.00  0.00     0.005 C 
ATOM      7  C   UNL     1     117.538 258.125 351.662  1.00  0.00     0.012 C 
ATOM      8  C   UNL     1     115.897 256.644 350.465  1.00  0.00     0.012 C 
ENDBRANCH   5   6
ENDBRANCH   3   4
ENDBRANCH   2   3
ENDBRANCH   1   2
BRANCH   1   9
ATOM      9  C   UNL     1     114.156 255.550 345.385  1.00  0.00     0.100 C 
BRANCH   9  10
ATOM     10  C   UNL     1     114.365 254.480 344.355  1.00  0.00     0.220 C 
ATOM     11  O   UNL     1     113.801 253.362 344.502  1.00  0.00    -0.275 OA
ATOM     12  N   UNL     1     115.232 254.712 343.236  1.00  0.00    -0.352 N 
ATOM     13  H   UNL     1     115.716 255.635 343.151  1.00  0.00     0.163 HD
BRANCH  12  14
ATOM     14  C   UNL     1     115.487 253.697 342.218  1.00  0.00     0.151 C 
BRANCH  14  15
ATOM     15  C   UNL     1     116.528 254.182 341.245  1.00  0.00    -0.025 A 
ATOM     16  C   UNL     1     116.152 254.994 340.164  1.00  0.00     0.056 A 
ATOM     17  C   UNL     1     117.872 253.812 341.394  1.00  0.00     0.009 A 
ATOM     18  C   UNL     1     117.112 255.443 339.236  1.00  0.00     0.160 A 
ATOM     19  C   UNL     1     118.828 254.255 340.481  1.00  0.00     0.050 A 
ATOM     20  C   UNL     1     118.458 255.069 339.404  1.00  0.00     0.157 A 
BRANCH  18  21
ATOM     21  O   UNL     1     116.767 256.255 338.144  1.00  0.00    -0.493 OA
ATOM     22  C   UNL     1     115.471 256.310 337.555  1.00  0.00     0.278 C 
ENDBRANCH  18  21
BRANCH  20  23
ATOM     23  O   UNL     1     119.441 255.493 338.512  1.00  0.00    -0.504 OA
ATOM     24  H   UNL     1     119.520 256.458 338.214  1.00  0.00     0.293 HD
ENDBRANCH  20  23
ENDBRANCH  14  15
ENDBRANCH  12  14
ENDBRANCH   9  10
ENDBRANCH   1   9
TORSDOF 10
ENDMDL
MODEL 3
REMARK VINA RESULT:    -4.206      2.995      9.094
REMARK INTER + INTRA:          -7.183
REMARK INTER:                  -6.515
REMARK INTRA:                  -0.667
REMARK UNBOUND:                -0.641
REMARK SMILES COc1cc(CNC(=O)CCCCC=CC(C)C)ccc1O
REMARK SMILES IDX 11 1 12 2 13 3 14 4 15 5 16 6 17 7 18 8 10 9 8 10 9 11 7 12
REMARK SMILES IDX 6 14 5 15 4 16 19 17 3 18 20 19 21 20 2 21 1 22 22 23
REMARK H PARENT 7 13 22 24
REMARK Flexibility Score: inf
ROOT
ATOM      1  C   UNL     1     117.724 254.698 340.372  1.00  0.00     0.010 C 
ENDROOT
BRANCH   1   2
ATOM      2  C   UNL     1     117.099 253.847 341.491  1.00  0.00     0.005 C 
BRANCH   2   3
ATOM      3  C   UNL     1     115.701 254.348 341.876  1.00  0.00     0.027 C 
BRANCH   3   4
ATOM      4  C   UNL     1     114.825 253.218 342.368  1.00  0.00    -0.031 C 
ATOM      5  C   UNL     1     113.812 253.357 343.243  1.00  0.00    -0.028 C 
BRANCH   5   6
ATOM      6  C   UNL     1     113.333 254.682 343.801  1.00  0.00     0.005 C 
ATOM      7  C   UNL     1     113.917 254.906 345.200  1.00  0.00     0.012 C 
ATOM      8  C   UNL     1     111.801 254.709 343.858  1.00  0.00     0.012 C 
ENDBRANCH   5   6
ENDBRANCH   3   4
ENDBRANCH   2   3
ENDBRANCH   1   2
BRANCH   1   9
ATOM      9  C   UNL     1     116.970 254.558 339.043  1.00  0.00     0.100 C 
BRANCH   9  10
ATOM     10  C   UNL     1     116.494 255.887 338.533  1.00  0.00     0.220 C 
ATOM     11  O   UNL     1     117.215 256.908 338.702  1.00  0.00    -0.275 OA
ATOM     12  N   UNL     1     115.213 256.002 337.897  1.00  0.00    -0.352 N 
ATOM     13  H   UNL     1     114.617 255.149 337.798  1.00  0.00     0.163 HD
BRANCH  12  14
ATOM     14  C   UNL     1     114.694 257.275 337.405  1.00  0.00     0.151 C 
BRANCH  14  15
ATOM     15  C   UNL     1     114.005 257.081 336.081  1.00  0.00    -0.025 A 
ATOM     16  C   UNL     1     114.549 257.647 334.918  1.00  0.00     0.056 A 
ATOM     17  C   UNL     1     112.807 256.356 335.999  1.00  0.00     0.009 A 
ATOM     18  C   UNL     1     113.907 257.487 333.674  1.00  0.00     0.160 A 
ATOM     19  C   UNL     1     112.167 256.192 334.771  1.00  0.00     0.050 A 
ATOM     20  C   UNL     1     112.709 256.751 333.609  1.00  0.00     0.157 A 
BRANCH  18  21
ATOM     21  O   UNL     1     114.426 258.042 332.494  1.00  0.00    -0.493 OA
ATOM     22  C   UNL     1     115.813 258.120 332.178  1.00  0.00     0.278 C 
ENDBRANCH  18  21
BRANCH  20  23
ATOM     23  O   UNL     1     112.042 256.565 332.399  1.00  0.00    -0.504 OA
ATOM     24  H   UNL     1     111.818 257.337 331.782  1.00  0.00     0.293 HD
ENDBRANCH  20  23
ENDBRANCH  14  15
ENDBRANCH  12  14
ENDBRANCH   9  10
ENDBRANCH   1   9
TORSDOF 10
ENDMDL
MODEL 4
REMARK VINA RESULT:    -3.686      4.265      7.170
REMARK INTER + INTRA:          -6.374
REMARK INTER:                  -6.000
REMARK INTRA:                  -0.375
REMARK UNBOUND:                -0.641
REMARK SMILES COc1cc(CNC(=O)CCCCC=CC(C)C)ccc1O
REMARK SMILES IDX 11 1 12 2 13 3 14 4 15 5 16 6 17 7 18 8 10 9 8 10 9 11 7 12
REMARK SMILES IDX 6 14 5 15 4 16 19 17 3 18 20 19 21 20 2 21 1 22 22 23
REMARK H PARENT 7 13 22 24
REMARK Flexibility Score: inf
ROOT
ATOM      1  C   UNL     1     114.616 253.546 343.014  1.00  0.00     0.010 C 
ENDROOT
BRANCH   1   2
ATOM      2  C   UNL     1     115.546 254.634 342.450  1.00  0.00     0.005 C 
BRANCH   2   3
ATOM      3  C   UNL     1     116.101 254.251 341.072  1.00  0.00     0.027 C 
BRANCH   3   4
ATOM      4  C   UNL     1     117.550 253.827 341.157  1.00  0.00    -0.031 C 
ATOM      5  C   UNL     1     118.575 254.474 340.572  1.00  0.00    -0.028 C 
BRANCH   5   6
ATOM      6  C   UNL     1     118.448 255.781 339.815  1.00  0.00     0.005 C 
ATOM      7  C   UNL     1     118.118 255.506 338.344  1.00  0.00     0.012 C 
ATOM      8  C   UNL     1     119.749 256.584 339.923  1.00  0.00     0.012 C 
ENDBRANCH   5   6
ENDBRANCH   3   4
ENDBRANCH   2   3
ENDBRANCH   1   2
BRANCH   1   9
ATOM      9  C   UNL     1     114.474 253.634 344.540  1.00  0.00     0.100 C 
BRANCH   9  10
ATOM     10  C   UNL     1     114.267 255.049 344.996  1.00  0.00     0.220 C 
ATOM     11  O   UNL     1     113.179 255.630 344.731  1.00  0.00    -0.275 OA
ATOM     12  N   UNL     1     115.312 255.747 345.688  1.00  0.00    -0.352 N 
ATOM     13  H   UNL     1     116.218 255.257 345.866  1.00  0.00     0.163 HD
BRANCH  12  14
ATOM     14  C   UNL     1     115.169 257.130 346.132  1.00  0.00     0.151 C 
BRANCH  14  15
ATOM     15  C   UNL     1     116.024 257.380 347.345  1.00  0.00    -0.025 A 
ATOM     16  C   UNL     1     115.424 257.553 348.602  1.00  0.00     0.056 A 
ATOM     17  C   UNL     1     117.419 257.465 347.230  1.00  0.00     0.009 A 
ATOM     18  C   UNL     1     116.210 257.803 349.744  1.00  0.00     0.160 A 
ATOM     19  C   UNL     1     118.203 257.710 348.357  1.00  0.00     0.050 A 
ATOM     20  C   UNL     1     117.609 257.879 349.612  1.00  0.00     0.157 A 
BRANCH  18  21
ATOM     21  O   UNL     1     115.639 257.981 351.014  1.00  0.00    -0.493 OA
ATOM     22  C   UNL     1     115.833 257.104 352.119  1.00  0.00     0.278 C 
ENDBRANCH  18  21
BRANCH  20  23
ATOM     23  O   UNL     1     118.425 258.121 350.716  1.00  0.00    -0.504 OA
ATOM     24  H   UNL     1     118.495 259.037 351.144  1.00  0.00     0.293 HD
ENDBRANCH  20  23
ENDBRANCH  14  15
ENDBRANCH  12  14
ENDBRANCH   9  10
ENDBRANCH   1   9
TORSDOF 10
ENDMDL
MODEL 5
REMARK VINA RESULT:    -3.145      1.129      1.713
REMARK INTER + INTRA:          -5.533
REMARK INTER:                  -5.545
REMARK INTRA:                   0.013
REMARK UNBOUND:                -0.641
REMARK SMILES COc1cc(CNC(=O)CCCCC=CC(C)C)ccc1O
REMARK SMILES IDX 11 1 12 2 13 3 14 4 15 5 16 6 17 7 18 8 10 9 8 10 9 11 7 12
REMARK SMILES IDX 6 14 5 15 4 16 19 17 3 18 20 19 21 20 2 21 1 22 22 23
REMARK H PARENT 7 13 22 24
REMARK Flexibility Score: inf
ROOT
ATOM      1  C   UNL     1     117.058 255.592 338.359  1.00  0.00     0.010 C 
ENDROOT
BRANCH   1   2
ATOM      2  C   UNL     1     116.194 256.860 338.248  1.00  0.00     0.005 C 
BRANCH   2   3
ATOM      3  C   UNL     1     114.940 256.622 337.395  1.00  0.00     0.027 C 
BRANCH   3   4
ATOM      4  C   UNL     1     114.011 257.814 337.434  1.00  0.00    -0.031 C 
ATOM      5  C   UNL     1     113.002 258.029 336.570  1.00  0.00    -0.028 C 
BRANCH   5   6
ATOM      6  C   UNL     1     112.581 257.063 335.481  1.00  0.00     0.005 C 
ATOM      7  C   UNL     1     112.365 255.665 336.071  1.00  0.00     0.012 C 
ATOM      8  C   UNL     1     113.645 257.012 334.378  1.00  0.00     0.012 C 
ENDBRANCH   5   6
ENDBRANCH   3   4
ENDBRANCH   2   3
ENDBRANCH   1   2
BRANCH   1   9
ATOM      9  C   UNL     1     117.995 255.631 339.574  1.00  0.00     0.100 C 
BRANCH   9  10
ATOM     10  C   UNL     1     117.716 254.503 340.524  1.00  0.00     0.220 C 
ATOM     11  O   UNL     1     118.612 253.643 340.743  1.00  0.00    -0.275 OA
ATOM     12  N   UNL     1     116.428 254.380 341.143  1.00  0.00    -0.352 N 
ATOM     13  H   UNL     1     115.688 255.085 340.921  1.00  0.00     0.163 HD
BRANCH  12  14
ATOM     14  C   UNL     1     116.098 253.289 342.056  1.00  0.00     0.151 C 
BRANCH  14  15
ATOM     15  C   UNL     1     114.954 253.685 342.951  1.00  0.00    -0.025 A 
ATOM     16  C   UNL     1     115.166 254.597 343.997  1.00  0.00     0.056 A 
ATOM     17  C   UNL     1     113.679 253.133 342.765  1.00  0.00     0.009 A 
ATOM     18  C   UNL     1     114.108 254.965 344.853  1.00  0.00     0.160 A 
ATOM     19  C   UNL     1     112.627 253.495 343.607  1.00  0.00     0.050 A 
ATOM     20  C   UNL     1     112.833 254.407 344.648  1.00  0.00     0.157 A 
BRANCH  18  21
ATOM     21  O   UNL     1     114.289 255.872 345.908  1.00  0.00    -0.493 OA
ATOM     22  C   UNL     1     115.550 256.385 346.327  1.00  0.00     0.278 C 
ENDBRANCH  18  21
BRANCH  20  23
ATOM     23  O   UNL     1     111.758 254.745 345.469  1.00  0.00    -0.504 OA
ATOM     24  H   UNL     1     110.818 254.411 345.293  1.00  0.00     0.293 HD
ENDBRANCH  20  23
ENDBRANCH  14  15
ENDBRANCH  12  14
ENDBRANCH   9  10
ENDBRANCH   1   9
TORSDOF 10
ENDMDL
MODEL 6
REMARK VINA RESULT:    -2.812      3.273      8.002
REMARK INTER + INTRA:          -5.015
REMARK INTER:                  -4.163
REMARK INTRA:                  -0.852
REMARK UNBOUND:                -0.641
REMARK SMILES COc1cc(CNC(=O)CCCCC=CC(C)C)ccc1O
REMARK SMILES IDX 11 1 12 2 13 3 14 4 15 5 16 6 17 7 18 8 10 9 8 10 9 11 7 12
REMARK SMILES IDX 6 14 5 15 4 16 19 17 3 18 20 19 21 20 2 21 1 22 22 23
REMARK H PARENT 7 13 22 24
REMARK Flexibility Score: inf
ROOT
ATOM      1  C   UNL     1     117.103 253.581 340.638  1.00  0.00     0.010 C 
ENDROOT
BRANCH   1   2
ATOM      2  C   UNL     1     116.681 254.266 341.949  1.00  0.00     0.005 C 
BRANCH   2   3
ATOM      3  C   UNL     1     115.165 254.490 342.014  1.00  0.00     0.027 C 
BRANCH   3   4
ATOM      4  C   UNL     1     114.447 253.268 342.541  1.00  0.00    -0.031 C 
ATOM      5  C   UNL     1     113.489 253.289 343.486  1.00  0.00    -0.028 C 
BRANCH   5   6
ATOM      6  C   UNL     1     112.917 254.549 344.104  1.00  0.00     0.005 C 
ATOM      7  C   UNL     1     113.682 254.902 345.384  1.00  0.00     0.012 C 
ATOM      8  C   UNL     1     111.428 254.357 344.415  1.00  0.00     0.012 C 
ENDBRANCH   5   6
ENDBRANCH   3   4
ENDBRANCH   2   3
ENDBRANCH   1   2
BRANCH   1   9
ATOM      9  C   UNL     1     118.391 254.178 340.056  1.00  0.00     0.100 C 
BRANCH   9  10
ATOM     10  C   UNL     1     118.118 255.430 339.276  1.00  0.00     0.220 C 
ATOM     11  O   UNL     1     119.007 256.321 339.206  1.00  0.00    -0.275 OA
ATOM     12  N   UNL     1     116.842 255.630 338.651  1.00  0.00    -0.352 N 
ATOM     13  H   UNL     1     116.107 254.893 338.751  1.00  0.00     0.163 HD
BRANCH  12  14
ATOM     14  C   UNL     1     116.517 256.839 337.901  1.00  0.00     0.151 C 
BRANCH  14  15
ATOM     15  C   UNL     1     115.105 256.770 337.384  1.00  0.00    -0.025 A 
ATOM     16  C   UNL     1     114.587 255.551 336.921  1.00  0.00     0.056 A 
ATOM     17  C   UNL     1     114.305 257.920 337.338  1.00  0.00     0.009 A 
ATOM     18  C   UNL     1     113.272 255.474 336.419  1.00  0.00     0.160 A 
ATOM     19  C   UNL     1     113.002 257.851 336.845  1.00  0.00     0.050 A 
ATOM     20  C   UNL     1     112.481 256.637 336.387  1.00  0.00     0.157 A 
BRANCH  18  21
ATOM     21  O   UNL     1     112.727 254.270 335.948  1.00  0.00    -0.493 OA
ATOM     22  C   UNL     1     113.155 252.973 336.356  1.00  0.00     0.278 C 
ENDBRANCH  18  21
BRANCH  20  23
ATOM     23  O   UNL     1     111.174 256.605 335.902  1.00  0.00    -0.504 OA
ATOM     24  H   UNL     1     110.772 257.377 335.384  1.00  0.00     0.293 HD
ENDBRANCH  20  23
ENDBRANCH  14  15
ENDBRANCH  12  14
ENDBRANCH   9  10
ENDBRANCH   1   9
TORSDOF 10
ENDMDL
