MODEL 1
REMARK VINA RESULT:    -6.555      0.000      0.000
REMARK INTER + INTRA:          -7.197
REMARK INTER:                  -6.938
REMARK INTRA:                  -0.259
REMARK UNBOUND:                -0.259
REMARK SMILES O=c1cc(-c2ccccc2)oc2ccccc12
REMARK SMILES IDX 4 1 3 2 2 3 1 4 17 5 16 6 15 7 14 8 13 9 12 10 11 11 5 12
REMARK SMILES IDX 8 13 7 14 9 15 6 16 10 17
REMARK H PARENT
REMARK Flexibility Score: inf
ROOT
ATOM      1  C   UNL     1       5.147  30.420  18.284  1.00  0.00     0.138 A 
ATOM      2  C   UNL     1       3.852  30.200  17.765  1.00  0.00     0.100 A 
ATOM      3  C   UNL     1       2.927  31.247  17.756  1.00  0.00     0.193 A 
ATOM      4  O   UNL     1       1.771  31.050  17.292  1.00  0.00    -0.289 OA
ATOM      5  C   UNL     1       3.297  32.500  18.264  1.00  0.00     0.065 A 
ATOM      6  C   UNL     1       2.414  33.594  18.285  1.00  0.00     0.016 A 
ATOM      7  C   UNL     1       2.835  34.823  18.803  1.00  0.00     0.001 A 
ATOM      8  C   UNL     1       4.133  34.969  19.303  1.00  0.00     0.004 A 
ATOM      9  C   UNL     1       5.017  33.886  19.285  1.00  0.00     0.048 A 
ATOM     10  C   UNL     1       4.607  32.652  18.769  1.00  0.00     0.138 A 
ATOM     11  O   UNL     1       5.454  31.628  18.757  1.00  0.00    -0.456 OA
ENDROOT
BRANCH   1  12
ATOM     12  C   UNL     1       6.196  29.356  18.331  1.00  0.00     0.017 A 
ATOM     13  C   UNL     1       8.246  27.417  18.418  1.00  0.00     0.000 A 
ATOM     14  C   UNL     1       8.568  28.773  18.403  1.00  0.00     0.001 A 
ATOM     15  C   UNL     1       6.910  27.019  18.391  1.00  0.00     0.001 A 
ATOM     16  C   UNL     1       7.554  29.735  18.359  1.00  0.00     0.012 A 
ATOM     17  C   UNL     1       5.889  27.976  18.348  1.00  0.00     0.012 A 
ENDBRANCH   1  12
TORSDOF 1
ENDMDL
MODEL 2
REMARK VINA RESULT:    -6.526      1.241      5.922
REMARK INTER + INTRA:          -7.167
REMARK INTER:                  -6.907
REMARK INTRA:                  -0.259
REMARK UNBOUND:                -0.259
REMARK SMILES O=c1cc(-c2ccccc2)oc2ccccc12
REMARK SMILES IDX 4 1 3 2 2 3 1 4 17 5 16 6 15 7 14 8 13 9 12 10 11 11 5 12
REMARK SMILES IDX 8 13 7 14 9 15 6 16 10 17
REMARK H PARENT
REMARK Flexibility Score: inf
ROOT
ATOM      1  C   UNL     1       4.833  30.956  18.718  1.00  0.00     0.138 A 
ATOM      2  C   UNL     1       3.973  29.837  18.715  1.00  0.00     0.100 A 
ATOM      3  C   UNL     1       4.514  28.553  18.625  1.00  0.00     0.193 A 
ATOM      4  O   UNL     1       3.745  27.553  18.623  1.00  0.00    -0.289 OA
ATOM      5  C   UNL     1       5.904  28.394  18.538  1.00  0.00     0.065 A 
ATOM      6  C   UNL     1       6.513  27.129  18.444  1.00  0.00     0.016 A 
ATOM      7  C   UNL     1       7.905  27.028  18.360  1.00  0.00     0.001 A 
ATOM      8  C   UNL     1       8.697  28.181  18.368  1.00  0.00     0.004 A 
ATOM      9  C   UNL     1       8.100  29.441  18.461  1.00  0.00     0.048 A 
ATOM     10  C   UNL     1       6.707  29.555  18.545  1.00  0.00     0.138 A 
ATOM     11  O   UNL     1       6.149  30.757  18.633  1.00  0.00    -0.456 OA
ENDROOT
BRANCH   1  12
ATOM     12  C   UNL     1       4.336  32.363  18.811  1.00  0.00     0.017 A 
ATOM     13  C   UNL     1       3.312  34.990  18.952  1.00  0.00     0.000 A 
ATOM     14  C   UNL     1       2.511  33.953  18.477  1.00  0.00     0.001 A 
ATOM     15  C   UNL     1       4.620  34.729  19.357  1.00  0.00     0.001 A 
ATOM     16  C   UNL     1       3.016  32.651  18.407  1.00  0.00     0.012 A 
ATOM     17  C   UNL     1       5.133  33.428  19.291  1.00  0.00     0.012 A 
ENDBRANCH   1  12
TORSDOF 1
ENDMDL
MODEL 3
REMARK VINA RESULT:    -6.506      9.595     10.721
REMARK INTER + INTRA:          -7.145
REMARK INTER:                  -6.909
REMARK INTRA:                  -0.236
REMARK UNBOUND:                -0.259
REMARK SMILES O=c1cc(-c2ccccc2)oc2ccccc12
REMARK SMILES IDX 4 1 3 2 2 3 1 4 17 5 16 6 15 7 14 8 13 9 12 10 11 11 5 12
REMARK SMILES IDX 8 13 7 14 9 15 6 16 10 17
REMARK H PARENT
REMARK Flexibility Score: inf
ROOT
ATOM      1  C   UNL     1       9.182  30.130  27.759  1.00  0.00     0.138 A 
ATOM      2  C   UNL     1       9.788  30.908  28.769  1.00  0.00     0.100 A 
ATOM      3  C   UNL     1      10.446  32.091  28.425  1.00  0.00     0.193 A 
ATOM      4  O   UNL     1      10.987  32.786  29.328  1.00  0.00    -0.289 OA
ATOM      5  C   UNL     1      10.497  32.488  27.082  1.00  0.00     0.065 A 
ATOM      6  C   UNL     1      11.145  33.666  26.668  1.00  0.00     0.016 A 
ATOM      7  C   UNL     1      11.165  34.015  25.315  1.00  0.00     0.001 A 
ATOM      8  C   UNL     1      10.544  33.196  24.367  1.00  0.00     0.004 A 
ATOM      9  C   UNL     1       9.898  32.023  24.769  1.00  0.00     0.048 A 
ATOM     10  C   UNL     1       9.872  31.663  26.121  1.00  0.00     0.138 A 
ATOM     11  O   UNL     1       9.256  30.547  26.494  1.00  0.00    -0.456 OA
ENDROOT
BRANCH   1  12
ATOM     12  C   UNL     1       8.458  28.853  28.040  1.00  0.00     0.017 A 
ATOM     13  C   UNL     1       7.151  26.394  28.509  1.00  0.00     0.000 A 
ATOM     14  C   UNL     1       8.227  26.456  27.624  1.00  0.00     0.001 A 
ATOM     15  C   UNL     1       6.722  27.549  29.163  1.00  0.00     0.001 A 
ATOM     16  C   UNL     1       8.875  27.672  27.390  1.00  0.00     0.012 A 
ATOM     17  C   UNL     1       7.367  28.770  28.935  1.00  0.00     0.012 A 
ENDBRANCH   1  12
TORSDOF 1
ENDMDL
MODEL 4
REMARK VINA RESULT:    -6.446      9.941     11.576
REMARK INTER + INTRA:          -7.082
REMARK INTER:                  -6.822
REMARK INTRA:                  -0.260
REMARK UNBOUND:                -0.259
REMARK SMILES O=c1cc(-c2ccccc2)oc2ccccc12
REMARK SMILES IDX 4 1 3 2 2 3 1 4 17 5 16 6 15 7 14 8 13 9 12 10 11 11 5 12
REMARK SMILES IDX 8 13 7 14 9 15 6 16 10 17
REMARK H PARENT
REMARK Flexibility Score: inf
ROOT
ATOM      1  C   UNL     1      11.268  30.703  27.552  1.00  0.00     0.138 A 
ATOM      2  C   UNL     1      11.726  30.980  26.245  1.00  0.00     0.100 A 
ATOM      3  C   UNL     1      10.994  30.523  25.148  1.00  0.00     0.193 A 
ATOM      4  O   UNL     1      11.403  30.771  23.981  1.00  0.00    -0.289 OA
ATOM      5  C   UNL     1       9.814  29.795  25.359  1.00  0.00     0.065 A 
ATOM      6  C   UNL     1       9.031  29.306  24.298  1.00  0.00     0.016 A 
ATOM      7  C   UNL     1       7.863  28.585  24.565  1.00  0.00     0.001 A 
ATOM      8  C   UNL     1       7.469  28.347  25.886  1.00  0.00     0.004 A 
ATOM      9  C   UNL     1       8.242  28.829  26.946  1.00  0.00     0.048 A 
ATOM     10  C   UNL     1       9.413  29.552  26.690  1.00  0.00     0.138 A 
ATOM     11  O   UNL     1      10.141  30.006  27.704  1.00  0.00    -0.456 OA
ENDROOT
BRANCH   1  12
ATOM     12  C   UNL     1      11.991  31.154  28.780  1.00  0.00     0.017 A 
ATOM     13  C   UNL     1      13.271  32.001  31.150  1.00  0.00     0.000 A 
ATOM     14  C   UNL     1      11.911  31.694  31.162  1.00  0.00     0.001 A 
ATOM     15  C   UNL     1      13.998  31.888  29.965  1.00  0.00     0.001 A 
ATOM     16  C   UNL     1      11.275  31.275  29.989  1.00  0.00     0.012 A 
ATOM     17  C   UNL     1      13.369  31.469  28.788  1.00  0.00     0.012 A 
ENDBRANCH   1  12
TORSDOF 1
ENDMDL
MODEL 5
REMARK VINA RESULT:    -6.408      1.919      6.045
REMARK INTER + INTRA:          -7.042
REMARK INTER:                  -6.821
REMARK INTRA:                  -0.220
REMARK UNBOUND:                -0.259
REMARK SMILES O=c1cc(-c2ccccc2)oc2ccccc12
REMARK SMILES IDX 4 1 3 2 2 3 1 4 17 5 16 6 15 7 14 8 13 9 12 10 11 11 5 12
REMARK SMILES IDX 8 13 7 14 9 15 6 16 10 17
REMARK H PARENT
REMARK Flexibility Score: inf
ROOT
ATOM      1  C   UNL     1       4.759  30.307  19.320  1.00  0.00     0.138 A 
ATOM      2  C   UNL     1       4.505  29.663  20.551  1.00  0.00     0.100 A 
ATOM      3  C   UNL     1       5.430  28.744  21.050  1.00  0.00     0.193 A 
ATOM      4  O   UNL     1       5.202  28.168  22.149  1.00  0.00    -0.289 OA
ATOM      5  C   UNL     1       6.597  28.474  20.323  1.00  0.00     0.065 A 
ATOM      6  C   UNL     1       7.569  27.559  20.769  1.00  0.00     0.016 A 
ATOM      7  C   UNL     1       8.716  27.328  20.004  1.00  0.00     0.001 A 
ATOM      8  C   UNL     1       8.902  28.002  18.793  1.00  0.00     0.004 A 
ATOM      9  C   UNL     1       7.942  28.913  18.342  1.00  0.00     0.048 A 
ATOM     10  C   UNL     1       6.790  29.152  19.100  1.00  0.00     0.138 A 
ATOM     11  O   UNL     1       5.883  30.019  18.663  1.00  0.00    -0.456 OA
ENDROOT
BRANCH   1  12
ATOM     12  C   UNL     1       3.823  31.303  18.715  1.00  0.00     0.017 A 
ATOM     13  C   UNL     1       2.099  33.255  17.625  1.00  0.00     0.000 A 
ATOM     14  C   UNL     1       3.090  33.628  18.532  1.00  0.00     0.001 A 
ATOM     15  C   UNL     1       1.961  31.918  17.256  1.00  0.00     0.001 A 
ATOM     16  C   UNL     1       3.945  32.662  19.074  1.00  0.00     0.012 A 
ATOM     17  C   UNL     1       2.813  30.946  17.793  1.00  0.00     0.012 A 
ENDBRANCH   1  12
TORSDOF 1
ENDMDL
MODEL 6
REMARK VINA RESULT:    -6.405      3.068      6.178
REMARK INTER + INTRA:          -7.039
REMARK INTER:                  -6.818
REMARK INTRA:                  -0.221
REMARK UNBOUND:                -0.259
REMARK SMILES O=c1cc(-c2ccccc2)oc2ccccc12
REMARK SMILES IDX 4 1 3 2 2 3 1 4 17 5 16 6 15 7 14 8 13 9 12 10 11 11 5 12
REMARK SMILES IDX 8 13 7 14 9 15 6 16 10 17
REMARK H PARENT
REMARK Flexibility Score: inf
ROOT
ATOM      1  C   UNL     1       4.394  30.332  19.723  1.00  0.00     0.138 A 
ATOM      2  C   UNL     1       5.562  29.710  19.230  1.00  0.00     0.100 A 
ATOM      3  C   UNL     1       6.241  28.787  20.028  1.00  0.00     0.193 A 
ATOM      4  O   UNL     1       7.284  28.233  19.587  1.00  0.00    -0.289 OA
ATOM      5  C   UNL     1       5.753  28.491  21.308  1.00  0.00     0.065 A 
ATOM      6  C   UNL     1       6.389  27.572  22.163  1.00  0.00     0.016 A 
ATOM      7  C   UNL     1       5.859  27.313  23.430  1.00  0.00     0.001 A 
ATOM      8  C   UNL     1       4.697  27.966  23.855  1.00  0.00     0.004 A 
ATOM      9  C   UNL     1       4.059  28.881  23.012  1.00  0.00     0.048 A 
ATOM     10  C   UNL     1       4.580  29.148  21.741  1.00  0.00     0.138 A 
ATOM     11  O   UNL     1       3.967  30.019  20.947  1.00  0.00    -0.456 OA
ENDROOT
BRANCH   1  12
ATOM     12  C   UNL     1       3.608  31.330  18.935  1.00  0.00     0.017 A 
ATOM     13  C   UNL     1       2.079  33.139  17.399  1.00  0.00     0.000 A 
ATOM     14  C   UNL     1       1.914  31.765  17.228  1.00  0.00     0.001 A 
ATOM     15  C   UNL     1       3.001  33.618  18.330  1.00  0.00     0.001 A 
ATOM     16  C   UNL     1       2.671  30.867  17.988  1.00  0.00     0.012 A 
ATOM     17  C   UNL     1       3.761  32.726  19.094  1.00  0.00     0.012 A 
ENDBRANCH   1  12
TORSDOF 1
ENDMDL
MODEL 7
REMARK VINA RESULT:    -6.405      9.094     10.791
REMARK INTER + INTRA:          -7.039
REMARK INTER:                  -6.798
REMARK INTRA:                  -0.240
REMARK UNBOUND:                -0.259
REMARK SMILES O=c1cc(-c2ccccc2)oc2ccccc12
REMARK SMILES IDX 4 1 3 2 2 3 1 4 17 5 16 6 15 7 14 8 13 9 12 10 11 11 5 12
REMARK SMILES IDX 8 13 7 14 9 15 6 16 10 17
REMARK H PARENT
REMARK Flexibility Score: inf
ROOT
ATOM      1  C   UNL     1       8.801  30.170  26.450  1.00  0.00     0.138 A 
ATOM      2  C   UNL     1       9.736  30.295  25.399  1.00  0.00     0.100 A 
ATOM      3  C   UNL     1      11.074  30.564  25.696  1.00  0.00     0.193 A 
ATOM      4  O   UNL     1      11.908  30.675  24.757  1.00  0.00    -0.289 OA
ATOM      5  C   UNL     1      11.469  30.706  27.033  1.00  0.00     0.065 A 
ATOM      6  C   UNL     1      12.800  30.977  27.400  1.00  0.00     0.016 A 
ATOM      7  C   UNL     1      13.140  31.109  28.750  1.00  0.00     0.001 A 
ATOM      8  C   UNL     1      12.161  30.973  29.739  1.00  0.00     0.004 A 
ATOM      9  C   UNL     1      10.837  30.703  29.383  1.00  0.00     0.048 A 
ATOM     10  C   UNL     1      10.485  30.569  28.036  1.00  0.00     0.138 A 
ATOM     11  O   UNL     1       9.223  30.313  27.707  1.00  0.00    -0.456 OA
ENDROOT
BRANCH   1  12
ATOM     12  C   UNL     1       7.352  29.883  26.220  1.00  0.00     0.017 A 
ATOM     13  C   UNL     1       4.642  29.267  25.727  1.00  0.00     0.000 A 
ATOM     14  C   UNL     1       5.650  28.501  25.142  1.00  0.00     0.001 A 
ATOM     15  C   UNL     1       4.974  30.337  26.556  1.00  0.00     0.001 A 
ATOM     16  C   UNL     1       6.992  28.805  25.385  1.00  0.00     0.012 A 
ATOM     17  C   UNL     1       6.316  30.647  26.805  1.00  0.00     0.012 A 
ENDBRANCH   1  12
TORSDOF 1
ENDMDL
MODEL 8
REMARK VINA RESULT:    -6.355      2.020      6.077
REMARK INTER + INTRA:          -6.985
REMARK INTER:                  -6.765
REMARK INTRA:                  -0.220
REMARK UNBOUND:                -0.259
REMARK SMILES O=c1cc(-c2ccccc2)oc2ccccc12
REMARK SMILES IDX 4 1 3 2 2 3 1 4 17 5 16 6 15 7 14 8 13 9 12 10 11 11 5 12
REMARK SMILES IDX 8 13 7 14 9 15 6 16 10 17
REMARK H PARENT
REMARK Flexibility Score: inf
ROOT
ATOM      1  C   UNL     1       5.259  30.430  18.777  1.00  0.00     0.138 A 
ATOM      2  C   UNL     1       6.455  30.320  18.036  1.00  0.00     0.100 A 
ATOM      3  C   UNL     1       7.466  29.466  18.484  1.00  0.00     0.193 A 
ATOM      4  O   UNL     1       8.535  29.369  17.822  1.00  0.00    -0.289 OA
ATOM      5  C   UNL     1       7.278  28.731  19.662  1.00  0.00     0.065 A 
ATOM      6  C   UNL     1       8.255  27.855  20.168  1.00  0.00     0.016 A 
ATOM      7  C   UNL     1       8.015  27.145  21.348  1.00  0.00     0.001 A 
ATOM      8  C   UNL     1       6.805  27.303  22.031  1.00  0.00     0.004 A 
ATOM      9  C   UNL     1       5.828  28.172  21.535  1.00  0.00     0.048 A 
ATOM     10  C   UNL     1       6.058  28.887  20.355  1.00  0.00     0.138 A 
ATOM     11  O   UNL     1       5.123  29.711  19.892  1.00  0.00    -0.456 OA
ENDROOT
BRANCH   1  12
ATOM     12  C   UNL     1       4.128  31.319  18.368  1.00  0.00     0.017 A 
ATOM     13  C   UNL     1       2.037  33.072  17.646  1.00  0.00     0.000 A 
ATOM     14  C   UNL     1       3.102  33.536  18.417  1.00  0.00     0.001 A 
ATOM     15  C   UNL     1       2.006  31.741  17.232  1.00  0.00     0.001 A 
ATOM     16  C   UNL     1       4.139  32.669  18.776  1.00  0.00     0.012 A 
ATOM     17  C   UNL     1       3.040  30.868  17.587  1.00  0.00     0.012 A 
ENDBRANCH   1  12
TORSDOF 1
ENDMDL
MODEL 9
REMARK VINA RESULT:    -6.352     12.510     14.067
REMARK INTER + INTRA:          -6.982
REMARK INTER:                  -6.738
REMARK INTRA:                  -0.244
REMARK UNBOUND:                -0.259
REMARK SMILES O=c1cc(-c2ccccc2)oc2ccccc12
REMARK SMILES IDX 4 1 3 2 2 3 1 4 17 5 16 6 15 7 14 8 13 9 12 10 11 11 5 12
REMARK SMILES IDX 8 13 7 14 9 15 6 16 10 17
REMARK H PARENT
REMARK Flexibility Score: inf
ROOT
ATOM      1  C   UNL     1       8.896  31.265  30.759  1.00  0.00     0.138 A 
ATOM      2  C   UNL     1       8.775  30.519  29.566  1.00  0.00     0.100 A 
ATOM      3  C   UNL     1       9.905  30.291  28.778  1.00  0.00     0.193 A 
ATOM      4  O   UNL     1       9.795  29.625  27.713  1.00  0.00    -0.289 OA
ATOM      5  C   UNL     1      11.144  30.807  29.182  1.00  0.00     0.065 A 
ATOM      6  C   UNL     1      12.320  30.615  28.434  1.00  0.00     0.016 A 
ATOM      7  C   UNL     1      13.530  31.152  28.884  1.00  0.00     0.001 A 
ATOM      8  C   UNL     1      13.577  31.881  30.076  1.00  0.00     0.004 A 
ATOM      9  C   UNL     1      12.414  32.076  30.825  1.00  0.00     0.048 A 
ATOM     10  C   UNL     1      11.197  31.544  30.385  1.00  0.00     0.138 A 
ATOM     11  O   UNL     1      10.095  31.736  31.104  1.00  0.00    -0.456 OA
ENDROOT
BRANCH   1  12
ATOM     12  C   UNL     1       7.739  31.553  31.659  1.00  0.00     0.017 A 
ATOM     13  C   UNL     1       5.498  32.122  33.280  1.00  0.00     0.000 A 
ATOM     14  C   UNL     1       5.411  32.261  31.895  1.00  0.00     0.001 A 
ATOM     15  C   UNL     1       6.693  31.702  33.863  1.00  0.00     0.001 A 
ATOM     16  C   UNL     1       6.520  31.980  31.091  1.00  0.00     0.012 A 
ATOM     17  C   UNL     1       7.807  31.418  33.064  1.00  0.00     0.012 A 
ENDBRANCH   1  12
TORSDOF 1
ENDMDL
