MODEL 1
REMARK VINA RESULT:    -3.307      0.000      0.000
REMARK INTER + INTRA:          -3.521
REMARK INTER:                  -3.501
REMARK INTRA:                  -0.021
REMARK UNBOUND:                -0.021
REMARK SMILES O=C([O-])c1cccnc1
REMARK SMILES IDX 4 1 5 2 9 3 6 4 8 5 7 6 2 7 1 8 3 9
REMARK H PARENT
REMARK Flexibility Score: inf
ROOT
ATOM      1  C   UNL     1      63.891  35.310  61.257  1.00  0.00     0.016 A 
ATOM      2  C   UNL     1      62.601  35.811  61.014  1.00  0.00     0.013 A 
ATOM      3  C   UNL     1      64.124  33.940  61.051  1.00  0.00     0.120 A 
ATOM      4  C   UNL     1      61.588  34.956  60.578  1.00  0.00     0.021 A 
ATOM      5  N   UNL     1      63.119  33.128  60.625  1.00  0.00    -0.264 NA
ATOM      6  C   UNL     1      61.869  33.603  60.388  1.00  0.00     0.111 A 
ENDROOT
BRANCH   1   7
ATOM      7  C   UNL     1      64.973  36.206  61.719  1.00  0.00     0.073 C 
ATOM      8  O   UNL     1      64.735  37.125  62.547  1.00  0.00    -0.545 OA
ATOM      9  O   UNL     1      66.269  36.046  61.244  1.00  0.00    -0.545 OA
ENDBRANCH   1   7
TORSDOF 1
ENDMDL
MODEL 2
REMARK VINA RESULT:    -3.291     15.078     16.190
REMARK INTER + INTRA:          -3.504
REMARK INTER:                  -3.484
REMARK INTRA:                  -0.020
REMARK UNBOUND:                -0.021
REMARK SMILES O=C([O-])c1cccnc1
REMARK SMILES IDX 4 1 5 2 9 3 6 4 8 5 7 6 2 7 1 8 3 9
REMARK H PARENT
REMARK Flexibility Score: inf
ROOT
ATOM      1  C   UNL     1      55.495  27.206  50.049  1.00  0.00     0.016 A 
ATOM      2  C   UNL     1      54.408  28.091  50.143  1.00  0.00     0.013 A 
ATOM      3  C   UNL     1      55.262  25.913  49.549  1.00  0.00     0.120 A 
ATOM      4  C   UNL     1      53.135  27.681  49.744  1.00  0.00     0.021 A 
ATOM      5  N   UNL     1      54.011  25.539  49.168  1.00  0.00    -0.264 NA
ATOM      6  C   UNL     1      52.954  26.387  49.255  1.00  0.00     0.111 A 
ENDROOT
BRANCH   1   7
ATOM      7  C   UNL     1      56.849  27.628  50.468  1.00  0.00     0.073 C 
ATOM      8  O   UNL     1      57.605  26.834  51.089  1.00  0.00    -0.545 OA
ATOM      9  O   UNL     1      57.307  28.909  50.181  1.00  0.00    -0.545 OA
ENDBRANCH   1   7
TORSDOF 1
ENDMDL
MODEL 3
REMARK VINA RESULT:    -3.276     15.037     16.274
REMARK INTER + INTRA:          -3.488
REMARK INTER:                  -3.467
REMARK INTRA:                  -0.020
REMARK UNBOUND:                -0.021
REMARK SMILES O=C([O-])c1cccnc1
REMARK SMILES IDX 4 1 5 2 9 3 6 4 8 5 7 6 2 7 1 8 3 9
REMARK H PARENT
REMARK Flexibility Score: inf
ROOT
ATOM      1  C   UNL     1      55.421  27.220  50.081  1.00  0.00     0.016 A 
ATOM      2  C   UNL     1      55.198  25.924  49.586  1.00  0.00     0.013 A 
ATOM      3  C   UNL     1      54.336  28.111  50.130  1.00  0.00     0.120 A 
ATOM      4  C   UNL     1      53.925  25.547  49.157  1.00  0.00     0.021 A 
ATOM      5  N   UNL     1      53.104  27.718  49.706  1.00  0.00    -0.264 NA
ATOM      6  C   UNL     1      52.879  26.468  49.225  1.00  0.00     0.111 A 
ENDROOT
BRANCH   1   7
ATOM      7  C   UNL     1      56.766  27.631  50.538  1.00  0.00     0.073 C 
ATOM      8  O   UNL     1      57.488  26.839  51.200  1.00  0.00    -0.545 OA
ATOM      9  O   UNL     1      57.251  28.900  50.244  1.00  0.00    -0.545 OA
ENDBRANCH   1   7
TORSDOF 1
ENDMDL
MODEL 4
REMARK VINA RESULT:    -3.259      2.879      3.947
REMARK INTER + INTRA:          -3.470
REMARK INTER:                  -3.446
REMARK INTRA:                  -0.024
REMARK UNBOUND:                -0.021
REMARK SMILES O=C([O-])c1cccnc1
REMARK SMILES IDX 4 1 5 2 9 3 6 4 8 5 7 6 2 7 1 8 3 9
REMARK H PARENT
REMARK Flexibility Score: inf
ROOT
ATOM      1  C   UNL     1      63.184  34.634  61.016  1.00  0.00     0.016 A 
ATOM      2  C   UNL     1      64.506  34.745  61.477  1.00  0.00     0.013 A 
ATOM      3  C   UNL     1      62.402  35.800  60.943  1.00  0.00     0.120 A 
ATOM      4  C   UNL     1      65.016  35.990  61.848  1.00  0.00     0.021 A 
ATOM      5  N   UNL     1      62.924  37.001  61.310  1.00  0.00    -0.264 NA
ATOM      6  C   UNL     1      64.201  37.119  61.757  1.00  0.00     0.111 A 
ENDROOT
BRANCH   1   7
ATOM      7  C   UNL     1      62.631  33.320  60.621  1.00  0.00     0.073 C 
ATOM      8  O   UNL     1      63.386  32.321  60.490  1.00  0.00    -0.545 OA
ATOM      9  O   UNL     1      61.269  33.171  60.387  1.00  0.00    -0.545 OA
ENDBRANCH   1   7
TORSDOF 1
ENDMDL
MODEL 5
REMARK VINA RESULT:    -3.256      2.892      3.857
REMARK INTER + INTRA:          -3.467
REMARK INTER:                  -3.443
REMARK INTRA:                  -0.024
REMARK UNBOUND:                -0.021
REMARK SMILES O=C([O-])c1cccnc1
REMARK SMILES IDX 4 1 5 2 9 3 6 4 8 5 7 6 2 7 1 8 3 9
REMARK H PARENT
REMARK Flexibility Score: inf
ROOT
ATOM      1  C   UNL     1      63.150  34.658  61.022  1.00  0.00     0.016 A 
ATOM      2  C   UNL     1      64.485  34.695  61.457  1.00  0.00     0.013 A 
ATOM      3  C   UNL     1      62.424  35.861  60.988  1.00  0.00     0.120 A 
ATOM      4  C   UNL     1      65.062  35.906  61.842  1.00  0.00     0.021 A 
ATOM      5  N   UNL     1      63.011  37.028  61.369  1.00  0.00    -0.264 NA
ATOM      6  C   UNL     1      64.301  37.074  61.791  1.00  0.00     0.111 A 
ENDROOT
BRANCH   1   7
ATOM      7  C   UNL     1      62.526  33.381  60.611  1.00  0.00     0.073 C 
ATOM      8  O   UNL     1      61.360  33.361  60.135  1.00  0.00    -0.545 OA
ATOM      9  O   UNL     1      63.220  32.184  60.745  1.00  0.00    -0.545 OA
ENDBRANCH   1   7
TORSDOF 1
ENDMDL
MODEL 6
REMARK VINA RESULT:    -3.231      2.876      3.551
REMARK INTER + INTRA:          -3.440
REMARK INTER:                  -3.416
REMARK INTRA:                  -0.024
REMARK UNBOUND:                -0.021
REMARK SMILES O=C([O-])c1cccnc1
REMARK SMILES IDX 4 1 5 2 9 3 6 4 8 5 7 6 2 7 1 8 3 9
REMARK H PARENT
REMARK Flexibility Score: inf
ROOT
ATOM      1  C   UNL     1      63.151  34.555  60.981  1.00  0.00     0.016 A 
ATOM      2  C   UNL     1      62.447  35.770  60.957  1.00  0.00     0.013 A 
ATOM      3  C   UNL     1      64.490  34.568  61.408  1.00  0.00     0.120 A 
ATOM      4  C   UNL     1      63.075  36.952  61.351  1.00  0.00     0.021 A 
ATOM      5  N   UNL     1      65.079  35.734  61.788  1.00  0.00    -0.264 NA
ATOM      6  C   UNL     1      64.406  36.914  61.768  1.00  0.00     0.111 A 
ENDROOT
BRANCH   1   7
ATOM      7  C   UNL     1      62.497  33.295  60.565  1.00  0.00     0.073 C 
ATOM      8  O   UNL     1      61.302  33.295  60.167  1.00  0.00    -0.545 OA
ATOM      9  O   UNL     1      63.193  32.094  60.608  1.00  0.00    -0.545 OA
ENDBRANCH   1   7
TORSDOF 1
ENDMDL
MODEL 7
REMARK VINA RESULT:    -3.184     15.061     15.657
REMARK INTER + INTRA:          -3.391
REMARK INTER:                  -3.374
REMARK INTRA:                  -0.017
REMARK UNBOUND:                -0.021
REMARK SMILES O=C([O-])c1cccnc1
REMARK SMILES IDX 4 1 5 2 9 3 6 4 8 5 7 6 2 7 1 8 3 9
REMARK H PARENT
REMARK Flexibility Score: inf
ROOT
ATOM      1  C   UNL     1      56.704  26.731  50.240  1.00  0.00     0.016 A 
ATOM      2  C   UNL     1      56.655  28.091  50.589  1.00  0.00     0.013 A 
ATOM      3  C   UNL     1      55.516  26.104  49.827  1.00  0.00     0.120 A 
ATOM      4  C   UNL     1      55.448  28.788  50.521  1.00  0.00     0.021 A 
ATOM      5  N   UNL     1      54.353  26.806  49.769  1.00  0.00    -0.264 NA
ATOM      6  C   UNL     1      54.295  28.121  50.105  1.00  0.00     0.111 A 
ENDROOT
BRANCH   1   7
ATOM      7  C   UNL     1      57.978  25.981  50.308  1.00  0.00     0.073 C 
ATOM      8  O   UNL     1      58.102  24.998  51.085  1.00  0.00    -0.545 OA
ATOM      9  O   UNL     1      59.056  26.353  49.514  1.00  0.00    -0.545 OA
ENDBRANCH   1   7
TORSDOF 1
ENDMDL
MODEL 8
REMARK VINA RESULT:    -3.177      2.740      3.443
REMARK INTER + INTRA:          -3.383
REMARK INTER:                  -3.367
REMARK INTRA:                  -0.017
REMARK UNBOUND:                -0.021
REMARK SMILES O=C([O-])c1cccnc1
REMARK SMILES IDX 4 1 5 2 9 3 6 4 8 5 7 6 2 7 1 8 3 9
REMARK H PARENT
REMARK Flexibility Score: inf
ROOT
ATOM      1  C   UNL     1      63.670  33.459  60.781  1.00  0.00     0.016 A 
ATOM      2  C   UNL     1      64.426  34.551  61.237  1.00  0.00     0.013 A 
ATOM      3  C   UNL     1      62.311  33.664  60.485  1.00  0.00     0.120 A 
ATOM      4  C   UNL     1      63.828  35.803  61.387  1.00  0.00     0.021 A 
ATOM      5  N   UNL     1      61.753  34.895  60.640  1.00  0.00    -0.264 NA
ATOM      6  C   UNL     1      62.476  35.957  61.081  1.00  0.00     0.111 A 
ENDROOT
BRANCH   1   7
ATOM      7  C   UNL     1      64.292  32.127  60.618  1.00  0.00     0.073 C 
ATOM      8  O   UNL     1      64.038  31.197  61.429  1.00  0.00    -0.545 OA
ATOM      9  O   UNL     1      65.166  31.883  59.566  1.00  0.00    -0.545 OA
ENDBRANCH   1   7
TORSDOF 1
ENDMDL
MODEL 9
REMARK VINA RESULT:    -3.153     14.993     16.130
REMARK INTER + INTRA:          -3.358
REMARK INTER:                  -3.334
REMARK INTRA:                  -0.024
REMARK UNBOUND:                -0.021
REMARK SMILES O=C([O-])c1cccnc1
REMARK SMILES IDX 4 1 5 2 9 3 6 4 8 5 7 6 2 7 1 8 3 9
REMARK H PARENT
REMARK Flexibility Score: inf
ROOT
ATOM      1  C   UNL     1      55.168  27.497  50.072  1.00  0.00     0.016 A 
ATOM      2  C   UNL     1      56.049  28.509  50.488  1.00  0.00     0.013 A 
ATOM      3  C   UNL     1      55.678  26.199  49.896  1.00  0.00     0.120 A 
ATOM      4  C   UNL     1      57.394  28.216  50.718  1.00  0.00     0.021 A 
ATOM      5  N   UNL     1      56.993  25.940  50.126  1.00  0.00    -0.264 NA
ATOM      6  C   UNL     1      57.853  26.912  50.529  1.00  0.00     0.111 A 
ENDROOT
BRANCH   1   7
ATOM      7  C   UNL     1      53.740  27.794  49.826  1.00  0.00     0.073 C 
ATOM      8  O   UNL     1      53.280  28.947  50.037  1.00  0.00    -0.545 OA
ATOM      9  O   UNL     1      52.886  26.803  49.358  1.00  0.00    -0.545 OA
ENDBRANCH   1   7
TORSDOF 1
ENDMDL
