MODEL 1
REMARK VINA RESULT:    -3.990      0.000      0.000
REMARK INTER + INTRA:         -10.055
REMARK INTER:                  -7.255
REMARK INTRA:                  -2.800
REMARK UNBOUND:                -2.800
REMARK SMILES CCCCCC=CCC=CCCCCCCCC(=O)[O-]
REMARK SMILES IDX 11 1 12 2 13 3 14 4 15 5 16 6 17 7 18 8 19 9 20 10 10 11
REMARK SMILES IDX 9 12 8 13 7 14 6 15 5 16 4 17 3 18 2 19 1 20
REMARK H PARENT
REMARK Flexibility Score: inf
ROOT
ATOM      1  C   UNL     1     -14.701 -36.063  21.535  1.00  0.00     0.027 C 
ENDROOT
BRANCH   1   2
ATOM      2  C   UNL     1     -15.862 -35.332  20.846  1.00  0.00     0.004 C 
BRANCH   2   3
ATOM      3  C   UNL     1     -16.457 -34.224  21.733  1.00  0.00     0.000 C 
BRANCH   3   4
ATOM      4  C   UNL     1     -16.061 -34.365  23.212  1.00  0.00     0.000 C 
BRANCH   4   5
ATOM      5  C   UNL     1     -17.188 -34.070  24.223  1.00  0.00     0.000 C 
BRANCH   5   6
ATOM      6  C   UNL     1     -18.242 -35.182  24.371  1.00  0.00     0.006 C 
BRANCH   6   7
ATOM      7  C   UNL     1     -17.630 -36.589  24.345  1.00  0.00     0.053 C 
BRANCH   7   8
ATOM      8  C   UNL     1     -18.448 -37.498  23.485  1.00  0.00     0.041 C 
ATOM      9  O   UNL     1     -18.485 -37.328  22.238  1.00  0.00    -0.550 OA
ATOM     10  O   UNL     1     -19.131 -38.565  24.055  1.00  0.00    -0.550 OA
ENDBRANCH   7   8
ENDBRANCH   6   7
ENDBRANCH   5   6
ENDBRANCH   4   5
ENDBRANCH   3   4
ENDBRANCH   2   3
ENDBRANCH   1   2
BRANCH   1  11
ATOM     11  C   UNL     1     -15.058 -37.490  21.875  1.00  0.00    -0.031 C 
ATOM     12  C   UNL     1     -14.555 -38.176  22.918  1.00  0.00    -0.027 C 
BRANCH  12  13
ATOM     13  C   UNL     1     -13.619 -37.601  23.951  1.00  0.00     0.054 C 
BRANCH  13  14
ATOM     14  C   UNL     1     -14.316 -37.408  25.269  1.00  0.00    -0.027 C 
ATOM     15  C   UNL     1     -14.306 -36.226  25.902  1.00  0.00    -0.031 C 
BRANCH  15  16
ATOM     16  C   UNL     1     -15.006 -36.030  27.220  1.00  0.00     0.027 C 
BRANCH  16  17
ATOM     17  C   UNL     1     -14.666 -34.681  27.877  1.00  0.00     0.004 C 
BRANCH  17  18
ATOM     18  C   UNL     1     -15.034 -33.447  27.029  1.00  0.00     0.000 C 
BRANCH  18  19
ATOM     19  C   UNL     1     -16.070 -32.505  27.671  1.00  0.00    -0.003 C 
ATOM     20  C   UNL     1     -17.450 -33.146  27.813  1.00  0.00     0.004 C 
ENDBRANCH  18  19
ENDBRANCH  17  18
ENDBRANCH  16  17
ENDBRANCH  15  16
ENDBRANCH  13  14
ENDBRANCH  12  13
ENDBRANCH   1  11
TORSDOF 14
ENDMDL
MODEL 2
REMARK VINA RESULT:    -3.984      7.614     10.499
REMARK INTER + INTRA:         -10.045
REMARK INTER:                  -8.420
REMARK INTRA:                  -1.625
REMARK UNBOUND:                -2.800
REMARK SMILES CCCCCC=CCC=CCCCCCCCC(=O)[O-]
REMARK SMILES IDX 11 1 12 2 13 3 14 4 15 5 16 6 17 7 18 8 19 9 20 10 10 11
REMARK SMILES IDX 9 12 8 13 7 14 6 15 5 16 4 17 3 18 2 19 1 20
REMARK H PARENT
REMARK Flexibility Score: inf
ROOT
ATOM      1  C   UNL     1     -23.187 -29.625  27.351  1.00  0.00     0.027 C 
ENDROOT
BRANCH   1   2
ATOM      2  C   UNL     1     -23.726 -31.028  27.038  1.00  0.00     0.004 C 
BRANCH   2   3
ATOM      3  C   UNL     1     -22.649 -32.114  27.208  1.00  0.00     0.000 C 
BRANCH   3   4
ATOM      4  C   UNL     1     -22.607 -33.104  26.031  1.00  0.00     0.000 C 
BRANCH   4   5
ATOM      5  C   UNL     1     -21.449 -32.889  25.035  1.00  0.00     0.000 C 
BRANCH   5   6
ATOM      6  C   UNL     1     -20.608 -31.622  25.273  1.00  0.00     0.006 C 
BRANCH   6   7
ATOM      7  C   UNL     1     -20.658 -30.644  24.092  1.00  0.00     0.053 C 
BRANCH   7   8
ATOM      8  C   UNL     1     -19.298 -30.480  23.493  1.00  0.00     0.041 C 
ATOM      9  O   UNL     1     -18.555 -31.483  23.321  1.00  0.00    -0.550 OA
ATOM     10  O   UNL     1     -18.869 -29.226  23.076  1.00  0.00    -0.550 OA
ENDBRANCH   7   8
ENDBRANCH   6   7
ENDBRANCH   5   6
ENDBRANCH   4   5
ENDBRANCH   3   4
ENDBRANCH   2   3
ENDBRANCH   1   2
BRANCH   1  11
ATOM     11  C   UNL     1     -23.388 -28.675  26.195  1.00  0.00    -0.031 C 
ATOM     12  C   UNL     1     -22.443 -27.849  25.711  1.00  0.00    -0.027 C 
BRANCH  12  13
ATOM     13  C   UNL     1     -21.016 -27.800  26.198  1.00  0.00     0.054 C 
BRANCH  13  14
ATOM     14  C   UNL     1     -20.893 -26.959  27.437  1.00  0.00    -0.027 C 
ATOM     15  C   UNL     1     -21.447 -25.740  27.516  1.00  0.00    -0.031 C 
BRANCH  15  16
ATOM     16  C   UNL     1     -21.327 -24.897  28.759  1.00  0.00     0.027 C 
BRANCH  16  17
ATOM     17  C   UNL     1     -21.568 -23.402  28.485  1.00  0.00     0.004 C 
BRANCH  17  18
ATOM     18  C   UNL     1     -20.296 -22.604  28.135  1.00  0.00     0.000 C 
BRANCH  18  19
ATOM     19  C   UNL     1     -20.326 -21.906  26.763  1.00  0.00    -0.003 C 
ATOM     20  C   UNL     1     -19.716 -22.756  25.649  1.00  0.00     0.004 C 
ENDBRANCH  18  19
ENDBRANCH  17  18
ENDBRANCH  16  17
ENDBRANCH  15  16
ENDBRANCH  13  14
ENDBRANCH  12  13
ENDBRANCH   1  11
TORSDOF 14
ENDMDL
MODEL 3
REMARK VINA RESULT:    -3.937      8.904     12.081
REMARK INTER + INTRA:          -9.959
REMARK INTER:                  -7.806
REMARK INTRA:                  -2.153
REMARK UNBOUND:                -2.800
REMARK SMILES CCCCCC=CCC=CCCCCCCCC(=O)[O-]
REMARK SMILES IDX 11 1 12 2 13 3 14 4 15 5 16 6 17 7 18 8 19 9 20 10 10 11
REMARK SMILES IDX 9 12 8 13 7 14 6 15 5 16 4 17 3 18 2 19 1 20
REMARK H PARENT
REMARK Flexibility Score: inf
ROOT
ATOM      1  C   UNL     1     -23.480 -27.605  28.848  1.00  0.00     0.027 C 
ENDROOT
BRANCH   1   2
ATOM      2  C   UNL     1     -22.151 -27.140  29.460  1.00  0.00     0.004 C 
BRANCH   2   3
ATOM      3  C   UNL     1     -21.107 -26.796  28.384  1.00  0.00     0.000 C 
BRANCH   3   4
ATOM      4  C   UNL     1     -21.376 -25.443  27.701  1.00  0.00     0.000 C 
BRANCH   4   5
ATOM      5  C   UNL     1     -21.726 -24.285  28.658  1.00  0.00     0.000 C 
BRANCH   5   6
ATOM      6  C   UNL     1     -21.606 -22.876  28.050  1.00  0.00     0.006 C 
BRANCH   6   7
ATOM      7  C   UNL     1     -20.203 -22.580  27.506  1.00  0.00     0.053 C 
BRANCH   7   8
ATOM      8  C   UNL     1     -20.261 -22.305  26.037  1.00  0.00     0.041 C 
ATOM      9  O   UNL     1     -19.478 -22.899  25.249  1.00  0.00    -0.550 OA
ATOM     10  O   UNL     1     -21.214 -21.431  25.531  1.00  0.00    -0.550 OA
ENDBRANCH   7   8
ENDBRANCH   6   7
ENDBRANCH   5   6
ENDBRANCH   4   5
ENDBRANCH   3   4
ENDBRANCH   2   3
ENDBRANCH   1   2
BRANCH   1  11
ATOM     11  C   UNL     1     -23.359 -28.966  28.207  1.00  0.00    -0.031 C 
ATOM     12  C   UNL     1     -23.355 -29.189  26.880  1.00  0.00    -0.027 C 
BRANCH  12  13
ATOM     13  C   UNL     1     -23.393 -28.108  25.829  1.00  0.00     0.054 C 
BRANCH  13  14
ATOM     14  C   UNL     1     -22.233 -28.229  24.882  1.00  0.00    -0.027 C 
ATOM     15  C   UNL     1     -21.288 -29.167  25.045  1.00  0.00    -0.031 C 
BRANCH  15  16
ATOM     16  C   UNL     1     -20.127 -29.291  24.094  1.00  0.00     0.027 C 
BRANCH  16  17
ATOM     17  C   UNL     1     -18.809 -28.779  24.700  1.00  0.00     0.004 C 
BRANCH  17  18
ATOM     18  C   UNL     1     -18.893 -28.412  26.195  1.00  0.00     0.000 C 
BRANCH  18  19
ATOM     19  C   UNL     1     -18.401 -29.506  27.159  1.00  0.00    -0.003 C 
ATOM     20  C   UNL     1     -19.544 -30.252  27.846  1.00  0.00     0.004 C 
ENDBRANCH  18  19
ENDBRANCH  17  18
ENDBRANCH  16  17
ENDBRANCH  15  16
ENDBRANCH  13  14
ENDBRANCH  12  13
ENDBRANCH   1  11
TORSDOF 14
ENDMDL
MODEL 4
REMARK VINA RESULT:    -3.921      3.142      3.730
REMARK INTER + INTRA:          -9.931
REMARK INTER:                  -7.831
REMARK INTRA:                  -2.100
REMARK UNBOUND:                -2.800
REMARK SMILES CCCCCC=CCC=CCCCCCCCC(=O)[O-]
REMARK SMILES IDX 11 1 12 2 13 3 14 4 15 5 16 6 17 7 18 8 19 9 20 10 10 11
REMARK SMILES IDX 9 12 8 13 7 14 6 15 5 16 4 17 3 18 2 19 1 20
REMARK H PARENT
REMARK Flexibility Score: inf
ROOT
ATOM      1  C   UNL     1     -14.570 -36.719  21.614  1.00  0.00     0.027 C 
ENDROOT
BRANCH   1   2
ATOM      2  C   UNL     1     -15.410 -35.465  21.339  1.00  0.00     0.004 C 
BRANCH   2   3
ATOM      3  C   UNL     1     -15.439 -34.510  22.545  1.00  0.00     0.000 C 
BRANCH   3   4
ATOM      4  C   UNL     1     -16.862 -34.066  22.923  1.00  0.00     0.000 C 
BRANCH   4   5
ATOM      5  C   UNL     1     -17.202 -32.599  22.588  1.00  0.00     0.000 C 
BRANCH   5   6
ATOM      6  C   UNL     1     -18.355 -31.991  23.406  1.00  0.00     0.006 C 
BRANCH   6   7
ATOM      7  C   UNL     1     -18.695 -30.557  22.980  1.00  0.00     0.053 C 
BRANCH   7   8
ATOM      8  C   UNL     1     -19.532 -29.888  24.024  1.00  0.00     0.041 C 
ATOM      9  O   UNL     1     -20.787 -29.974  23.981  1.00  0.00    -0.550 OA
ATOM     10  O   UNL     1     -18.923 -29.211  25.073  1.00  0.00    -0.550 OA
ENDBRANCH   7   8
ENDBRANCH   6   7
ENDBRANCH   5   6
ENDBRANCH   4   5
ENDBRANCH   3   4
ENDBRANCH   2   3
ENDBRANCH   1   2
BRANCH   1  11
ATOM     11  C   UNL     1     -15.359 -37.773  22.354  1.00  0.00    -0.031 C 
ATOM     12  C   UNL     1     -14.965 -38.361  23.498  1.00  0.00    -0.027 C 
BRANCH  12  13
ATOM     13  C   UNL     1     -13.712 -38.002  24.258  1.00  0.00     0.054 C 
BRANCH  13  14
ATOM     14  C   UNL     1     -13.977 -36.911  25.258  1.00  0.00    -0.027 C 
ATOM     15  C   UNL     1     -15.138 -36.837  25.925  1.00  0.00    -0.031 C 
BRANCH  15  16
ATOM     16  C   UNL     1     -15.403 -35.747  26.929  1.00  0.00     0.027 C 
BRANCH  16  17
ATOM     17  C   UNL     1     -14.462 -34.541  26.756  1.00  0.00     0.004 C 
BRANCH  17  18
ATOM     18  C   UNL     1     -15.181 -33.206  26.475  1.00  0.00     0.000 C 
BRANCH  18  19
ATOM     19  C   UNL     1     -16.718 -33.287  26.466  1.00  0.00    -0.003 C 
ATOM     20  C   UNL     1     -17.384 -32.034  27.035  1.00  0.00     0.004 C 
ENDBRANCH  18  19
ENDBRANCH  17  18
ENDBRANCH  16  17
ENDBRANCH  15  16
ENDBRANCH  13  14
ENDBRANCH  12  13
ENDBRANCH   1  11
TORSDOF 14
ENDMDL
MODEL 5
REMARK VINA RESULT:    -3.844      3.911      6.642
REMARK INTER + INTRA:          -9.790
REMARK INTER:                  -7.384
REMARK INTRA:                  -2.406
REMARK UNBOUND:                -2.800
REMARK SMILES CCCCCC=CCC=CCCCCCCCC(=O)[O-]
REMARK SMILES IDX 11 1 12 2 13 3 14 4 15 5 16 6 17 7 18 8 19 9 20 10 10 11
REMARK SMILES IDX 9 12 8 13 7 14 6 15 5 16 4 17 3 18 2 19 1 20
REMARK H PARENT
REMARK Flexibility Score: inf
ROOT
ATOM      1  C   UNL     1     -16.961 -33.201  27.242  1.00  0.00     0.027 C 
ENDROOT
BRANCH   1   2
ATOM      2  C   UNL     1     -17.936 -32.157  26.680  1.00  0.00     0.004 C 
BRANCH   2   3
ATOM      3  C   UNL     1     -19.025 -32.795  25.800  1.00  0.00     0.000 C 
BRANCH   3   4
ATOM      4  C   UNL     1     -18.785 -32.571  24.297  1.00  0.00     0.000 C 
BRANCH   4   5
ATOM      5  C   UNL     1     -18.059 -31.259  23.938  1.00  0.00     0.000 C 
BRANCH   5   6
ATOM      6  C   UNL     1     -18.919 -30.213  23.205  1.00  0.00     0.006 C 
BRANCH   6   7
ATOM      7  C   UNL     1     -19.539 -29.182  24.156  1.00  0.00     0.053 C 
BRANCH   7   8
ATOM      8  C   UNL     1     -18.472 -28.503  24.956  1.00  0.00     0.041 C 
ATOM      9  O   UNL     1     -17.675 -27.702  24.400  1.00  0.00    -0.550 OA
ATOM     10  O   UNL     1     -18.389 -28.717  26.326  1.00  0.00    -0.550 OA
ENDBRANCH   7   8
ENDBRANCH   6   7
ENDBRANCH   5   6
ENDBRANCH   4   5
ENDBRANCH   3   4
ENDBRANCH   2   3
ENDBRANCH   1   2
BRANCH   1  11
ATOM     11  C   UNL     1     -15.588 -33.078  26.627  1.00  0.00    -0.031 C 
ATOM     12  C   UNL     1     -15.030 -33.992  25.812  1.00  0.00    -0.027 C 
BRANCH  12  13
ATOM     13  C   UNL     1     -15.721 -35.242  25.327  1.00  0.00     0.054 C 
BRANCH  13  14
ATOM     14  C   UNL     1     -16.255 -35.062  23.933  1.00  0.00    -0.027 C 
ATOM     15  C   UNL     1     -15.690 -34.204  23.070  1.00  0.00    -0.031 C 
BRANCH  15  16
ATOM     16  C   UNL     1     -16.222 -34.026  21.673  1.00  0.00     0.027 C 
BRANCH  16  17
ATOM     17  C   UNL     1     -15.838 -35.188  20.741  1.00  0.00     0.004 C 
BRANCH  17  18
ATOM     18  C   UNL     1     -17.017 -36.094  20.330  1.00  0.00     0.000 C 
BRANCH  18  19
ATOM     19  C   UNL     1     -17.091 -37.438  21.076  1.00  0.00    -0.003 C 
ATOM     20  C   UNL     1     -18.335 -37.564  21.955  1.00  0.00     0.004 C 
ENDBRANCH  18  19
ENDBRANCH  17  18
ENDBRANCH  16  17
ENDBRANCH  15  16
ENDBRANCH  13  14
ENDBRANCH  12  13
ENDBRANCH   1  11
TORSDOF 14
ENDMDL
MODEL 6
REMARK VINA RESULT:    -3.807      2.025      3.084
REMARK INTER + INTRA:          -9.723
REMARK INTER:                  -7.036
REMARK INTRA:                  -2.687
REMARK UNBOUND:                -2.800
REMARK SMILES CCCCCC=CCC=CCCCCCCCC(=O)[O-]
REMARK SMILES IDX 11 1 12 2 13 3 14 4 15 5 16 6 17 7 18 8 19 9 20 10 10 11
REMARK SMILES IDX 9 12 8 13 7 14 6 15 5 16 4 17 3 18 2 19 1 20
REMARK H PARENT
REMARK Flexibility Score: inf
ROOT
ATOM      1  C   UNL     1     -16.783 -37.894  21.417  1.00  0.00     0.027 C 
ENDROOT
BRANCH   1   2
ATOM      2  C   UNL     1     -18.141 -37.701  22.106  1.00  0.00     0.004 C 
BRANCH   2   3
ATOM      3  C   UNL     1     -18.095 -38.087  23.595  1.00  0.00     0.000 C 
BRANCH   3   4
ATOM      4  C   UNL     1     -18.152 -36.867  24.530  1.00  0.00     0.000 C 
BRANCH   4   5
ATOM      5  C   UNL     1     -18.134 -35.497  23.822  1.00  0.00     0.000 C 
BRANCH   5   6
ATOM      6  C   UNL     1     -17.537 -34.342  24.645  1.00  0.00     0.006 C 
BRANCH   6   7
ATOM      7  C   UNL     1     -16.398 -33.619  23.916  1.00  0.00     0.053 C 
BRANCH   7   8
ATOM      8  C   UNL     1     -16.913 -32.940  22.687  1.00  0.00     0.041 C 
ATOM      9  O   UNL     1     -17.796 -32.046  22.779  1.00  0.00    -0.550 OA
ATOM     10  O   UNL     1     -16.383 -33.259  21.443  1.00  0.00    -0.550 OA
ENDBRANCH   7   8
ENDBRANCH   6   7
ENDBRANCH   5   6
ENDBRANCH   4   5
ENDBRANCH   3   4
ENDBRANCH   2   3
ENDBRANCH   1   2
BRANCH   1  11
ATOM     11  C   UNL     1     -16.003 -36.604  21.339  1.00  0.00    -0.031 C 
ATOM     12  C   UNL     1     -14.781 -36.415  21.869  1.00  0.00    -0.027 C 
BRANCH  12  13
ATOM     13  C   UNL     1     -13.970 -37.486  22.555  1.00  0.00     0.054 C 
BRANCH  13  14
ATOM     14  C   UNL     1     -14.460 -37.725  23.956  1.00  0.00    -0.027 C 
ATOM     15  C   UNL     1     -14.381 -36.774  24.899  1.00  0.00    -0.031 C 
BRANCH  15  16
ATOM     16  C   UNL     1     -14.875 -37.011  26.301  1.00  0.00     0.027 C 
BRANCH  16  17
ATOM     17  C   UNL     1     -15.479 -35.747  26.938  1.00  0.00     0.004 C 
BRANCH  17  18
ATOM     18  C   UNL     1     -14.587 -35.081  28.005  1.00  0.00     0.000 C 
BRANCH  18  19
ATOM     19  C   UNL     1     -15.144 -33.770  28.588  1.00  0.00    -0.003 C 
ATOM     20  C   UNL     1     -15.576 -32.775  27.511  1.00  0.00     0.004 C 
ENDBRANCH  18  19
ENDBRANCH  17  18
ENDBRANCH  16  17
ENDBRANCH  15  16
ENDBRANCH  13  14
ENDBRANCH  12  13
ENDBRANCH   1  11
TORSDOF 14
ENDMDL
MODEL 7
REMARK VINA RESULT:    -3.800      3.376      5.294
REMARK INTER + INTRA:          -9.710
REMARK INTER:                  -8.176
REMARK INTRA:                  -1.533
REMARK UNBOUND:                -2.800
REMARK SMILES CCCCCC=CCC=CCCCCCCCC(=O)[O-]
REMARK SMILES IDX 11 1 12 2 13 3 14 4 15 5 16 6 17 7 18 8 19 9 20 10 10 11
REMARK SMILES IDX 9 12 8 13 7 14 6 15 5 16 4 17 3 18 2 19 1 20
REMARK H PARENT
REMARK Flexibility Score: inf
ROOT
ATOM      1  C   UNL     1     -17.193 -37.311  21.553  1.00  0.00     0.027 C 
ENDROOT
BRANCH   1   2
ATOM      2  C   UNL     1     -16.358 -38.589  21.393  1.00  0.00     0.004 C 
BRANCH   2   3
ATOM      3  C   UNL     1     -14.953 -38.443  22.001  1.00  0.00     0.000 C 
BRANCH   3   4
ATOM      4  C   UNL     1     -14.974 -38.343  23.536  1.00  0.00     0.000 C 
BRANCH   4   5
ATOM      5  C   UNL     1     -14.264 -37.105  24.121  1.00  0.00     0.000 C 
BRANCH   5   6
ATOM      6  C   UNL     1     -15.122 -36.244  25.066  1.00  0.00     0.006 C 
BRANCH   6   7
ATOM      7  C   UNL     1     -14.373 -35.833  26.340  1.00  0.00     0.053 C 
BRANCH   7   8
ATOM      8  C   UNL     1     -14.668 -34.407  26.682  1.00  0.00     0.041 C 
ATOM      9  O   UNL     1     -14.628 -34.021  27.880  1.00  0.00    -0.550 OA
ATOM     10  O   UNL     1     -14.938 -33.493  25.672  1.00  0.00    -0.550 OA
ENDBRANCH   7   8
ENDBRANCH   6   7
ENDBRANCH   5   6
ENDBRANCH   4   5
ENDBRANCH   3   4
ENDBRANCH   2   3
ENDBRANCH   1   2
BRANCH   1  11
ATOM     11  C   UNL     1     -16.962 -36.342  20.418  1.00  0.00    -0.031 C 
ATOM     12  C   UNL     1     -16.344 -35.153  20.543  1.00  0.00    -0.027 C 
BRANCH  12  13
ATOM     13  C   UNL     1     -15.722 -34.640  21.817  1.00  0.00     0.054 C 
BRANCH  13  14
ATOM     14  C   UNL     1     -16.734 -33.925  22.667  1.00  0.00    -0.027 C 
ATOM     15  C   UNL     1     -17.085 -32.654  22.422  1.00  0.00    -0.031 C 
BRANCH  15  16
ATOM     16  C   UNL     1     -18.102 -31.938  23.271  1.00  0.00     0.027 C 
BRANCH  16  17
ATOM     17  C   UNL     1     -18.582 -30.621  22.635  1.00  0.00     0.004 C 
BRANCH  17  18
ATOM     18  C   UNL     1     -19.273 -29.653  23.616  1.00  0.00     0.000 C 
BRANCH  18  19
ATOM     19  C   UNL     1     -20.624 -30.144  24.167  1.00  0.00    -0.003 C 
ATOM     20  C   UNL     1     -21.305 -29.120  25.075  1.00  0.00     0.004 C 
ENDBRANCH  18  19
ENDBRANCH  17  18
ENDBRANCH  16  17
ENDBRANCH  15  16
ENDBRANCH  13  14
ENDBRANCH  12  13
ENDBRANCH   1  11
TORSDOF 14
ENDMDL
MODEL 8
REMARK VINA RESULT:    -3.796      7.124     10.221
REMARK INTER + INTRA:          -9.703
REMARK INTER:                  -7.493
REMARK INTRA:                  -2.210
REMARK UNBOUND:                -2.800
REMARK SMILES CCCCCC=CCC=CCCCCCCCC(=O)[O-]
REMARK SMILES IDX 11 1 12 2 13 3 14 4 15 5 16 6 17 7 18 8 19 9 20 10 10 11
REMARK SMILES IDX 9 12 8 13 7 14 6 15 5 16 4 17 3 18 2 19 1 20
REMARK H PARENT
REMARK Flexibility Score: inf
ROOT
ATOM      1  C   UNL     1     -22.047 -30.705  27.321  1.00  0.00     0.027 C 
ENDROOT
BRANCH   1   2
ATOM      2  C   UNL     1     -21.363 -30.299  28.634  1.00  0.00     0.004 C 
BRANCH   2   3
ATOM      3  C   UNL     1     -19.887 -29.920  28.425  1.00  0.00     0.000 C 
BRANCH   3   4
ATOM      4  C   UNL     1     -19.379 -30.251  27.011  1.00  0.00     0.000 C 
BRANCH   4   5
ATOM      5  C   UNL     1     -18.825 -29.050  26.217  1.00  0.00     0.000 C 
BRANCH   5   6
ATOM      6  C   UNL     1     -18.801 -29.232  24.688  1.00  0.00     0.006 C 
BRANCH   6   7
ATOM      7  C   UNL     1     -19.738 -30.347  24.208  1.00  0.00     0.053 C 
BRANCH   7   8
ATOM      8  C   UNL     1     -18.947 -31.533  23.753  1.00  0.00     0.041 C 
ATOM      9  O   UNL     1     -19.291 -32.695  24.098  1.00  0.00    -0.550 OA
ATOM     10  O   UNL     1     -17.860 -31.360  22.906  1.00  0.00    -0.550 OA
ENDBRANCH   7   8
ENDBRANCH   6   7
ENDBRANCH   5   6
ENDBRANCH   4   5
ENDBRANCH   3   4
ENDBRANCH   2   3
ENDBRANCH   1   2
BRANCH   1  11
ATOM     11  C   UNL     1     -23.326 -29.935  27.092  1.00  0.00    -0.031 C 
ATOM     12  C   UNL     1     -23.404 -28.756  26.448  1.00  0.00    -0.027 C 
BRANCH  12  13
ATOM     13  C   UNL     1     -22.239 -28.060  25.791  1.00  0.00     0.054 C 
BRANCH  13  14
ATOM     14  C   UNL     1     -21.839 -26.829  26.555  1.00  0.00    -0.027 C 
ATOM     15  C   UNL     1     -21.893 -26.786  27.894  1.00  0.00    -0.031 C 
BRANCH  15  16
ATOM     16  C   UNL     1     -21.489 -25.554  28.661  1.00  0.00     0.027 C 
BRANCH  16  17
ATOM     17  C   UNL     1     -21.085 -24.389  27.740  1.00  0.00     0.004 C 
BRANCH  17  18
ATOM     18  C   UNL     1     -20.554 -23.145  28.479  1.00  0.00     0.000 C 
BRANCH  18  19
ATOM     19  C   UNL     1     -19.989 -22.041  27.567  1.00  0.00    -0.003 C 
ATOM     20  C   UNL     1     -20.088 -22.388  26.082  1.00  0.00     0.004 C 
ENDBRANCH  18  19
ENDBRANCH  17  18
ENDBRANCH  16  17
ENDBRANCH  15  16
ENDBRANCH  13  14
ENDBRANCH  12  13
ENDBRANCH   1  11
TORSDOF 14
ENDMDL
MODEL 9
REMARK VINA RESULT:    -3.775      1.741      4.424
REMARK INTER + INTRA:          -9.664
REMARK INTER:                  -7.080
REMARK INTRA:                  -2.585
REMARK UNBOUND:                -2.800
REMARK SMILES CCCCCC=CCC=CCCCCCCCC(=O)[O-]
REMARK SMILES IDX 11 1 12 2 13 3 14 4 15 5 16 6 17 7 18 8 19 9 20 10 10 11
REMARK SMILES IDX 9 12 8 13 7 14 6 15 5 16 4 17 3 18 2 19 1 20
REMARK H PARENT
REMARK Flexibility Score: inf
ROOT
ATOM      1  C   UNL     1     -17.396 -34.117  25.382  1.00  0.00     0.027 C 
ENDROOT
BRANCH   1   2
ATOM      2  C   UNL     1     -17.879 -34.229  23.929  1.00  0.00     0.004 C 
BRANCH   2   3
ATOM      3  C   UNL     1     -17.247 -33.157  23.024  1.00  0.00     0.000 C 
BRANCH   3   4
ATOM      4  C   UNL     1     -16.441 -33.757  21.859  1.00  0.00     0.000 C 
BRANCH   4   5
ATOM      5  C   UNL     1     -15.310 -34.720  22.273  1.00  0.00     0.000 C 
BRANCH   5   6
ATOM      6  C   UNL     1     -15.287 -36.064  21.522  1.00  0.00     0.006 C 
BRANCH   6   7
ATOM      7  C   UNL     1     -16.395 -37.020  21.981  1.00  0.00     0.053 C 
BRANCH   7   8
ATOM      8  C   UNL     1     -16.439 -38.228  21.100  1.00  0.00     0.041 C 
ATOM      9  O   UNL     1     -15.481 -39.046  21.097  1.00  0.00    -0.550 OA
ATOM     10  O   UNL     1     -17.561 -38.479  20.320  1.00  0.00    -0.550 OA
ENDBRANCH   7   8
ENDBRANCH   6   7
ENDBRANCH   5   6
ENDBRANCH   4   5
ENDBRANCH   3   4
ENDBRANCH   2   3
ENDBRANCH   1   2
BRANCH   1  11
ATOM     11  C   UNL     1     -16.224 -33.175  25.514  1.00  0.00    -0.031 C 
ATOM     12  C   UNL     1     -15.135 -33.411  26.269  1.00  0.00    -0.027 C 
BRANCH  12  13
ATOM     13  C   UNL     1     -14.884 -34.684  27.038  1.00  0.00     0.054 C 
BRANCH  13  14
ATOM     14  C   UNL     1     -14.011 -35.627  26.258  1.00  0.00    -0.027 C 
ATOM     15  C   UNL     1     -14.531 -36.523  25.406  1.00  0.00    -0.031 C 
BRANCH  15  16
ATOM     16  C   UNL     1     -13.657 -37.465  24.621  1.00  0.00     0.027 C 
BRANCH  16  17
ATOM     17  C   UNL     1     -14.290 -38.857  24.453  1.00  0.00     0.004 C 
BRANCH  17  18
ATOM     18  C   UNL     1     -14.899 -39.443  25.743  1.00  0.00     0.000 C 
BRANCH  18  19
ATOM     19  C   UNL     1     -16.318 -40.019  25.587  1.00  0.00    -0.003 C 
ATOM     20  C   UNL     1     -17.313 -39.005  25.023  1.00  0.00     0.004 C 
ENDBRANCH  18  19
ENDBRANCH  17  18
ENDBRANCH  16  17
ENDBRANCH  15  16
ENDBRANCH  13  14
ENDBRANCH  12  13
ENDBRANCH   1  11
TORSDOF 14
ENDMDL
