MODEL 1
REMARK VINA RESULT:    -5.218      0.000      0.000
REMARK INTER + INTRA:          -6.426
REMARK INTER:                  -6.438
REMARK INTRA:                   0.012
REMARK UNBOUND:                 0.012
REMARK SMILES Oc1cc(O)c2cc(O)c(-c3cc(O)c(O)c(O)c3)[o+]c2c1
REMARK SMILES IDX 10 1 20 2 21 3 22 4 2 5 3 6 4 7 6 8 7 9 8 10 11 11 12 12
REMARK SMILES IDX 13 13 19 14 15 15 17 16 14 17 16 19 18 21 9 23 1 25 5 27
REMARK H PARENT 14 18 16 20 18 22 9 24 1 26 5 28
REMARK Flexibility Score: inf
ROOT
ATOM      1  C   UNL     1       3.844  -3.977  34.121  1.00  0.00     0.402 A 
ATOM      2  O   UNL     1       3.615  -2.992  33.253  1.00  0.00    -0.202 OA
ATOM      3  C   UNL     1       4.559  -2.152  32.840  1.00  0.00     0.368 A 
ATOM      4  C   UNL     1       4.236  -1.141  31.930  1.00  0.00     0.162 A 
ATOM      5  C   UNL     1       5.222  -0.247  31.491  1.00  0.00     0.128 A 
ATOM      6  C   UNL     1       6.532  -0.367  31.965  1.00  0.00     0.093 A 
ATOM      7  C   UNL     1       6.872  -1.377  32.877  1.00  0.00     0.136 A 
ATOM      8  C   UNL     1       5.882  -2.275  33.318  1.00  0.00     0.125 A 
ATOM      9  C   UNL     1       6.164  -3.306  34.222  1.00  0.00     0.078 A 
ATOM     10  C   UNL     1       5.146  -4.177  34.623  1.00  0.00     0.223 A 
ENDROOT
BRANCH   1  11
ATOM     11  C   UNL     1       2.708  -4.844  34.511  1.00  0.00     0.091 A 
ATOM     12  C   UNL     1       2.526  -5.255  35.842  1.00  0.00     0.068 A 
ATOM     13  C   UNL     1       1.435  -6.055  36.198  1.00  0.00     0.162 A 
ATOM     14  C   UNL     1       1.761  -5.218  33.546  1.00  0.00     0.068 A 
ATOM     15  C   UNL     1       0.502  -6.446  35.222  1.00  0.00     0.200 A 
ATOM     16  C   UNL     1       0.667  -6.021  33.892  1.00  0.00     0.162 A 
BRANCH  13  17
ATOM     17  O   UNL     1       1.292  -6.449  37.529  1.00  0.00    -0.504 OA
ATOM     18  H   UNL     1       1.043  -7.396  37.787  1.00  0.00     0.293 HD
ENDBRANCH  13  17
BRANCH  15  19
ATOM     19  O   UNL     1      -0.581  -7.247  35.584  1.00  0.00    -0.502 OA
ATOM     20  H   UNL     1      -0.799  -7.456  36.551  1.00  0.00     0.293 HD
ENDBRANCH  15  19
BRANCH  16  21
ATOM     21  O   UNL     1      -0.259  -6.397  32.920  1.00  0.00    -0.504 OA
ATOM     22  H   UNL     1      -0.425  -5.830  32.097  1.00  0.00     0.293 HD
ENDBRANCH  16  21
ENDBRANCH   1  11
BRANCH  10  23
ATOM     23  O   UNL     1       5.431  -5.237  35.483  1.00  0.00    -0.500 OA
ATOM     24  H   UNL     1       5.091  -5.253  36.438  1.00  0.00     0.294 HD
ENDBRANCH  10  23
BRANCH   5  25
ATOM     25  O   UNL     1       4.909   0.763  30.585  1.00  0.00    -0.507 OA
ATOM     26  H   UNL     1       5.619   1.196  30.007  1.00  0.00     0.293 HD
ENDBRANCH   5  25
BRANCH   7  27
ATOM     27  O   UNL     1       8.183  -1.486  33.340  1.00  0.00    -0.507 OA
ATOM     28  H   UNL     1       8.860  -0.745  33.198  1.00  0.00     0.293 HD
ENDBRANCH   7  27
TORSDOF 7
ENDMDL
MODEL 2
REMARK VINA RESULT:    -5.174      0.634      1.903
REMARK INTER + INTRA:          -6.372
REMARK INTER:                  -6.269
REMARK INTRA:                  -0.103
REMARK UNBOUND:                 0.012
REMARK SMILES Oc1cc(O)c2cc(O)c(-c3cc(O)c(O)c(O)c3)[o+]c2c1
REMARK SMILES IDX 10 1 20 2 21 3 22 4 2 5 3 6 4 7 6 8 7 9 8 10 11 11 12 12
REMARK SMILES IDX 13 13 19 14 15 15 17 16 14 17 16 19 18 21 9 23 1 25 5 27
REMARK H PARENT 14 18 16 20 18 22 9 24 1 26 5 28
REMARK Flexibility Score: inf
ROOT
ATOM      1  C   UNL     1       3.654  -4.447  34.165  1.00  0.00     0.402 A 
ATOM      2  O   UNL     1       3.484  -3.278  33.548  1.00  0.00    -0.202 OA
ATOM      3  C   UNL     1       4.495  -2.502  33.169  1.00  0.00     0.368 A 
ATOM      4  C   UNL     1       4.233  -1.287  32.530  1.00  0.00     0.162 A 
ATOM      5  C   UNL     1       5.291  -0.459  32.130  1.00  0.00     0.128 A 
ATOM      6  C   UNL     1       6.611  -0.849  32.371  1.00  0.00     0.093 A 
ATOM      7  C   UNL     1       6.890  -2.067  33.010  1.00  0.00     0.136 A 
ATOM      8  C   UNL     1       5.828  -2.899  33.412  1.00  0.00     0.125 A 
ATOM      9  C   UNL     1       6.047  -4.126  34.047  1.00  0.00     0.078 A 
ATOM     10  C   UNL     1       4.957  -4.920  34.420  1.00  0.00     0.223 A 
ENDROOT
BRANCH   1  11
ATOM     11  C   UNL     1       2.448  -5.218  34.545  1.00  0.00     0.091 A 
ATOM     12  C   UNL     1       1.478  -5.575  33.593  1.00  0.00     0.068 A 
ATOM     13  C   UNL     1       0.357  -6.325  33.965  1.00  0.00     0.162 A 
ATOM     14  C   UNL     1       2.295  -5.653  35.870  1.00  0.00     0.068 A 
ATOM     15  C   UNL     1       0.198  -6.737  35.299  1.00  0.00     0.200 A 
ATOM     16  C   UNL     1       1.174  -6.401  36.252  1.00  0.00     0.162 A 
BRANCH  13  17
ATOM     17  O   UNL     1      -0.587  -6.654  32.991  1.00  0.00    -0.504 OA
ATOM     18  H   UNL     1      -0.797  -7.615  32.748  1.00  0.00     0.293 HD
ENDBRANCH  13  17
BRANCH  15  19
ATOM     19  O   UNL     1      -0.926  -7.480  35.662  1.00  0.00    -0.502 OA
ATOM     20  H   UNL     1      -1.867  -7.187  35.426  1.00  0.00     0.293 HD
ENDBRANCH  15  19
BRANCH  16  21
ATOM     21  O   UNL     1       1.027  -6.814  37.576  1.00  0.00    -0.504 OA
ATOM     22  H   UNL     1       0.191  -7.292  37.892  1.00  0.00     0.293 HD
ENDBRANCH  16  21
ENDBRANCH   1  11
BRANCH  10  23
ATOM     23  O   UNL     1       5.168  -6.167  35.007  1.00  0.00    -0.500 OA
ATOM     24  H   UNL     1       5.349  -6.264  35.999  1.00  0.00     0.294 HD
ENDBRANCH  10  23
BRANCH   5  25
ATOM     25  O   UNL     1       5.038   0.754  31.493  1.00  0.00    -0.507 OA
ATOM     26  H   UNL     1       4.536   1.502  31.957  1.00  0.00     0.293 HD
ENDBRANCH   5  25
BRANCH   7  27
ATOM     27  O   UNL     1       8.213  -2.444  33.243  1.00  0.00    -0.507 OA
ATOM     28  H   UNL     1       8.523  -3.401  33.117  1.00  0.00     0.293 HD
ENDBRANCH   7  27
TORSDOF 7
ENDMDL
MODEL 3
REMARK VINA RESULT:    -5.139      1.656      7.069
REMARK INTER + INTRA:          -6.328
REMARK INTER:                  -5.963
REMARK INTRA:                  -0.366
REMARK UNBOUND:                 0.012
REMARK SMILES Oc1cc(O)c2cc(O)c(-c3cc(O)c(O)c(O)c3)[o+]c2c1
REMARK SMILES IDX 10 1 20 2 21 3 22 4 2 5 3 6 4 7 6 8 7 9 8 10 11 11 12 12
REMARK SMILES IDX 13 13 19 14 15 15 17 16 14 17 16 19 18 21 9 23 1 25 5 27
REMARK H PARENT 14 18 16 20 18 22 9 24 1 26 5 28
REMARK Flexibility Score: inf
ROOT
ATOM      1  C   UNL     1       3.331  -4.460  34.082  1.00  0.00     0.402 A 
ATOM      2  O   UNL     1       2.266  -4.989  33.481  1.00  0.00    -0.202 OA
ATOM      3  C   UNL     1       1.405  -5.791  34.101  1.00  0.00     0.368 A 
ATOM      4  C   UNL     1       0.313  -6.309  33.398  1.00  0.00     0.162 A 
ATOM      5  C   UNL     1      -0.598  -7.158  34.040  1.00  0.00     0.128 A 
ATOM      6  C   UNL     1      -0.416  -7.488  35.386  1.00  0.00     0.093 A 
ATOM      7  C   UNL     1       0.674  -6.974  36.105  1.00  0.00     0.136 A 
ATOM      8  C   UNL     1       1.590  -6.121  35.461  1.00  0.00     0.125 A 
ATOM      9  C   UNL     1       2.691  -5.574  36.130  1.00  0.00     0.078 A 
ATOM     10  C   UNL     1       3.568  -4.726  35.446  1.00  0.00     0.223 A 
ENDROOT
BRANCH   1  11
ATOM     11  C   UNL     1       4.222  -3.587  33.284  1.00  0.00     0.091 A 
ATOM     12  C   UNL     1       5.216  -4.125  32.448  1.00  0.00     0.068 A 
ATOM     13  C   UNL     1       6.034  -3.287  31.683  1.00  0.00     0.162 A 
ATOM     14  C   UNL     1       4.038  -2.197  33.316  1.00  0.00     0.068 A 
ATOM     15  C   UNL     1       5.859  -1.893  31.737  1.00  0.00     0.200 A 
ATOM     16  C   UNL     1       4.854  -1.350  32.556  1.00  0.00     0.162 A 
BRANCH  13  17
ATOM     17  O   UNL     1       7.013  -3.859  30.870  1.00  0.00    -0.504 OA
ATOM     18  H   UNL     1       6.780  -4.442  30.075  1.00  0.00     0.293 HD
ENDBRANCH  13  17
BRANCH  15  19
ATOM     19  O   UNL     1       6.682  -1.065  30.975  1.00  0.00    -0.502 OA
ATOM     20  H   UNL     1       7.667  -0.944  31.180  1.00  0.00     0.293 HD
ENDBRANCH  15  19
BRANCH  16  21
ATOM     21  O   UNL     1       4.670   0.032  32.608  1.00  0.00    -0.504 OA
ATOM     22  H   UNL     1       4.849   0.559  33.455  1.00  0.00     0.293 HD
ENDBRANCH  16  21
ENDBRANCH   1  11
BRANCH  10  23
ATOM     23  O   UNL     1       4.637  -4.136  36.118  1.00  0.00    -0.500 OA
ATOM     24  H   UNL     1       4.585  -3.187  36.471  1.00  0.00     0.294 HD
ENDBRANCH  10  23
BRANCH   5  25
ATOM     25  O   UNL     1      -1.688  -7.680  33.347  1.00  0.00    -0.507 OA
ATOM     26  H   UNL     1      -2.350  -8.305  33.792  1.00  0.00     0.293 HD
ENDBRANCH   5  25
BRANCH   7  27
ATOM     27  O   UNL     1       0.843  -7.310  37.448  1.00  0.00    -0.507 OA
ATOM     28  H   UNL     1       0.719  -6.627  38.187  1.00  0.00     0.293 HD
ENDBRANCH   7  27
TORSDOF 7
ENDMDL
MODEL 4
REMARK VINA RESULT:    -5.125      1.885      7.423
REMARK INTER + INTRA:          -6.312
REMARK INTER:                  -5.968
REMARK INTRA:                  -0.343
REMARK UNBOUND:                 0.012
REMARK SMILES Oc1cc(O)c2cc(O)c(-c3cc(O)c(O)c(O)c3)[o+]c2c1
REMARK SMILES IDX 10 1 20 2 21 3 22 4 2 5 3 6 4 7 6 8 7 9 8 10 11 11 12 12
REMARK SMILES IDX 13 13 19 14 15 15 17 16 14 17 16 19 18 21 9 23 1 25 5 27
REMARK H PARENT 14 18 16 20 18 22 9 24 1 26 5 28
REMARK Flexibility Score: inf
ROOT
ATOM      1  C   UNL     1       5.076  -3.163  32.458  1.00  0.00     0.402 A 
ATOM      2  O   UNL     1       4.292  -3.247  33.532  1.00  0.00    -0.202 OA
ATOM      3  C   UNL     1       3.644  -4.357  33.875  1.00  0.00     0.368 A 
ATOM      4  C   UNL     1       2.837  -4.362  35.016  1.00  0.00     0.162 A 
ATOM      5  C   UNL     1       2.146  -5.525  35.385  1.00  0.00     0.128 A 
ATOM      6  C   UNL     1       2.266  -6.682  34.610  1.00  0.00     0.093 A 
ATOM      7  C   UNL     1       3.074  -6.692  33.462  1.00  0.00     0.136 A 
ATOM      8  C   UNL     1       3.767  -5.525  33.092  1.00  0.00     0.125 A 
ATOM      9  C   UNL     1       4.593  -5.479  31.963  1.00  0.00     0.078 A 
ATOM     10  C   UNL     1       5.266  -4.295  31.641  1.00  0.00     0.223 A 
ENDROOT
BRANCH   1  11
ATOM     11  C   UNL     1       5.738  -1.868  32.176  1.00  0.00     0.091 A 
ATOM     12  C   UNL     1       5.285  -1.024  31.148  1.00  0.00     0.068 A 
ATOM     13  C   UNL     1       5.908   0.206  30.909  1.00  0.00     0.162 A 
ATOM     14  C   UNL     1       6.804  -1.447  32.984  1.00  0.00     0.068 A 
ATOM     15  C   UNL     1       6.990   0.612  31.709  1.00  0.00     0.200 A 
ATOM     16  C   UNL     1       7.435  -0.218  32.751  1.00  0.00     0.162 A 
BRANCH  13  17
ATOM     17  O   UNL     1       5.433   1.013  29.875  1.00  0.00    -0.504 OA
ATOM     18  H   UNL     1       5.028   1.926  30.047  1.00  0.00     0.293 HD
ENDBRANCH  13  17
BRANCH  15  19
ATOM     19  O   UNL     1       7.608   1.838  31.461  1.00  0.00    -0.502 OA
ATOM     20  H   UNL     1       8.547   1.904  31.087  1.00  0.00     0.293 HD
ENDBRANCH  15  19
BRANCH  16  21
ATOM     21  O   UNL     1       8.503   0.182  33.554  1.00  0.00    -0.504 OA
ATOM     22  H   UNL     1       8.886  -0.424  34.269  1.00  0.00     0.293 HD
ENDBRANCH  16  21
ENDBRANCH   1  11
BRANCH  10  23
ATOM     23  O   UNL     1       6.129  -4.257  30.548  1.00  0.00    -0.500 OA
ATOM     24  H   UNL     1       6.862  -3.561  30.473  1.00  0.00     0.294 HD
ENDBRANCH  10  23
BRANCH   5  25
ATOM     25  O   UNL     1       1.339  -5.539  36.520  1.00  0.00    -0.507 OA
ATOM     26  H   UNL     1       1.536  -4.947  37.318  1.00  0.00     0.293 HD
ENDBRANCH   5  25
BRANCH   7  27
ATOM     27  O   UNL     1       3.185  -7.855  32.700  1.00  0.00    -0.507 OA
ATOM     28  H   UNL     1       2.368  -8.361  32.379  1.00  0.00     0.293 HD
ENDBRANCH   7  27
TORSDOF 7
ENDMDL
MODEL 5
REMARK VINA RESULT:    -5.117      1.860      3.206
REMARK INTER + INTRA:          -6.302
REMARK INTER:                  -5.976
REMARK INTRA:                  -0.326
REMARK UNBOUND:                 0.012
REMARK SMILES Oc1cc(O)c2cc(O)c(-c3cc(O)c(O)c(O)c3)[o+]c2c1
REMARK SMILES IDX 10 1 20 2 21 3 22 4 2 5 3 6 4 7 6 8 7 9 8 10 11 11 12 12
REMARK SMILES IDX 13 13 19 14 15 15 17 16 14 17 16 19 18 21 9 23 1 25 5 27
REMARK H PARENT 14 18 16 20 18 22 9 24 1 26 5 28
REMARK Flexibility Score: inf
ROOT
ATOM      1  C   UNL     1       4.843  -2.936  33.280  1.00  0.00     0.402 A 
ATOM      2  O   UNL     1       6.151  -2.891  33.524  1.00  0.00    -0.202 OA
ATOM      3  C   UNL     1       6.910  -1.838  33.229  1.00  0.00     0.368 A 
ATOM      4  C   UNL     1       8.278  -1.871  33.514  1.00  0.00     0.162 A 
ATOM      5  C   UNL     1       9.088  -0.770  33.204  1.00  0.00     0.128 A 
ATOM      6  C   UNL     1       8.527   0.364  32.609  1.00  0.00     0.093 A 
ATOM      7  C   UNL     1       7.154   0.411  32.319  1.00  0.00     0.136 A 
ATOM      8  C   UNL     1       6.340  -0.694  32.630  1.00  0.00     0.125 A 
ATOM      9  C   UNL     1       4.966  -0.700  32.370  1.00  0.00     0.078 A 
ATOM     10  C   UNL     1       4.200  -1.821  32.705  1.00  0.00     0.223 A 
ENDROOT
BRANCH   1  11
ATOM     11  C   UNL     1       4.106  -4.168  33.646  1.00  0.00     0.091 A 
ATOM     12  C   UNL     1       3.285  -4.217  34.785  1.00  0.00     0.068 A 
ATOM     13  C   UNL     1       2.577  -5.381  35.104  1.00  0.00     0.162 A 
ATOM     14  C   UNL     1       4.181  -5.292  32.811  1.00  0.00     0.068 A 
ATOM     15  C   UNL     1       2.675  -6.512  34.275  1.00  0.00     0.200 A 
ATOM     16  C   UNL     1       3.478  -6.463  33.123  1.00  0.00     0.162 A 
BRANCH  13  17
ATOM     17  O   UNL     1       1.777  -5.392  36.247  1.00  0.00    -0.504 OA
ATOM     18  H   UNL     1       0.919  -4.858  36.309  1.00  0.00     0.293 HD
ENDBRANCH  13  17
BRANCH  15  19
ATOM     19  O   UNL     1       1.970  -7.670  34.603  1.00  0.00    -0.502 OA
ATOM     20  H   UNL     1       2.312  -8.336  35.285  1.00  0.00     0.293 HD
ENDBRANCH  15  19
BRANCH  16  21
ATOM     21  O   UNL     1       3.573  -7.579  32.292  1.00  0.00    -0.504 OA
ATOM     22  H   UNL     1       4.183  -8.356  32.516  1.00  0.00     0.293 HD
ENDBRANCH  16  21
ENDBRANCH   1  11
BRANCH  10  23
ATOM     23  O   UNL     1       2.821  -1.815  32.496  1.00  0.00    -0.500 OA
ATOM     24  H   UNL     1       2.191  -2.346  33.086  1.00  0.00     0.294 HD
ENDBRANCH  10  23
BRANCH   5  25
ATOM     25  O   UNL     1      10.453  -0.794  33.483  1.00  0.00    -0.507 OA
ATOM     26  H   UNL     1      10.876  -0.129  34.120  1.00  0.00     0.293 HD
ENDBRANCH   5  25
BRANCH   7  27
ATOM     27  O   UNL     1       6.607   1.550  31.727  1.00  0.00    -0.507 OA
ATOM     28  H   UNL     1       6.731   2.471  32.131  1.00  0.00     0.293 HD
ENDBRANCH   7  27
TORSDOF 7
ENDMDL
MODEL 6
REMARK VINA RESULT:    -5.115      2.253      7.220
REMARK INTER + INTRA:          -6.299
REMARK INTER:                  -5.957
REMARK INTRA:                  -0.342
REMARK UNBOUND:                 0.012
REMARK SMILES Oc1cc(O)c2cc(O)c(-c3cc(O)c(O)c(O)c3)[o+]c2c1
REMARK SMILES IDX 10 1 20 2 21 3 22 4 2 5 3 6 4 7 6 8 7 9 8 10 11 11 12 12
REMARK SMILES IDX 13 13 19 14 15 15 17 16 14 17 16 19 18 21 9 23 1 25 5 27
REMARK H PARENT 14 18 16 20 18 22 9 24 1 26 5 28
REMARK Flexibility Score: inf
ROOT
ATOM      1  C   UNL     1       3.637  -4.584  34.466  1.00  0.00     0.402 A 
ATOM      2  O   UNL     1       4.408  -5.291  35.291  1.00  0.00    -0.202 OA
ATOM      3  C   UNL     1       3.922  -6.124  36.207  1.00  0.00     0.368 A 
ATOM      4  C   UNL     1       4.799  -6.828  37.037  1.00  0.00     0.162 A 
ATOM      5  C   UNL     1       4.298  -7.705  38.009  1.00  0.00     0.128 A 
ATOM      6  C   UNL     1       2.918  -7.876  38.148  1.00  0.00     0.093 A 
ATOM      7  C   UNL     1       2.025  -7.178  37.320  1.00  0.00     0.136 A 
ATOM      8  C   UNL     1       2.528  -6.297  36.344  1.00  0.00     0.125 A 
ATOM      9  C   UNL     1       1.686  -5.581  35.487  1.00  0.00     0.078 A 
ATOM     10  C   UNL     1       2.236  -4.723  34.529  1.00  0.00     0.223 A 
ENDROOT
BRANCH   1  11
ATOM     11  C   UNL     1       4.296  -3.683  33.493  1.00  0.00     0.091 A 
ATOM     12  C   UNL     1       4.302  -2.290  33.673  1.00  0.00     0.068 A 
ATOM     13  C   UNL     1       4.949  -1.455  32.756  1.00  0.00     0.162 A 
ATOM     14  C   UNL     1       4.979  -4.232  32.397  1.00  0.00     0.068 A 
ATOM     15  C   UNL     1       5.612  -2.009  31.647  1.00  0.00     0.200 A 
ATOM     16  C   UNL     1       5.628  -3.404  31.472  1.00  0.00     0.162 A 
BRANCH  13  17
ATOM     17  O   UNL     1       4.926  -0.076  32.966  1.00  0.00    -0.504 OA
ATOM     18  H   UNL     1       5.687   0.526  32.673  1.00  0.00     0.293 HD
ENDBRANCH  13  17
BRANCH  15  19
ATOM     19  O   UNL     1       6.251  -1.169  30.735  1.00  0.00    -0.502 OA
ATOM     20  H   UNL     1       7.191  -0.824  30.885  1.00  0.00     0.293 HD
ENDBRANCH  15  19
BRANCH  16  21
ATOM     21  O   UNL     1       6.291  -3.961  30.379  1.00  0.00    -0.504 OA
ATOM     22  H   UNL     1       7.239  -4.310  30.455  1.00  0.00     0.293 HD
ENDBRANCH  16  21
ENDBRANCH   1  11
BRANCH  10  23
ATOM     23  O   UNL     1       1.406  -4.045  33.638  1.00  0.00    -0.500 OA
ATOM     24  H   UNL     1       1.730  -3.759  32.721  1.00  0.00     0.294 HD
ENDBRANCH  10  23
BRANCH   5  25
ATOM     25  O   UNL     1       5.165  -8.409  38.842  1.00  0.00    -0.507 OA
ATOM     26  H   UNL     1       5.228  -9.420  38.808  1.00  0.00     0.293 HD
ENDBRANCH   5  25
BRANCH   7  27
ATOM     27  O   UNL     1       0.650  -7.361  37.468  1.00  0.00    -0.507 OA
ATOM     28  H   UNL     1       0.259  -8.252  37.751  1.00  0.00     0.293 HD
ENDBRANCH   7  27
TORSDOF 7
ENDMDL
MODEL 7
REMARK VINA RESULT:    -5.107      1.648      7.039
REMARK INTER + INTRA:          -6.290
REMARK INTER:                  -5.923
REMARK INTRA:                  -0.366
REMARK UNBOUND:                 0.012
REMARK SMILES Oc1cc(O)c2cc(O)c(-c3cc(O)c(O)c(O)c3)[o+]c2c1
REMARK SMILES IDX 10 1 20 2 21 3 22 4 2 5 3 6 4 7 6 8 7 9 8 10 11 11 12 12
REMARK SMILES IDX 13 13 19 14 15 15 17 16 14 17 16 19 18 21 9 23 1 25 5 27
REMARK H PARENT 14 18 16 20 18 22 9 24 1 26 5 28
REMARK Flexibility Score: inf
ROOT
ATOM      1  C   UNL     1       3.305  -4.442  34.086  1.00  0.00     0.402 A 
ATOM      2  O   UNL     1       2.244  -4.978  33.485  1.00  0.00    -0.202 OA
ATOM      3  C   UNL     1       1.389  -5.788  34.104  1.00  0.00     0.368 A 
ATOM      4  C   UNL     1       0.301  -6.313  33.400  1.00  0.00     0.162 A 
ATOM      5  C   UNL     1      -0.604  -7.170  34.041  1.00  0.00     0.128 A 
ATOM      6  C   UNL     1      -0.418  -7.501  35.386  1.00  0.00     0.093 A 
ATOM      7  C   UNL     1       0.668  -6.980  36.106  1.00  0.00     0.136 A 
ATOM      8  C   UNL     1       1.577  -6.119  35.463  1.00  0.00     0.125 A 
ATOM      9  C   UNL     1       2.674  -5.564  36.132  1.00  0.00     0.078 A 
ATOM     10  C   UNL     1       3.545  -4.708  35.450  1.00  0.00     0.223 A 
ENDROOT
BRANCH   1  11
ATOM     11  C   UNL     1       4.190  -3.561  33.289  1.00  0.00     0.091 A 
ATOM     12  C   UNL     1       4.050  -2.163  33.320  1.00  0.00     0.068 A 
ATOM     13  C   UNL     1       4.909  -1.345  32.579  1.00  0.00     0.162 A 
ATOM     14  C   UNL     1       5.226  -4.126  32.531  1.00  0.00     0.068 A 
ATOM     15  C   UNL     1       5.931  -1.918  31.803  1.00  0.00     0.200 A 
ATOM     16  C   UNL     1       6.089  -3.315  31.784  1.00  0.00     0.162 A 
BRANCH  13  17
ATOM     17  O   UNL     1       4.734   0.039  32.631  1.00  0.00    -0.504 OA
ATOM     18  H   UNL     1       5.487   0.668  32.883  1.00  0.00     0.293 HD
ENDBRANCH  13  17
BRANCH  15  19
ATOM     19  O   UNL     1       6.780  -1.095  31.064  1.00  0.00    -0.502 OA
ATOM     20  H   UNL     1       7.774  -1.272  30.989  1.00  0.00     0.293 HD
ENDBRANCH  15  19
BRANCH  16  21
ATOM     21  O   UNL     1       7.106  -3.890  31.023  1.00  0.00    -0.504 OA
ATOM     22  H   UNL     1       7.317  -4.879  31.080  1.00  0.00     0.293 HD
ENDBRANCH  16  21
ENDBRANCH   1  11
BRANCH  10  23
ATOM     23  O   UNL     1       4.610  -4.112  36.123  1.00  0.00    -0.500 OA
ATOM     24  H   UNL     1       5.573  -4.331  35.895  1.00  0.00     0.294 HD
ENDBRANCH  10  23
BRANCH   5  25
ATOM     25  O   UNL     1      -1.690  -7.699  33.347  1.00  0.00    -0.507 OA
ATOM     26  H   UNL     1      -1.648  -7.875  32.350  1.00  0.00     0.293 HD
ENDBRANCH   5  25
BRANCH   7  27
ATOM     27  O   UNL     1       0.840  -7.316  37.448  1.00  0.00    -0.507 OA
ATOM     28  H   UNL     1       1.373  -6.731  38.080  1.00  0.00     0.293 HD
ENDBRANCH   7  27
TORSDOF 7
ENDMDL
MODEL 8
REMARK VINA RESULT:    -4.987      3.370      7.434
REMARK INTER + INTRA:          -6.142
REMARK INTER:                  -5.761
REMARK INTRA:                  -0.381
REMARK UNBOUND:                 0.012
REMARK SMILES Oc1cc(O)c2cc(O)c(-c3cc(O)c(O)c(O)c3)[o+]c2c1
REMARK SMILES IDX 10 1 20 2 21 3 22 4 2 5 3 6 4 7 6 8 7 9 8 10 11 11 12 12
REMARK SMILES IDX 13 13 19 14 15 15 17 16 14 17 16 19 18 21 9 23 1 25 5 27
REMARK H PARENT 14 18 16 20 18 22 9 24 1 26 5 28
REMARK Flexibility Score: inf
ROOT
ATOM      1  C   UNL     1       3.831  -5.485  36.237  1.00  0.00     0.402 A 
ATOM      2  O   UNL     1       2.965  -6.339  36.780  1.00  0.00    -0.202 OA
ATOM      3  C   UNL     1       1.821  -6.685  36.196  1.00  0.00     0.368 A 
ATOM      4  C   UNL     1       0.964  -7.586  36.835  1.00  0.00     0.162 A 
ATOM      5  C   UNL     1      -0.246  -7.955  36.231  1.00  0.00     0.128 A 
ATOM      6  C   UNL     1      -0.596  -7.421  34.988  1.00  0.00     0.093 A 
ATOM      7  C   UNL     1       0.256  -6.518  34.334  1.00  0.00     0.136 A 
ATOM      8  C   UNL     1       1.471  -6.147  34.940  1.00  0.00     0.125 A 
ATOM      9  C   UNL     1       2.362  -5.255  34.331  1.00  0.00     0.078 A 
ATOM     10  C   UNL     1       3.560  -4.924  34.972  1.00  0.00     0.223 A 
ENDROOT
BRANCH   1  11
ATOM     11  C   UNL     1       5.069  -5.171  36.988  1.00  0.00     0.091 A 
ATOM     12  C   UNL     1       5.167  -4.019  37.787  1.00  0.00     0.068 A 
ATOM     13  C   UNL     1       6.335  -3.750  38.508  1.00  0.00     0.162 A 
ATOM     14  C   UNL     1       6.146  -6.068  36.949  1.00  0.00     0.068 A 
ATOM     15  C   UNL     1       7.420  -4.641  38.446  1.00  0.00     0.200 A 
ATOM     16  C   UNL     1       7.321  -5.805  37.665  1.00  0.00     0.162 A 
BRANCH  13  17
ATOM     17  O   UNL     1       6.397  -2.592  39.285  1.00  0.00    -0.504 OA
ATOM     18  H   UNL     1       7.218  -2.350  39.826  1.00  0.00     0.293 HD
ENDBRANCH  13  17
BRANCH  15  19
ATOM     19  O   UNL     1       8.583  -4.362  39.165  1.00  0.00    -0.502 OA
ATOM     20  H   UNL     1       9.498  -4.658  38.847  1.00  0.00     0.293 HD
ENDBRANCH  15  19
BRANCH  16  21
ATOM     21  O   UNL     1       8.391  -6.698  37.606  1.00  0.00    -0.504 OA
ATOM     22  H   UNL     1       9.125  -6.602  36.914  1.00  0.00     0.293 HD
ENDBRANCH  16  21
ENDBRANCH   1  11
BRANCH  10  23
ATOM     23  O   UNL     1       4.475  -4.078  34.349  1.00  0.00    -0.500 OA
ATOM     24  H   UNL     1       4.727  -3.181  34.749  1.00  0.00     0.294 HD
ENDBRANCH  10  23
BRANCH   5  25
ATOM     25  O   UNL     1      -1.107  -8.851  36.861  1.00  0.00    -0.507 OA
ATOM     26  H   UNL     1      -1.755  -9.424  36.333  1.00  0.00     0.293 HD
ENDBRANCH   5  25
BRANCH   7  27
ATOM     27  O   UNL     1      -0.105  -5.995  33.092  1.00  0.00    -0.507 OA
ATOM     28  H   UNL     1      -0.562  -5.094  33.006  1.00  0.00     0.293 HD
ENDBRANCH   7  27
TORSDOF 7
ENDMDL
MODEL 9
REMARK VINA RESULT:    -4.966      3.607      7.417
REMARK INTER + INTRA:          -6.116
REMARK INTER:                  -5.822
REMARK INTRA:                  -0.293
REMARK UNBOUND:                 0.012
REMARK SMILES Oc1cc(O)c2cc(O)c(-c3cc(O)c(O)c(O)c3)[o+]c2c1
REMARK SMILES IDX 10 1 20 2 21 3 22 4 2 5 3 6 4 7 6 8 7 9 8 10 11 11 12 12
REMARK SMILES IDX 13 13 19 14 15 15 17 16 14 17 16 19 18 21 9 23 1 25 5 27
REMARK H PARENT 14 18 16 20 18 22 9 24 1 26 5 28
REMARK Flexibility Score: inf
ROOT
ATOM      1  C   UNL     1       5.593  -4.724  36.810  1.00  0.00     0.402 A 
ATOM      2  O   UNL     1       4.607  -5.547  37.161  1.00  0.00    -0.202 OA
ATOM      3  C   UNL     1       3.447  -5.612  36.513  1.00  0.00     0.368 A 
ATOM      4  C   UNL     1       2.460  -6.501  36.948  1.00  0.00     0.162 A 
ATOM      5  C   UNL     1       1.233  -6.575  36.276  1.00  0.00     0.128 A 
ATOM      6  C   UNL     1       0.995  -5.758  35.167  1.00  0.00     0.093 A 
ATOM      7  C   UNL     1       1.977  -4.862  34.717  1.00  0.00     0.136 A 
ATOM      8  C   UNL     1       3.210  -4.787  35.392  1.00  0.00     0.125 A 
ATOM      9  C   UNL     1       4.228  -3.918  34.985  1.00  0.00     0.078 A 
ATOM     10  C   UNL     1       5.438  -3.887  35.686  1.00  0.00     0.223 A 
ENDROOT
BRANCH   1  11
ATOM     11  C   UNL     1       6.836  -4.737  37.615  1.00  0.00     0.091 A 
ATOM     12  C   UNL     1       7.201  -3.640  38.414  1.00  0.00     0.068 A 
ATOM     13  C   UNL     1       8.367  -3.678  39.186  1.00  0.00     0.162 A 
ATOM     14  C   UNL     1       7.638  -5.888  37.628  1.00  0.00     0.068 A 
ATOM     15  C   UNL     1       9.179  -4.825  39.178  1.00  0.00     0.200 A 
ATOM     16  C   UNL     1       8.809  -5.934  38.397  1.00  0.00     0.162 A 
BRANCH  13  17
ATOM     17  O   UNL     1       8.699  -2.566  39.962  1.00  0.00    -0.504 OA
ATOM     18  H   UNL     1       8.014  -1.868  40.223  1.00  0.00     0.293 HD
ENDBRANCH  13  17
BRANCH  15  19
ATOM     19  O   UNL     1      10.342  -4.853  39.948  1.00  0.00    -0.502 OA
ATOM     20  H   UNL     1      11.265  -4.855  39.532  1.00  0.00     0.293 HD
ENDBRANCH  15  19
BRANCH  16  21
ATOM     21  O   UNL     1       9.605  -7.078  38.390  1.00  0.00    -0.504 OA
ATOM     22  H   UNL     1      10.600  -7.033  38.576  1.00  0.00     0.293 HD
ENDBRANCH  16  21
ENDBRANCH   1  11
BRANCH  10  23
ATOM     23  O   UNL     1       6.475  -3.061  35.255  1.00  0.00    -0.500 OA
ATOM     24  H   UNL     1       6.874  -3.149  34.328  1.00  0.00     0.294 HD
ENDBRANCH  10  23
BRANCH   5  25
ATOM     25  O   UNL     1       0.244  -7.458  36.703  1.00  0.00    -0.507 OA
ATOM     26  H   UNL     1       0.329  -8.458  36.565  1.00  0.00     0.293 HD
ENDBRANCH   5  25
BRANCH   7  27
ATOM     27  O   UNL     1       1.727  -4.054  33.608  1.00  0.00    -0.507 OA
ATOM     28  H   UNL     1       1.189  -3.199  33.683  1.00  0.00     0.293 HD
ENDBRANCH   7  27
TORSDOF 7
ENDMDL
