MODEL 1
REMARK VINA RESULT:    -2.548      0.000      0.000
REMARK INTER + INTRA:          -2.622
REMARK INTER:                  -2.622
REMARK INTRA:                   0.000
REMARK UNBOUND:                 0.000
REMARK SMILES CC1(C)[C@@H]2CC[C@@]1(C)[C@H](O)C2
REMARK SMILES IDX 1 1 2 2 4 3 5 4 6 5 7 6 9 7 11 8 8 9 3 10 10 11
REMARK H PARENT 10 12
REMARK Flexibility Score: inf
ROOT
ATOM      1  C   UNL     1     122.336 116.677 106.392  1.00  0.00     0.012 C 
ATOM      2  C   UNL     1     121.939 117.410 107.713  1.00  0.00    -0.025 C 
ATOM      3  C   UNL     1     120.555 118.077 107.661  1.00  0.00    -0.002 C 
ATOM      4  C   UNL     1     120.720 119.151 106.558  1.00  0.00     0.005 C 
ATOM      5  C   UNL     1     122.174 119.625 106.756  1.00  0.00     0.010 C 
ATOM      6  C   UNL     1     122.651 118.762 107.958  1.00  0.00    -0.001 C 
ATOM      7  C   UNL     1     121.920 119.353 109.206  1.00  0.00     0.121 C 
ATOM      8  C   UNL     1     120.474 118.846 109.006  1.00  0.00     0.036 C 
ATOM      9  C   UNL     1     124.181 118.704 108.077  1.00  0.00     0.015 C 
ATOM     10  C   UNL     1     122.082 116.344 108.843  1.00  0.00     0.012 C 
ENDROOT
BRANCH   7  11
ATOM     11  O   UNL     1     122.454 118.881 110.417  1.00  0.00    -0.393 OA
ATOM     12  H   UNL     1     122.028 119.408 111.143  1.00  0.00     0.210 HD
ENDBRANCH   7  11
TORSDOF 1
ENDMDL
MODEL 2
REMARK VINA RESULT:    -2.545     11.766     13.140
REMARK INTER + INTRA:          -2.620
REMARK INTER:                  -2.620
REMARK INTRA:                   0.000
REMARK UNBOUND:                 0.000
REMARK SMILES CC1(C)[C@@H]2CC[C@@]1(C)[C@H](O)C2
REMARK SMILES IDX 1 1 2 2 4 3 5 4 6 5 7 6 9 7 11 8 8 9 3 10 10 11
REMARK H PARENT 10 12
REMARK Flexibility Score: inf
ROOT
ATOM      1  C   UNL     1     109.683 115.261 106.339  1.00  0.00     0.012 C 
ATOM      2  C   UNL     1     110.074 114.556 107.676  1.00  0.00    -0.025 C 
ATOM      3  C   UNL     1     111.443 113.856 107.632  1.00  0.00    -0.002 C 
ATOM      4  C   UNL     1     111.242 112.756 106.560  1.00  0.00     0.005 C 
ATOM      5  C   UNL     1     109.779 112.322 106.783  1.00  0.00     0.010 C 
ATOM      6  C   UNL     1     109.334 113.229 107.964  1.00  0.00    -0.001 C 
ATOM      7  C   UNL     1     110.062 112.656 109.223  1.00  0.00     0.121 C 
ATOM      8  C   UNL     1     111.518 113.123 108.996  1.00  0.00     0.036 C 
ATOM      9  C   UNL     1     107.807 113.325 108.095  1.00  0.00     0.015 C 
ATOM     10  C   UNL     1     109.967 115.656 108.777  1.00  0.00     0.012 C 
ENDROOT
BRANCH   7  11
ATOM     11  O   UNL     1     109.550 113.173 110.425  1.00  0.00    -0.393 OA
ATOM     12  H   UNL     1     108.567 113.247 110.309  1.00  0.00     0.210 HD
ENDBRANCH   7  11
TORSDOF 1
ENDMDL
MODEL 3
REMARK VINA RESULT:    -2.531      7.928      9.319
REMARK INTER + INTRA:          -2.605
REMARK INTER:                  -2.605
REMARK INTRA:                   0.000
REMARK UNBOUND:                 0.000
REMARK SMILES CC1(C)[C@@H]2CC[C@@]1(C)[C@H](O)C2
REMARK SMILES IDX 1 1 2 2 4 3 5 4 6 5 7 6 9 7 11 8 8 9 3 10 10 11
REMARK H PARENT 10 12
REMARK Flexibility Score: inf
ROOT
ATOM      1  C   UNL     1     116.730 109.633 106.322  1.00  0.00     0.012 C 
ATOM      2  C   UNL     1     117.450 110.021 107.653  1.00  0.00    -0.025 C 
ATOM      3  C   UNL     1     118.136 111.396 107.608  1.00  0.00    -0.002 C 
ATOM      4  C   UNL     1     119.224 111.214 106.520  1.00  0.00     0.005 C 
ATOM      5  C   UNL     1     119.674 109.754 106.727  1.00  0.00     0.010 C 
ATOM      6  C   UNL     1     118.788 109.291 107.917  1.00  0.00    -0.001 C 
ATOM      7  C   UNL     1     119.372 110.016 109.172  1.00  0.00     0.121 C 
ATOM      8  C   UNL     1     118.888 111.469 108.962  1.00  0.00     0.036 C 
ATOM      9  C   UNL     1     118.708 107.763 108.039  1.00  0.00     0.015 C 
ATOM     10  C   UNL     1     116.367 109.896 108.768  1.00  0.00     0.012 C 
ENDROOT
BRANCH   7  11
ATOM     11  O   UNL     1     118.876 109.491 110.378  1.00  0.00    -0.393 OA
ATOM     12  H   UNL     1     119.489 109.796 111.097  1.00  0.00     0.210 HD
ENDBRANCH   7  11
TORSDOF 1
ENDMDL
MODEL 4
REMARK VINA RESULT:    -2.521      1.294      2.647
REMARK INTER + INTRA:          -2.595
REMARK INTER:                  -2.595
REMARK INTRA:                   0.000
REMARK UNBOUND:                 0.000
REMARK SMILES CC1(C)[C@@H]2CC[C@@]1(C)[C@H](O)C2
REMARK SMILES IDX 1 1 2 2 4 3 5 4 6 5 7 6 9 7 11 8 8 9 3 10 10 11
REMARK H PARENT 10 12
REMARK Flexibility Score: inf
ROOT
ATOM      1  C   UNL     1     121.565 118.599 105.882  1.00  0.00     0.012 C 
ATOM      2  C   UNL     1     121.418 118.743 107.430  1.00  0.00    -0.025 C 
ATOM      3  C   UNL     1     122.538 119.569 108.086  1.00  0.00    -0.002 C 
ATOM      4  C   UNL     1     123.808 118.727 107.810  1.00  0.00     0.005 C 
ATOM      5  C   UNL     1     123.288 117.278 107.915  1.00  0.00     0.010 C 
ATOM      6  C   UNL     1     121.784 117.481 108.249  1.00  0.00    -0.001 C 
ATOM      7  C   UNL     1     121.752 117.971 109.732  1.00  0.00     0.121 C 
ATOM      8  C   UNL     1     122.248 119.430 109.603  1.00  0.00     0.036 C 
ATOM      9  C   UNL     1     120.940 116.230 107.968  1.00  0.00     0.015 C 
ATOM     10  C   UNL     1     119.990 119.323 107.664  1.00  0.00     0.012 C 
ENDROOT
BRANCH   7  11
ATOM     11  O   UNL     1     120.462 117.927 110.287  1.00  0.00    -0.393 OA
ATOM     12  H   UNL     1     120.133 118.864 110.322  1.00  0.00     0.210 HD
ENDBRANCH   7  11
TORSDOF 1
ENDMDL
MODEL 5
REMARK VINA RESULT:    -2.521      7.800      9.069
REMARK INTER + INTRA:          -2.595
REMARK INTER:                  -2.595
REMARK INTRA:                   0.000
REMARK UNBOUND:                 0.000
REMARK SMILES CC1(C)[C@@H]2CC[C@@]1(C)[C@H](O)C2
REMARK SMILES IDX 1 1 2 2 4 3 5 4 6 5 7 6 9 7 11 8 8 9 3 10 10 11
REMARK H PARENT 10 12
REMARK Flexibility Score: inf
ROOT
ATOM      1  C   UNL     1     113.361 121.610 105.883  1.00  0.00     0.012 C 
ATOM      2  C   UNL     1     113.234 121.434 107.429  1.00  0.00    -0.025 C 
ATOM      3  C   UNL     1     112.402 122.531 108.113  1.00  0.00    -0.002 C 
ATOM      4  C   UNL     1     113.226 123.816 107.851  1.00  0.00     0.005 C 
ATOM      5  C   UNL     1     114.681 123.312 107.934  1.00  0.00     0.010 C 
ATOM      6  C   UNL     1     114.499 121.799 108.242  1.00  0.00    -0.001 C 
ATOM      7  C   UNL     1     114.024 121.735 109.729  1.00  0.00     0.121 C 
ATOM      8  C   UNL     1     112.559 122.216 109.623  1.00  0.00     0.036 C 
ATOM      9  C   UNL     1     115.757 120.975 107.934  1.00  0.00     0.015 C 
ATOM     10  C   UNL     1     112.673 119.994 107.643  1.00  0.00     0.012 C 
ENDROOT
BRANCH   7  11
ATOM     11  O   UNL     1     114.088 120.436 110.261  1.00  0.00    -0.393 OA
ATOM     12  H   UNL     1     114.981 120.073 110.022  1.00  0.00     0.210 HD
ENDBRANCH   7  11
TORSDOF 1
ENDMDL
MODEL 6
REMARK VINA RESULT:    -2.521      7.798      9.190
REMARK INTER + INTRA:          -2.595
REMARK INTER:                  -2.595
REMARK INTRA:                   0.000
REMARK UNBOUND:                 0.000
REMARK SMILES CC1(C)[C@@H]2CC[C@@]1(C)[C@H](O)C2
REMARK SMILES IDX 1 1 2 2 4 3 5 4 6 5 7 6 9 7 11 8 8 9 3 10 10 11
REMARK H PARENT 10 12
REMARK Flexibility Score: inf
ROOT
ATOM      1  C   UNL     1     115.335 122.172 106.395  1.00  0.00     0.012 C 
ATOM      2  C   UNL     1     114.635 121.809 107.743  1.00  0.00    -0.025 C 
ATOM      3  C   UNL     1     114.050 120.387 107.776  1.00  0.00    -0.002 C 
ATOM      4  C   UNL     1     112.961 120.427 106.676  1.00  0.00     0.005 C 
ATOM      5  C   UNL     1     112.405 121.860 106.796  1.00  0.00     0.010 C 
ATOM      6  C   UNL     1     113.245 122.454 107.960  1.00  0.00    -0.001 C 
ATOM      7  C   UNL     1     112.706 121.762 109.254  1.00  0.00     0.121 C 
ATOM      8  C   UNL     1     113.296 120.338 109.130  1.00  0.00     0.036 C 
ATOM      9  C   UNL     1     113.214 123.988 107.993  1.00  0.00     0.015 C 
ATOM     10  C   UNL     1     115.697 122.077 108.853  1.00  0.00     0.012 C 
ENDROOT
BRANCH   7  11
ATOM     11  O   UNL     1     113.153 122.390 110.428  1.00  0.00    -0.393 OA
ATOM     12  H   UNL     1     112.347 122.586 110.973  1.00  0.00     0.210 HD
ENDBRANCH   7  11
TORSDOF 1
ENDMDL
MODEL 7
REMARK VINA RESULT:    -2.516      7.734      9.438
REMARK INTER + INTRA:          -2.590
REMARK INTER:                  -2.590
REMARK INTRA:                   0.000
REMARK UNBOUND:                 0.000
REMARK SMILES CC1(C)[C@@H]2CC[C@@]1(C)[C@H](O)C2
REMARK SMILES IDX 1 1 2 2 4 3 5 4 6 5 7 6 9 7 11 8 8 9 3 10 10 11
REMARK H PARENT 10 12
REMARK Flexibility Score: inf
ROOT
ATOM      1  C   UNL     1     118.578 110.193 105.890  1.00  0.00     0.012 C 
ATOM      2  C   UNL     1     118.725 110.443 107.425  1.00  0.00    -0.025 C 
ATOM      3  C   UNL     1     119.569 109.381 108.149  1.00  0.00    -0.002 C 
ATOM      4  C   UNL     1     118.744 108.084 107.960  1.00  0.00     0.005 C 
ATOM      5  C   UNL     1     117.289 108.589 108.038  1.00  0.00     0.010 C 
ATOM      6  C   UNL     1     117.472 110.115 108.271  1.00  0.00    -0.001 C 
ATOM      7  C   UNL     1     117.966 110.251 109.747  1.00  0.00     0.121 C 
ATOM      8  C   UNL     1     119.431 109.768 109.644  1.00  0.00     0.036 C 
ATOM      9  C   UNL     1     116.208 110.922 107.940  1.00  0.00     0.015 C 
ATOM     10  C   UNL     1     119.286 111.892 107.562  1.00  0.00     0.012 C 
ENDROOT
BRANCH   7  11
ATOM     11  O   UNL     1     117.906 111.574 110.216  1.00  0.00    -0.393 OA
ATOM     12  H   UNL     1     118.171 112.159 109.459  1.00  0.00     0.210 HD
ENDBRANCH   7  11
TORSDOF 1
ENDMDL
MODEL 8
REMARK VINA RESULT:    -2.463     11.176     12.362
REMARK INTER + INTRA:          -2.535
REMARK INTER:                  -2.535
REMARK INTRA:                   0.000
REMARK UNBOUND:                 0.000
REMARK SMILES CC1(C)[C@@H]2CC[C@@]1(C)[C@H](O)C2
REMARK SMILES IDX 1 1 2 2 4 3 5 4 6 5 7 6 9 7 11 8 8 9 3 10 10 11
REMARK H PARENT 10 12
REMARK Flexibility Score: inf
ROOT
ATOM      1  C   UNL     1     110.185 113.498 105.663  1.00  0.00     0.012 C 
ATOM      2  C   UNL     1     110.691 113.318 107.129  1.00  0.00    -0.025 C 
ATOM      3  C   UNL     1     109.673 112.635 108.058  1.00  0.00    -0.002 C 
ATOM      4  C   UNL     1     108.492 113.636 108.086  1.00  0.00     0.005 C 
ATOM      5  C   UNL     1     109.201 115.005 108.031  1.00  0.00     0.010 C 
ATOM      6  C   UNL     1     110.703 114.607 107.987  1.00  0.00    -0.001 C 
ATOM      7  C   UNL     1     111.038 114.099 109.426  1.00  0.00     0.121 C 
ATOM      8  C   UNL     1     110.345 112.718 109.453  1.00  0.00     0.036 C 
ATOM      9  C   UNL     1     111.603 115.742 107.480  1.00  0.00     0.015 C 
ATOM     10  C   UNL     1     112.047 112.557 107.015  1.00  0.00     0.012 C 
ENDROOT
BRANCH   7  11
ATOM     11  O   UNL     1     112.421 113.971 109.644  1.00  0.00    -0.393 OA
ATOM     12  H   UNL     1     112.871 114.277 108.814  1.00  0.00     0.210 HD
ENDBRANCH   7  11
TORSDOF 1
ENDMDL
MODEL 9
REMARK VINA RESULT:    -2.346      7.674      9.237
REMARK INTER + INTRA:          -2.415
REMARK INTER:                  -2.415
REMARK INTRA:                   0.000
REMARK UNBOUND:                 0.000
REMARK SMILES CC1(C)[C@@H]2CC[C@@]1(C)[C@H](O)C2
REMARK SMILES IDX 1 1 2 2 4 3 5 4 6 5 7 6 9 7 11 8 8 9 3 10 10 11
REMARK H PARENT 10 12
REMARK Flexibility Score: inf
ROOT
ATOM      1  C   UNL     1     112.046 123.373 107.476  1.00  0.00     0.012 C 
ATOM      2  C   UNL     1     113.172 122.480 108.088  1.00  0.00    -0.025 C 
ATOM      3  C   UNL     1     114.555 123.152 108.110  1.00  0.00    -0.002 C 
ATOM      4  C   UNL     1     114.876 123.351 106.608  1.00  0.00     0.005 C 
ATOM      5  C   UNL     1     114.261 122.096 105.957  1.00  0.00     0.010 C 
ATOM      6  C   UNL     1     113.674 121.334 107.177  1.00  0.00    -0.001 C 
ATOM      7  C   UNL     1     114.911 120.759 107.940  1.00  0.00     0.121 C 
ATOM      8  C   UNL     1     115.496 122.025 108.608  1.00  0.00     0.036 C 
ATOM      9  C   UNL     1     112.625 120.287 106.774  1.00  0.00     0.015 C 
ATOM     10  C   UNL     1     112.654 122.060 109.498  1.00  0.00     0.012 C 
ENDROOT
BRANCH   7  11
ATOM     11  O   UNL     1     114.553 119.803 108.905  1.00  0.00    -0.393 OA
ATOM     12  H   UNL     1     113.740 120.145 109.360  1.00  0.00     0.210 HD
ENDBRANCH   7  11
TORSDOF 1
ENDMDL
