MODEL 1
REMARK VINA RESULT:    -0.946      0.000      0.000
REMARK INTER + INTRA:          -2.904
REMARK INTER:                  -1.443
REMARK INTRA:                  -1.461
REMARK UNBOUND:                -1.461
REMARK SMILES CCCCCCCCCCC(=O)[O-]
REMARK SMILES IDX 7 1 8 2 9 3 10 4 11 5 12 6 13 7 6 8 5 9 4 10 3 11 2 12 1 13
REMARK H PARENT
REMARK Flexibility Score: inf
ROOT
ATOM      1  C   UNL     1     -15.517 -25.567  83.131  1.00  0.00     0.000 C 
ENDROOT
BRANCH   1   2
ATOM      2  C   UNL     1     -16.721 -24.608  83.047  1.00  0.00     0.000 C 
BRANCH   2   3
ATOM      3  C   UNL     1     -16.660 -23.578  81.900  1.00  0.00     0.006 C 
BRANCH   3   4
ATOM      4  C   UNL     1     -17.041 -22.147  82.312  1.00  0.00     0.053 C 
BRANCH   4   5
ATOM      5  C   UNL     1     -18.416 -22.082  82.900  1.00  0.00     0.041 C 
ATOM      6  O   UNL     1     -19.420 -22.379  82.200  1.00  0.00    -0.550 OA
ATOM      7  O   UNL     1     -18.592 -21.660  84.212  1.00  0.00    -0.550 OA
ENDBRANCH   4   5
ENDBRANCH   3   4
ENDBRANCH   2   3
ENDBRANCH   1   2
BRANCH   1   8
ATOM      8  C   UNL     1     -14.224 -25.048  82.475  1.00  0.00     0.000 C 
BRANCH   8   9
ATOM      9  C   UNL     1     -13.280 -24.367  83.475  1.00  0.00    -0.000 C 
BRANCH   9  10
ATOM     10  C   UNL     1     -13.095 -22.883  83.134  1.00  0.00    -0.000 C 
BRANCH  10  11
ATOM     11  C   UNL     1     -13.744 -21.989  84.201  1.00  0.00    -0.000 C 
BRANCH  11  12
ATOM     12  C   UNL     1     -14.145 -22.771  85.461  1.00  0.00    -0.003 C 
ATOM     13  C   UNL     1     -15.581 -22.484  85.903  1.00  0.00     0.004 C 
ENDBRANCH  11  12
ENDBRANCH  10  11
ENDBRANCH   9  10
ENDBRANCH   8   9
ENDBRANCH   1   8
TORSDOF 9
ENDMDL
MODEL 2
REMARK VINA RESULT:    -0.863      1.694      3.739
REMARK INTER + INTRA:          -2.779
REMARK INTER:                  -1.421
REMARK INTRA:                  -1.358
REMARK UNBOUND:                -1.461
REMARK SMILES CCCCCCCCCCC(=O)[O-]
REMARK SMILES IDX 7 1 8 2 9 3 10 4 11 5 12 6 13 7 6 8 5 9 4 10 3 11 2 12 1 13
REMARK H PARENT
REMARK Flexibility Score: inf
ROOT
ATOM      1  C   UNL     1     -13.163 -23.164  83.739  1.00  0.00     0.000 C 
ENDROOT
BRANCH   1   2
ATOM      2  C   UNL     1     -13.691 -22.034  84.646  1.00  0.00     0.000 C 
BRANCH   2   3
ATOM      3  C   UNL     1     -14.885 -22.418  85.543  1.00  0.00     0.006 C 
BRANCH   3   4
ATOM      4  C   UNL     1     -15.625 -23.691  85.103  1.00  0.00     0.053 C 
BRANCH   4   5
ATOM      5  C   UNL     1     -17.111 -23.532  85.190  1.00  0.00     0.041 C 
ATOM      6  O   UNL     1     -17.621 -22.388  85.324  1.00  0.00    -0.550 OA
ATOM      7  O   UNL     1     -17.933 -24.652  85.156  1.00  0.00    -0.550 OA
ENDBRANCH   4   5
ENDBRANCH   3   4
ENDBRANCH   2   3
ENDBRANCH   1   2
BRANCH   1   8
ATOM      8  C   UNL     1     -13.188 -22.854  82.231  1.00  0.00     0.000 C 
BRANCH   8   9
ATOM      9  C   UNL     1     -14.016 -21.607  81.891  1.00  0.00    -0.000 C 
BRANCH   9  10
ATOM     10  C   UNL     1     -15.200 -21.964  80.985  1.00  0.00    -0.000 C 
BRANCH  10  11
ATOM     11  C   UNL     1     -16.507 -22.030  81.788  1.00  0.00    -0.000 C 
BRANCH  11  12
ATOM     12  C   UNL     1     -17.297 -23.322  81.526  1.00  0.00    -0.003 C 
ATOM     13  C   UNL     1     -16.421 -24.573  81.587  1.00  0.00     0.004 C 
ENDBRANCH  11  12
ENDBRANCH  10  11
ENDBRANCH   9  10
ENDBRANCH   8   9
ENDBRANCH   1   8
TORSDOF 9
ENDMDL
MODEL 3
REMARK VINA RESULT:    -0.856      3.133      3.989
REMARK INTER + INTRA:          -2.768
REMARK INTER:                  -1.541
REMARK INTRA:                  -1.228
REMARK UNBOUND:                -1.461
REMARK SMILES CCCCCCCCCCC(=O)[O-]
REMARK SMILES IDX 7 1 8 2 9 3 10 4 11 5 12 6 13 7 6 8 5 9 4 10 3 11 2 12 1 13
REMARK H PARENT
REMARK Flexibility Score: inf
ROOT
ATOM      1  C   UNL     1     -16.362 -23.804  82.547  1.00  0.00     0.000 C 
ENDROOT
BRANCH   1   2
ATOM      2  C   UNL     1     -15.493 -23.064  81.512  1.00  0.00     0.000 C 
BRANCH   2   3
ATOM      3  C   UNL     1     -15.640 -21.528  81.511  1.00  0.00     0.006 C 
BRANCH   3   4
ATOM      4  C   UNL     1     -14.310 -20.764  81.419  1.00  0.00     0.053 C 
BRANCH   4   5
ATOM      5  C   UNL     1     -14.207 -19.971  80.154  1.00  0.00     0.041 C 
ATOM      6  O   UNL     1     -13.300 -20.225  79.317  1.00  0.00    -0.550 OA
ATOM      7  O   UNL     1     -15.092 -18.927  79.914  1.00  0.00    -0.550 OA
ENDBRANCH   4   5
ENDBRANCH   3   4
ENDBRANCH   2   3
ENDBRANCH   1   2
BRANCH   1   8
ATOM      8  C   UNL     1     -17.446 -22.945  83.222  1.00  0.00     0.000 C 
BRANCH   8   9
ATOM      9  C   UNL     1     -17.191 -22.731  84.721  1.00  0.00    -0.000 C 
BRANCH   9  10
ATOM     10  C   UNL     1     -15.932 -23.479  85.177  1.00  0.00    -0.000 C 
BRANCH  10  11
ATOM     11  C   UNL     1     -14.905 -22.510  85.779  1.00  0.00    -0.000 C 
BRANCH  11  12
ATOM     12  C   UNL     1     -13.803 -22.122  84.782  1.00  0.00    -0.003 C 
ATOM     13  C   UNL     1     -13.014 -23.329  84.274  1.00  0.00     0.004 C 
ENDBRANCH  11  12
ENDBRANCH  10  11
ENDBRANCH   9  10
ENDBRANCH   8   9
ENDBRANCH   1   8
TORSDOF 9
ENDMDL
MODEL 4
REMARK VINA RESULT:    -0.814      2.435      4.429
REMARK INTER + INTRA:          -2.703
REMARK INTER:                  -1.529
REMARK INTRA:                  -1.174
REMARK UNBOUND:                -1.461
REMARK SMILES CCCCCCCCCCC(=O)[O-]
REMARK SMILES IDX 7 1 8 2 9 3 10 4 11 5 12 6 13 7 6 8 5 9 4 10 3 11 2 12 1 13
REMARK H PARENT
REMARK Flexibility Score: inf
ROOT
ATOM      1  C   UNL     1     -13.882 -21.398  81.011  1.00  0.00     0.000 C 
ENDROOT
BRANCH   1   2
ATOM      2  C   UNL     1     -12.875 -21.347  82.177  1.00  0.00     0.000 C 
BRANCH   2   3
ATOM      3  C   UNL     1     -13.500 -21.413  83.586  1.00  0.00     0.006 C 
BRANCH   3   4
ATOM      4  C   UNL     1     -12.957 -22.549  84.467  1.00  0.00     0.053 C 
BRANCH   4   5
ATOM      5  C   UNL     1     -13.945 -22.967  85.511  1.00  0.00     0.041 C 
ATOM      6  O   UNL     1     -13.796 -24.057  86.125  1.00  0.00    -0.550 OA
ATOM      7  O   UNL     1     -15.049 -22.169  85.783  1.00  0.00    -0.550 OA
ENDBRANCH   4   5
ENDBRANCH   3   4
ENDBRANCH   2   3
ENDBRANCH   1   2
BRANCH   1   8
ATOM      8  C   UNL     1     -13.966 -22.751  80.281  1.00  0.00     0.000 C 
BRANCH   8   9
ATOM      9  C   UNL     1     -15.215 -23.558  80.661  1.00  0.00    -0.000 C 
BRANCH   9  10
ATOM     10  C   UNL     1     -16.273 -22.659  81.312  1.00  0.00    -0.000 C 
BRANCH  10  11
ATOM     11  C   UNL     1     -16.596 -23.133  82.736  1.00  0.00    -0.000 C 
BRANCH  11  12
ATOM     12  C   UNL     1     -16.249 -24.613  82.959  1.00  0.00    -0.003 C 
ATOM     13  C   UNL     1     -16.746 -25.141  84.305  1.00  0.00     0.004 C 
ENDBRANCH  11  12
ENDBRANCH  10  11
ENDBRANCH   9  10
ENDBRANCH   8   9
ENDBRANCH   1   8
TORSDOF 9
ENDMDL
MODEL 5
REMARK VINA RESULT:    -0.789      1.830      2.853
REMARK INTER + INTRA:          -2.666
REMARK INTER:                  -1.334
REMARK INTRA:                  -1.332
REMARK UNBOUND:                -1.461
REMARK SMILES CCCCCCCCCCC(=O)[O-]
REMARK SMILES IDX 7 1 8 2 9 3 10 4 11 5 12 6 13 7 6 8 5 9 4 10 3 11 2 12 1 13
REMARK H PARENT
REMARK Flexibility Score: inf
ROOT
ATOM      1  C   UNL     1     -15.332 -21.376  81.258  1.00  0.00     0.000 C 
ENDROOT
BRANCH   1   2
ATOM      2  C   UNL     1     -16.688 -22.104  81.344  1.00  0.00     0.000 C 
BRANCH   2   3
ATOM      3  C   UNL     1     -17.220 -22.333  82.774  1.00  0.00     0.006 C 
BRANCH   3   4
ATOM      4  C   UNL     1     -17.124 -23.788  83.260  1.00  0.00     0.053 C 
BRANCH   4   5
ATOM      5  C   UNL     1     -17.358 -23.901  84.735  1.00  0.00     0.041 C 
ATOM      6  O   UNL     1     -16.714 -24.742  85.417  1.00  0.00    -0.550 OA
ATOM      7  O   UNL     1     -18.313 -23.102  85.350  1.00  0.00    -0.550 OA
ENDBRANCH   4   5
ENDBRANCH   3   4
ENDBRANCH   2   3
ENDBRANCH   1   2
BRANCH   1   8
ATOM      8  C   UNL     1     -14.192 -22.194  80.623  1.00  0.00     0.000 C 
BRANCH   8   9
ATOM      9  C   UNL     1     -13.946 -23.530  81.339  1.00  0.00    -0.000 C 
BRANCH   9  10
ATOM     10  C   UNL     1     -12.880 -23.379  82.432  1.00  0.00    -0.000 C 
BRANCH  10  11
ATOM     11  C   UNL     1     -13.497 -23.549  83.828  1.00  0.00    -0.000 C 
BRANCH  11  12
ATOM     12  C   UNL     1     -13.806 -22.204  84.504  1.00  0.00    -0.003 C 
ATOM     13  C   UNL     1     -12.884 -21.079  84.033  1.00  0.00     0.004 C 
ENDBRANCH  11  12
ENDBRANCH  10  11
ENDBRANCH   9  10
ENDBRANCH   8   9
ENDBRANCH   1   8
TORSDOF 9
ENDMDL
MODEL 6
REMARK VINA RESULT:    -0.774      2.656      3.352
REMARK INTER + INTRA:          -2.643
REMARK INTER:                  -1.318
REMARK INTRA:                  -1.324
REMARK UNBOUND:                -1.461
REMARK SMILES CCCCCCCCCCC(=O)[O-]
REMARK SMILES IDX 7 1 8 2 9 3 10 4 11 5 12 6 13 7 6 8 5 9 4 10 3 11 2 12 1 13
REMARK H PARENT
REMARK Flexibility Score: inf
ROOT
ATOM      1  C   UNL     1     -17.015 -24.493  83.381  1.00  0.00     0.000 C 
ENDROOT
BRANCH   1   2
ATOM      2  C   UNL     1     -16.571 -23.220  82.633  1.00  0.00     0.000 C 
BRANCH   2   3
ATOM      3  C   UNL     1     -15.103 -23.218  82.156  1.00  0.00     0.006 C 
BRANCH   3   4
ATOM      4  C   UNL     1     -14.434 -21.835  82.173  1.00  0.00     0.053 C 
BRANCH   4   5
ATOM      5  C   UNL     1     -14.596 -21.119  80.868  1.00  0.00     0.041 C 
ATOM      6  O   UNL     1     -14.449 -19.870  80.807  1.00  0.00    -0.550 OA
ATOM      7  O   UNL     1     -14.944 -21.828  79.725  1.00  0.00    -0.550 OA
ENDBRANCH   4   5
ENDBRANCH   3   4
ENDBRANCH   2   3
ENDBRANCH   1   2
BRANCH   1   8
ATOM      8  C   UNL     1     -15.924 -25.568  83.542  1.00  0.00     0.000 C 
BRANCH   8   9
ATOM      9  C   UNL     1     -15.905 -26.194  84.943  1.00  0.00    -0.000 C 
BRANCH   9  10
ATOM     10  C   UNL     1     -15.167 -25.291  85.939  1.00  0.00    -0.000 C 
BRANCH  10  11
ATOM     11  C   UNL     1     -13.842 -24.789  85.348  1.00  0.00    -0.000 C 
BRANCH  11  12
ATOM     12  C   UNL     1     -13.603 -23.296  85.620  1.00  0.00    -0.003 C 
ATOM     13  C   UNL     1     -14.900 -22.522  85.860  1.00  0.00     0.004 C 
ENDBRANCH  11  12
ENDBRANCH  10  11
ENDBRANCH   9  10
ENDBRANCH   8   9
ENDBRANCH   1   8
TORSDOF 9
ENDMDL
MODEL 7
REMARK VINA RESULT:    -0.769      7.811      9.423
REMARK INTER + INTRA:          -2.635
REMARK INTER:                  -1.498
REMARK INTRA:                  -1.136
REMARK UNBOUND:                -1.461
REMARK SMILES CCCCCCCCCCC(=O)[O-]
REMARK SMILES IDX 7 1 8 2 9 3 10 4 11 5 12 6 13 7 6 8 5 9 4 10 3 11 2 12 1 13
REMARK H PARENT
REMARK Flexibility Score: inf
ROOT
ATOM      1  C   UNL     1     -16.362 -12.228  83.495  1.00  0.00     0.000 C 
ENDROOT
BRANCH   1   2
ATOM      2  C   UNL     1     -17.029 -13.479  82.891  1.00  0.00     0.000 C 
BRANCH   2   3
ATOM      3  C   UNL     1     -17.033 -14.724  83.802  1.00  0.00     0.006 C 
BRANCH   3   4
ATOM      4  C   UNL     1     -18.215 -15.678  83.566  1.00  0.00     0.053 C 
BRANCH   4   5
ATOM      5  C   UNL     1     -18.557 -16.460  84.796  1.00  0.00     0.041 C 
ATOM      6  O   UNL     1     -18.381 -15.956  85.938  1.00  0.00    -0.550 OA
ATOM      7  O   UNL     1     -19.039 -17.758  84.683  1.00  0.00    -0.550 OA
ENDBRANCH   4   5
ENDBRANCH   3   4
ENDBRANCH   2   3
ENDBRANCH   1   2
BRANCH   1   8
ATOM      8  C   UNL     1     -15.643 -12.457  84.837  1.00  0.00     0.000 C 
BRANCH   8   9
ATOM      9  C   UNL     1     -14.115 -12.480  84.700  1.00  0.00    -0.000 C 
BRANCH   9  10
ATOM     10  C   UNL     1     -13.540 -13.822  85.170  1.00  0.00    -0.000 C 
BRANCH  10  11
ATOM     11  C   UNL     1     -13.330 -14.775  83.984  1.00  0.00    -0.000 C 
BRANCH  11  12
ATOM     12  C   UNL     1     -13.088 -14.028  82.663  1.00  0.00    -0.003 C 
ATOM     13  C   UNL     1     -13.808 -14.673  81.479  1.00  0.00     0.004 C 
ENDBRANCH  11  12
ENDBRANCH  10  11
ENDBRANCH   9  10
ENDBRANCH   8   9
ENDBRANCH   1   8
TORSDOF 9
ENDMDL
MODEL 8
REMARK VINA RESULT:    -0.759      8.145      9.454
REMARK INTER + INTRA:          -2.619
REMARK INTER:                  -1.286
REMARK INTRA:                  -1.333
REMARK UNBOUND:                -1.461
REMARK SMILES CCCCCCCCCCC(=O)[O-]
REMARK SMILES IDX 7 1 8 2 9 3 10 4 11 5 12 6 13 7 6 8 5 9 4 10 3 11 2 12 1 13
REMARK H PARENT
REMARK Flexibility Score: inf
ROOT
ATOM      1  C   UNL     1     -16.495 -13.388  81.388  1.00  0.00     0.000 C 
ENDROOT
BRANCH   1   2
ATOM      2  C   UNL     1     -16.812 -12.595  82.671  1.00  0.00     0.000 C 
BRANCH   2   3
ATOM      3  C   UNL     1     -17.446 -13.419  83.811  1.00  0.00     0.006 C 
BRANCH   3   4
ATOM      4  C   UNL     1     -17.388 -14.940  83.601  1.00  0.00     0.053 C 
BRANCH   4   5
ATOM      5  C   UNL     1     -18.099 -15.682  84.689  1.00  0.00     0.041 C 
ATOM      6  O   UNL     1     -18.132 -15.216  85.859  1.00  0.00    -0.550 OA
ATOM      7  O   UNL     1     -18.698 -16.907  84.419  1.00  0.00    -0.550 OA
ENDBRANCH   4   5
ENDBRANCH   3   4
ENDBRANCH   2   3
ENDBRANCH   1   2
BRANCH   1   8
ATOM      8  C   UNL     1     -15.008 -13.420  80.992  1.00  0.00     0.000 C 
BRANCH   8   9
ATOM      9  C   UNL     1     -14.244 -14.587  81.634  1.00  0.00    -0.000 C 
BRANCH   9  10
ATOM     10  C   UNL     1     -13.273 -14.084  82.709  1.00  0.00    -0.000 C 
BRANCH  10  11
ATOM     11  C   UNL     1     -13.671 -14.605  84.097  1.00  0.00    -0.000 C 
BRANCH  11  12
ATOM     12  C   UNL     1     -13.972 -13.471  85.089  1.00  0.00    -0.003 C 
ATOM     13  C   UNL     1     -13.614 -12.091  84.537  1.00  0.00     0.004 C 
ENDBRANCH  11  12
ENDBRANCH  10  11
ENDBRANCH   9  10
ENDBRANCH   8   9
ENDBRANCH   1   8
TORSDOF 9
ENDMDL
MODEL 9
REMARK VINA RESULT:     0.588      1.732      2.872
REMARK INTER + INTRA:          -0.563
REMARK INTER:                   0.887
REMARK INTRA:                  -1.450
REMARK UNBOUND:                -1.461
REMARK SMILES CCCCCCCCCCC(=O)[O-]
REMARK SMILES IDX 7 1 8 2 9 3 10 4 11 5 12 6 13 7 6 8 5 9 4 10 3 11 2 12 1 13
REMARK H PARENT
REMARK Flexibility Score: inf
ROOT
ATOM      1  C   UNL     1     -14.812 -21.555  81.550  1.00  0.00     0.000 C 
ENDROOT
BRANCH   1   2
ATOM      2  C   UNL     1     -15.383 -22.926  81.136  1.00  0.00     0.000 C 
BRANCH   2   3
ATOM      3  C   UNL     1     -16.481 -23.486  82.064  1.00  0.00     0.006 C 
BRANCH   3   4
ATOM      4  C   UNL     1     -16.927 -22.519  83.173  1.00  0.00     0.053 C 
BRANCH   4   5
ATOM      5  C   UNL     1     -17.091 -23.214  84.488  1.00  0.00     0.041 C 
ATOM      6  O   UNL     1     -17.239 -24.464  84.532  1.00  0.00    -0.550 OA
ATOM      7  O   UNL     1     -17.114 -22.477  85.666  1.00  0.00    -0.550 OA
ENDBRANCH   4   5
ENDBRANCH   3   4
ENDBRANCH   2   3
ENDBRANCH   1   2
BRANCH   1   8
ATOM      8  C   UNL     1     -13.367 -21.585  82.083  1.00  0.00     0.000 C 
BRANCH   8   9
ATOM      9  C   UNL     1     -13.247 -21.038  83.512  1.00  0.00    -0.000 C 
BRANCH   9  10
ATOM     10  C   UNL     1     -13.504 -22.141  84.546  1.00  0.00    -0.000 C 
BRANCH  10  11
ATOM     11  C   UNL     1     -12.875 -23.469  84.101  1.00  0.00    -0.000 C 
BRANCH  11  12
ATOM     12  C   UNL     1     -13.690 -24.689  84.556  1.00  0.00    -0.003 C 
ATOM     13  C   UNL     1     -13.861 -25.732  83.452  1.00  0.00     0.004 C 
ENDBRANCH  11  12
ENDBRANCH  10  11
ENDBRANCH   9  10
ENDBRANCH   8   9
ENDBRANCH   1   8
TORSDOF 9
ENDMDL
