MODEL 1
REMARK VINA RESULT:    -3.409      0.000      0.000
REMARK INTER + INTRA:          -4.314
REMARK INTER:                  -4.107
REMARK INTRA:                  -0.207
REMARK UNBOUND:                -0.207
REMARK SMILES OCC(O)CO
REMARK SMILES IDX 3 1 5 2 6 3 2 5 1 6 4 8
REMARK H PARENT 6 4 1 7 4 9
REMARK Flexibility Score: inf
ROOT
ATOM      1  C   UNL     1      36.287  -5.093  23.745  1.00  0.00     0.165 C 
ENDROOT
BRANCH   1   2
ATOM      2  C   UNL     1      34.914  -4.518  23.362  1.00  0.00     0.190 C 
BRANCH   2   3
ATOM      3  O   UNL     1      34.564  -4.908  22.061  1.00  0.00    -0.394 OA
ATOM      4  H   UNL     1      34.378  -5.883  22.095  1.00  0.00     0.210 HD
ENDBRANCH   2   3
ENDBRANCH   1   2
BRANCH   1   5
ATOM      5  C   UNL     1      36.138  -6.428  24.495  1.00  0.00     0.190 C 
BRANCH   5   6
ATOM      6  O   UNL     1      34.824  -6.905  24.388  1.00  0.00    -0.394 OA
ATOM      7  H   UNL     1      34.333  -6.575  25.185  1.00  0.00     0.210 HD
ENDBRANCH   5   6
ENDBRANCH   1   5
BRANCH   1   8
ATOM      8  O   UNL     1      37.019  -4.170  24.511  1.00  0.00    -0.388 OA
ATOM      9  H   UNL     1      36.525  -3.307  24.494  1.00  0.00     0.211 HD
ENDBRANCH   1   8
TORSDOF 5
ENDMDL
MODEL 2
REMARK VINA RESULT:    -2.884     16.854     18.174
REMARK INTER + INTRA:          -3.681
REMARK INTER:                  -3.474
REMARK INTRA:                  -0.207
REMARK UNBOUND:                -0.207
REMARK SMILES OCC(O)CO
REMARK SMILES IDX 3 1 5 2 6 3 2 5 1 6 4 8
REMARK H PARENT 6 4 1 7 4 9
REMARK Flexibility Score: inf
ROOT
ATOM      1  C   UNL     1      30.197 -22.988  21.823  1.00  0.00     0.165 C 
ENDROOT
BRANCH   1   2
ATOM      2  C   UNL     1      31.218 -23.092  20.679  1.00  0.00     0.190 C 
BRANCH   2   3
ATOM      3  O   UNL     1      32.517 -22.874  21.160  1.00  0.00    -0.394 OA
ATOM      4  H   UNL     1      32.614 -21.894  21.289  1.00  0.00     0.210 HD
ENDBRANCH   2   3
ENDBRANCH   1   2
BRANCH   1   5
ATOM      5  C   UNL     1      30.379 -21.680  22.611  1.00  0.00     0.190 C 
BRANCH   5   6
ATOM      6  O   UNL     1      30.912 -20.681  21.784  1.00  0.00    -0.394 OA
ATOM      7  H   UNL     1      30.147 -20.261  21.313  1.00  0.00     0.210 HD
ENDBRANCH   5   6
ENDBRANCH   1   5
BRANCH   1   8
ATOM      8  O   UNL     1      30.288 -24.101  22.677  1.00  0.00    -0.388 OA
ATOM      9  H   UNL     1      31.153 -24.036  23.162  1.00  0.00     0.211 HD
ENDBRANCH   1   8
TORSDOF 5
ENDMDL
MODEL 3
REMARK VINA RESULT:    -2.827      1.351      3.134
REMARK INTER + INTRA:          -3.613
REMARK INTER:                  -3.610
REMARK INTRA:                  -0.003
REMARK UNBOUND:                -0.207
REMARK SMILES OCC(O)CO
REMARK SMILES IDX 3 1 5 2 6 3 2 5 1 6 4 8
REMARK H PARENT 6 4 1 7 4 9
REMARK Flexibility Score: inf
ROOT
ATOM      1  C   UNL     1      35.754  -6.122  23.684  1.00  0.00     0.165 C 
ENDROOT
BRANCH   1   2
ATOM      2  C   UNL     1      37.091  -6.077  24.441  1.00  0.00     0.190 C 
BRANCH   2   3
ATOM      3  O   UNL     1      37.029  -6.875  25.593  1.00  0.00    -0.394 OA
ATOM      4  H   UNL     1      37.261  -7.799  25.313  1.00  0.00     0.210 HD
ENDBRANCH   2   3
ENDBRANCH   1   2
BRANCH   1   5
ATOM      5  C   UNL     1      35.264  -4.705  23.340  1.00  0.00     0.190 C 
BRANCH   5   6
ATOM      6  O   UNL     1      34.475  -4.729  22.180  1.00  0.00    -0.394 OA
ATOM      7  H   UNL     1      35.062  -5.037  21.441  1.00  0.00     0.210 HD
ENDBRANCH   5   6
ENDBRANCH   1   5
BRANCH   1   8
ATOM      8  O   UNL     1      34.783  -6.818  24.425  1.00  0.00    -0.388 OA
ATOM      9  H   UNL     1      34.872  -6.536  25.374  1.00  0.00     0.211 HD
ENDBRANCH   1   8
TORSDOF 5
ENDMDL
MODEL 4
REMARK VINA RESULT:    -2.786     17.078     18.158
REMARK INTER + INTRA:          -3.563
REMARK INTER:                  -3.362
REMARK INTRA:                  -0.201
REMARK UNBOUND:                -0.207
REMARK SMILES OCC(O)CO
REMARK SMILES IDX 3 1 5 2 6 3 2 5 1 6 4 8
REMARK H PARENT 6 4 1 7 4 9
REMARK Flexibility Score: inf
ROOT
ATOM      1  C   UNL     1      30.374 -22.039  21.410  1.00  0.00     0.165 C 
ENDROOT
BRANCH   1   2
ATOM      2  C   UNL     1      29.810 -22.759  22.645  1.00  0.00     0.190 C 
BRANCH   2   3
ATOM      3  O   UNL     1      30.249 -24.091  22.680  1.00  0.00    -0.394 OA
ATOM      4  H   UNL     1      30.910 -24.155  23.419  1.00  0.00     0.210 HD
ENDBRANCH   2   3
ENDBRANCH   1   2
BRANCH   1   5
ATOM      5  C   UNL     1      31.306 -22.963  20.608  1.00  0.00     0.190 C 
BRANCH   5   6
ATOM      6  O   UNL     1      32.619 -22.873  21.093  1.00  0.00    -0.394 OA
ATOM      7  H   UNL     1      32.850 -21.908  21.117  1.00  0.00     0.210 HD
ENDBRANCH   5   6
ENDBRANCH   1   5
BRANCH   1   8
ATOM      8  O   UNL     1      31.042 -20.859  21.782  1.00  0.00    -0.388 OA
ATOM      9  H   UNL     1      31.983 -21.101  21.993  1.00  0.00     0.211 HD
ENDBRANCH   1   8
TORSDOF 5
ENDMDL
MODEL 5
REMARK VINA RESULT:    -2.752      1.255      2.351
REMARK INTER + INTRA:          -3.521
REMARK INTER:                  -3.519
REMARK INTRA:                  -0.002
REMARK UNBOUND:                -0.207
REMARK SMILES OCC(O)CO
REMARK SMILES IDX 3 1 5 2 6 3 2 5 1 6 4 8
REMARK H PARENT 6 4 1 7 4 9
REMARK Flexibility Score: inf
ROOT
ATOM      1  C   UNL     1      34.912  -5.008  23.210  1.00  0.00     0.165 C 
ENDROOT
BRANCH   1   2
ATOM      2  C   UNL     1      35.194  -5.419  21.756  1.00  0.00     0.190 C 
BRANCH   2   3
ATOM      3  O   UNL     1      34.155  -4.993  20.915  1.00  0.00    -0.394 OA
ATOM      4  H   UNL     1      33.862  -5.787  20.396  1.00  0.00     0.210 HD
ENDBRANCH   2   3
ENDBRANCH   1   2
BRANCH   1   5
ATOM      5  C   UNL     1      35.851  -3.875  23.657  1.00  0.00     0.190 C 
BRANCH   5   6
ATOM      6  O   UNL     1      36.933  -4.395  24.382  1.00  0.00    -0.394 OA
ATOM      7  H   UNL     1      36.984  -3.879  25.229  1.00  0.00     0.210 HD
ENDBRANCH   5   6
ENDBRANCH   1   5
BRANCH   1   8
ATOM      8  O   UNL     1      35.020  -6.113  24.071  1.00  0.00    -0.388 OA
ATOM      9  H   UNL     1      34.452  -5.930  24.867  1.00  0.00     0.211 HD
ENDBRANCH   1   8
TORSDOF 5
ENDMDL
MODEL 6
REMARK VINA RESULT:    -2.741      2.240      3.069
REMARK INTER + INTRA:          -3.508
REMARK INTER:                  -3.287
REMARK INTRA:                  -0.221
REMARK UNBOUND:                -0.207
REMARK SMILES OCC(O)CO
REMARK SMILES IDX 3 1 5 2 6 3 2 5 1 6 4 8
REMARK H PARENT 6 4 1 7 4 9
REMARK Flexibility Score: inf
ROOT
ATOM      1  C   UNL     1      36.334  -7.887  25.646  1.00  0.00     0.165 C 
ENDROOT
BRANCH   1   2
ATOM      2  C   UNL     1      36.861  -6.783  24.715  1.00  0.00     0.190 C 
BRANCH   2   3
ATOM      3  O   UNL     1      35.999  -5.677  24.729  1.00  0.00    -0.394 OA
ATOM      4  H   UNL     1      36.366  -5.036  25.393  1.00  0.00     0.210 HD
ENDBRANCH   2   3
ENDBRANCH   1   2
BRANCH   1   5
ATOM      5  C   UNL     1      35.267  -8.743  24.943  1.00  0.00     0.190 C 
BRANCH   5   6
ATOM      6  O   UNL     1      34.237  -7.930  24.449  1.00  0.00    -0.394 OA
ATOM      7  H   UNL     1      33.525  -7.919  25.141  1.00  0.00     0.210 HD
ENDBRANCH   5   6
ENDBRANCH   1   5
BRANCH   1   8
ATOM      8  O   UNL     1      35.827  -7.336  26.836  1.00  0.00    -0.388 OA
ATOM      9  H   UNL     1      36.434  -6.597  27.108  1.00  0.00     0.211 HD
ENDBRANCH   1   8
TORSDOF 5
ENDMDL
MODEL 7
REMARK VINA RESULT:    -2.711     15.288     16.254
REMARK INTER + INTRA:          -3.472
REMARK INTER:                  -3.251
REMARK INTRA:                  -0.222
REMARK UNBOUND:                -0.207
REMARK SMILES OCC(O)CO
REMARK SMILES IDX 3 1 5 2 6 3 2 5 1 6 4 8
REMARK H PARENT 6 4 1 7 4 9
REMARK Flexibility Score: inf
ROOT
ATOM      1  C   UNL     1      36.279 -12.179  37.491  1.00  0.00     0.165 C 
ENDROOT
BRANCH   1   2
ATOM      2  C   UNL     1      36.776 -12.406  38.928  1.00  0.00     0.190 C 
BRANCH   2   3
ATOM      3  O   UNL     1      36.391 -13.675  39.385  1.00  0.00    -0.394 OA
ATOM      4  H   UNL     1      36.278 -13.602  40.369  1.00  0.00     0.210 HD
ENDBRANCH   2   3
ENDBRANCH   1   2
BRANCH   1   5
ATOM      5  C   UNL     1      34.839 -11.640  37.481  1.00  0.00     0.190 C 
BRANCH   5   6
ATOM      6  O   UNL     1      34.034 -12.380  38.359  1.00  0.00    -0.394 OA
ATOM      7  H   UNL     1      34.218 -13.339  38.177  1.00  0.00     0.210 HD
ENDBRANCH   5   6
ENDBRANCH   1   5
BRANCH   1   8
ATOM      8  O   UNL     1      36.374 -13.362  36.738  1.00  0.00    -0.388 OA
ATOM      9  H   UNL     1      35.560 -13.422  36.170  1.00  0.00     0.211 HD
ENDBRANCH   1   8
TORSDOF 5
ENDMDL
