MODEL 1
REMARK VINA RESULT:    -5.588      0.000      0.000
REMARK INTER + INTRA:          -5.751
REMARK INTER:                  -5.751
REMARK INTRA:                   0.000
REMARK UNBOUND:                 0.000
REMARK SMILES Oc1ccc2[nH]ccc2c1
REMARK SMILES IDX 3 1 4 2 5 3 9 4 8 5 7 6 6 7 10 8 2 9 1 11
REMARK H PARENT 6 10 1 12
REMARK Flexibility Score: inf
ROOT
ATOM      1  C   UNL     1      15.325   8.883  49.545  1.00  0.00     0.048 A 
ATOM      2  C   UNL     1      16.262   9.493  48.691  1.00  0.00     0.030 A 
ATOM      3  C   UNL     1      16.728   8.756  47.604  1.00  0.00     0.046 A 
ATOM      4  C   UNL     1      16.296   7.480  47.362  1.00  0.00     0.003 A 
ATOM      5  C   UNL     1      16.939   7.035  46.227  1.00  0.00     0.028 A 
ATOM      6  C   UNL     1      17.748   8.095  45.830  1.00  0.00     0.083 A 
ATOM      7  N   UNL     1      17.616   9.144  46.674  1.00  0.00    -0.361 N 
ATOM      8  C   UNL     1      15.369   6.846  48.186  1.00  0.00     0.056 A 
ATOM      9  C   UNL     1      14.877   7.565  49.297  1.00  0.00     0.116 A 
ATOM     10  H   UNL     1      18.106  10.064  46.613  1.00  0.00     0.166 HD
ENDROOT
BRANCH   9  11
ATOM     11  O   UNL     1      13.949   6.984  50.157  1.00  0.00    -0.508 OA
ATOM     12  H   UNL     1      13.877   7.266  51.128  1.00  0.00     0.293 HD
ENDBRANCH   9  11
TORSDOF 1
ENDMDL
MODEL 2
REMARK VINA RESULT:    -5.487      3.768      4.804
REMARK INTER + INTRA:          -5.647
REMARK INTER:                  -5.647
REMARK INTRA:                   0.000
REMARK UNBOUND:                 0.000
REMARK SMILES Oc1ccc2[nH]ccc2c1
REMARK SMILES IDX 3 1 4 2 5 3 9 4 8 5 7 6 6 7 10 8 2 9 1 11
REMARK H PARENT 6 10 1 12
REMARK Flexibility Score: inf
ROOT
ATOM      1  C   UNL     1      15.861   7.489  45.188  1.00  0.00     0.048 A 
ATOM      2  C   UNL     1      16.946   6.604  45.052  1.00  0.00     0.030 A 
ATOM      3  C   UNL     1      17.850   6.836  44.017  1.00  0.00     0.046 A 
ATOM      4  C   UNL     1      17.700   7.888  43.153  1.00  0.00     0.003 A 
ATOM      5  C   UNL     1      18.746   7.838  42.257  1.00  0.00     0.028 A 
ATOM      6  C   UNL     1      19.495   6.728  42.636  1.00  0.00     0.083 A 
ATOM      7  N   UNL     1      18.944   6.119  43.711  1.00  0.00    -0.361 N 
ATOM      8  C   UNL     1      16.639   8.784  43.260  1.00  0.00     0.056 A 
ATOM      9  C   UNL     1      15.705   8.577  44.298  1.00  0.00     0.116 A 
ATOM     10  H   UNL     1      19.298   5.267  44.199  1.00  0.00     0.166 HD
ENDROOT
BRANCH   9  11
ATOM     11  O   UNL     1      14.623   9.440  44.454  1.00  0.00    -0.508 OA
ATOM     12  H   UNL     1      13.773   9.325  43.915  1.00  0.00     0.293 HD
ENDBRANCH   9  11
TORSDOF 1
ENDMDL
MODEL 3
REMARK VINA RESULT:    -5.371      4.061      5.607
REMARK INTER + INTRA:          -5.528
REMARK INTER:                  -5.528
REMARK INTRA:                   0.000
REMARK UNBOUND:                 0.000
REMARK SMILES Oc1ccc2[nH]ccc2c1
REMARK SMILES IDX 3 1 4 2 5 3 9 4 8 5 7 6 6 7 10 8 2 9 1 11
REMARK H PARENT 6 10 1 12
REMARK Flexibility Score: inf
ROOT
ATOM      1  C   UNL     1      18.347   8.038  42.307  1.00  0.00     0.048 A 
ATOM      2  C   UNL     1      17.292   8.732  42.929  1.00  0.00     0.030 A 
ATOM      3  C   UNL     1      16.727   8.168  44.071  1.00  0.00     0.046 A 
ATOM      4  C   UNL     1      17.172   6.980  44.583  1.00  0.00     0.003 A 
ATOM      5  C   UNL     1      16.415   6.702  45.700  1.00  0.00     0.028 A 
ATOM      6  C   UNL     1      15.526   7.766  45.810  1.00  0.00     0.083 A 
ATOM      7  N   UNL     1      15.720   8.660  44.811  1.00  0.00    -0.361 N 
ATOM      8  C   UNL     1      18.214   6.267  43.994  1.00  0.00     0.056 A 
ATOM      9  C   UNL     1      18.809   6.810  42.834  1.00  0.00     0.116 A 
ATOM     10  H   UNL     1      15.193   9.547  44.653  1.00  0.00     0.166 HD
ENDROOT
BRANCH   9  11
ATOM     11  O   UNL     1      19.855   6.143  42.201  1.00  0.00    -0.508 OA
ATOM     12  H   UNL     1      19.919   6.098  41.190  1.00  0.00     0.293 HD
ENDBRANCH   9  11
TORSDOF 1
ENDMDL
MODEL 4
REMARK VINA RESULT:    -5.323     15.633     16.393
REMARK INTER + INTRA:          -5.479
REMARK INTER:                  -5.479
REMARK INTRA:                   0.000
REMARK UNBOUND:                 0.000
REMARK SMILES Oc1ccc2[nH]ccc2c1
REMARK SMILES IDX 3 1 4 2 5 3 9 4 8 5 7 6 6 7 10 8 2 9 1 11
REMARK H PARENT 6 10 1 12
REMARK Flexibility Score: inf
ROOT
ATOM      1  C   UNL     1      14.154  16.745  35.507  1.00  0.00     0.048 A 
ATOM      2  C   UNL     1      13.830  17.852  36.312  1.00  0.00     0.030 A 
ATOM      3  C   UNL     1      14.708  18.934  36.315  1.00  0.00     0.046 A 
ATOM      4  C   UNL     1      15.853  18.934  35.563  1.00  0.00     0.003 A 
ATOM      5  C   UNL     1      16.493  20.134  35.786  1.00  0.00     0.028 A 
ATOM      6  C   UNL     1      15.680  20.817  36.685  1.00  0.00     0.083 A 
ATOM      7  N   UNL     1      14.591  20.080  37.006  1.00  0.00    -0.361 N 
ATOM      8  C   UNL     1      16.204  17.855  34.755  1.00  0.00     0.056 A 
ATOM      9  C   UNL     1      15.335  16.743  34.729  1.00  0.00     0.116 A 
ATOM     10  H   UNL     1      13.821  20.350  37.657  1.00  0.00     0.166 HD
ENDROOT
BRANCH   9  11
ATOM     11  O   UNL     1      15.633  15.634  33.940  1.00  0.00    -0.508 OA
ATOM     12  H   UNL     1      15.645  15.693  32.928  1.00  0.00     0.293 HD
ENDBRANCH   9  11
TORSDOF 1
ENDMDL
MODEL 5
REMARK VINA RESULT:    -5.320      3.170      4.255
REMARK INTER + INTRA:          -5.475
REMARK INTER:                  -5.475
REMARK INTRA:                   0.000
REMARK UNBOUND:                 0.000
REMARK SMILES Oc1ccc2[nH]ccc2c1
REMARK SMILES IDX 3 1 4 2 5 3 9 4 8 5 7 6 6 7 10 8 2 9 1 11
REMARK H PARENT 6 10 1 12
REMARK Flexibility Score: inf
ROOT
ATOM      1  C   UNL     1      16.618   7.512  45.865  1.00  0.00     0.048 A 
ATOM      2  C   UNL     1      16.658   8.264  44.677  1.00  0.00     0.030 A 
ATOM      3  C   UNL     1      17.589   7.898  43.706  1.00  0.00     0.046 A 
ATOM      4  C   UNL     1      18.442   6.842  43.888  1.00  0.00     0.003 A 
ATOM      5  C   UNL     1      19.224   6.744  42.758  1.00  0.00     0.028 A 
ATOM      6  C   UNL     1      18.792   7.773  41.927  1.00  0.00     0.083 A 
ATOM      7  N   UNL     1      17.793   8.475  42.511  1.00  0.00    -0.361 N 
ATOM      8  C   UNL     1      18.429   6.076  45.051  1.00  0.00     0.056 A 
ATOM      9  C   UNL     1      17.498   6.421  46.056  1.00  0.00     0.116 A 
ATOM     10  H   UNL     1      17.288   9.297  42.111  1.00  0.00     0.166 HD
ENDROOT
BRANCH   9  11
ATOM     11  O   UNL     1      17.438   5.692  47.241  1.00  0.00    -0.508 OA
ATOM     12  H   UNL     1      17.781   4.740  47.294  1.00  0.00     0.293 HD
ENDBRANCH   9  11
TORSDOF 1
ENDMDL
MODEL 6
REMARK VINA RESULT:    -5.240     16.081     16.562
REMARK INTER + INTRA:          -5.393
REMARK INTER:                  -5.393
REMARK INTRA:                   0.000
REMARK UNBOUND:                 0.000
REMARK SMILES Oc1ccc2[nH]ccc2c1
REMARK SMILES IDX 3 1 4 2 5 3 9 4 8 5 7 6 6 7 10 8 2 9 1 11
REMARK H PARENT 6 10 1 12
REMARK Flexibility Score: inf
ROOT
ATOM      1  C   UNL     1      17.966  17.748  35.341  1.00  0.00     0.048 A 
ATOM      2  C   UNL     1      17.287  16.648  34.786  1.00  0.00     0.030 A 
ATOM      3  C   UNL     1      15.918  16.774  34.562  1.00  0.00     0.046 A 
ATOM      4  C   UNL     1      15.242  17.925  34.866  1.00  0.00     0.003 A 
ATOM      5  C   UNL     1      13.920  17.728  34.529  1.00  0.00     0.028 A 
ATOM      6  C   UNL     1      13.863  16.433  34.024  1.00  0.00     0.083 A 
ATOM      7  N   UNL     1      15.087  15.854  34.046  1.00  0.00    -0.361 N 
ATOM      8  C   UNL     1      15.882  19.033  35.415  1.00  0.00     0.056 A 
ATOM      9  C   UNL     1      17.270  18.939  35.656  1.00  0.00     0.116 A 
ATOM     10  H   UNL     1      15.329  14.890  33.728  1.00  0.00     0.166 HD
ENDROOT
BRANCH   9  11
ATOM     11  O   UNL     1      17.965  20.014  36.204  1.00  0.00    -0.508 OA
ATOM     12  H   UNL     1      17.517  20.667  36.836  1.00  0.00     0.293 HD
ENDBRANCH   9  11
TORSDOF 1
ENDMDL
MODEL 7
REMARK VINA RESULT:    -5.227      2.019      3.294
REMARK INTER + INTRA:          -5.380
REMARK INTER:                  -5.380
REMARK INTRA:                   0.000
REMARK UNBOUND:                 0.000
REMARK SMILES Oc1ccc2[nH]ccc2c1
REMARK SMILES IDX 3 1 4 2 5 3 9 4 8 5 7 6 6 7 10 8 2 9 1 11
REMARK H PARENT 6 10 1 12
REMARK Flexibility Score: inf
ROOT
ATOM      1  C   UNL     1      16.423   7.123  45.282  1.00  0.00     0.048 A 
ATOM      2  C   UNL     1      16.744   8.330  45.931  1.00  0.00     0.030 A 
ATOM      3  C   UNL     1      16.386   8.464  47.271  1.00  0.00     0.046 A 
ATOM      4  C   UNL     1      15.744   7.462  47.948  1.00  0.00     0.003 A 
ATOM      5  C   UNL     1      15.535   7.903  49.236  1.00  0.00     0.028 A 
ATOM      6  C   UNL     1      16.077   9.184  49.274  1.00  0.00     0.083 A 
ATOM      7  N   UNL     1      16.596   9.522  48.070  1.00  0.00    -0.361 N 
ATOM      8  C   UNL     1      15.412   6.255  47.338  1.00  0.00     0.056 A 
ATOM      9  C   UNL     1      15.760   6.087  45.980  1.00  0.00     0.116 A 
ATOM     10  H   UNL     1      17.061  10.422  47.820  1.00  0.00     0.166 HD
ENDROOT
BRANCH   9  11
ATOM     11  O   UNL     1      15.453   4.902  45.315  1.00  0.00    -0.508 OA
ATOM     12  H   UNL     1      15.174   4.898  44.342  1.00  0.00     0.293 HD
ENDBRANCH   9  11
TORSDOF 1
ENDMDL
MODEL 8
REMARK VINA RESULT:    -5.195      3.840      5.402
REMARK INTER + INTRA:          -5.347
REMARK INTER:                  -5.347
REMARK INTRA:                   0.000
REMARK UNBOUND:                 0.000
REMARK SMILES Oc1ccc2[nH]ccc2c1
REMARK SMILES IDX 3 1 4 2 5 3 9 4 8 5 7 6 6 7 10 8 2 9 1 11
REMARK H PARENT 6 10 1 12
REMARK Flexibility Score: inf
ROOT
ATOM      1  C   UNL     1      20.118   6.948  44.420  1.00  0.00     0.048 A 
ATOM      2  C   UNL     1      19.549   7.292  45.659  1.00  0.00     0.030 A 
ATOM      3  C   UNL     1      18.208   7.672  45.677  1.00  0.00     0.046 A 
ATOM      4  C   UNL     1      17.457   7.714  44.533  1.00  0.00     0.003 A 
ATOM      5  C   UNL     1      16.190   8.123  44.886  1.00  0.00     0.028 A 
ATOM      6  C   UNL     1      16.240   8.313  46.264  1.00  0.00     0.083 A 
ATOM      7  N   UNL     1      17.476   8.036  46.742  1.00  0.00    -0.361 N 
ATOM      8  C   UNL     1      17.988   7.380  43.289  1.00  0.00     0.056 A 
ATOM      9  C   UNL     1      19.344   6.991  43.237  1.00  0.00     0.116 A 
ATOM     10  H   UNL     1      17.791   8.095  47.736  1.00  0.00     0.166 HD
ENDROOT
BRANCH   9  11
ATOM     11  O   UNL     1      19.931   6.645  42.022  1.00  0.00    -0.508 OA
ATOM     12  H   UNL     1      20.919   6.795  41.850  1.00  0.00     0.293 HD
ENDBRANCH   9  11
TORSDOF 1
ENDMDL
MODEL 9
REMARK VINA RESULT:    -5.169     12.603     13.454
REMARK INTER + INTRA:          -5.321
REMARK INTER:                  -5.321
REMARK INTRA:                   0.000
REMARK UNBOUND:                 0.000
REMARK SMILES Oc1ccc2[nH]ccc2c1
REMARK SMILES IDX 3 1 4 2 5 3 9 4 8 5 7 6 6 7 10 8 2 9 1 11
REMARK H PARENT 6 10 1 12
REMARK Flexibility Score: inf
ROOT
ATOM      1  C   UNL     1      26.683  17.760  48.276  1.00  0.00     0.048 A 
ATOM      2  C   UNL     1      27.689  17.323  47.395  1.00  0.00     0.030 A 
ATOM      3  C   UNL     1      27.329  16.430  46.387  1.00  0.00     0.046 A 
ATOM      4  C   UNL     1      26.042  15.985  46.247  1.00  0.00     0.003 A 
ATOM      5  C   UNL     1      26.018  15.124  45.171  1.00  0.00     0.028 A 
ATOM      6  C   UNL     1      27.328  15.093  44.702  1.00  0.00     0.083 A 
ATOM      7  N   UNL     1      28.125  15.892  45.449  1.00  0.00    -0.361 N 
ATOM      8  C   UNL     1      25.021  16.397  47.100  1.00  0.00     0.056 A 
ATOM      9  C   UNL     1      25.353  17.302  48.132  1.00  0.00     0.116 A 
ATOM     10  H   UNL     1      29.148  16.054  45.319  1.00  0.00     0.166 HD
ENDROOT
BRANCH   9  11
ATOM     11  O   UNL     1      24.375  17.750  49.017  1.00  0.00    -0.508 OA
ATOM     12  H   UNL     1      23.389  17.611  48.831  1.00  0.00     0.293 HD
ENDBRANCH   9  11
TORSDOF 1
ENDMDL
