MODEL 1
REMARK VINA RESULT:    -5.915      0.000      0.000
REMARK INTER + INTRA:          -9.052
REMARK INTER:                  -7.989
REMARK INTRA:                  -1.063
REMARK UNBOUND:                -1.063
REMARK SMILES CC(=O)CCC=C(C)CCC=C(C)C
REMARK SMILES IDX 7 1 6 2 8 3 9 4 10 5 11 6 13 7 12 8 14 9 5 10 4 11 2 12 3 13
REMARK SMILES IDX 1 14
REMARK H PARENT
REMARK Flexibility Score: inf
ROOT
ATOM      1  C   UNL     1     -10.970  72.846  28.415  1.00  0.00    -0.077 C 
ATOM      2  C   UNL     1      -9.667  72.823  28.053  1.00  0.00    -0.028 C 
ATOM      3  C   UNL     1     -11.945  73.835  27.820  1.00  0.00     0.039 C 
ENDROOT
BRANCH   1   4
ATOM      4  C   UNL     1     -11.462  71.865  29.459  1.00  0.00     0.034 C 
BRANCH   4   5
ATOM      5  C   UNL     1     -10.814  72.110  30.828  1.00  0.00     0.032 C 
BRANCH   5   6
ATOM      6  C   UNL     1     -11.278  73.410  31.443  1.00  0.00    -0.028 C 
ATOM      7  C   UNL     1      -9.085  74.564  31.079  1.00  0.00     0.039 C 
ATOM      8  C   UNL     1     -10.505  74.507  31.592  1.00  0.00    -0.080 C 
ATOM      9  C   UNL     1     -11.096  75.713  32.276  1.00  0.00     0.039 C 
ENDBRANCH   5   6
ENDBRANCH   4   5
ENDBRANCH   1   4
BRANCH   2  10
ATOM     10  C   UNL     1      -9.058  73.715  26.999  1.00  0.00     0.035 C 
BRANCH  10  11
ATOM     11  C   UNL     1      -8.988  72.991  25.651  1.00  0.00     0.079 C 
BRANCH  11  12
ATOM     12  C   UNL     1      -9.976  73.580  24.679  1.00  0.00     0.130 C 
ATOM     13  O   UNL     1     -10.313  74.749  24.798  1.00  0.00    -0.300 OA
ATOM     14  C   UNL     1     -10.569  72.758  23.573  1.00  0.00     0.087 C 
ENDBRANCH  11  12
ENDBRANCH  10  11
ENDBRANCH   2  10
TORSDOF 6
ENDMDL
MODEL 2
REMARK VINA RESULT:    -5.871      4.018      7.161
REMARK INTER + INTRA:          -8.993
REMARK INTER:                  -8.024
REMARK INTRA:                  -0.969
REMARK UNBOUND:                -1.063
REMARK SMILES CC(=O)CCC=C(C)CCC=C(C)C
REMARK SMILES IDX 7 1 6 2 8 3 9 4 10 5 11 6 13 7 12 8 14 9 5 10 4 11 2 12 3 13
REMARK SMILES IDX 1 14
REMARK H PARENT
REMARK Flexibility Score: inf
ROOT
ATOM      1  C   UNL     1     -10.098  74.258  31.845  1.00  0.00    -0.077 C 
ATOM      2  C   UNL     1     -10.203  73.014  32.366  1.00  0.00    -0.028 C 
ATOM      3  C   UNL     1     -10.983  75.392  32.307  1.00  0.00     0.039 C 
ENDROOT
BRANCH   1   4
ATOM      4  C   UNL     1      -9.078  74.517  30.755  1.00  0.00     0.034 C 
BRANCH   4   5
ATOM      5  C   UNL     1      -9.333  73.654  29.513  1.00  0.00     0.032 C 
BRANCH   5   6
ATOM      6  C   UNL     1     -10.626  74.029  28.825  1.00  0.00    -0.028 C 
ATOM      7  C   UNL     1     -11.695  71.804  29.246  1.00  0.00     0.039 C 
ATOM      8  C   UNL     1     -11.680  73.199  28.670  1.00  0.00    -0.080 C 
ATOM      9  C   UNL     1     -12.882  73.702  27.911  1.00  0.00     0.039 C 
ENDBRANCH   5   6
ENDBRANCH   4   5
ENDBRANCH   1   4
BRANCH   2  10
ATOM     10  C   UNL     1     -11.146  72.632  33.481  1.00  0.00     0.035 C 
BRANCH  10  11
ATOM     11  C   UNL     1     -10.441  71.732  34.501  1.00  0.00     0.079 C 
BRANCH  11  12
ATOM     12  C   UNL     1     -10.794  72.143  35.906  1.00  0.00     0.130 C 
ATOM     13  O   UNL     1     -11.382  71.356  36.632  1.00  0.00    -0.300 OA
ATOM     14  C   UNL     1     -10.452  73.506  36.432  1.00  0.00     0.087 C 
ENDBRANCH  11  12
ENDBRANCH  10  11
ENDBRANCH   2  10
TORSDOF 6
ENDMDL
MODEL 3
REMARK VINA RESULT:    -5.842      3.568      6.952
REMARK INTER + INTRA:          -8.954
REMARK INTER:                  -8.487
REMARK INTRA:                  -0.468
REMARK UNBOUND:                -1.063
REMARK SMILES CC(=O)CCC=C(C)CCC=C(C)C
REMARK SMILES IDX 7 1 6 2 8 3 9 4 10 5 11 6 13 7 12 8 14 9 5 10 4 11 2 12 3 13
REMARK SMILES IDX 1 14
REMARK H PARENT
REMARK Flexibility Score: inf
ROOT
ATOM      1  C   UNL     1     -11.176  73.827  30.617  1.00  0.00    -0.077 C 
ATOM      2  C   UNL     1     -11.683  72.801  31.338  1.00  0.00    -0.028 C 
ATOM      3  C   UNL     1     -10.607  75.061  31.278  1.00  0.00     0.039 C 
ENDROOT
BRANCH   1   4
ATOM      4  C   UNL     1     -11.194  73.743  29.104  1.00  0.00     0.034 C 
BRANCH   4   5
ATOM      5  C   UNL     1     -10.088  74.598  28.469  1.00  0.00     0.032 C 
BRANCH   5   6
ATOM      6  C   UNL     1     -10.302  74.776  26.983  1.00  0.00    -0.028 C 
ATOM      7  C   UNL     1      -8.750  72.911  26.362  1.00  0.00     0.039 C 
ATOM      8  C   UNL     1      -9.684  74.049  26.027  1.00  0.00    -0.080 C 
ATOM      9  C   UNL     1      -9.960  74.383  24.583  1.00  0.00     0.039 C 
ENDBRANCH   5   6
ENDBRANCH   4   5
ENDBRANCH   1   4
BRANCH   2  10
ATOM     10  C   UNL     1     -11.690  72.739  32.846  1.00  0.00     0.035 C 
BRANCH  10  11
ATOM     11  C   UNL     1     -10.575  71.822  33.355  1.00  0.00     0.079 C 
BRANCH  11  12
ATOM     12  C   UNL     1     -10.413  71.957  34.846  1.00  0.00     0.130 C 
ATOM     13  O   UNL     1      -9.488  71.387  35.404  1.00  0.00    -0.300 OA
ATOM     14  C   UNL     1     -11.374  72.765  35.666  1.00  0.00     0.087 C 
ENDBRANCH  11  12
ENDBRANCH  10  11
ENDBRANCH   2  10
TORSDOF 6
ENDMDL
MODEL 4
REMARK VINA RESULT:    -5.666      2.499      3.783
REMARK INTER + INTRA:          -8.716
REMARK INTER:                  -7.959
REMARK INTRA:                  -0.757
REMARK UNBOUND:                -1.063
REMARK SMILES CC(=O)CCC=C(C)CCC=C(C)C
REMARK SMILES IDX 7 1 6 2 8 3 9 4 10 5 11 6 13 7 12 8 14 9 5 10 4 11 2 12 3 13
REMARK SMILES IDX 1 14
REMARK H PARENT
REMARK Flexibility Score: inf
ROOT
ATOM      1  C   UNL     1     -10.698  73.809  31.151  1.00  0.00    -0.077 C 
ATOM      2  C   UNL     1     -11.559  73.137  30.353  1.00  0.00    -0.028 C 
ATOM      3  C   UNL     1      -9.275  74.092  30.727  1.00  0.00     0.039 C 
ENDROOT
BRANCH   1   4
ATOM      4  C   UNL     1     -11.168  74.275  32.514  1.00  0.00     0.034 C 
BRANCH   4   5
ATOM      5  C   UNL     1     -11.829  73.143  33.311  1.00  0.00     0.032 C 
BRANCH   5   6
ATOM      6  C   UNL     1     -10.806  72.199  33.898  1.00  0.00    -0.028 C 
ATOM      7  C   UNL     1     -11.346  72.811  36.266  1.00  0.00     0.039 C 
ATOM      8  C   UNL     1     -10.556  72.063  35.218  1.00  0.00    -0.080 C 
ATOM      9  C   UNL     1      -9.463  71.117  35.647  1.00  0.00     0.039 C 
ENDBRANCH   5   6
ENDBRANCH   4   5
ENDBRANCH   1   4
BRANCH   2  10
ATOM     10  C   UNL     1     -11.233  72.653  28.961  1.00  0.00     0.035 C 
BRANCH  10  11
ATOM     11  C   UNL     1     -11.638  73.698  27.917  1.00  0.00     0.079 C 
BRANCH  11  12
ATOM     12  C   UNL     1     -10.439  74.158  27.131  1.00  0.00     0.130 C 
ATOM     13  O   UNL     1     -10.496  75.207  26.507  1.00  0.00    -0.300 OA
ATOM     14  C   UNL     1      -9.176  73.350  27.086  1.00  0.00     0.087 C 
ENDBRANCH  11  12
ENDBRANCH  10  11
ENDBRANCH   2  10
TORSDOF 6
ENDMDL
MODEL 5
REMARK VINA RESULT:    -5.614      5.978      9.067
REMARK INTER + INTRA:          -8.646
REMARK INTER:                  -7.945
REMARK INTRA:                  -0.700
REMARK UNBOUND:                -1.063
REMARK SMILES CC(=O)CCC=C(C)CCC=C(C)C
REMARK SMILES IDX 7 1 6 2 8 3 9 4 10 5 11 6 13 7 12 8 14 9 5 10 4 11 2 12 3 13
REMARK SMILES IDX 1 14
REMARK H PARENT
REMARK Flexibility Score: inf
ROOT
ATOM      1  C   UNL     1     -10.139  71.845  34.819  1.00  0.00    -0.077 C 
ATOM      2  C   UNL     1     -10.706  72.865  35.502  1.00  0.00    -0.028 C 
ATOM      3  C   UNL     1      -9.278  70.810  35.504  1.00  0.00     0.039 C 
ENDROOT
BRANCH   1   4
ATOM      4  C   UNL     1     -10.359  71.747  33.323  1.00  0.00     0.034 C 
BRANCH   4   5
ATOM      5  C   UNL     1     -11.614  72.510  32.876  1.00  0.00     0.032 C 
BRANCH   5   6
ATOM      6  C   UNL     1     -11.620  72.751  31.384  1.00  0.00    -0.028 C 
ATOM      7  C   UNL     1     -10.641  75.049  31.579  1.00  0.00     0.039 C 
ATOM      8  C   UNL     1     -11.218  73.897  30.791  1.00  0.00    -0.080 C 
ATOM      9  C   UNL     1     -11.336  74.007  29.293  1.00  0.00     0.039 C 
ENDBRANCH   5   6
ENDBRANCH   4   5
ENDBRANCH   1   4
BRANCH   2  10
ATOM     10  C   UNL     1     -10.601  73.057  36.995  1.00  0.00     0.035 C 
BRANCH  10  11
ATOM     11  C   UNL     1     -11.903  72.644  37.687  1.00  0.00     0.079 C 
BRANCH  11  12
ATOM     12  C   UNL     1     -11.621  71.747  38.863  1.00  0.00     0.130 C 
ATOM     13  O   UNL     1     -12.077  72.033  39.960  1.00  0.00    -0.300 OA
ATOM     14  C   UNL     1     -10.777  70.514  38.722  1.00  0.00     0.087 C 
ENDBRANCH  11  12
ENDBRANCH  10  11
ENDBRANCH   2  10
TORSDOF 6
ENDMDL
MODEL 6
REMARK VINA RESULT:    -5.609      2.665      6.247
REMARK INTER + INTRA:          -8.640
REMARK INTER:                  -7.791
REMARK INTRA:                  -0.849
REMARK UNBOUND:                -1.063
REMARK SMILES CC(=O)CCC=C(C)CCC=C(C)C
REMARK SMILES IDX 7 1 6 2 8 3 9 4 10 5 11 6 13 7 12 8 14 9 5 10 4 11 2 12 3 13
REMARK SMILES IDX 1 14
REMARK H PARENT
REMARK Flexibility Score: inf
ROOT
ATOM      1  C   UNL     1     -11.003  73.493  28.744  1.00  0.00    -0.077 C 
ATOM      2  C   UNL     1     -10.319  74.347  29.539  1.00  0.00    -0.028 C 
ATOM      3  C   UNL     1     -11.284  72.068  29.161  1.00  0.00     0.039 C 
ENDROOT
BRANCH   1   4
ATOM      4  C   UNL     1     -11.486  73.974  27.390  1.00  0.00     0.034 C 
BRANCH   4   5
ATOM      5  C   UNL     1     -10.438  74.842  26.682  1.00  0.00     0.032 C 
BRANCH   5   6
ATOM      6  C   UNL     1     -10.204  74.390  25.259  1.00  0.00    -0.028 C 
ATOM      7  C   UNL     1      -8.452  72.718  25.898  1.00  0.00     0.039 C 
ATOM      8  C   UNL     1      -9.294  73.462  24.890  1.00  0.00    -0.080 C 
ATOM      9  C   UNL     1      -9.139  73.156  23.422  1.00  0.00     0.039 C 
ENDBRANCH   5   6
ENDBRANCH   4   5
ENDBRANCH   1   4
BRANCH   2  10
ATOM     10  C   UNL     1      -9.818  74.010  30.922  1.00  0.00     0.035 C 
BRANCH  10  11
ATOM     11  C   UNL     1     -10.840  74.428  31.984  1.00  0.00     0.079 C 
BRANCH  11  12
ATOM     12  C   UNL     1     -11.321  73.230  32.760  1.00  0.00     0.130 C 
ATOM     13  O   UNL     1     -12.374  73.298  33.377  1.00  0.00    -0.300 OA
ATOM     14  C   UNL     1     -10.528  71.957  32.805  1.00  0.00     0.087 C 
ENDBRANCH  11  12
ENDBRANCH  10  11
ENDBRANCH   2  10
TORSDOF 6
ENDMDL
MODEL 7
REMARK VINA RESULT:    -5.609      1.699      2.441
REMARK INTER + INTRA:          -8.639
REMARK INTER:                  -8.029
REMARK INTRA:                  -0.611
REMARK UNBOUND:                -1.063
REMARK SMILES CC(=O)CCC=C(C)CCC=C(C)C
REMARK SMILES IDX 7 1 6 2 8 3 9 4 10 5 11 6 13 7 12 8 14 9 5 10 4 11 2 12 3 13
REMARK SMILES IDX 1 14
REMARK H PARENT
REMARK Flexibility Score: inf
ROOT
ATOM      1  C   UNL     1     -10.344  73.760  26.776  1.00  0.00    -0.077 C 
ATOM      2  C   UNL     1     -10.487  74.225  25.514  1.00  0.00    -0.028 C 
ATOM      3  C   UNL     1      -9.061  73.118  27.248  1.00  0.00     0.039 C 
ENDROOT
BRANCH   1   4
ATOM      4  C   UNL     1     -11.510  73.870  27.738  1.00  0.00     0.034 C 
BRANCH   4   5
ATOM      5  C   UNL     1     -11.221  73.170  29.073  1.00  0.00     0.032 C 
BRANCH   5   6
ATOM      6  C   UNL     1     -11.484  74.079  30.251  1.00  0.00    -0.028 C 
ATOM      7  C   UNL     1      -9.053  74.473  30.708  1.00  0.00     0.039 C 
ATOM      8  C   UNL     1     -10.522  74.644  31.013  1.00  0.00    -0.080 C 
ATOM      9  C   UNL     1     -10.943  75.485  32.191  1.00  0.00     0.039 C 
ENDBRANCH   5   6
ENDBRANCH   4   5
ENDBRANCH   1   4
BRANCH   2  10
ATOM     10  C   UNL     1      -9.396  74.214  24.472  1.00  0.00     0.035 C 
BRANCH  10  11
ATOM     11  C   UNL     1      -9.834  73.419  23.239  1.00  0.00     0.079 C 
BRANCH  11  12
ATOM     12  C   UNL     1      -9.380  74.101  21.976  1.00  0.00     0.130 C 
ATOM     13  O   UNL     1     -10.214  74.531  21.192  1.00  0.00    -0.300 OA
ATOM     14  C   UNL     1      -7.924  74.253  21.648  1.00  0.00     0.087 C 
ENDBRANCH  11  12
ENDBRANCH  10  11
ENDBRANCH   2  10
TORSDOF 6
ENDMDL
MODEL 8
REMARK VINA RESULT:    -5.435      2.390      6.289
REMARK INTER + INTRA:          -8.404
REMARK INTER:                  -7.642
REMARK INTRA:                  -0.762
REMARK UNBOUND:                -1.063
REMARK SMILES CC(=O)CCC=C(C)CCC=C(C)C
REMARK SMILES IDX 7 1 6 2 8 3 9 4 10 5 11 6 13 7 12 8 14 9 5 10 4 11 2 12 3 13
REMARK SMILES IDX 1 14
REMARK H PARENT
REMARK Flexibility Score: inf
ROOT
ATOM      1  C   UNL     1     -10.573  73.790  28.007  1.00  0.00    -0.077 C 
ATOM      2  C   UNL     1      -9.695  73.041  28.713  1.00  0.00    -0.028 C 
ATOM      3  C   UNL     1     -12.064  73.570  28.102  1.00  0.00     0.039 C 
ENDROOT
BRANCH   1   4
ATOM      4  C   UNL     1     -10.045  74.866  27.080  1.00  0.00     0.034 C 
BRANCH   4   5
ATOM      5  C   UNL     1     -10.301  74.531  25.605  1.00  0.00     0.032 C 
BRANCH   5   6
ATOM      6  C   UNL     1      -9.327  73.498  25.087  1.00  0.00    -0.028 C 
ATOM      7  C   UNL     1      -9.620  74.174  22.693  1.00  0.00     0.039 C 
ATOM      8  C   UNL     1      -9.037  73.306  23.782  1.00  0.00    -0.080 C 
ATOM      9  C   UNL     1      -8.084  72.196  23.417  1.00  0.00     0.039 C 
ENDBRANCH   5   6
ENDBRANCH   4   5
ENDBRANCH   1   4
BRANCH   2  10
ATOM     10  C   UNL     1     -10.087  71.968  29.698  1.00  0.00     0.035 C 
BRANCH  10  11
ATOM     11  C   UNL     1      -9.829  72.430  31.135  1.00  0.00     0.079 C 
BRANCH  11  12
ATOM     12  C   UNL     1     -10.987  73.243  31.649  1.00  0.00     0.130 C 
ATOM     13  O   UNL     1     -12.037  72.683  31.928  1.00  0.00    -0.300 OA
ATOM     14  C   UNL     1     -10.887  74.730  31.815  1.00  0.00     0.087 C 
ENDBRANCH  11  12
ENDBRANCH  10  11
ENDBRANCH   2  10
TORSDOF 6
ENDMDL
MODEL 9
REMARK VINA RESULT:    -5.425      1.472      2.104
REMARK INTER + INTRA:          -8.391
REMARK INTER:                  -7.769
REMARK INTRA:                  -0.622
REMARK UNBOUND:                -1.063
REMARK SMILES CC(=O)CCC=C(C)CCC=C(C)C
REMARK SMILES IDX 7 1 6 2 8 3 9 4 10 5 11 6 13 7 12 8 14 9 5 10 4 11 2 12 3 13
REMARK SMILES IDX 1 14
REMARK H PARENT
REMARK Flexibility Score: inf
ROOT
ATOM      1  C   UNL     1     -10.891  73.761  28.932  1.00  0.00    -0.077 C 
ATOM      2  C   UNL     1     -10.121  74.606  28.210  1.00  0.00    -0.028 C 
ATOM      3  C   UNL     1     -11.106  72.325  28.514  1.00  0.00     0.039 C 
ENDROOT
BRANCH   1   4
ATOM      4  C   UNL     1     -11.572  74.273  30.185  1.00  0.00     0.034 C 
BRANCH   4   5
ATOM      5  C   UNL     1     -10.559  74.747  31.236  1.00  0.00     0.032 C 
BRANCH   5   6
ATOM      6  C   UNL     1     -10.951  74.310  32.629  1.00  0.00    -0.028 C 
ATOM      7  C   UNL     1     -10.235  71.937  32.269  1.00  0.00     0.039 C 
ATOM      8  C   UNL     1     -10.841  73.046  33.094  1.00  0.00    -0.080 C 
ATOM      9  C   UNL     1     -11.326  72.754  34.491  1.00  0.00     0.039 C 
ENDBRANCH   5   6
ENDBRANCH   4   5
ENDBRANCH   1   4
BRANCH   2  10
ATOM     10  C   UNL     1      -9.357  74.215  26.968  1.00  0.00     0.035 C 
BRANCH  10  11
ATOM     11  C   UNL     1     -10.127  74.620  25.709  1.00  0.00     0.079 C 
BRANCH  11  12
ATOM     12  C   UNL     1      -9.689  73.795  24.528  1.00  0.00     0.130 C 
ATOM     13  O   UNL     1      -9.770  74.265  23.403  1.00  0.00    -0.300 OA
ATOM     14  C   UNL     1      -9.167  72.399  24.700  1.00  0.00     0.087 C 
ENDBRANCH  11  12
ENDBRANCH  10  11
ENDBRANCH   2  10
TORSDOF 6
ENDMDL
