MODEL 1
REMARK VINA RESULT:    -1.860      0.000      0.000
REMARK INTER + INTRA:          -2.023
REMARK INTER:                  -2.023
REMARK INTRA:                   0.000
REMARK UNBOUND:                 0.000
REMARK SMILES [NH3+]CC(=O)[O-]
REMARK SMILES IDX 2 1 1 2 3 6 4 7 5 8
REMARK H PARENT 1 3 1 4 1 5
REMARK Flexibility Score: inf
ROOT
ATOM      1  C   UNL     1      35.070  31.125  20.718  1.00  0.00     0.312 C 
ENDROOT
BRANCH   1   2
ATOM      2  N   UNL     1      34.786  30.304  21.893  1.00  0.00    -0.353 N 
ATOM      3  H   UNL     1      33.775  30.383  22.150  1.00  0.00     0.344 HD
ATOM      4  H   UNL     1      35.024  29.304  21.698  1.00  0.00     0.344 HD
ATOM      5  H   UNL     1      35.366  30.642  22.694  1.00  0.00     0.344 HD
ENDBRANCH   1   2
BRANCH   1   6
ATOM      6  C   UNL     1      35.349  30.262  19.526  1.00  0.00     0.096 C 
ATOM      7  O   UNL     1      34.439  29.539  19.039  1.00  0.00    -0.544 OA
ATOM      8  O   UNL     1      36.600  30.294  18.923  1.00  0.00    -0.544 OA
ENDBRANCH   1   6
TORSDOF 2
ENDMDL
MODEL 2
REMARK VINA RESULT:    -1.706     21.238     21.551
REMARK INTER + INTRA:          -1.855
REMARK INTER:                  -1.855
REMARK INTRA:                   0.000
REMARK UNBOUND:                 0.000
REMARK SMILES [NH3+]CC(=O)[O-]
REMARK SMILES IDX 2 1 1 2 3 6 4 7 5 8
REMARK H PARENT 1 3 1 4 1 5
REMARK Flexibility Score: inf
ROOT
ATOM      1  C   UNL     1      27.015  16.273  32.652  1.00  0.00     0.312 C 
ENDROOT
BRANCH   1   2
ATOM      2  N   UNL     1      26.897  16.629  31.239  1.00  0.00    -0.353 N 
ATOM      3  H   UNL     1      25.954  17.042  31.050  1.00  0.00     0.344 HD
ATOM      4  H   UNL     1      27.643  17.314  30.979  1.00  0.00     0.344 HD
ATOM      5  H   UNL     1      27.011  15.767  30.659  1.00  0.00     0.344 HD
ENDBRANCH   1   2
BRANCH   1   6
ATOM      6  C   UNL     1      26.139  15.103  32.976  1.00  0.00     0.096 C 
ATOM      7  O   UNL     1      25.033  15.279  33.554  1.00  0.00    -0.544 OA
ATOM      8  O   UNL     1      26.520  13.823  32.594  1.00  0.00    -0.544 OA
ENDBRANCH   1   6
TORSDOF 2
ENDMDL
MODEL 3
REMARK VINA RESULT:    -1.649      2.048      2.278
REMARK INTER + INTRA:          -1.793
REMARK INTER:                  -1.793
REMARK INTRA:                   0.000
REMARK UNBOUND:                 0.000
REMARK SMILES [NH3+]CC(=O)[O-]
REMARK SMILES IDX 2 1 1 2 3 6 4 7 5 8
REMARK H PARENT 1 3 1 4 1 5
REMARK Flexibility Score: inf
ROOT
ATOM      1  C   UNL     1      35.905  31.089  19.633  1.00  0.00     0.312 C 
ENDROOT
BRANCH   1   2
ATOM      2  N   UNL     1      37.125  30.414  19.196  1.00  0.00    -0.353 N 
ATOM      3  H   UNL     1      37.919  31.094  19.161  1.00  0.00     0.344 HD
ATOM      4  H   UNL     1      37.357  29.632  19.851  1.00  0.00     0.344 HD
ATOM      5  H   UNL     1      36.974  30.021  18.239  1.00  0.00     0.344 HD
ENDBRANCH   1   2
BRANCH   1   6
ATOM      6  C   UNL     1      34.879  30.091  20.076  1.00  0.00     0.096 C 
ATOM      7  O   UNL     1      34.386  29.280  19.248  1.00  0.00    -0.544 OA
ATOM      8  O   UNL     1      34.506  30.025  21.412  1.00  0.00    -0.544 OA
ENDBRANCH   1   6
TORSDOF 2
ENDMDL
MODEL 4
REMARK VINA RESULT:    -1.121     21.333     21.653
REMARK INTER + INTRA:          -1.219
REMARK INTER:                  -1.219
REMARK INTRA:                   0.000
REMARK UNBOUND:                 0.000
REMARK SMILES [NH3+]CC(=O)[O-]
REMARK SMILES IDX 2 1 1 2 3 6 4 7 5 8
REMARK H PARENT 1 3 1 4 1 5
REMARK Flexibility Score: inf
ROOT
ATOM      1  C   UNL     1      27.221  14.345  32.252  1.00  0.00     0.312 C 
ENDROOT
BRANCH   1   2
ATOM      2  N   UNL     1      26.407  13.223  32.715  1.00  0.00    -0.353 N 
ATOM      3  H   UNL     1      26.392  13.197  33.761  1.00  0.00     0.344 HD
ATOM      4  H   UNL     1      25.431  13.313  32.349  1.00  0.00     0.344 HD
ATOM      5  H   UNL     1      26.822  12.331  32.360  1.00  0.00     0.344 HD
ENDBRANCH   1   2
BRANCH   1   6
ATOM      6  C   UNL     1      26.617  15.647  32.681  1.00  0.00     0.096 C 
ATOM      7  O   UNL     1      25.890  15.700  33.709  1.00  0.00    -0.544 OA
ATOM      8  O   UNL     1      26.900  16.810  31.976  1.00  0.00    -0.544 OA
ENDBRANCH   1   6
TORSDOF 2
ENDMDL
MODEL 5
REMARK VINA RESULT:    -0.864     16.055     16.383
REMARK INTER + INTRA:          -0.940
REMARK INTER:                  -0.940
REMARK INTRA:                   0.000
REMARK UNBOUND:                 0.000
REMARK SMILES [NH3+]CC(=O)[O-]
REMARK SMILES IDX 2 1 1 2 3 6 4 7 5 8
REMARK H PARENT 1 3 1 4 1 5
REMARK Flexibility Score: inf
ROOT
ATOM      1  C   UNL     1      25.820  21.126  27.440  1.00  0.00     0.312 C 
ENDROOT
BRANCH   1   2
ATOM      2  N   UNL     1      25.038  20.844  26.238  1.00  0.00    -0.353 N 
ATOM      3  H   UNL     1      24.082  20.511  26.501  1.00  0.00     0.344 HD
ATOM      4  H   UNL     1      24.963  21.706  25.649  1.00  0.00     0.344 HD
ATOM      5  H   UNL     1      25.517  20.097  25.685  1.00  0.00     0.344 HD
ENDBRANCH   1   2
BRANCH   1   6
ATOM      6  C   UNL     1      25.090  20.667  28.664  1.00  0.00     0.096 C 
ATOM      7  O   UNL     1      25.667  19.929  29.507  1.00  0.00    -0.544 OA
ATOM      8  O   UNL     1      23.790  21.095  28.899  1.00  0.00    -0.544 OA
ENDBRANCH   1   6
TORSDOF 2
ENDMDL
MODEL 6
REMARK VINA RESULT:    -0.625     15.301     15.722
REMARK INTER + INTRA:          -0.680
REMARK INTER:                  -0.680
REMARK INTRA:                   0.000
REMARK UNBOUND:                 0.000
REMARK SMILES [NH3+]CC(=O)[O-]
REMARK SMILES IDX 2 1 1 2 3 6 4 7 5 8
REMARK H PARENT 1 3 1 4 1 5
REMARK Flexibility Score: inf
ROOT
ATOM      1  C   UNL     1      25.049  20.653  28.885  1.00  0.00     0.312 C 
ENDROOT
BRANCH   1   2
ATOM      2  N   UNL     1      23.658  21.087  28.774  1.00  0.00    -0.353 N 
ATOM      3  H   UNL     1      23.060  20.293  28.447  1.00  0.00     0.344 HD
ATOM      4  H   UNL     1      23.314  21.431  29.700  1.00  0.00     0.344 HD
ATOM      5  H   UNL     1      23.597  21.865  28.079  1.00  0.00     0.344 HD
ENDBRANCH   1   2
BRANCH   1   6
ATOM      6  C   UNL     1      25.862  21.193  27.749  1.00  0.00     0.096 C 
ATOM      7  O   UNL     1      26.799  22.005  27.970  1.00  0.00    -0.544 OA
ATOM      8  O   UNL     1      25.618  20.759  26.452  1.00  0.00    -0.544 OA
ENDBRANCH   1   6
TORSDOF 2
ENDMDL
MODEL 7
REMARK VINA RESULT:    -0.415     10.127     10.542
REMARK INTER + INTRA:          -0.452
REMARK INTER:                  -0.452
REMARK INTRA:                   0.000
REMARK UNBOUND:                 0.000
REMARK SMILES [NH3+]CC(=O)[O-]
REMARK SMILES IDX 2 1 1 2 3 6 4 7 5 8
REMARK H PARENT 1 3 1 4 1 5
REMARK Flexibility Score: inf
ROOT
ATOM      1  C   UNL     1      29.716  26.049  29.038  1.00  0.00     0.312 C 
ENDROOT
BRANCH   1   2
ATOM      2  N   UNL     1      28.987  24.850  28.631  1.00  0.00    -0.353 N 
ATOM      3  H   UNL     1      28.703  24.926  27.627  1.00  0.00     0.344 HD
ATOM      4  H   UNL     1      29.586  24.003  28.766  1.00  0.00     0.344 HD
ATOM      5  H   UNL     1      28.128  24.755  29.220  1.00  0.00     0.344 HD
ENDBRANCH   1   2
BRANCH   1   6
ATOM      6  C   UNL     1      30.075  26.879  27.844  1.00  0.00     0.096 C 
ATOM      7  O   UNL     1      30.412  26.324  26.764  1.00  0.00    -0.544 OA
ATOM      8  O   UNL     1      29.989  28.264  27.908  1.00  0.00    -0.544 OA
ENDBRANCH   1   6
TORSDOF 2
ENDMDL
MODEL 8
REMARK VINA RESULT:    -0.371     10.086     10.572
REMARK INTER + INTRA:          -0.403
REMARK INTER:                  -0.403
REMARK INTRA:                   0.000
REMARK UNBOUND:                 0.000
REMARK SMILES [NH3+]CC(=O)[O-]
REMARK SMILES IDX 2 1 1 2 3 6 4 7 5 8
REMARK H PARENT 1 3 1 4 1 5
REMARK Flexibility Score: inf
ROOT
ATOM      1  C   UNL     1      29.619  27.523  28.751  1.00  0.00     0.312 C 
ENDROOT
BRANCH   1   2
ATOM      2  N   UNL     1      30.116  28.580  27.873  1.00  0.00    -0.353 N 
ATOM      3  H   UNL     1      30.527  29.356  28.443  1.00  0.00     0.344 HD
ATOM      4  H   UNL     1      30.840  28.196  27.224  1.00  0.00     0.344 HD
ATOM      5  H   UNL     1      29.321  28.959  27.310  1.00  0.00     0.344 HD
ENDBRANCH   1   2
BRANCH   1   6
ATOM      6  C   UNL     1      30.035  26.177  28.244  1.00  0.00     0.096 C 
ATOM      7  O   UNL     1      31.123  26.042  27.624  1.00  0.00    -0.544 OA
ATOM      8  O   UNL     1      29.245  25.063  28.499  1.00  0.00    -0.544 OA
ENDBRANCH   1   6
TORSDOF 2
ENDMDL
MODEL 9
REMARK VINA RESULT:    -0.018     21.709     22.046
REMARK INTER + INTRA:          -0.019
REMARK INTER:                  -0.019
REMARK INTRA:                   0.000
REMARK UNBOUND:                 0.000
REMARK SMILES [NH3+]CC(=O)[O-]
REMARK SMILES IDX 2 1 1 2 3 6 4 7 5 8
REMARK H PARENT 1 3 1 4 1 5
REMARK Flexibility Score: inf
ROOT
ATOM      1  C   UNL     1      25.549  15.561  33.810  1.00  0.00     0.312 C 
ENDROOT
BRANCH   1   2
ATOM      2  N   UNL     1      24.239  14.955  33.581  1.00  0.00    -0.353 N 
ATOM      3  H   UNL     1      24.114  14.124  34.205  1.00  0.00     0.344 HD
ATOM      4  H   UNL     1      23.483  15.653  33.766  1.00  0.00     0.344 HD
ATOM      5  H   UNL     1      24.177  14.642  32.585  1.00  0.00     0.344 HD
ENDBRANCH   1   2
BRANCH   1   6
ATOM      6  C   UNL     1      26.518  15.141  32.749  1.00  0.00     0.096 C 
ATOM      7  O   UNL     1      27.194  16.005  32.129  1.00  0.00    -0.544 OA
ATOM      8  O   UNL     1      26.713  13.792  32.480  1.00  0.00    -0.544 OA
ENDBRANCH   1   6
TORSDOF 2
ENDMDL
