MODEL 1
REMARK VINA RESULT:    -2.096      0.000      0.000
REMARK INTER + INTRA:          -5.632
REMARK INTER:                  -3.200
REMARK INTRA:                  -2.433
REMARK UNBOUND:                -2.433
REMARK SMILES CC(=O)CCC=C(C)CCC=C(C)CCC=C(C)C
REMARK SMILES IDX 10 1 11 2 12 3 13 4 14 5 15 6 16 7 18 8 17 9 19 10 9 11 7 12
REMARK SMILES IDX 6 13 8 14 5 15 4 16 2 17 3 18 1 19
REMARK H PARENT
REMARK Flexibility Score: inf
ROOT
ATOM      1  C   UNL     1      31.699  60.070   8.946  1.00  0.00     0.032 C 
ENDROOT
BRANCH   1   2
ATOM      2  C   UNL     1      31.923  58.619   9.295  1.00  0.00    -0.028 C 
ATOM      3  C   UNL     1      30.934  57.731   9.541  1.00  0.00    -0.077 C 
ATOM      4  C   UNL     1      29.478  58.135   9.536  1.00  0.00     0.039 C 
BRANCH   3   5
ATOM      5  C   UNL     1      31.298  56.297   9.866  1.00  0.00     0.034 C 
BRANCH   5   6
ATOM      6  C   UNL     1      30.767  55.875  11.242  1.00  0.00     0.032 C 
BRANCH   6   7
ATOM      7  C   UNL     1      31.461  56.635  12.349  1.00  0.00    -0.028 C 
ATOM      8  C   UNL     1      29.863  55.879  14.125  1.00  0.00     0.039 C 
ATOM      9  C   UNL     1      31.085  56.626  13.647  1.00  0.00    -0.080 C 
ATOM     10  C   UNL     1      31.922  57.388  14.641  1.00  0.00     0.039 C 
ENDBRANCH   6   7
ENDBRANCH   5   6
ENDBRANCH   3   5
ENDBRANCH   1   2
BRANCH   1  11
ATOM     11  C   UNL     1      32.102  60.979  10.113  1.00  0.00     0.034 C 
BRANCH  11  12
ATOM     12  C   UNL     1      30.975  61.099  11.114  1.00  0.00    -0.077 C 
ATOM     13  C   UNL     1      31.017  60.356  12.245  1.00  0.00    -0.028 C 
ATOM     14  C   UNL     1      29.825  62.032  10.815  1.00  0.00     0.039 C 
BRANCH  13  15
ATOM     15  C   UNL     1      29.983  60.408  13.341  1.00  0.00     0.035 C 
BRANCH  15  16
ATOM     16  C   UNL     1      28.855  59.400  13.070  1.00  0.00     0.079 C 
BRANCH  16  17
ATOM     17  C   UNL     1      27.731  59.433  14.082  1.00  0.00     0.130 C 
ATOM     18  O   UNL     1      26.733  60.087  13.819  1.00  0.00    -0.300 OA
ATOM     19  C   UNL     1      27.784  58.693  15.390  1.00  0.00     0.087 C 
ENDBRANCH  16  17
ENDBRANCH  15  16
ENDBRANCH  13  15
ENDBRANCH  11  12
ENDBRANCH   1  11
TORSDOF 9
ENDMDL
MODEL 2
REMARK VINA RESULT:    -2.051      2.017      2.236
REMARK INTER + INTRA:          -5.564
REMARK INTER:                  -2.988
REMARK INTRA:                  -2.576
REMARK UNBOUND:                -2.433
REMARK SMILES CC(=O)CCC=C(C)CCC=C(C)CCC=C(C)C
REMARK SMILES IDX 10 1 11 2 12 3 13 4 14 5 15 6 16 7 18 8 17 9 19 10 9 11 7 12
REMARK SMILES IDX 6 13 8 14 5 15 4 16 2 17 3 18 1 19
REMARK H PARENT
REMARK Flexibility Score: inf
ROOT
ATOM      1  C   UNL     1      31.273  60.577   9.628  1.00  0.00     0.032 C 
ENDROOT
BRANCH   1   2
ATOM      2  C   UNL     1      31.631  59.132   9.872  1.00  0.00    -0.028 C 
ATOM      3  C   UNL     1      30.739  58.115   9.878  1.00  0.00    -0.077 C 
ATOM      4  C   UNL     1      29.260  58.348   9.683  1.00  0.00     0.039 C 
BRANCH   3   5
ATOM      5  C   UNL     1      31.235  56.705  10.122  1.00  0.00     0.034 C 
BRANCH   5   6
ATOM      6  C   UNL     1      30.695  56.133  11.439  1.00  0.00     0.032 C 
BRANCH   6   7
ATOM      7  C   UNL     1      31.484  56.648  12.620  1.00  0.00    -0.028 C 
ATOM      8  C   UNL     1      29.669  58.189  13.401  1.00  0.00     0.039 C 
ATOM      9  C   UNL     1      31.030  57.547  13.521  1.00  0.00    -0.080 C 
ATOM     10  C   UNL     1      31.920  57.910  14.682  1.00  0.00     0.039 C 
ENDBRANCH   6   7
ENDBRANCH   5   6
ENDBRANCH   3   5
ENDBRANCH   1   2
BRANCH   1  11
ATOM     11  C   UNL     1      31.817  61.469  10.750  1.00  0.00     0.034 C 
BRANCH  11  12
ATOM     12  C   UNL     1      30.843  61.534  11.905  1.00  0.00    -0.077 C 
ATOM     13  C   UNL     1      31.322  61.540  13.171  1.00  0.00    -0.028 C 
ATOM     14  C   UNL     1      29.360  61.572  11.614  1.00  0.00     0.039 C 
BRANCH  13  15
ATOM     15  C   UNL     1      30.467  61.642  14.409  1.00  0.00     0.035 C 
BRANCH  15  16
ATOM     16  C   UNL     1      31.327  61.493  15.673  1.00  0.00     0.079 C 
BRANCH  16  17
ATOM     17  C   UNL     1      30.705  60.638  16.756  1.00  0.00     0.130 C 
ATOM     18  O   UNL     1      31.370  60.385  17.748  1.00  0.00    -0.300 OA
ATOM     19  C   UNL     1      29.305  60.094  16.667  1.00  0.00     0.087 C 
ENDBRANCH  16  17
ENDBRANCH  15  16
ENDBRANCH  13  15
ENDBRANCH  11  12
ENDBRANCH   1  11
TORSDOF 9
ENDMDL
MODEL 3
REMARK VINA RESULT:    -2.045      1.819      4.114
REMARK INTER + INTRA:          -5.554
REMARK INTER:                  -2.812
REMARK INTRA:                  -2.742
REMARK UNBOUND:                -2.433
REMARK SMILES CC(=O)CCC=C(C)CCC=C(C)CCC=C(C)C
REMARK SMILES IDX 10 1 11 2 12 3 13 4 14 5 15 6 16 7 18 8 17 9 19 10 9 11 7 12
REMARK SMILES IDX 6 13 8 14 5 15 4 16 2 17 3 18 1 19
REMARK H PARENT
REMARK Flexibility Score: inf
ROOT
ATOM      1  C   UNL     1      29.574  61.333  12.002  1.00  0.00     0.032 C 
ENDROOT
BRANCH   1   2
ATOM      2  C   UNL     1      28.913  60.291  12.870  1.00  0.00    -0.028 C 
ATOM      3  C   UNL     1      28.131  59.292  12.402  1.00  0.00    -0.077 C 
ATOM      4  C   UNL     1      27.802  59.154  10.934  1.00  0.00     0.039 C 
BRANCH   3   5
ATOM      5  C   UNL     1      27.538  58.302  13.384  1.00  0.00     0.034 C 
BRANCH   5   6
ATOM      6  C   UNL     1      28.571  57.843  14.420  1.00  0.00     0.032 C 
BRANCH   6   7
ATOM      7  C   UNL     1      29.536  56.846  13.822  1.00  0.00    -0.028 C 
ATOM      8  C   UNL     1      31.565  58.235  14.302  1.00  0.00     0.039 C 
ATOM      9  C   UNL     1      30.878  56.994  13.785  1.00  0.00    -0.080 C 
ATOM     10  C   UNL     1      31.708  55.876  13.208  1.00  0.00     0.039 C 
ENDBRANCH   6   7
ENDBRANCH   5   6
ENDBRANCH   3   5
ENDBRANCH   1   2
BRANCH   1  11
ATOM     11  C   UNL     1      31.064  61.022  11.820  1.00  0.00     0.034 C 
BRANCH  11  12
ATOM     12  C   UNL     1      31.300  60.248  10.542  1.00  0.00    -0.077 C 
ATOM     13  C   UNL     1      31.547  58.919  10.615  1.00  0.00    -0.028 C 
ATOM     14  C   UNL     1      31.271  60.983   9.222  1.00  0.00     0.039 C 
BRANCH  13  15
ATOM     15  C   UNL     1      31.759  58.022   9.421  1.00  0.00     0.035 C 
BRANCH  15  16
ATOM     16  C   UNL     1      31.274  56.596   9.723  1.00  0.00     0.079 C 
BRANCH  16  17
ATOM     17  C   UNL     1      29.783  56.394   9.557  1.00  0.00     0.130 C 
ATOM     18  O   UNL     1      29.161  55.889  10.479  1.00  0.00    -0.300 OA
ATOM     19  C   UNL     1      29.036  56.792   8.314  1.00  0.00     0.087 C 
ENDBRANCH  16  17
ENDBRANCH  15  16
ENDBRANCH  13  15
ENDBRANCH  11  12
ENDBRANCH   1  11
TORSDOF 9
ENDMDL
MODEL 4
REMARK VINA RESULT:    -1.998      1.718      4.429
REMARK INTER + INTRA:          -5.482
REMARK INTER:                  -2.753
REMARK INTRA:                  -2.729
REMARK UNBOUND:                -2.433
REMARK SMILES CC(=O)CCC=C(C)CCC=C(C)CCC=C(C)C
REMARK SMILES IDX 10 1 11 2 12 3 13 4 14 5 15 6 16 7 18 8 17 9 19 10 9 11 7 12
REMARK SMILES IDX 6 13 8 14 5 15 4 16 2 17 3 18 1 19
REMARK H PARENT
REMARK Flexibility Score: inf
ROOT
ATOM      1  C   UNL     1      28.191  60.653  11.919  1.00  0.00     0.032 C 
ENDROOT
BRANCH   1   2
ATOM      2  C   UNL     1      29.375  60.756  10.991  1.00  0.00    -0.028 C 
ATOM      3  C   UNL     1      30.656  60.527  11.358  1.00  0.00    -0.077 C 
ATOM      4  C   UNL     1      31.030  60.184  12.781  1.00  0.00     0.039 C 
BRANCH   3   5
ATOM      5  C   UNL     1      31.752  60.652  10.320  1.00  0.00     0.034 C 
BRANCH   5   6
ATOM      6  C   UNL     1      31.591  59.619   9.197  1.00  0.00     0.032 C 
BRANCH   6   7
ATOM      7  C   UNL     1      31.717  58.211   9.731  1.00  0.00    -0.028 C 
ATOM      8  C   UNL     1      29.415  57.531   9.015  1.00  0.00     0.039 C 
ATOM      9  C   UNL     1      30.764  57.258   9.634  1.00  0.00    -0.080 C 
ATOM     10  C   UNL     1      31.072  55.881  10.163  1.00  0.00     0.039 C 
ENDBRANCH   6   7
ENDBRANCH   5   6
ENDBRANCH   3   5
ENDBRANCH   1   2
BRANCH   1  11
ATOM     11  C   UNL     1      27.537  59.270  11.815  1.00  0.00     0.034 C 
BRANCH  11  12
ATOM     12  C   UNL     1      28.027  58.360  12.919  1.00  0.00    -0.077 C 
ATOM     13  C   UNL     1      28.571  57.164  12.592  1.00  0.00    -0.028 C 
ATOM     14  C   UNL     1      27.879  58.803  14.355  1.00  0.00     0.039 C 
BRANCH  13  15
ATOM     15  C   UNL     1      29.133  56.180  13.587  1.00  0.00     0.035 C 
BRANCH  15  16
ATOM     16  C   UNL     1      30.641  56.402  13.774  1.00  0.00     0.079 C 
BRANCH  16  17
ATOM     17  C   UNL     1      31.044  56.816  15.173  1.00  0.00     0.130 C 
ATOM     18  O   UNL     1      30.465  56.302  16.118  1.00  0.00    -0.300 OA
ATOM     19  C   UNL     1      32.125  57.824  15.450  1.00  0.00     0.087 C 
ENDBRANCH  16  17
ENDBRANCH  15  16
ENDBRANCH  13  15
ENDBRANCH  11  12
ENDBRANCH   1  11
TORSDOF 9
ENDMDL
MODEL 5
REMARK VINA RESULT:    -1.936      2.097      2.728
REMARK INTER + INTRA:          -5.387
REMARK INTER:                  -2.809
REMARK INTRA:                  -2.578
REMARK UNBOUND:                -2.433
REMARK SMILES CC(=O)CCC=C(C)CCC=C(C)CCC=C(C)C
REMARK SMILES IDX 10 1 11 2 12 3 13 4 14 5 15 6 16 7 18 8 17 9 19 10 9 11 7 12
REMARK SMILES IDX 6 13 8 14 5 15 4 16 2 17 3 18 1 19
REMARK H PARENT
REMARK Flexibility Score: inf
ROOT
ATOM      1  C   UNL     1      29.045  60.204  10.230  1.00  0.00     0.032 C 
ENDROOT
BRANCH   1   2
ATOM      2  C   UNL     1      29.548  58.848   9.800  1.00  0.00    -0.028 C 
ATOM      3  C   UNL     1      30.847  58.555   9.566  1.00  0.00    -0.077 C 
ATOM      4  C   UNL     1      31.934  59.598   9.672  1.00  0.00     0.039 C 
BRANCH   3   5
ATOM      5  C   UNL     1      31.219  57.146   9.152  1.00  0.00     0.034 C 
BRANCH   5   6
ATOM      6  C   UNL     1      30.593  56.098  10.080  1.00  0.00     0.032 C 
BRANCH   6   7
ATOM      7  C   UNL     1      31.349  56.004  11.385  1.00  0.00    -0.028 C 
ATOM      8  C   UNL     1      29.301  56.251  12.807  1.00  0.00     0.039 C 
ATOM      9  C   UNL     1      30.784  56.045  12.611  1.00  0.00    -0.080 C 
ATOM     10  C   UNL     1      31.673  55.875  13.816  1.00  0.00     0.039 C 
ENDBRANCH   6   7
ENDBRANCH   5   6
ENDBRANCH   3   5
ENDBRANCH   1   2
BRANCH   1  11
ATOM     11  C   UNL     1      28.673  60.199  11.717  1.00  0.00     0.034 C 
BRANCH  11  12
ATOM     12  C   UNL     1      29.874  60.534  12.573  1.00  0.00    -0.077 C 
ATOM     13  C   UNL     1      30.383  59.585  13.393  1.00  0.00    -0.028 C 
ATOM     14  C   UNL     1      30.460  61.924  12.502  1.00  0.00     0.039 C 
BRANCH  13  15
ATOM     15  C   UNL     1      31.597  59.772  14.267  1.00  0.00     0.035 C 
BRANCH  15  16
ATOM     16  C   UNL     1      31.198  59.790  15.751  1.00  0.00     0.079 C 
BRANCH  16  17
ATOM     17  C   UNL     1      31.080  58.420  16.383  1.00  0.00     0.130 C 
ATOM     18  O   UNL     1      32.100  57.870  16.769  1.00  0.00    -0.300 OA
ATOM     19  C   UNL     1      29.765  57.710  16.560  1.00  0.00     0.087 C 
ENDBRANCH  16  17
ENDBRANCH  15  16
ENDBRANCH  13  15
ENDBRANCH  11  12
ENDBRANCH   1  11
TORSDOF 9
ENDMDL
MODEL 6
REMARK VINA RESULT:    -1.921      1.308      2.139
REMARK INTER + INTRA:          -5.364
REMARK INTER:                  -2.999
REMARK INTRA:                  -2.365
REMARK UNBOUND:                -2.433
REMARK SMILES CC(=O)CCC=C(C)CCC=C(C)CCC=C(C)C
REMARK SMILES IDX 10 1 11 2 12 3 13 4 14 5 15 6 16 7 18 8 17 9 19 10 9 11 7 12
REMARK SMILES IDX 6 13 8 14 5 15 4 16 2 17 3 18 1 19
REMARK H PARENT
REMARK Flexibility Score: inf
ROOT
ATOM      1  C   UNL     1      31.157  60.733  10.206  1.00  0.00     0.032 C 
ENDROOT
BRANCH   1   2
ATOM      2  C   UNL     1      31.748  59.382   9.889  1.00  0.00    -0.028 C 
ATOM      3  C   UNL     1      31.080  58.382   9.269  1.00  0.00    -0.077 C 
ATOM      4  C   UNL     1      29.630  58.517   8.871  1.00  0.00     0.039 C 
BRANCH   3   5
ATOM      5  C   UNL     1      31.799  57.076   8.998  1.00  0.00     0.034 C 
BRANCH   5   6
ATOM      6  C   UNL     1      31.030  55.877   9.567  1.00  0.00     0.032 C 
BRANCH   6   7
ATOM      7  C   UNL     1      31.000  55.917  11.078  1.00  0.00    -0.028 C 
ATOM      8  C   UNL     1      28.499  55.881  11.217  1.00  0.00     0.039 C 
ATOM      9  C   UNL     1      29.878  55.893  11.830  1.00  0.00    -0.080 C 
ATOM     10  C   UNL     1      30.022  55.875  13.331  1.00  0.00     0.039 C 
ENDBRANCH   6   7
ENDBRANCH   5   6
ENDBRANCH   3   5
ENDBRANCH   1   2
BRANCH   1  11
ATOM     11  C   UNL     1      31.265  61.037  11.705  1.00  0.00     0.034 C 
BRANCH  11  12
ATOM     12  C   UNL     1      30.415  60.079  12.509  1.00  0.00    -0.077 C 
ATOM     13  C   UNL     1      29.085  60.018  12.267  1.00  0.00    -0.028 C 
ATOM     14  C   UNL     1      31.072  59.232  13.574  1.00  0.00     0.039 C 
BRANCH  13  15
ATOM     15  C   UNL     1      28.131  59.083  12.967  1.00  0.00     0.035 C 
BRANCH  15  16
ATOM     16  C   UNL     1      27.677  59.677  14.309  1.00  0.00     0.079 C 
BRANCH  16  17
ATOM     17  C   UNL     1      27.518  58.662  15.420  1.00  0.00     0.130 C 
ATOM     18  O   UNL     1      28.505  58.358  16.073  1.00  0.00    -0.300 OA
ATOM     19  C   UNL     1      26.202  58.017  15.759  1.00  0.00     0.087 C 
ENDBRANCH  16  17
ENDBRANCH  15  16
ENDBRANCH  13  15
ENDBRANCH  11  12
ENDBRANCH   1  11
TORSDOF 9
ENDMDL
MODEL 7
REMARK VINA RESULT:    -1.914      1.760      2.377
REMARK INTER + INTRA:          -5.353
REMARK INTER:                  -2.840
REMARK INTRA:                  -2.513
REMARK UNBOUND:                -2.433
REMARK SMILES CC(=O)CCC=C(C)CCC=C(C)CCC=C(C)C
REMARK SMILES IDX 10 1 11 2 12 3 13 4 14 5 15 6 16 7 18 8 17 9 19 10 9 11 7 12
REMARK SMILES IDX 6 13 8 14 5 15 4 16 2 17 3 18 1 19
REMARK H PARENT
REMARK Flexibility Score: inf
ROOT
ATOM      1  C   UNL     1      31.510  60.965   9.557  1.00  0.00     0.032 C 
ENDROOT
BRANCH   1   2
ATOM      2  C   UNL     1      31.810  59.498   9.741  1.00  0.00    -0.028 C 
ATOM      3  C   UNL     1      30.871  58.524   9.764  1.00  0.00    -0.077 C 
ATOM      4  C   UNL     1      29.397  58.832   9.652  1.00  0.00     0.039 C 
BRANCH   3   5
ATOM      5  C   UNL     1      31.310  57.085   9.942  1.00  0.00     0.034 C 
BRANCH   5   6
ATOM      6  C   UNL     1      30.694  56.455  11.197  1.00  0.00     0.032 C 
BRANCH   6   7
ATOM      7  C   UNL     1      31.429  56.892  12.442  1.00  0.00    -0.028 C 
ATOM      8  C   UNL     1      29.485  58.172  13.370  1.00  0.00     0.039 C 
ATOM      9  C   UNL     1      30.895  57.637  13.435  1.00  0.00    -0.080 C 
ATOM     10  C   UNL     1      31.745  57.935  14.644  1.00  0.00     0.039 C 
ENDBRANCH   6   7
ENDBRANCH   5   6
ENDBRANCH   3   5
ENDBRANCH   1   2
BRANCH   1  11
ATOM     11  C   UNL     1      31.937  61.766  10.793  1.00  0.00     0.034 C 
BRANCH  11  12
ATOM     12  C   UNL     1      30.864  61.723  11.857  1.00  0.00    -0.077 C 
ATOM     13  C   UNL     1      29.584  61.993  11.512  1.00  0.00    -0.028 C 
ATOM     14  C   UNL     1      31.255  61.397  13.280  1.00  0.00     0.039 C 
BRANCH  13  15
ATOM     15  C   UNL     1      28.414  61.947  12.463  1.00  0.00     0.035 C 
BRANCH  15  16
ATOM     16  C   UNL     1      27.391  60.893  12.012  1.00  0.00     0.079 C 
BRANCH  16  17
ATOM     17  C   UNL     1      26.367  61.400  11.020  1.00  0.00     0.130 C 
ATOM     18  O   UNL     1      25.370  61.960  11.451  1.00  0.00    -0.300 OA
ATOM     19  C   UNL     1      26.525  61.252   9.531  1.00  0.00     0.087 C 
ENDBRANCH  16  17
ENDBRANCH  15  16
ENDBRANCH  13  15
ENDBRANCH  11  12
ENDBRANCH   1  11
TORSDOF 9
ENDMDL
