MODEL 1
REMARK VINA RESULT:    -5.043      0.000      0.000
REMARK INTER + INTRA:         -11.259
REMARK INTER:                  -9.466
REMARK INTRA:                  -1.793
REMARK UNBOUND:                -1.793
REMARK SMILES CCCCCCCCC=CCCCCCCCC(=O)[O-]
REMARK SMILES IDX 10 1 9 2 11 3 12 4 13 5 14 6 15 7 16 8 17 9 18 10 19 11
REMARK SMILES IDX 20 12 8 13 7 14 6 15 5 16 4 17 3 18 2 19 1 20
REMARK H PARENT
REMARK Flexibility Score: inf
ROOT
ATOM      1  C   UNL     1      -5.390  22.484  47.692  1.00  0.00    -0.031 C 
ATOM      2  C   UNL     1      -5.142  23.414  48.629  1.00  0.00    -0.031 C 
ENDROOT
BRANCH   1   3
ATOM      3  C   UNL     1      -4.368  21.443  47.330  1.00  0.00     0.027 C 
BRANCH   3   4
ATOM      4  C   UNL     1      -3.923  20.649  48.569  1.00  0.00     0.004 C 
BRANCH   4   5
ATOM      5  C   UNL     1      -4.252  19.147  48.468  1.00  0.00     0.000 C 
BRANCH   5   6
ATOM      6  C   UNL     1      -3.336  18.222  49.292  1.00  0.00     0.000 C 
BRANCH   6   7
ATOM      7  C   UNL     1      -2.476  17.296  48.415  1.00  0.00     0.000 C 
BRANCH   7   8
ATOM      8  C   UNL     1      -2.748  17.484  46.914  1.00  0.00     0.006 C 
BRANCH   8   9
ATOM      9  C   UNL     1      -1.465  17.700  46.098  1.00  0.00     0.053 C 
BRANCH   9  10
ATOM     10  C   UNL     1      -0.637  18.787  46.709  1.00  0.00     0.041 C 
ATOM     11  O   UNL     1      -1.049  19.977  46.703  1.00  0.00    -0.550 OA
ATOM     12  O   UNL     1       0.612  18.493  47.243  1.00  0.00    -0.550 OA
ENDBRANCH   9  10
ENDBRANCH   8   9
ENDBRANCH   7   8
ENDBRANCH   6   7
ENDBRANCH   5   6
ENDBRANCH   4   5
ENDBRANCH   3   4
ENDBRANCH   1   3
BRANCH   2  13
ATOM     13  C   UNL     1      -6.155  24.469  48.978  1.00  0.00     0.027 C 
BRANCH  13  14
ATOM     14  C   UNL     1      -5.849  25.099  50.347  1.00  0.00     0.004 C 
BRANCH  14  15
ATOM     15  C   UNL     1      -5.049  24.161  51.265  1.00  0.00     0.000 C 
BRANCH  15  16
ATOM     16  C   UNL     1      -4.093  24.925  52.199  1.00  0.00     0.000 C 
BRANCH  16  17
ATOM     17  C   UNL     1      -2.617  24.570  51.952  1.00  0.00    -0.000 C 
BRANCH  17  18
ATOM     18  C   UNL     1      -2.209  24.727  50.481  1.00  0.00    -0.000 C 
BRANCH  18  19
ATOM     19  C   UNL     1      -1.615  23.423  49.936  1.00  0.00    -0.003 C 
ATOM     20  C   UNL     1      -0.120  23.333  50.227  1.00  0.00     0.004 C 
ENDBRANCH  18  19
ENDBRANCH  17  18
ENDBRANCH  16  17
ENDBRANCH  15  16
ENDBRANCH  14  15
ENDBRANCH  13  14
ENDBRANCH   2  13
TORSDOF 15
ENDMDL
MODEL 2
REMARK VINA RESULT:    -5.008      3.312      7.183
REMARK INTER + INTRA:         -11.193
REMARK INTER:                  -8.977
REMARK INTRA:                  -2.216
REMARK UNBOUND:                -1.793
REMARK SMILES CCCCCCCCC=CCCCCCCCC(=O)[O-]
REMARK SMILES IDX 10 1 9 2 11 3 12 4 13 5 14 6 15 7 16 8 17 9 18 10 19 11
REMARK SMILES IDX 20 12 8 13 7 14 6 15 5 16 4 17 3 18 2 19 1 20
REMARK H PARENT
REMARK Flexibility Score: inf
ROOT
ATOM      1  C   UNL     1      -4.385  21.135  48.476  1.00  0.00    -0.031 C 
ATOM      2  C   UNL     1      -4.319  19.806  48.295  1.00  0.00    -0.031 C 
ENDROOT
BRANCH   1   3
ATOM      3  C   UNL     1      -5.375  21.982  47.726  1.00  0.00     0.027 C 
BRANCH   3   4
ATOM      4  C   UNL     1      -5.209  23.470  48.076  1.00  0.00     0.004 C 
BRANCH   4   5
ATOM      5  C   UNL     1      -4.808  23.698  49.546  1.00  0.00     0.000 C 
BRANCH   5   6
ATOM      6  C   UNL     1      -5.699  24.688  50.319  1.00  0.00     0.000 C 
BRANCH   6   7
ATOM      7  C   UNL     1      -6.884  25.204  49.484  1.00  0.00     0.000 C 
BRANCH   7   8
ATOM      8  C   UNL     1      -7.041  26.731  49.561  1.00  0.00     0.006 C 
BRANCH   8   9
ATOM      9  C   UNL     1      -7.143  27.391  48.178  1.00  0.00     0.053 C 
BRANCH   9  10
ATOM     10  C   UNL     1      -5.959  27.024  47.339  1.00  0.00     0.041 C 
ATOM     11  O   UNL     1      -6.122  26.456  46.227  1.00  0.00    -0.550 OA
ATOM     12  O   UNL     1      -4.673  27.269  47.806  1.00  0.00    -0.550 OA
ENDBRANCH   9  10
ENDBRANCH   8   9
ENDBRANCH   7   8
ENDBRANCH   6   7
ENDBRANCH   5   6
ENDBRANCH   4   5
ENDBRANCH   3   4
ENDBRANCH   1   3
BRANCH   2  13
ATOM     13  C   UNL     1      -3.316  18.960  49.030  1.00  0.00     0.027 C 
BRANCH  13  14
ATOM     14  C   UNL     1      -2.828  17.795  48.153  1.00  0.00     0.004 C 
BRANCH  14  15
ATOM     15  C   UNL     1      -1.430  18.042  47.564  1.00  0.00     0.000 C 
BRANCH  15  16
ATOM     16  C   UNL     1      -1.456  19.006  46.364  1.00  0.00     0.000 C 
BRANCH  16  17
ATOM     17  C   UNL     1      -0.868  20.386  46.702  1.00  0.00    -0.000 C 
BRANCH  17  18
ATOM     18  C   UNL     1      -1.671  21.539  46.085  1.00  0.00    -0.000 C 
BRANCH  18  19
ATOM     19  C   UNL     1      -1.559  22.804  46.943  1.00  0.00    -0.003 C 
ATOM     20  C   UNL     1      -0.950  22.494  48.307  1.00  0.00     0.004 C 
ENDBRANCH  18  19
ENDBRANCH  17  18
ENDBRANCH  16  17
ENDBRANCH  15  16
ENDBRANCH  14  15
ENDBRANCH  13  14
ENDBRANCH   2  13
TORSDOF 15
ENDMDL
MODEL 3
REMARK VINA RESULT:    -4.966      2.003      3.406
REMARK INTER + INTRA:         -11.114
REMARK INTER:                  -9.368
REMARK INTRA:                  -1.746
REMARK UNBOUND:                -1.793
REMARK SMILES CCCCCCCCC=CCCCCCCCC(=O)[O-]
REMARK SMILES IDX 10 1 9 2 11 3 12 4 13 5 14 6 15 7 16 8 17 9 18 10 19 11
REMARK SMILES IDX 20 12 8 13 7 14 6 15 5 16 4 17 3 18 2 19 1 20
REMARK H PARENT
REMARK Flexibility Score: inf
ROOT
ATOM      1  C   UNL     1      -3.877  20.464  48.675  1.00  0.00    -0.031 C 
ATOM      2  C   UNL     1      -4.840  20.782  47.793  1.00  0.00    -0.031 C 
ENDROOT
BRANCH   1   3
ATOM      3  C   UNL     1      -3.492  19.034  48.934  1.00  0.00     0.027 C 
BRANCH   3   4
ATOM      4  C   UNL     1      -3.453  18.224  47.629  1.00  0.00     0.004 C 
BRANCH   4   5
ATOM      5  C   UNL     1      -2.095  17.536  47.390  1.00  0.00     0.000 C 
BRANCH   5   6
ATOM      6  C   UNL     1      -1.190  18.224  46.352  1.00  0.00     0.000 C 
BRANCH   6   7
ATOM      7  C   UNL     1      -0.027  19.001  46.994  1.00  0.00     0.000 C 
BRANCH   7   8
ATOM      8  C   UNL     1      -0.354  20.489  47.200  1.00  0.00     0.006 C 
BRANCH   8   9
ATOM      9  C   UNL     1      -1.384  21.019  46.193  1.00  0.00     0.053 C 
BRANCH   9  10
ATOM     10  C   UNL     1      -1.595  22.487  46.388  1.00  0.00     0.041 C 
ATOM     11  O   UNL     1      -1.624  22.975  47.549  1.00  0.00    -0.550 OA
ATOM     12  O   UNL     1      -1.805  23.311  45.289  1.00  0.00    -0.550 OA
ENDBRANCH   9  10
ENDBRANCH   8   9
ENDBRANCH   7   8
ENDBRANCH   6   7
ENDBRANCH   5   6
ENDBRANCH   4   5
ENDBRANCH   3   4
ENDBRANCH   1   3
BRANCH   2  13
ATOM     13  C   UNL     1      -5.241  22.210  47.547  1.00  0.00     0.027 C 
BRANCH  13  14
ATOM     14  C   UNL     1      -4.898  23.097  48.755  1.00  0.00     0.004 C 
BRANCH  14  15
ATOM     15  C   UNL     1      -5.836  24.307  48.888  1.00  0.00     0.000 C 
BRANCH  15  16
ATOM     16  C   UNL     1      -6.033  24.743  50.352  1.00  0.00     0.000 C 
BRANCH  16  17
ATOM     17  C   UNL     1      -4.810  24.432  51.230  1.00  0.00    -0.000 C 
BRANCH  17  18
ATOM     18  C   UNL     1      -4.333  25.650  52.033  1.00  0.00    -0.000 C 
BRANCH  18  19
ATOM     19  C   UNL     1      -3.127  25.290  52.908  1.00  0.00    -0.003 C 
ATOM     20  C   UNL     1      -2.604  26.511  53.659  1.00  0.00     0.004 C 
ENDBRANCH  18  19
ENDBRANCH  17  18
ENDBRANCH  16  17
ENDBRANCH  15  16
ENDBRANCH  14  15
ENDBRANCH  13  14
ENDBRANCH   2  13
TORSDOF 15
ENDMDL
MODEL 4
REMARK VINA RESULT:    -4.959      2.904      6.860
REMARK INTER + INTRA:         -11.100
REMARK INTER:                  -8.886
REMARK INTRA:                  -2.214
REMARK UNBOUND:                -1.793
REMARK SMILES CCCCCCCCC=CCCCCCCCC(=O)[O-]
REMARK SMILES IDX 10 1 9 2 11 3 12 4 13 5 14 6 15 7 16 8 17 9 18 10 19 11
REMARK SMILES IDX 20 12 8 13 7 14 6 15 5 16 4 17 3 18 2 19 1 20
REMARK H PARENT
REMARK Flexibility Score: inf
ROOT
ATOM      1  C   UNL     1      -4.264  20.922  48.407  1.00  0.00    -0.031 C 
ATOM      2  C   UNL     1      -4.188  19.588  48.265  1.00  0.00    -0.031 C 
ENDROOT
BRANCH   1   3
ATOM      3  C   UNL     1      -5.030  21.773  47.433  1.00  0.00     0.027 C 
BRANCH   3   4
ATOM      4  C   UNL     1      -5.735  22.936  48.149  1.00  0.00     0.004 C 
BRANCH   4   5
ATOM      5  C   UNL     1      -4.933  24.251  48.091  1.00  0.00     0.000 C 
BRANCH   5   6
ATOM      6  C   UNL     1      -4.751  24.964  49.444  1.00  0.00     0.000 C 
BRANCH   6   7
ATOM      7  C   UNL     1      -3.864  24.174  50.422  1.00  0.00     0.000 C 
BRANCH   7   8
ATOM      8  C   UNL     1      -4.383  24.231  51.868  1.00  0.00     0.006 C 
BRANCH   8   9
ATOM      9  C   UNL     1      -3.853  25.446  52.643  1.00  0.00     0.053 C 
BRANCH   9  10
ATOM     10  C   UNL     1      -2.369  25.350  52.809  1.00  0.00     0.041 C 
ATOM     11  O   UNL     1      -1.624  26.276  52.392  1.00  0.00    -0.550 OA
ATOM     12  O   UNL     1      -1.805  24.217  53.382  1.00  0.00    -0.550 OA
ENDBRANCH   9  10
ENDBRANCH   8   9
ENDBRANCH   7   8
ENDBRANCH   6   7
ENDBRANCH   5   6
ENDBRANCH   4   5
ENDBRANCH   3   4
ENDBRANCH   1   3
BRANCH   2  13
ATOM     13  C   UNL     1      -3.406  18.737  49.227  1.00  0.00     0.027 C 
BRANCH  13  14
ATOM     14  C   UNL     1      -2.490  17.755  48.478  1.00  0.00     0.004 C 
BRANCH  14  15
ATOM     15  C   UNL     1      -2.651  17.840  46.952  1.00  0.00     0.000 C 
BRANCH  15  16
ATOM     16  C   UNL     1      -1.329  18.171  46.236  1.00  0.00     0.000 C 
BRANCH  16  17
ATOM     17  C   UNL     1      -0.541  19.289  46.938  1.00  0.00    -0.000 C 
BRANCH  17  18
ATOM     18  C   UNL     1      -1.023  20.692  46.544  1.00  0.00    -0.000 C 
BRANCH  18  19
ATOM     19  C   UNL     1      -0.848  21.677  47.705  1.00  0.00    -0.003 C 
ATOM     20  C   UNL     1      -1.410  23.051  47.353  1.00  0.00     0.004 C 
ENDBRANCH  18  19
ENDBRANCH  17  18
ENDBRANCH  16  17
ENDBRANCH  15  16
ENDBRANCH  14  15
ENDBRANCH  13  14
ENDBRANCH   2  13
TORSDOF 15
ENDMDL
MODEL 5
REMARK VINA RESULT:    -4.951      3.546      7.347
REMARK INTER + INTRA:         -11.084
REMARK INTER:                  -9.207
REMARK INTRA:                  -1.878
REMARK UNBOUND:                -1.793
REMARK SMILES CCCCCCCCC=CCCCCCCCC(=O)[O-]
REMARK SMILES IDX 10 1 9 2 11 3 12 4 13 5 14 6 15 7 16 8 17 9 18 10 19 11
REMARK SMILES IDX 20 12 8 13 7 14 6 15 5 16 4 17 3 18 2 19 1 20
REMARK H PARENT
REMARK Flexibility Score: inf
ROOT
ATOM      1  C   UNL     1      -4.259  20.847  48.401  1.00  0.00    -0.031 C 
ATOM      2  C   UNL     1      -4.338  19.507  48.375  1.00  0.00    -0.031 C 
ENDROOT
BRANCH   1   3
ATOM      3  C   UNL     1      -5.285  21.708  47.719  1.00  0.00     0.027 C 
BRANCH   3   4
ATOM      4  C   UNL     1      -5.298  23.128  48.307  1.00  0.00     0.004 C 
BRANCH   4   5
ATOM      5  C   UNL     1      -4.356  23.283  49.518  1.00  0.00     0.000 C 
BRANCH   5   6
ATOM      6  C   UNL     1      -4.487  24.616  50.278  1.00  0.00     0.000 C 
BRANCH   6   7
ATOM      7  C   UNL     1      -4.612  24.427  51.800  1.00  0.00     0.000 C 
BRANCH   7   8
ATOM      8  C   UNL     1      -3.426  25.030  52.569  1.00  0.00     0.006 C 
BRANCH   8   9
ATOM      9  C   UNL     1      -3.793  26.322  53.314  1.00  0.00     0.053 C 
BRANCH   9  10
ATOM     10  C   UNL     1      -2.981  27.468  52.799  1.00  0.00     0.041 C 
ATOM     11  O   UNL     1      -2.764  27.587  51.564  1.00  0.00    -0.550 OA
ATOM     12  O   UNL     1      -2.423  28.380  53.688  1.00  0.00    -0.550 OA
ENDBRANCH   9  10
ENDBRANCH   8   9
ENDBRANCH   7   8
ENDBRANCH   6   7
ENDBRANCH   5   6
ENDBRANCH   4   5
ENDBRANCH   3   4
ENDBRANCH   1   3
BRANCH   2  13
ATOM     13  C   UNL     1      -3.301  18.644  49.039  1.00  0.00     0.027 C 
BRANCH  13  14
ATOM     14  C   UNL     1      -2.774  17.569  48.073  1.00  0.00     0.004 C 
BRANCH  14  15
ATOM     15  C   UNL     1      -1.421  17.945  47.450  1.00  0.00     0.000 C 
BRANCH  15  16
ATOM     16  C   UNL     1      -1.557  18.994  46.331  1.00  0.00     0.000 C 
BRANCH  16  17
ATOM     17  C   UNL     1      -0.977  20.361  46.729  1.00  0.00    -0.000 C 
BRANCH  17  18
ATOM     18  C   UNL     1      -1.659  21.528  46.001  1.00  0.00    -0.000 C 
BRANCH  18  19
ATOM     19  C   UNL     1      -1.608  22.805  46.848  1.00  0.00    -0.003 C 
ATOM     20  C   UNL     1      -0.875  22.565  48.165  1.00  0.00     0.004 C 
ENDBRANCH  18  19
ENDBRANCH  17  18
ENDBRANCH  16  17
ENDBRANCH  15  16
ENDBRANCH  14  15
ENDBRANCH  13  14
ENDBRANCH   2  13
TORSDOF 15
ENDMDL
MODEL 6
REMARK VINA RESULT:    -4.912      3.852      7.870
REMARK INTER + INTRA:         -11.012
REMARK INTER:                  -9.269
REMARK INTRA:                  -1.743
REMARK UNBOUND:                -1.793
REMARK SMILES CCCCCCCCC=CCCCCCCCC(=O)[O-]
REMARK SMILES IDX 10 1 9 2 11 3 12 4 13 5 14 6 15 7 16 8 17 9 18 10 19 11
REMARK SMILES IDX 20 12 8 13 7 14 6 15 5 16 4 17 3 18 2 19 1 20
REMARK H PARENT
REMARK Flexibility Score: inf
ROOT
ATOM      1  C   UNL     1      -4.465  23.912  50.423  1.00  0.00    -0.031 C 
ATOM      2  C   UNL     1      -5.444  24.200  49.550  1.00  0.00    -0.031 C 
ENDROOT
BRANCH   1   3
ATOM      3  C   UNL     1      -4.604  24.221  51.888  1.00  0.00     0.027 C 
BRANCH   3   4
ATOM      4  C   UNL     1      -3.434  25.085  52.385  1.00  0.00     0.004 C 
BRANCH   4   5
ATOM      5  C   UNL     1      -3.890  26.257  53.275  1.00  0.00     0.000 C 
BRANCH   5   6
ATOM      6  C   UNL     1      -3.960  27.624  52.567  1.00  0.00     0.000 C 
BRANCH   6   7
ATOM      7  C   UNL     1      -3.460  27.571  51.113  1.00  0.00     0.000 C 
BRANCH   7   8
ATOM      8  C   UNL     1      -4.532  28.012  50.104  1.00  0.00     0.006 C 
BRANCH   8   9
ATOM      9  C   UNL     1      -5.930  27.476  50.446  1.00  0.00     0.053 C 
BRANCH   9  10
ATOM     10  C   UNL     1      -6.858  27.670  49.288  1.00  0.00     0.041 C 
ATOM     11  O   UNL     1      -7.811  26.868  49.098  1.00  0.00    -0.550 OA
ATOM     12  O   UNL     1      -6.644  28.710  48.391  1.00  0.00    -0.550 OA
ENDBRANCH   9  10
ENDBRANCH   8   9
ENDBRANCH   7   8
ENDBRANCH   6   7
ENDBRANCH   5   6
ENDBRANCH   4   5
ENDBRANCH   3   4
ENDBRANCH   1   3
BRANCH   2  13
ATOM     13  C   UNL     1      -5.299  23.910  48.081  1.00  0.00     0.027 C 
BRANCH  13  14
ATOM     14  C   UNL     1      -5.743  22.474  47.755  1.00  0.00     0.004 C 
BRANCH  14  15
ATOM     15  C   UNL     1      -4.567  21.564  47.367  1.00  0.00     0.000 C 
BRANCH  15  16
ATOM     16  C   UNL     1      -4.262  20.504  48.441  1.00  0.00     0.000 C 
BRANCH  16  17
ATOM     17  C   UNL     1      -2.755  20.252  48.612  1.00  0.00    -0.000 C 
BRANCH  17  18
ATOM     18  C   UNL     1      -2.188  19.304  47.546  1.00  0.00    -0.000 C 
BRANCH  18  19
ATOM     19  C   UNL     1      -3.143  18.132  47.293  1.00  0.00    -0.003 C 
ATOM     20  C   UNL     1      -3.081  17.673  45.839  1.00  0.00     0.004 C 
ENDBRANCH  18  19
ENDBRANCH  17  18
ENDBRANCH  16  17
ENDBRANCH  15  16
ENDBRANCH  14  15
ENDBRANCH  13  14
ENDBRANCH   2  13
TORSDOF 15
ENDMDL
MODEL 7
REMARK VINA RESULT:    -4.902      1.861      3.257
REMARK INTER + INTRA:         -10.992
REMARK INTER:                  -8.797
REMARK INTRA:                  -2.195
REMARK UNBOUND:                -1.793
REMARK SMILES CCCCCCCCC=CCCCCCCCC(=O)[O-]
REMARK SMILES IDX 10 1 9 2 11 3 12 4 13 5 14 6 15 7 16 8 17 9 18 10 19 11
REMARK SMILES IDX 20 12 8 13 7 14 6 15 5 16 4 17 3 18 2 19 1 20
REMARK H PARENT
REMARK Flexibility Score: inf
ROOT
ATOM      1  C   UNL     1      -5.408  24.008  49.686  1.00  0.00    -0.031 C 
ATOM      2  C   UNL     1      -4.258  23.930  50.375  1.00  0.00    -0.031 C 
ENDROOT
BRANCH   1   3
ATOM      3  C   UNL     1      -5.435  23.896  48.187  1.00  0.00     0.027 C 
BRANCH   3   4
ATOM      4  C   UNL     1      -5.461  22.426  47.741  1.00  0.00     0.004 C 
BRANCH   4   5
ATOM      5  C   UNL     1      -4.188  22.008  46.978  1.00  0.00     0.000 C 
BRANCH   5   6
ATOM      6  C   UNL     1      -3.262  21.039  47.737  1.00  0.00     0.000 C 
BRANCH   6   7
ATOM      7  C   UNL     1      -4.010  20.189  48.778  1.00  0.00     0.000 C 
BRANCH   7   8
ATOM      8  C   UNL     1      -4.277  18.756  48.289  1.00  0.00     0.006 C 
BRANCH   8   9
ATOM      9  C   UNL     1      -3.039  17.853  48.385  1.00  0.00     0.053 C 
BRANCH   9  10
ATOM     10  C   UNL     1      -2.526  17.527  47.018  1.00  0.00     0.041 C 
ATOM     11  O   UNL     1      -1.287  17.485  46.799  1.00  0.00    -0.550 OA
ATOM     12  O   UNL     1      -3.418  17.315  45.973  1.00  0.00    -0.550 OA
ENDBRANCH   9  10
ENDBRANCH   8   9
ENDBRANCH   7   8
ENDBRANCH   6   7
ENDBRANCH   5   6
ENDBRANCH   4   5
ENDBRANCH   3   4
ENDBRANCH   1   3
BRANCH   2  13
ATOM     13  C   UNL     1      -4.227  24.061  51.873  1.00  0.00     0.027 C 
BRANCH  13  14
ATOM     14  C   UNL     1      -3.271  25.184  52.310  1.00  0.00     0.004 C 
BRANCH  14  15
ATOM     15  C   UNL     1      -4.002  26.356  52.984  1.00  0.00     0.000 C 
BRANCH  15  16
ATOM     16  C   UNL     1      -4.104  27.592  52.071  1.00  0.00     0.000 C 
BRANCH  16  17
ATOM     17  C   UNL     1      -5.192  27.444  50.995  1.00  0.00    -0.000 C 
BRANCH  17  18
ATOM     18  C   UNL     1      -4.678  27.767  49.585  1.00  0.00    -0.000 C 
BRANCH  18  19
ATOM     19  C   UNL     1      -3.157  27.597  49.505  1.00  0.00    -0.003 C 
ATOM     20  C   UNL     1      -2.769  26.608  48.410  1.00  0.00     0.004 C 
ENDBRANCH  18  19
ENDBRANCH  17  18
ENDBRANCH  16  17
ENDBRANCH  15  16
ENDBRANCH  14  15
ENDBRANCH  13  14
ENDBRANCH   2  13
TORSDOF 15
ENDMDL
MODEL 8
REMARK VINA RESULT:    -4.896      1.352      3.118
REMARK INTER + INTRA:         -10.982
REMARK INTER:                  -8.868
REMARK INTRA:                  -2.115
REMARK UNBOUND:                -1.793
REMARK SMILES CCCCCCCCC=CCCCCCCCC(=O)[O-]
REMARK SMILES IDX 10 1 9 2 11 3 12 4 13 5 14 6 15 7 16 8 17 9 18 10 19 11
REMARK SMILES IDX 20 12 8 13 7 14 6 15 5 16 4 17 3 18 2 19 1 20
REMARK H PARENT
REMARK Flexibility Score: inf
ROOT
ATOM      1  C   UNL     1      -5.632  24.801  50.127  1.00  0.00    -0.031 C 
ATOM      2  C   UNL     1      -4.613  24.151  50.715  1.00  0.00    -0.031 C 
ENDROOT
BRANCH   1   3
ATOM      3  C   UNL     1      -5.962  24.594  48.675  1.00  0.00     0.027 C 
BRANCH   3   4
ATOM      4  C   UNL     1      -4.686  24.416  47.837  1.00  0.00     0.004 C 
BRANCH   4   5
ATOM      5  C   UNL     1      -4.677  23.104  47.029  1.00  0.00     0.000 C 
BRANCH   5   6
ATOM      6  C   UNL     1      -5.294  21.891  47.751  1.00  0.00     0.000 C 
BRANCH   6   7
ATOM      7  C   UNL     1      -4.256  21.069  48.534  1.00  0.00     0.000 C 
BRANCH   7   8
ATOM      8  C   UNL     1      -4.250  19.586  48.130  1.00  0.00     0.006 C 
BRANCH   8   9
ATOM      9  C   UNL     1      -3.254  18.749  48.947  1.00  0.00     0.053 C 
BRANCH   9  10
ATOM     10  C   UNL     1      -2.264  18.088  48.040  1.00  0.00     0.041 C 
ATOM     11  O   UNL     1      -2.403  16.877  47.725  1.00  0.00    -0.550 OA
ATOM     12  O   UNL     1      -1.161  18.798  47.580  1.00  0.00    -0.550 OA
ENDBRANCH   9  10
ENDBRANCH   8   9
ENDBRANCH   7   8
ENDBRANCH   6   7
ENDBRANCH   5   6
ENDBRANCH   4   5
ENDBRANCH   3   4
ENDBRANCH   1   3
BRANCH   2  13
ATOM     13  C   UNL     1      -4.269  24.372  52.162  1.00  0.00     0.027 C 
BRANCH  13  14
ATOM     14  C   UNL     1      -4.085  25.869  52.464  1.00  0.00     0.004 C 
BRANCH  14  15
ATOM     15  C   UNL     1      -2.882  26.145  53.380  1.00  0.00     0.000 C 
BRANCH  15  16
ATOM     16  C   UNL     1      -1.677  25.241  53.060  1.00  0.00     0.000 C 
BRANCH  16  17
ATOM     17  C   UNL     1      -0.766  25.834  51.972  1.00  0.00    -0.000 C 
BRANCH  17  18
ATOM     18  C   UNL     1      -0.969  25.169  50.603  1.00  0.00    -0.000 C 
BRANCH  18  19
ATOM     19  C   UNL     1      -0.812  23.648  50.706  1.00  0.00    -0.003 C 
ATOM     20  C   UNL     1      -1.365  22.950  49.466  1.00  0.00     0.004 C 
ENDBRANCH  18  19
ENDBRANCH  17  18
ENDBRANCH  16  17
ENDBRANCH  15  16
ENDBRANCH  14  15
ENDBRANCH  13  14
ENDBRANCH   2  13
TORSDOF 15
ENDMDL
MODEL 9
REMARK VINA RESULT:    -4.878      3.759      7.876
REMARK INTER + INTRA:         -10.948
REMARK INTER:                  -9.701
REMARK INTRA:                  -1.247
REMARK UNBOUND:                -1.793
REMARK SMILES CCCCCCCCC=CCCCCCCCC(=O)[O-]
REMARK SMILES IDX 10 1 9 2 11 3 12 4 13 5 14 6 15 7 16 8 17 9 18 10 19 11
REMARK SMILES IDX 20 12 8 13 7 14 6 15 5 16 4 17 3 18 2 19 1 20
REMARK H PARENT
REMARK Flexibility Score: inf
ROOT
ATOM      1  C   UNL     1      -5.000  23.272  48.482  1.00  0.00    -0.031 C 
ATOM      2  C   UNL     1      -5.381  22.230  47.725  1.00  0.00    -0.031 C 
ENDROOT
BRANCH   1   3
ATOM      3  C   UNL     1      -5.962  24.366  48.854  1.00  0.00     0.027 C 
BRANCH   3   4
ATOM      4  C   UNL     1      -5.848  24.721  50.345  1.00  0.00     0.004 C 
BRANCH   4   5
ATOM      5  C   UNL     1      -4.607  24.101  51.016  1.00  0.00     0.000 C 
BRANCH   5   6
ATOM      6  C   UNL     1      -4.171  24.776  52.330  1.00  0.00     0.000 C 
BRANCH   6   7
ATOM      7  C   UNL     1      -3.976  26.295  52.186  1.00  0.00     0.000 C 
BRANCH   7   8
ATOM      8  C   UNL     1      -3.896  27.012  53.543  1.00  0.00     0.006 C 
BRANCH   8   9
ATOM      9  C   UNL     1      -2.475  27.033  54.124  1.00  0.00     0.053 C 
BRANCH   9  10
ATOM     10  C   UNL     1      -1.663  28.110  53.476  1.00  0.00     0.041 C 
ATOM     11  O   UNL     1      -0.413  27.993  53.382  1.00  0.00    -0.550 OA
ATOM     12  O   UNL     1      -2.284  29.266  53.017  1.00  0.00    -0.550 OA
ENDBRANCH   9  10
ENDBRANCH   8   9
ENDBRANCH   7   8
ENDBRANCH   6   7
ENDBRANCH   5   6
ENDBRANCH   4   5
ENDBRANCH   3   4
ENDBRANCH   1   3
BRANCH   2  13
ATOM     13  C   UNL     1      -4.416  21.145  47.336  1.00  0.00     0.027 C 
BRANCH  13  14
ATOM     14  C   UNL     1      -3.873  20.416  48.577  1.00  0.00     0.004 C 
BRANCH  14  15
ATOM     15  C   UNL     1      -4.283  18.936  48.622  1.00  0.00     0.000 C 
BRANCH  15  16
ATOM     16  C   UNL     1      -3.091  17.987  48.402  1.00  0.00     0.000 C 
BRANCH  16  17
ATOM     17  C   UNL     1      -2.883  17.633  46.920  1.00  0.00    -0.000 C 
BRANCH  17  18
ATOM     18  C   UNL     1      -1.481  18.001  46.414  1.00  0.00    -0.000 C 
BRANCH  18  19
ATOM     19  C   UNL     1      -0.789  18.969  47.380  1.00  0.00    -0.003 C 
ATOM     20  C   UNL     1      -0.379  20.257  46.671  1.00  0.00     0.004 C 
ENDBRANCH  18  19
ENDBRANCH  17  18
ENDBRANCH  16  17
ENDBRANCH  15  16
ENDBRANCH  14  15
ENDBRANCH  13  14
ENDBRANCH   2  13
TORSDOF 15
ENDMDL
