MODEL 1
REMARK VINA RESULT:    -4.361      0.000      0.000
REMARK INTER + INTRA:          -5.768
REMARK INTER:                  -5.381
REMARK INTRA:                  -0.388
REMARK UNBOUND:                -0.388
REMARK SMILES C=CC[C@H](C)C(=O)CC
REMARK SMILES IDX 4 1 5 2 6 3 7 4 8 5 9 6 3 7 2 8 1 9
REMARK H PARENT
REMARK Flexibility Score: inf
ROOT
ATOM      1  C   UNL     1      -2.976 -23.877  -9.971  1.00  0.00     0.057 C 
ATOM      2  C   UNL     1      -3.341 -24.442 -11.351  1.00  0.00     0.016 C 
ENDROOT
BRANCH   1   3
ATOM      3  C   UNL     1      -3.310 -22.401  -9.893  1.00  0.00     0.135 C 
ATOM      4  O   UNL     1      -3.363 -21.862  -8.796  1.00  0.00    -0.299 OA
BRANCH   3   5
ATOM      5  C   UNL     1      -3.551 -21.568 -11.127  1.00  0.00     0.072 C 
ATOM      6  C   UNL     1      -2.270 -20.874 -11.574  1.00  0.00     0.012 C 
ENDBRANCH   3   5
ENDBRANCH   1   3
BRANCH   1   7
ATOM      7  C   UNL     1      -1.491 -24.118  -9.623  1.00  0.00     0.038 C 
BRANCH   7   8
ATOM      8  C   UNL     1      -0.609 -24.105 -10.844  1.00  0.00    -0.034 C 
ATOM      9  C   UNL     1       0.685 -24.430 -10.782  1.00  0.00     0.004 C 
ENDBRANCH   7   8
ENDBRANCH   1   7
TORSDOF 4
ENDMDL
MODEL 2
REMARK VINA RESULT:    -4.261      1.358      2.887
REMARK INTER + INTRA:          -5.645
REMARK INTER:                  -5.227
REMARK INTRA:                  -0.419
REMARK UNBOUND:                -0.388
REMARK SMILES C=CC[C@H](C)C(=O)CC
REMARK SMILES IDX 4 1 5 2 6 3 7 4 8 5 9 6 3 7 2 8 1 9
REMARK H PARENT
REMARK Flexibility Score: inf
ROOT
ATOM      1  C   UNL     1      -1.555 -23.253  -9.572  1.00  0.00     0.057 C 
ATOM      2  C   UNL     1      -0.727 -24.520  -9.317  1.00  0.00     0.016 C 
ENDROOT
BRANCH   1   3
ATOM      3  C   UNL     1      -2.944 -23.612 -10.061  1.00  0.00     0.135 C 
ATOM      4  O   UNL     1      -3.914 -23.258  -9.406  1.00  0.00    -0.299 OA
BRANCH   3   5
ATOM      5  C   UNL     1      -3.169 -24.368 -11.347  1.00  0.00     0.072 C 
ATOM      6  C   UNL     1      -3.768 -23.459 -12.415  1.00  0.00     0.012 C 
ENDBRANCH   3   5
ENDBRANCH   1   3
BRANCH   1   7
ATOM      7  C   UNL     1      -0.858 -22.298 -10.565  1.00  0.00     0.038 C 
BRANCH   7   8
ATOM      8  C   UNL     1      -1.513 -20.942 -10.608  1.00  0.00    -0.034 C 
ATOM      9  C   UNL     1      -1.921 -20.392 -11.755  1.00  0.00     0.004 C 
ENDBRANCH   7   8
ENDBRANCH   1   7
TORSDOF 4
ENDMDL
MODEL 3
REMARK VINA RESULT:    -4.243      1.953      3.578
REMARK INTER + INTRA:          -5.623
REMARK INTER:                  -5.120
REMARK INTRA:                  -0.503
REMARK UNBOUND:                -0.388
REMARK SMILES C=CC[C@H](C)C(=O)CC
REMARK SMILES IDX 4 1 5 2 6 3 7 4 8 5 9 6 3 7 2 8 1 9
REMARK H PARENT
REMARK Flexibility Score: inf
ROOT
ATOM      1  C   UNL     1      -1.883 -23.147 -11.853  1.00  0.00     0.057 C 
ATOM      2  C   UNL     1      -0.666 -24.067 -12.026  1.00  0.00     0.016 C 
ENDROOT
BRANCH   1   3
ATOM      3  C   UNL     1      -2.994 -23.865 -11.113  1.00  0.00     0.135 C 
ATOM      4  O   UNL     1      -3.587 -24.776 -11.673  1.00  0.00    -0.299 OA
BRANCH   3   5
ATOM      5  C   UNL     1      -3.373 -23.510  -9.697  1.00  0.00     0.072 C 
ATOM      6  C   UNL     1      -2.785 -22.161  -9.297  1.00  0.00     0.012 C 
ENDBRANCH   3   5
ENDBRANCH   1   3
BRANCH   1   7
ATOM      7  C   UNL     1      -2.392 -22.603 -13.205  1.00  0.00     0.038 C 
BRANCH   7   8
ATOM      8  C   UNL     1      -3.328 -21.435 -13.034  1.00  0.00    -0.034 C 
ATOM      9  C   UNL     1      -2.907 -20.259 -12.560  1.00  0.00     0.004 C 
ENDBRANCH   7   8
ENDBRANCH   1   7
TORSDOF 4
ENDMDL
MODEL 4
REMARK VINA RESULT:    -4.223      1.099      3.189
REMARK INTER + INTRA:          -5.598
REMARK INTER:                  -5.182
REMARK INTRA:                  -0.416
REMARK UNBOUND:                -0.388
REMARK SMILES C=CC[C@H](C)C(=O)CC
REMARK SMILES IDX 4 1 5 2 6 3 7 4 8 5 9 6 3 7 2 8 1 9
REMARK H PARENT
REMARK Flexibility Score: inf
ROOT
ATOM      1  C   UNL     1      -3.025 -23.106 -11.375  1.00  0.00     0.057 C 
ATOM      2  C   UNL     1      -3.696 -24.259 -12.135  1.00  0.00     0.016 C 
ENDROOT
BRANCH   1   3
ATOM      3  C   UNL     1      -2.821 -23.474  -9.919  1.00  0.00     0.135 C 
ATOM      4  O   UNL     1      -3.799 -23.584  -9.192  1.00  0.00    -0.299 OA
BRANCH   3   5
ATOM      5  C   UNL     1      -1.452 -23.737  -9.344  1.00  0.00     0.072 C 
ATOM      6  C   UNL     1      -0.362 -23.208 -10.269  1.00  0.00     0.012 C 
ENDBRANCH   3   5
ENDBRANCH   1   3
BRANCH   1   7
ATOM      7  C   UNL     1      -3.825 -21.791 -11.498  1.00  0.00     0.038 C 
BRANCH   7   8
ATOM      8  C   UNL     1      -3.107 -20.763 -12.332  1.00  0.00    -0.034 C 
ATOM      9  C   UNL     1      -1.974 -20.187 -11.919  1.00  0.00     0.004 C 
ENDBRANCH   7   8
ENDBRANCH   1   7
TORSDOF 4
ENDMDL
MODEL 5
REMARK VINA RESULT:    -4.142      1.550      3.388
REMARK INTER + INTRA:          -5.498
REMARK INTER:                  -5.157
REMARK INTRA:                  -0.341
REMARK UNBOUND:                -0.388
REMARK SMILES C=CC[C@H](C)C(=O)CC
REMARK SMILES IDX 4 1 5 2 6 3 7 4 8 5 9 6 3 7 2 8 1 9
REMARK H PARENT
REMARK Flexibility Score: inf
ROOT
ATOM      1  C   UNL     1      -3.164 -21.671 -11.054  1.00  0.00     0.057 C 
ATOM      2  C   UNL     1      -1.863 -20.903 -11.328  1.00  0.00     0.016 C 
ENDROOT
BRANCH   1   3
ATOM      3  C   UNL     1      -3.052 -22.474  -9.775  1.00  0.00     0.135 C 
ATOM      4  O   UNL     1      -3.312 -21.932  -8.709  1.00  0.00    -0.299 OA
BRANCH   3   5
ATOM      5  C   UNL     1      -2.658 -23.930  -9.774  1.00  0.00     0.072 C 
ATOM      6  C   UNL     1      -1.167 -24.091  -9.496  1.00  0.00     0.012 C 
ENDBRANCH   3   5
ENDBRANCH   1   3
BRANCH   1   7
ATOM      7  C   UNL     1      -3.555 -22.583 -12.237  1.00  0.00     0.038 C 
BRANCH   7   8
ATOM      8  C   UNL     1      -2.573 -22.493 -13.376  1.00  0.00    -0.034 C 
ATOM      9  C   UNL     1      -2.971 -22.507 -14.652  1.00  0.00     0.004 C 
ENDBRANCH   7   8
ENDBRANCH   1   7
TORSDOF 4
ENDMDL
MODEL 6
REMARK VINA RESULT:    -4.111      1.709      3.418
REMARK INTER + INTRA:          -5.460
REMARK INTER:                  -5.059
REMARK INTRA:                  -0.401
REMARK UNBOUND:                -0.388
REMARK SMILES C=CC[C@H](C)C(=O)CC
REMARK SMILES IDX 4 1 5 2 6 3 7 4 8 5 9 6 3 7 2 8 1 9
REMARK H PARENT
REMARK Flexibility Score: inf
ROOT
ATOM      1  C   UNL     1      -2.612 -23.743  -9.776  1.00  0.00     0.057 C 
ATOM      2  C   UNL     1      -2.873 -22.271  -9.422  1.00  0.00     0.016 C 
ENDROOT
BRANCH   1   3
ATOM      3  C   UNL     1      -1.137 -24.067  -9.659  1.00  0.00     0.135 C 
ATOM      4  O   UNL     1      -0.764 -24.828  -8.778  1.00  0.00    -0.299 OA
BRANCH   3   5
ATOM      5  C   UNL     1      -0.115 -23.502 -10.615  1.00  0.00     0.072 C 
ATOM      6  C   UNL     1       0.478 -24.601 -11.490  1.00  0.00     0.012 C 
ENDBRANCH   3   5
ENDBRANCH   1   3
BRANCH   1   7
ATOM      7  C   UNL     1      -3.139 -24.101 -11.182  1.00  0.00     0.038 C 
BRANCH   7   8
ATOM      8  C   UNL     1      -3.371 -22.879 -12.033  1.00  0.00    -0.034 C 
ATOM      9  C   UNL     1      -2.702 -22.676 -13.171  1.00  0.00     0.004 C 
ENDBRANCH   7   8
ENDBRANCH   1   7
TORSDOF 4
ENDMDL
MODEL 7
REMARK VINA RESULT:    -4.110      1.920      3.849
REMARK INTER + INTRA:          -5.459
REMARK INTER:                  -5.002
REMARK INTRA:                  -0.457
REMARK UNBOUND:                -0.388
REMARK SMILES C=CC[C@H](C)C(=O)CC
REMARK SMILES IDX 4 1 5 2 6 3 7 4 8 5 9 6 3 7 2 8 1 9
REMARK H PARENT
REMARK Flexibility Score: inf
ROOT
ATOM      1  C   UNL     1      -1.128 -21.986 -11.730  1.00  0.00     0.057 C 
ATOM      2  C   UNL     1      -1.602 -22.884 -12.882  1.00  0.00     0.016 C 
ENDROOT
BRANCH   1   3
ATOM      3  C   UNL     1      -1.111 -22.756 -10.425  1.00  0.00     0.135 C 
ATOM      4  O   UNL     1      -0.153 -23.473 -10.171  1.00  0.00    -0.299 OA
BRANCH   3   5
ATOM      5  C   UNL     1      -2.226 -22.645  -9.414  1.00  0.00     0.072 C 
ATOM      6  C   UNL     1      -3.352 -23.622  -9.736  1.00  0.00     0.012 C 
ENDBRANCH   3   5
ENDBRANCH   1   3
BRANCH   1   7
ATOM      7  C   UNL     1      -1.990 -20.712 -11.599  1.00  0.00     0.038 C 
BRANCH   7   8
ATOM      8  C   UNL     1      -3.178 -20.729 -12.525  1.00  0.00    -0.034 C 
ATOM      9  C   UNL     1      -4.430 -20.808 -12.064  1.00  0.00     0.004 C 
ENDBRANCH   7   8
ENDBRANCH   1   7
TORSDOF 4
ENDMDL
MODEL 8
REMARK VINA RESULT:    -4.062      1.859      3.662
REMARK INTER + INTRA:          -5.399
REMARK INTER:                  -4.985
REMARK INTRA:                  -0.414
REMARK UNBOUND:                -0.388
REMARK SMILES C=CC[C@H](C)C(=O)CC
REMARK SMILES IDX 4 1 5 2 6 3 7 4 8 5 9 6 3 7 2 8 1 9
REMARK H PARENT
REMARK Flexibility Score: inf
ROOT
ATOM      1  C   UNL     1      -3.362 -22.513 -10.589  1.00  0.00     0.057 C 
ATOM      2  C   UNL     1      -2.989 -22.081  -9.163  1.00  0.00     0.016 C 
ENDROOT
BRANCH   1   3
ATOM      3  C   UNL     1      -2.728 -23.847 -10.926  1.00  0.00     0.135 C 
ATOM      4  O   UNL     1      -3.430 -24.739 -11.383  1.00  0.00    -0.299 OA
BRANCH   3   5
ATOM      5  C   UNL     1      -1.252 -24.103 -10.743  1.00  0.00     0.072 C 
ATOM      6  C   UNL     1      -0.539 -24.163 -12.089  1.00  0.00     0.012 C 
ENDBRANCH   3   5
ENDBRANCH   1   3
BRANCH   1   7
ATOM      7  C   UNL     1      -2.973 -21.446 -11.635  1.00  0.00     0.038 C 
BRANCH   7   8
ATOM      8  C   UNL     1      -3.680 -21.652 -12.950  1.00  0.00    -0.034 C 
ATOM      9  C   UNL     1      -3.026 -22.045 -14.047  1.00  0.00     0.004 C 
ENDBRANCH   7   8
ENDBRANCH   1   7
TORSDOF 4
ENDMDL
MODEL 9
REMARK VINA RESULT:    -4.005      1.795      2.257
REMARK INTER + INTRA:          -5.329
REMARK INTER:                  -4.802
REMARK INTRA:                  -0.528
REMARK UNBOUND:                -0.388
REMARK SMILES C=CC[C@H](C)C(=O)CC
REMARK SMILES IDX 4 1 5 2 6 3 7 4 8 5 9 6 3 7 2 8 1 9
REMARK H PARENT
REMARK Flexibility Score: inf
ROOT
ATOM      1  C   UNL     1      -2.039 -21.750 -10.118  1.00  0.00     0.057 C 
ATOM      2  C   UNL     1      -3.093 -22.695  -9.523  1.00  0.00     0.016 C 
ENDROOT
BRANCH   1   3
ATOM      3  C   UNL     1      -2.536 -21.144 -11.414  1.00  0.00     0.135 C 
ATOM      4  O   UNL     1      -1.899 -20.234 -11.926  1.00  0.00    -0.299 OA
BRANCH   3   5
ATOM      5  C   UNL     1      -3.776 -21.647 -12.110  1.00  0.00     0.072 C 
ATOM      6  C   UNL     1      -3.418 -22.382 -13.398  1.00  0.00     0.012 C 
ENDBRANCH   3   5
ENDBRANCH   1   3
BRANCH   1   7
ATOM      7  C   UNL     1      -0.684 -22.459 -10.332  1.00  0.00     0.038 C 
BRANCH   7   8
ATOM      8  C   UNL     1      -0.849 -23.852 -10.882  1.00  0.00    -0.034 C 
ATOM      9  C   UNL     1      -0.383 -24.194 -12.086  1.00  0.00     0.004 C 
ENDBRANCH   7   8
ENDBRANCH   1   7
TORSDOF 4
ENDMDL
