MODEL 1
REMARK VINA RESULT:    -6.746      0.000      0.000
REMARK INTER + INTRA:         -11.289
REMARK INTER:                  -9.309
REMARK INTRA:                  -1.980
REMARK UNBOUND:                -1.980
REMARK SMILES CC[C@@H](CC[C@H](C)[C@H]1CC[C@H]2[C@@H]3CC=C4C[C@@H](O)CC[C@@]4(C)[C@@H]3CC[C@]12C)C(C)C
REMARK SMILES IDX 5 1 4 2 3 3 2 4 1 5 28 6 29 7 30 8 6 9 7 10 8 11 9 12 26 13
REMARK SMILES IDX 10 14 11 15 25 16 27 17 12 18 24 19 23 20 13 21 21 22 14 23
REMARK SMILES IDX 15 24 20 25 22 26 16 27 19 28 17 29 18 30
REMARK H PARENT 18 31
REMARK Flexibility Score: inf
ROOT
ATOM      1  C   UNL     1     185.126 191.338 187.381  1.00  0.00     0.004 C 
ENDROOT
BRANCH   1   2
ATOM      2  C   UNL     1     186.518 191.182 186.709  1.00  0.00     0.004 C 
BRANCH   2   3
ATOM      3  C   UNL     1     186.998 189.766 186.260  1.00  0.00    -0.009 C 
BRANCH   3   4
ATOM      4  C   UNL     1     188.116 189.161 187.152  1.00  0.00     0.000 C 
ATOM      5  C   UNL     1     189.027 190.225 187.771  1.00  0.00     0.004 C 
ENDBRANCH   3   4
BRANCH   3   6
ATOM      6  C   UNL     1     187.288 189.665 184.722  1.00  0.00    -0.014 C 
ATOM      7  C   UNL     1     187.730 190.991 184.080  1.00  0.00     0.007 C 
ATOM      8  C   UNL     1     188.336 188.581 184.421  1.00  0.00     0.007 C 
ENDBRANCH   3   6
ENDBRANCH   2   3
ENDBRANCH   1   2
BRANCH   1   9
ATOM      9  C   UNL     1     185.059 191.570 188.921  1.00  0.00    -0.011 C 
ATOM     10  C   UNL     1     185.417 193.031 189.275  1.00  0.00     0.008 C 
BRANCH   9  11
ATOM     11  C   UNL     1     186.033 190.600 189.689  1.00  0.00    -0.002 C 
ATOM     12  C   UNL     1     186.688 191.266 190.930  1.00  0.00     0.005 C 
ATOM     13  C   UNL     1     185.481 189.250 190.249  1.00  0.00    -0.026 C 
ATOM     14  C   UNL     1     186.960 190.159 191.956  1.00  0.00     0.005 C 
ATOM     15  C   UNL     1     186.615 188.873 191.222  1.00  0.00    -0.001 C 
ATOM     16  C   UNL     1     185.323 188.105 189.196  1.00  0.00     0.007 C 
ATOM     17  C   UNL     1     184.127 189.477 190.988  1.00  0.00     0.012 C 
ATOM     18  C   UNL     1     186.284 187.632 192.083  1.00  0.00     0.000 C 
ATOM     19  C   UNL     1     185.870 186.733 189.663  1.00  0.00     0.005 C 
ATOM     20  C   UNL     1     185.701 186.461 191.193  1.00  0.00     0.003 C 
ATOM     21  C   UNL     1     187.495 187.198 192.925  1.00  0.00     0.031 C 
ATOM     22  C   UNL     1     186.168 185.002 191.621  1.00  0.00    -0.008 C 
ATOM     23  C   UNL     1     187.133 185.975 193.708  1.00  0.00    -0.027 C 
ATOM     24  C   UNL     1     186.475 184.958 193.122  1.00  0.00    -0.065 C 
ATOM     25  C   UNL     1     185.016 183.992 191.325  1.00  0.00     0.014 C 
ATOM     26  C   UNL     1     187.441 184.546 190.853  1.00  0.00     0.016 C 
ATOM     27  C   UNL     1     185.946 183.825 193.975  1.00  0.00     0.063 C 
ATOM     28  C   UNL     1     185.294 182.559 191.822  1.00  0.00     0.033 C 
ATOM     29  C   UNL     1     185.992 182.495 193.205  1.00  0.00     0.118 C 
BRANCH  29  30
ATOM     30  O   UNL     1     185.459 181.454 193.985  1.00  0.00    -0.393 OA
ATOM     31  H   UNL     1     184.702 181.058 193.478  1.00  0.00     0.210 HD
ENDBRANCH  29  30
ENDBRANCH   9  11
ENDBRANCH   1   9
TORSDOF 7
ENDMDL
MODEL 2
REMARK VINA RESULT:    -6.706      4.505      8.207
REMARK INTER + INTRA:         -11.234
REMARK INTER:                  -9.604
REMARK INTRA:                  -1.630
REMARK UNBOUND:                -1.980
REMARK SMILES CC[C@@H](CC[C@H](C)[C@H]1CC[C@H]2[C@@H]3CC=C4C[C@@H](O)CC[C@@]4(C)[C@@H]3CC[C@]12C)C(C)C
REMARK SMILES IDX 5 1 4 2 3 3 2 4 1 5 28 6 29 7 30 8 6 9 7 10 8 11 9 12 26 13
REMARK SMILES IDX 10 14 11 15 25 16 27 17 12 18 24 19 23 20 13 21 21 22 14 23
REMARK SMILES IDX 15 24 20 25 22 26 16 27 19 28 17 29 18 30
REMARK H PARENT 18 31
REMARK Flexibility Score: inf
ROOT
ATOM      1  C   UNL     1     186.879 197.569 193.772  1.00  0.00     0.004 C 
ENDROOT
BRANCH   1   2
ATOM      2  C   UNL     1     186.865 196.957 195.200  1.00  0.00     0.004 C 
BRANCH   2   3
ATOM      3  C   UNL     1     185.952 195.727 195.498  1.00  0.00    -0.009 C 
BRANCH   3   4
ATOM      4  C   UNL     1     184.683 196.063 196.328  1.00  0.00     0.000 C 
ATOM      5  C   UNL     1     184.640 197.524 196.787  1.00  0.00     0.004 C 
ENDBRANCH   3   4
BRANCH   3   6
ATOM      6  C   UNL     1     186.741 194.477 196.022  1.00  0.00    -0.014 C 
ATOM      7  C   UNL     1     188.247 194.511 195.706  1.00  0.00     0.007 C 
ATOM      8  C   UNL     1     186.544 194.285 197.534  1.00  0.00     0.007 C 
ENDBRANCH   3   6
ENDBRANCH   2   3
ENDBRANCH   1   2
BRANCH   1   9
ATOM      9  C   UNL     1     187.765 196.901 192.677  1.00  0.00    -0.011 C 
ATOM     10  C   UNL     1     188.574 197.962 191.899  1.00  0.00     0.008 C 
BRANCH   9  11
ATOM     11  C   UNL     1     186.893 196.071 191.662  1.00  0.00    -0.002 C 
ATOM     12  C   UNL     1     186.911 196.667 190.228  1.00  0.00     0.005 C 
ATOM     13  C   UNL     1     187.217 194.560 191.434  1.00  0.00    -0.026 C 
ATOM     14  C   UNL     1     186.722 195.505 189.246  1.00  0.00     0.005 C 
ATOM     15  C   UNL     1     186.432 194.305 190.133  1.00  0.00    -0.001 C 
ATOM     16  C   UNL     1     186.688 193.589 192.538  1.00  0.00     0.007 C 
ATOM     17  C   UNL     1     188.751 194.354 191.241  1.00  0.00     0.012 C 
ATOM     18  C   UNL     1     186.692 192.902 189.536  1.00  0.00     0.000 C 
ATOM     19  C   UNL     1     185.986 192.322 191.987  1.00  0.00     0.005 C 
ATOM     20  C   UNL     1     186.593 191.783 190.650  1.00  0.00     0.003 C 
ATOM     21  C   UNL     1     185.776 192.630 188.332  1.00  0.00     0.031 C 
ATOM     22  C   UNL     1     185.927 190.420 190.170  1.00  0.00    -0.008 C 
ATOM     23  C   UNL     1     186.042 191.249 187.818  1.00  0.00    -0.027 C 
ATOM     24  C   UNL     1     186.156 190.214 188.668  1.00  0.00    -0.065 C 
ATOM     25  C   UNL     1     186.588 189.233 190.937  1.00  0.00     0.014 C 
ATOM     26  C   UNL     1     184.395 190.393 190.434  1.00  0.00     0.016 C 
ATOM     27  C   UNL     1     186.621 188.871 188.147  1.00  0.00     0.063 C 
ATOM     28  C   UNL     1     186.123 187.842 190.462  1.00  0.00     0.033 C 
ATOM     29  C   UNL     1     185.956 187.724 188.925  1.00  0.00     0.118 C 
BRANCH  29  30
ATOM     30  O   UNL     1     186.422 186.480 188.467  1.00  0.00    -0.393 OA
ATOM     31  H   UNL     1     185.629 185.936 188.215  1.00  0.00     0.210 HD
ENDBRANCH  29  30
ENDBRANCH   9  11
ENDBRANCH   1   9
TORSDOF 7
ENDMDL
MODEL 3
REMARK VINA RESULT:    -6.684      4.872      7.656
REMARK INTER + INTRA:         -11.204
REMARK INTER:                  -8.752
REMARK INTRA:                  -2.452
REMARK UNBOUND:                -1.980
REMARK SMILES CC[C@@H](CC[C@H](C)[C@H]1CC[C@H]2[C@@H]3CC=C4C[C@@H](O)CC[C@@]4(C)[C@@H]3CC[C@]12C)C(C)C
REMARK SMILES IDX 5 1 4 2 3 3 2 4 1 5 28 6 29 7 30 8 6 9 7 10 8 11 9 12 26 13
REMARK SMILES IDX 10 14 11 15 25 16 27 17 12 18 24 19 23 20 13 21 21 22 14 23
REMARK SMILES IDX 15 24 20 25 22 26 16 27 19 28 17 29 18 30
REMARK H PARENT 18 31
REMARK Flexibility Score: inf
ROOT
ATOM      1  C   UNL     1     187.166 188.462 187.772  1.00  0.00     0.004 C 
ENDROOT
BRANCH   1   2
ATOM      2  C   UNL     1     188.584 189.088 187.675  1.00  0.00     0.004 C 
BRANCH   2   3
ATOM      3  C   UNL     1     189.082 189.650 186.306  1.00  0.00    -0.009 C 
BRANCH   3   4
ATOM      4  C   UNL     1     189.654 191.091 186.382  1.00  0.00     0.000 C 
ATOM      5  C   UNL     1     189.927 191.551 187.817  1.00  0.00     0.004 C 
ENDBRANCH   3   4
BRANCH   3   6
ATOM      6  C   UNL     1     188.063 189.431 185.135  1.00  0.00    -0.014 C 
ATOM      7  C   UNL     1     187.631 190.729 184.429  1.00  0.00     0.007 C 
ATOM      8  C   UNL     1     188.614 188.446 184.092  1.00  0.00     0.007 C 
ENDBRANCH   3   6
ENDBRANCH   2   3
ENDBRANCH   1   2
BRANCH   1   9
ATOM      9  C   UNL     1     185.965 189.380 188.150  1.00  0.00    -0.011 C 
ATOM     10  C   UNL     1     184.853 189.304 187.079  1.00  0.00     0.008 C 
BRANCH   9  11
ATOM     11  C   UNL     1     186.419 190.878 188.316  1.00  0.00    -0.002 C 
ATOM     12  C   UNL     1     185.606 191.855 187.423  1.00  0.00     0.005 C 
ATOM     13  C   UNL     1     186.360 191.542 189.729  1.00  0.00    -0.026 C 
ATOM     14  C   UNL     1     185.561 193.208 188.143  1.00  0.00     0.005 C 
ATOM     15  C   UNL     1     186.483 193.029 189.339  1.00  0.00    -0.001 C 
ATOM     16  C   UNL     1     187.539 191.177 190.688  1.00  0.00     0.007 C 
ATOM     17  C   UNL     1     184.999 191.231 190.423  1.00  0.00     0.012 C 
ATOM     18  C   UNL     1     186.284 193.986 190.537  1.00  0.00     0.000 C 
ATOM     19  C   UNL     1     188.157 192.392 191.426  1.00  0.00     0.005 C 
ATOM     20  C   UNL     1     187.130 193.513 191.787  1.00  0.00     0.003 C 
ATOM     21  C   UNL     1     186.568 195.443 190.139  1.00  0.00     0.031 C 
ATOM     22  C   UNL     1     187.772 194.692 192.643  1.00  0.00    -0.008 C 
ATOM     23  C   UNL     1     186.398 196.320 191.341  1.00  0.00    -0.027 C 
ATOM     24  C   UNL     1     186.919 195.961 192.527  1.00  0.00    -0.065 C 
ATOM     25  C   UNL     1     187.819 194.265 194.143  1.00  0.00     0.014 C 
ATOM     26  C   UNL     1     189.215 195.034 192.177  1.00  0.00     0.016 C 
ATOM     27  C   UNL     1     186.567 196.757 193.765  1.00  0.00     0.063 C 
ATOM     28  C   UNL     1     188.296 195.377 195.098  1.00  0.00     0.033 C 
ATOM     29  C   UNL     1     187.749 196.786 194.749  1.00  0.00     0.118 C 
BRANCH  29  30
ATOM     30  O   UNL     1     187.404 197.489 195.916  1.00  0.00    -0.393 OA
ATOM     31  H   UNL     1     187.931 198.331 195.925  1.00  0.00     0.210 HD
ENDBRANCH  29  30
ENDBRANCH   9  11
ENDBRANCH   1   9
TORSDOF 7
ENDMDL
MODEL 4
REMARK VINA RESULT:    -6.612      4.091      8.296
REMARK INTER + INTRA:         -11.105
REMARK INTER:                  -9.219
REMARK INTRA:                  -1.886
REMARK UNBOUND:                -1.980
REMARK SMILES CC[C@@H](CC[C@H](C)[C@H]1CC[C@H]2[C@@H]3CC=C4C[C@@H](O)CC[C@@]4(C)[C@@H]3CC[C@]12C)C(C)C
REMARK SMILES IDX 5 1 4 2 3 3 2 4 1 5 28 6 29 7 30 8 6 9 7 10 8 11 9 12 26 13
REMARK SMILES IDX 10 14 11 15 25 16 27 17 12 18 24 19 23 20 13 21 21 22 14 23
REMARK SMILES IDX 15 24 20 25 22 26 16 27 19 28 17 29 18 30
REMARK H PARENT 18 31
REMARK Flexibility Score: inf
ROOT
ATOM      1  C   UNL     1     186.008 187.666 188.549  1.00  0.00     0.004 C 
ENDROOT
BRANCH   1   2
ATOM      2  C   UNL     1     185.880 186.743 189.793  1.00  0.00     0.004 C 
BRANCH   2   3
ATOM      3  C   UNL     1     185.194 187.287 191.084  1.00  0.00    -0.009 C 
BRANCH   3   4
ATOM      4  C   UNL     1     185.985 187.009 192.390  1.00  0.00     0.000 C 
ATOM      5  C   UNL     1     185.596 185.685 193.054  1.00  0.00     0.004 C 
ENDBRANCH   3   4
BRANCH   3   6
ATOM      6  C   UNL     1     183.669 186.931 191.176  1.00  0.00    -0.014 C 
ATOM      7  C   UNL     1     182.739 188.158 191.174  1.00  0.00     0.007 C 
ATOM      8  C   UNL     1     183.250 185.975 190.049  1.00  0.00     0.007 C 
ENDBRANCH   3   6
ENDBRANCH   2   3
ENDBRANCH   1   2
BRANCH   1   9
ATOM      9  C   UNL     1     185.058 188.895 188.426  1.00  0.00    -0.011 C 
ATOM     10  C   UNL     1     184.245 188.834 187.113  1.00  0.00     0.008 C 
BRANCH   9  11
ATOM     11  C   UNL     1     185.861 190.248 188.472  1.00  0.00    -0.002 C 
ATOM     12  C   UNL     1     185.537 191.181 187.274  1.00  0.00     0.005 C 
ATOM     13  C   UNL     1     185.710 191.183 189.714  1.00  0.00    -0.026 C 
ATOM     14  C   UNL     1     185.723 192.625 187.753  1.00  0.00     0.005 C 
ATOM     15  C   UNL     1     186.308 192.487 189.149  1.00  0.00    -0.001 C 
ATOM     16  C   UNL     1     186.533 190.760 190.974  1.00  0.00     0.007 C 
ATOM     17  C   UNL     1     184.207 191.347 190.096  1.00  0.00     0.012 C 
ATOM     18  C   UNL     1     186.147 193.690 190.108  1.00  0.00     0.000 C 
ATOM     19  C   UNL     1     187.302 191.923 191.651  1.00  0.00     0.005 C 
ATOM     20  C   UNL     1     186.570 193.302 191.582  1.00  0.00     0.003 C 
ATOM     21  C   UNL     1     186.889 194.928 189.578  1.00  0.00     0.031 C 
ATOM     22  C   UNL     1     187.328 194.450 192.382  1.00  0.00    -0.008 C 
ATOM     23  C   UNL     1     186.733 196.048 190.559  1.00  0.00    -0.027 C 
ATOM     24  C   UNL     1     186.894 195.830 191.876  1.00  0.00    -0.065 C 
ATOM     25  C   UNL     1     186.962 194.342 193.895  1.00  0.00     0.014 C 
ATOM     26  C   UNL     1     188.872 194.343 192.235  1.00  0.00     0.016 C 
ATOM     27  C   UNL     1     186.537 196.924 192.860  1.00  0.00     0.063 C 
ATOM     28  C   UNL     1     187.528 195.485 194.761  1.00  0.00     0.033 C 
ATOM     29  C   UNL     1     187.465 196.879 194.085  1.00  0.00     0.118 C 
BRANCH  29  30
ATOM     30  O   UNL     1     187.103 197.868 195.016  1.00  0.00    -0.393 OA
ATOM     31  H   UNL     1     186.180 197.666 195.325  1.00  0.00     0.210 HD
ENDBRANCH  29  30
ENDBRANCH   9  11
ENDBRANCH   1   9
TORSDOF 7
ENDMDL
MODEL 5
REMARK VINA RESULT:    -6.561      4.769      8.112
REMARK INTER + INTRA:         -11.034
REMARK INTER:                  -9.541
REMARK INTRA:                  -1.492
REMARK UNBOUND:                -1.980
REMARK SMILES CC[C@@H](CC[C@H](C)[C@H]1CC[C@H]2[C@@H]3CC=C4C[C@@H](O)CC[C@@]4(C)[C@@H]3CC[C@]12C)C(C)C
REMARK SMILES IDX 5 1 4 2 3 3 2 4 1 5 28 6 29 7 30 8 6 9 7 10 8 11 9 12 26 13
REMARK SMILES IDX 10 14 11 15 25 16 27 17 12 18 24 19 23 20 13 21 21 22 14 23
REMARK SMILES IDX 15 24 20 25 22 26 16 27 19 28 17 29 18 30
REMARK H PARENT 18 31
REMARK Flexibility Score: inf
ROOT
ATOM      1  C   UNL     1     185.042 190.008 186.879  1.00  0.00     0.004 C 
ENDROOT
BRANCH   1   2
ATOM      2  C   UNL     1     186.100 189.672 185.792  1.00  0.00     0.004 C 
BRANCH   2   3
ATOM      3  C   UNL     1     187.618 189.789 186.137  1.00  0.00    -0.009 C 
BRANCH   3   4
ATOM      4  C   UNL     1     188.363 190.902 185.351  1.00  0.00     0.000 C 
ATOM      5  C   UNL     1     187.747 191.178 183.977  1.00  0.00     0.004 C 
ENDBRANCH   3   4
BRANCH   3   6
ATOM      6  C   UNL     1     188.363 188.410 186.147  1.00  0.00    -0.014 C 
ATOM      7  C   UNL     1     189.780 188.459 185.550  1.00  0.00     0.007 C 
ATOM      8  C   UNL     1     188.430 187.822 187.566  1.00  0.00     0.007 C 
ENDBRANCH   3   6
ENDBRANCH   2   3
ENDBRANCH   1   2
BRANCH   1   9
ATOM      9  C   UNL     1     185.186 189.364 188.291  1.00  0.00    -0.011 C 
ATOM     10  C   UNL     1     184.122 188.264 188.507  1.00  0.00     0.008 C 
BRANCH   9  11
ATOM     11  C   UNL     1     185.050 190.443 189.429  1.00  0.00    -0.002 C 
ATOM     12  C   UNL     1     185.059 189.820 190.852  1.00  0.00     0.005 C 
ATOM     13  C   UNL     1     186.109 191.587 189.526  1.00  0.00    -0.026 C 
ATOM     14  C   UNL     1     185.660 190.859 191.806  1.00  0.00     0.005 C 
ATOM     15  C   UNL     1     185.824 192.105 190.950  1.00  0.00    -0.001 C 
ATOM     16  C   UNL     1     185.915 192.764 188.516  1.00  0.00     0.007 C 
ATOM     17  C   UNL     1     187.552 191.011 189.393  1.00  0.00     0.012 C 
ATOM     18  C   UNL     1     186.848 193.162 191.425  1.00  0.00     0.000 C 
ATOM     19  C   UNL     1     186.047 194.173 189.150  1.00  0.00     0.005 C 
ATOM     20  C   UNL     1     187.089 194.260 190.311  1.00  0.00     0.003 C 
ATOM     21  C   UNL     1     186.440 193.764 192.779  1.00  0.00     0.031 C 
ATOM     22  C   UNL     1     187.284 195.739 190.863  1.00  0.00    -0.008 C 
ATOM     23  C   UNL     1     187.442 194.805 193.173  1.00  0.00    -0.027 C 
ATOM     24  C   UNL     1     187.877 195.708 192.277  1.00  0.00    -0.065 C 
ATOM     25  C   UNL     1     188.274 196.504 189.931  1.00  0.00     0.014 C 
ATOM     26  C   UNL     1     185.943 196.524 190.918  1.00  0.00     0.016 C 
ATOM     27  C   UNL     1     189.031 196.618 192.638  1.00  0.00     0.063 C 
ATOM     28  C   UNL     1     188.652 197.911 190.436  1.00  0.00     0.033 C 
ATOM     29  C   UNL     1     188.871 197.993 191.969  1.00  0.00     0.118 C 
BRANCH  29  30
ATOM     30  O   UNL     1     189.966 198.821 192.272  1.00  0.00    -0.393 OA
ATOM     31  H   UNL     1     190.599 198.291 192.825  1.00  0.00     0.210 HD
ENDBRANCH  29  30
ENDBRANCH   9  11
ENDBRANCH   1   9
TORSDOF 7
ENDMDL
MODEL 6
REMARK VINA RESULT:    -6.531      3.767      7.948
REMARK INTER + INTRA:         -10.993
REMARK INTER:                  -8.650
REMARK INTRA:                  -2.343
REMARK UNBOUND:                -1.980
REMARK SMILES CC[C@@H](CC[C@H](C)[C@H]1CC[C@H]2[C@@H]3CC=C4C[C@@H](O)CC[C@@]4(C)[C@@H]3CC[C@]12C)C(C)C
REMARK SMILES IDX 5 1 4 2 3 3 2 4 1 5 28 6 29 7 30 8 6 9 7 10 8 11 9 12 26 13
REMARK SMILES IDX 10 14 11 15 25 16 27 17 12 18 24 19 23 20 13 21 21 22 14 23
REMARK SMILES IDX 15 24 20 25 22 26 16 27 19 28 17 29 18 30
REMARK H PARENT 18 31
REMARK Flexibility Score: inf
ROOT
ATOM      1  C   UNL     1     184.964 185.538 191.370  1.00  0.00     0.004 C 
ENDROOT
BRANCH   1   2
ATOM      2  C   UNL     1     186.436 185.507 190.872  1.00  0.00     0.004 C 
BRANCH   2   3
ATOM      3  C   UNL     1     187.594 185.773 191.884  1.00  0.00    -0.009 C 
BRANCH   3   4
ATOM      4  C   UNL     1     187.117 186.216 193.293  1.00  0.00     0.000 C 
ATOM      5  C   UNL     1     187.261 185.114 194.347  1.00  0.00     0.004 C 
ENDBRANCH   3   4
BRANCH   3   6
ATOM      6  C   UNL     1     188.745 186.660 191.294  1.00  0.00    -0.014 C 
ATOM      7  C   UNL     1     188.389 187.344 189.962  1.00  0.00     0.007 C 
ATOM      8  C   UNL     1     189.204 187.724 192.304  1.00  0.00     0.007 C 
ENDBRANCH   3   6
ENDBRANCH   2   3
ENDBRANCH   1   2
BRANCH   1   9
ATOM      9  C   UNL     1     183.993 186.601 190.774  1.00  0.00    -0.011 C 
ATOM     10  C   UNL     1     182.984 185.943 189.805  1.00  0.00     0.008 C 
BRANCH   9  11
ATOM     11  C   UNL     1     184.778 187.732 190.011  1.00  0.00    -0.002 C 
ATOM     12  C   UNL     1     184.222 187.992 188.585  1.00  0.00     0.005 C 
ATOM     13  C   UNL     1     184.860 189.160 190.637  1.00  0.00    -0.026 C 
ATOM     14  C   UNL     1     184.483 189.466 188.251  1.00  0.00     0.005 C 
ATOM     15  C   UNL     1     185.326 189.971 189.411  1.00  0.00    -0.001 C 
ATOM     16  C   UNL     1     185.912 189.330 191.780  1.00  0.00     0.007 C 
ATOM     17  C   UNL     1     183.457 189.618 191.141  1.00  0.00     0.012 C 
ATOM     18  C   UNL     1     185.341 191.496 189.666  1.00  0.00     0.000 C 
ATOM     19  C   UNL     1     186.787 190.604 191.655  1.00  0.00     0.005 C 
ATOM     20  C   UNL     1     186.042 191.835 191.043  1.00  0.00     0.003 C 
ATOM     21  C   UNL     1     185.957 192.253 188.479  1.00  0.00     0.031 C 
ATOM     22  C   UNL     1     186.930 193.156 191.033  1.00  0.00    -0.008 C 
ATOM     23  C   UNL     1     185.981 193.717 188.792  1.00  0.00    -0.027 C 
ATOM     24  C   UNL     1     186.394 194.151 189.997  1.00  0.00    -0.065 C 
ATOM     25  C   UNL     1     186.861 193.826 192.440  1.00  0.00     0.014 C 
ATOM     26  C   UNL     1     188.418 192.858 190.694  1.00  0.00     0.016 C 
ATOM     27  C   UNL     1     186.222 195.610 190.360  1.00  0.00     0.063 C 
ATOM     28  C   UNL     1     187.573 195.191 192.521  1.00  0.00     0.033 C 
ATOM     29  C   UNL     1     187.369 196.084 191.269  1.00  0.00     0.118 C 
BRANCH  29  30
ATOM     30  O   UNL     1     187.183 197.427 191.640  1.00  0.00    -0.393 OA
ATOM     31  H   UNL     1     188.079 197.854 191.679  1.00  0.00     0.210 HD
ENDBRANCH  29  30
ENDBRANCH   9  11
ENDBRANCH   1   9
TORSDOF 7
ENDMDL
MODEL 7
REMARK VINA RESULT:    -6.515      3.698      8.513
REMARK INTER + INTRA:         -10.971
REMARK INTER:                  -9.925
REMARK INTRA:                  -1.046
REMARK UNBOUND:                -1.980
REMARK SMILES CC[C@@H](CC[C@H](C)[C@H]1CC[C@H]2[C@@H]3CC=C4C[C@@H](O)CC[C@@]4(C)[C@@H]3CC[C@]12C)C(C)C
REMARK SMILES IDX 5 1 4 2 3 3 2 4 1 5 28 6 29 7 30 8 6 9 7 10 8 11 9 12 26 13
REMARK SMILES IDX 10 14 11 15 25 16 27 17 12 18 24 19 23 20 13 21 21 22 14 23
REMARK SMILES IDX 15 24 20 25 22 26 16 27 19 28 17 29 18 30
REMARK H PARENT 18 31
REMARK Flexibility Score: inf
ROOT
ATOM      1  C   UNL     1     185.033 185.321 191.128  1.00  0.00     0.004 C 
ENDROOT
BRANCH   1   2
ATOM      2  C   UNL     1     185.371 185.105 192.629  1.00  0.00     0.004 C 
BRANCH   2   3
ATOM      3  C   UNL     1     185.789 183.685 193.124  1.00  0.00    -0.009 C 
BRANCH   3   4
ATOM      4  C   UNL     1     186.998 183.682 194.098  1.00  0.00     0.000 C 
ATOM      5  C   UNL     1     187.633 185.066 194.266  1.00  0.00     0.004 C 
ENDBRANCH   3   4
BRANCH   3   6
ATOM      6  C   UNL     1     185.901 182.631 191.969  1.00  0.00    -0.014 C 
ATOM      7  C   UNL     1     187.347 182.319 191.544  1.00  0.00     0.007 C 
ATOM      8  C   UNL     1     185.187 181.320 192.338  1.00  0.00     0.007 C 
ENDBRANCH   3   6
ENDBRANCH   2   3
ENDBRANCH   1   2
BRANCH   1   9
ATOM      9  C   UNL     1     184.034 186.453 190.739  1.00  0.00    -0.011 C 
ATOM     10  C   UNL     1     182.845 185.885 189.931  1.00  0.00     0.008 C 
BRANCH   9  11
ATOM     11  C   UNL     1     184.741 187.576 189.893  1.00  0.00    -0.002 C 
ATOM     12  C   UNL     1     184.053 187.821 188.523  1.00  0.00     0.005 C 
ATOM     13  C   UNL     1     184.878 189.012 190.494  1.00  0.00    -0.026 C 
ATOM     14  C   UNL     1     184.278 189.291 188.151  1.00  0.00     0.005 C 
ATOM     15  C   UNL     1     185.225 189.810 189.221  1.00  0.00    -0.001 C 
ATOM     16  C   UNL     1     186.033 189.195 191.531  1.00  0.00     0.007 C 
ATOM     17  C   UNL     1     183.528 189.473 191.122  1.00  0.00     0.012 C 
ATOM     18  C   UNL     1     185.261 191.337 189.457  1.00  0.00     0.000 C 
ATOM     19  C   UNL     1     186.889 190.469 191.310  1.00  0.00     0.005 C 
ATOM     20  C   UNL     1     186.088 191.692 190.758  1.00  0.00     0.003 C 
ATOM     21  C   UNL     1     185.760 192.083 188.209  1.00  0.00     0.031 C 
ATOM     22  C   UNL     1     186.967 193.014 190.650  1.00  0.00    -0.008 C 
ATOM     23  C   UNL     1     185.811 193.550 188.503  1.00  0.00    -0.027 C 
ATOM     24  C   UNL     1     186.334 193.997 189.658  1.00  0.00    -0.065 C 
ATOM     25  C   UNL     1     187.030 193.699 192.050  1.00  0.00     0.014 C 
ATOM     26  C   UNL     1     188.417 192.714 190.176  1.00  0.00     0.016 C 
ATOM     27  C   UNL     1     186.194 195.460 190.021  1.00  0.00     0.063 C 
ATOM     28  C   UNL     1     187.742 195.067 192.049  1.00  0.00     0.033 C 
ATOM     29  C   UNL     1     187.419 195.945 190.813  1.00  0.00     0.118 C 
BRANCH  29  30
ATOM     30  O   UNL     1     187.266 197.292 191.185  1.00  0.00    -0.393 OA
ATOM     31  H   UNL     1     187.173 197.321 192.173  1.00  0.00     0.210 HD
ENDBRANCH  29  30
ENDBRANCH   9  11
ENDBRANCH   1   9
TORSDOF 7
ENDMDL
MODEL 8
REMARK VINA RESULT:    -6.461      5.535      9.298
REMARK INTER + INTRA:         -10.896
REMARK INTER:                  -8.698
REMARK INTRA:                  -2.198
REMARK UNBOUND:                -1.980
REMARK SMILES CC[C@@H](CC[C@H](C)[C@H]1CC[C@H]2[C@@H]3CC=C4C[C@@H](O)CC[C@@]4(C)[C@@H]3CC[C@]12C)C(C)C
REMARK SMILES IDX 5 1 4 2 3 3 2 4 1 5 28 6 29 7 30 8 6 9 7 10 8 11 9 12 26 13
REMARK SMILES IDX 10 14 11 15 25 16 27 17 12 18 24 19 23 20 13 21 21 22 14 23
REMARK SMILES IDX 15 24 20 25 22 26 16 27 19 28 17 29 18 30
REMARK H PARENT 18 31
REMARK Flexibility Score: inf
ROOT
ATOM      1  C   UNL     1     189.381 197.703 194.353  1.00  0.00     0.004 C 
ENDROOT
BRANCH   1   2
ATOM      2  C   UNL     1     188.463 198.552 195.274  1.00  0.00     0.004 C 
BRANCH   2   3
ATOM      3  C   UNL     1     187.165 197.914 195.862  1.00  0.00    -0.009 C 
BRANCH   3   4
ATOM      4  C   UNL     1     187.045 196.385 195.625  1.00  0.00     0.000 C 
ATOM      5  C   UNL     1     185.767 195.995 194.876  1.00  0.00     0.004 C 
ENDBRANCH   3   4
BRANCH   3   6
ATOM      6  C   UNL     1     185.863 198.716 195.513  1.00  0.00    -0.014 C 
ATOM      7  C   UNL     1     185.081 199.206 196.745  1.00  0.00     0.007 C 
ATOM      8  C   UNL     1     186.173 199.913 194.600  1.00  0.00     0.007 C 
ENDBRANCH   3   6
ENDBRANCH   2   3
ENDBRANCH   1   2
BRANCH   1   9
ATOM      9  C   UNL     1     189.320 197.934 192.813  1.00  0.00    -0.011 C 
ATOM     10  C   UNL     1     189.211 199.440 192.485  1.00  0.00     0.008 C 
BRANCH   9  11
ATOM     11  C   UNL     1     188.099 197.177 192.168  1.00  0.00    -0.002 C 
ATOM     12  C   UNL     1     187.453 197.966 190.997  1.00  0.00     0.005 C 
ATOM     13  C   UNL     1     188.316 195.749 191.571  1.00  0.00    -0.026 C 
ATOM     14  C   UNL     1     186.863 196.940 190.022  1.00  0.00     0.005 C 
ATOM     15  C   UNL     1     187.030 195.606 190.731  1.00  0.00    -0.001 C 
ATOM     16  C   UNL     1     188.364 194.588 192.616  1.00  0.00     0.007 C 
ATOM     17  C   UNL     1     189.599 195.716 190.686  1.00  0.00     0.012 C 
ATOM     18  C   UNL     1     187.020 194.331 189.857  1.00  0.00     0.000 C 
ATOM     19  C   UNL     1     187.514 193.350 192.230  1.00  0.00     0.005 C 
ATOM     20  C   UNL     1     187.459 193.063 190.694  1.00  0.00     0.003 C 
ATOM     21  C   UNL     1     185.664 194.146 189.158  1.00  0.00     0.031 C 
ATOM     22  C   UNL     1     186.676 191.725 190.340  1.00  0.00    -0.008 C 
ATOM     23  C   UNL     1     185.695 192.881 188.356  1.00  0.00    -0.027 C 
ATOM     24  C   UNL     1     186.204 191.753 188.881  1.00  0.00    -0.065 C 
ATOM     25  C   UNL     1     187.637 190.509 190.523  1.00  0.00     0.014 C 
ATOM     26  C   UNL     1     185.431 191.518 191.248  1.00  0.00     0.016 C 
ATOM     27  C   UNL     1     186.409 190.545 187.992  1.00  0.00     0.063 C 
ATOM     28  C   UNL     1     187.035 189.160 190.079  1.00  0.00     0.033 C 
ATOM     29  C   UNL     1     186.191 189.243 188.780  1.00  0.00     0.118 C 
BRANCH  29  30
ATOM     30  O   UNL     1     186.424 188.125 187.962  1.00  0.00    -0.393 OA
ATOM     31  H   UNL     1     185.732 187.446 188.179  1.00  0.00     0.210 HD
ENDBRANCH  29  30
ENDBRANCH   9  11
ENDBRANCH   1   9
TORSDOF 7
ENDMDL
MODEL 9
REMARK VINA RESULT:    -6.404      5.508      9.421
REMARK INTER + INTRA:         -10.817
REMARK INTER:                  -8.767
REMARK INTRA:                  -2.050
REMARK UNBOUND:                -1.980
REMARK SMILES CC[C@@H](CC[C@H](C)[C@H]1CC[C@H]2[C@@H]3CC=C4C[C@@H](O)CC[C@@]4(C)[C@@H]3CC[C@]12C)C(C)C
REMARK SMILES IDX 5 1 4 2 3 3 2 4 1 5 28 6 29 7 30 8 6 9 7 10 8 11 9 12 26 13
REMARK SMILES IDX 10 14 11 15 25 16 27 17 12 18 24 19 23 20 13 21 21 22 14 23
REMARK SMILES IDX 15 24 20 25 22 26 16 27 19 28 17 29 18 30
REMARK H PARENT 18 31
REMARK Flexibility Score: inf
ROOT
ATOM      1  C   UNL     1     189.526 197.950 193.562  1.00  0.00     0.004 C 
ENDROOT
BRANCH   1   2
ATOM      2  C   UNL     1     188.758 197.068 194.585  1.00  0.00     0.004 C 
BRANCH   2   3
ATOM      3  C   UNL     1     187.518 197.657 195.327  1.00  0.00    -0.009 C 
BRANCH   3   4
ATOM      4  C   UNL     1     186.184 196.925 195.016  1.00  0.00     0.000 C 
ATOM      5  C   UNL     1     186.295 195.402 195.142  1.00  0.00     0.004 C 
ENDBRANCH   3   4
BRANCH   3   6
ATOM      6  C   UNL     1     187.422 199.219 195.236  1.00  0.00    -0.014 C 
ATOM      7  C   UNL     1     186.016 199.741 194.888  1.00  0.00     0.007 C 
ATOM      8  C   UNL     1     187.901 199.885 196.536  1.00  0.00     0.007 C 
ENDBRANCH   3   6
ENDBRANCH   2   3
ENDBRANCH   1   2
BRANCH   1   9
ATOM      9  C   UNL     1     189.045 197.972 192.080  1.00  0.00    -0.011 C 
ATOM     10  C   UNL     1     188.393 199.330 191.732  1.00  0.00     0.008 C 
BRANCH   9  11
ATOM     11  C   UNL     1     188.013 196.817 191.795  1.00  0.00    -0.002 C 
ATOM     12  C   UNL     1     186.597 197.349 191.447  1.00  0.00     0.005 C 
ATOM     13  C   UNL     1     188.310 195.794 190.652  1.00  0.00    -0.026 C 
ATOM     14  C   UNL     1     185.938 196.327 190.513  1.00  0.00     0.005 C 
ATOM     15  C   UNL     1     186.914 195.162 190.482  1.00  0.00    -0.001 C 
ATOM     16  C   UNL     1     189.331 194.667 191.013  1.00  0.00     0.007 C 
ATOM     17  C   UNL     1     188.776 196.535 189.362  1.00  0.00     0.012 C 
ATOM     18  C   UNL     1     186.831 194.198 189.276  1.00  0.00     0.000 C 
ATOM     19  C   UNL     1     188.885 193.245 190.583  1.00  0.00     0.005 C 
ATOM     20  C   UNL     1     188.062 193.205 189.255  1.00  0.00     0.003 C 
ATOM     21  C   UNL     1     185.476 193.473 189.234  1.00  0.00     0.031 C 
ATOM     22  C   UNL     1     187.718 191.725 188.782  1.00  0.00    -0.008 C 
ATOM     23  C   UNL     1     185.463 192.529 188.072  1.00  0.00    -0.027 C 
ATOM     24  C   UNL     1     186.521 191.736 187.824  1.00  0.00    -0.065 C 
ATOM     25  C   UNL     1     188.948 191.134 188.026  1.00  0.00     0.014 C 
ATOM     26  C   UNL     1     187.373 190.794 189.978  1.00  0.00     0.016 C 
ATOM     27  C   UNL     1     186.568 190.940 186.538  1.00  0.00     0.063 C 
ATOM     28  C   UNL     1     188.692 189.750 187.397  1.00  0.00     0.033 C 
ATOM     29  C   UNL     1     187.290 189.599 186.753  1.00  0.00     0.118 C 
BRANCH  29  30
ATOM     30  O   UNL     1     187.369 188.881 185.547  1.00  0.00    -0.393 OA
ATOM     31  H   UNL     1     186.509 189.007 185.066  1.00  0.00     0.210 HD
ENDBRANCH  29  30
ENDBRANCH   9  11
ENDBRANCH   1   9
TORSDOF 7
ENDMDL
