MODEL 1
REMARK VINA RESULT:    -4.515      0.000      0.000
REMARK INTER + INTRA:          -7.310
REMARK INTER:                  -5.570
REMARK INTRA:                  -1.740
REMARK UNBOUND:                -1.740
REMARK SMILES CC(C)=CCC[C@@H](C)[C@H]1C=CC(C)=CC1
REMARK SMILES IDX 6 1 7 2 8 3 9 4 13 5 12 6 14 7 11 8 15 9 10 10 5 11 4 12
REMARK SMILES IDX 2 13 1 14 3 15
REMARK H PARENT
REMARK Flexibility Score: inf
ROOT
ATOM      1  C   UNL     1     134.304 133.723 134.472  1.00  0.00     0.008 C 
ENDROOT
BRANCH   1   2
ATOM      2  C   UNL     1     135.390 132.662 134.801  1.00  0.00    -0.007 C 
ATOM      3  C   UNL     1     135.323 131.517 133.768  1.00  0.00     0.008 C 
BRANCH   2   4
ATOM      4  C   UNL     1     136.814 133.312 134.853  1.00  0.00     0.018 C 
ATOM      5  C   UNL     1     137.373 132.858 139.136  1.00  0.00     0.044 C 
ATOM      6  C   UNL     1     137.388 133.068 137.651  1.00  0.00    -0.055 C 
ATOM      7  C   UNL     1     137.782 132.082 136.829  1.00  0.00    -0.023 C 
ATOM      8  C   UNL     1     137.023 134.388 137.084  1.00  0.00    -0.001 C 
ATOM      9  C   UNL     1     137.922 132.345 135.351  1.00  0.00     0.035 C 
ATOM     10  C   UNL     1     136.810 134.523 135.767  1.00  0.00    -0.023 C 
ENDBRANCH   2   4
ENDBRANCH   1   2
BRANCH   1  11
ATOM     11  C   UNL     1     133.021 133.522 135.294  1.00  0.00     0.027 C 
BRANCH  11  12
ATOM     12  C   UNL     1     133.352 133.196 136.729  1.00  0.00    -0.028 C 
ATOM     13  C   UNL     1     133.474 134.116 137.713  1.00  0.00    -0.080 C 
ATOM     14  C   UNL     1     133.845 133.645 139.095  1.00  0.00     0.039 C 
ATOM     15  C   UNL     1     133.230 135.586 137.466  1.00  0.00     0.039 C 
ENDBRANCH  11  12
ENDBRANCH   1  11
TORSDOF 4
ENDMDL
MODEL 2
REMARK VINA RESULT:    -4.503      3.286      5.202
REMARK INTER + INTRA:          -7.297
REMARK INTER:                  -5.552
REMARK INTRA:                  -1.744
REMARK UNBOUND:                -1.740
REMARK SMILES CC(C)=CCC[C@@H](C)[C@H]1C=CC(C)=CC1
REMARK SMILES IDX 6 1 7 2 8 3 9 4 13 5 12 6 14 7 11 8 15 9 10 10 5 11 4 12
REMARK SMILES IDX 2 13 1 14 3 15
REMARK H PARENT
REMARK Flexibility Score: inf
ROOT
ATOM      1  C   UNL     1     133.743 138.382 134.456  1.00  0.00     0.008 C 
ENDROOT
BRANCH   1   2
ATOM      2  C   UNL     1     132.691 137.292 134.802  1.00  0.00    -0.007 C 
ATOM      3  C   UNL     1     131.523 137.364 133.796  1.00  0.00     0.008 C 
BRANCH   2   4
ATOM      4  C   UNL     1     133.345 135.868 134.829  1.00  0.00     0.018 C 
ATOM      5  C   UNL     1     132.852 135.214 139.093  1.00  0.00     0.044 C 
ATOM      6  C   UNL     1     133.076 135.232 137.610  1.00  0.00    -0.055 C 
ATOM      7  C   UNL     1     132.099 134.854 136.770  1.00  0.00    -0.023 C 
ATOM      8  C   UNL     1     134.400 135.614 137.064  1.00  0.00    -0.001 C 
ATOM      9  C   UNL     1     132.377 134.747 135.292  1.00  0.00     0.035 C 
ATOM     10  C   UNL     1     134.548 135.856 135.754  1.00  0.00    -0.023 C 
ENDBRANCH   2   4
ENDBRANCH   1   2
BRANCH   1  11
ATOM     11  C   UNL     1     133.583 139.644 135.319  1.00  0.00     0.027 C 
BRANCH  11  12
ATOM     12  C   UNL     1     133.224 139.278 136.738  1.00  0.00    -0.028 C 
ATOM     13  C   UNL     1     134.119 139.152 137.743  1.00  0.00    -0.080 C 
ATOM     14  C   UNL     1     133.619 138.745 139.105  1.00  0.00     0.039 C 
ATOM     15  C   UNL     1     135.591 139.425 137.541  1.00  0.00     0.039 C 
ENDBRANCH  11  12
ENDBRANCH   1  11
TORSDOF 4
ENDMDL
MODEL 3
REMARK VINA RESULT:    -4.500      4.998      7.332
REMARK INTER + INTRA:          -7.293
REMARK INTER:                  -5.548
REMARK INTRA:                  -1.745
REMARK UNBOUND:                -1.740
REMARK SMILES CC(C)=CCC[C@@H](C)[C@H]1C=CC(C)=CC1
REMARK SMILES IDX 6 1 7 2 8 3 9 4 13 5 12 6 14 7 11 8 15 9 10 10 5 11 4 12
REMARK SMILES IDX 2 13 1 14 3 15
REMARK H PARENT
REMARK Flexibility Score: inf
ROOT
ATOM      1  C   UNL     1     138.378 138.881 134.473  1.00  0.00     0.008 C 
ENDROOT
BRANCH   1   2
ATOM      2  C   UNL     1     137.286 139.932 134.818  1.00  0.00    -0.007 C 
ATOM      3  C   UNL     1     137.358 141.101 133.813  1.00  0.00     0.008 C 
BRANCH   2   4
ATOM      4  C   UNL     1     135.864 139.277 134.843  1.00  0.00     0.018 C 
ATOM      5  C   UNL     1     135.198 139.777 139.105  1.00  0.00     0.044 C 
ATOM      6  C   UNL     1     135.220 139.550 137.623  1.00  0.00    -0.055 C 
ATOM      7  C   UNL     1     134.843 140.525 136.780  1.00  0.00    -0.023 C 
ATOM      8  C   UNL     1     135.605 138.225 137.080  1.00  0.00    -0.001 C 
ATOM      9  C   UNL     1     134.740 140.244 135.302  1.00  0.00     0.035 C 
ATOM     10  C   UNL     1     135.850 138.076 135.771  1.00  0.00    -0.023 C 
ENDBRANCH   2   4
ENDBRANCH   1   2
BRANCH   1  11
ATOM     11  C   UNL     1     139.639 139.043 135.337  1.00  0.00     0.027 C 
BRANCH  11  12
ATOM     12  C   UNL     1     139.272 139.393 136.757  1.00  0.00    -0.028 C 
ATOM     13  C   UNL     1     139.154 138.493 137.759  1.00  0.00    -0.080 C 
ATOM     14  C   UNL     1     138.744 138.985 139.123  1.00  0.00     0.039 C 
ATOM     15  C   UNL     1     139.439 137.024 137.552  1.00  0.00     0.039 C 
ENDBRANCH  11  12
ENDBRANCH   1  11
TORSDOF 4
ENDMDL
MODEL 4
REMARK VINA RESULT:    -4.500      3.264      5.203
REMARK INTER + INTRA:          -7.292
REMARK INTER:                  -5.563
REMARK INTRA:                  -1.729
REMARK UNBOUND:                -1.740
REMARK SMILES CC(C)=CCC[C@@H](C)[C@H]1C=CC(C)=CC1
REMARK SMILES IDX 6 1 7 2 8 3 9 4 13 5 12 6 14 7 11 8 15 9 10 10 5 11 4 12
REMARK SMILES IDX 2 13 1 14 3 15
REMARK H PARENT
REMARK Flexibility Score: inf
ROOT
ATOM      1  C   UNL     1     139.020 134.161 134.458  1.00  0.00     0.008 C 
ENDROOT
BRANCH   1   2
ATOM      2  C   UNL     1     140.011 135.289 134.856  1.00  0.00    -0.007 C 
ATOM      3  C   UNL     1     141.228 135.266 133.908  1.00  0.00     0.008 C 
BRANCH   2   4
ATOM      4  C   UNL     1     139.302 136.686 134.854  1.00  0.00     0.018 C 
ATOM      5  C   UNL     1     139.790 137.458 139.100  1.00  0.00     0.044 C 
ATOM      6  C   UNL     1     139.559 137.397 137.619  1.00  0.00    -0.055 C 
ATOM      7  C   UNL     1     140.516 137.793 136.765  1.00  0.00    -0.023 C 
ATOM      8  C   UNL     1     138.249 136.951 137.090  1.00  0.00    -0.001 C 
ATOM      9  C   UNL     1     140.227 137.855 135.286  1.00  0.00     0.035 C 
ATOM     10  C   UNL     1     138.104 136.673 135.786  1.00  0.00    -0.023 C 
ENDBRANCH   2   4
ENDBRANCH   1   2
BRANCH   1  11
ATOM     11  C   UNL     1     139.135 132.931 135.373  1.00  0.00     0.027 C 
BRANCH  11  12
ATOM     12  C   UNL     1     139.443 133.347 136.790  1.00  0.00    -0.028 C 
ATOM     13  C   UNL     1     138.522 133.440 137.775  1.00  0.00    -0.080 C 
ATOM     14  C   UNL     1     138.970 133.905 139.136  1.00  0.00     0.039 C 
ATOM     15  C   UNL     1     137.074 133.074 137.552  1.00  0.00     0.039 C 
ENDBRANCH  11  12
ENDBRANCH   1  11
TORSDOF 4
ENDMDL
MODEL 5
REMARK VINA RESULT:    -4.439      5.165      6.893
REMARK INTER + INTRA:          -7.217
REMARK INTER:                  -5.730
REMARK INTRA:                  -1.487
REMARK UNBOUND:                -1.740
REMARK SMILES CC(C)=CCC[C@@H](C)[C@H]1C=CC(C)=CC1
REMARK SMILES IDX 6 1 7 2 8 3 9 4 13 5 12 6 14 7 11 8 15 9 10 10 5 11 4 12
REMARK SMILES IDX 2 13 1 14 3 15
REMARK H PARENT
REMARK Flexibility Score: inf
ROOT
ATOM      1  C   UNL     1     136.242 138.440 139.192  1.00  0.00     0.008 C 
ENDROOT
BRANCH   1   2
ATOM      2  C   UNL     1     137.633 138.988 138.768  1.00  0.00    -0.007 C 
ATOM      3  C   UNL     1     138.509 139.197 140.022  1.00  0.00     0.008 C 
BRANCH   2   4
ATOM      4  C   UNL     1     138.321 138.035 137.733  1.00  0.00     0.018 C 
ATOM      5  C   UNL     1     137.682 140.576 134.270  1.00  0.00     0.044 C 
ATOM      6  C   UNL     1     138.032 139.584 135.338  1.00  0.00    -0.055 C 
ATOM      7  C   UNL     1     139.151 139.732 136.065  1.00  0.00    -0.023 C 
ATOM      8  C   UNL     1     137.171 138.397 135.560  1.00  0.00    -0.001 C 
ATOM      9  C   UNL     1     139.563 138.660 137.041  1.00  0.00     0.035 C 
ATOM     10  C   UNL     1     137.339 137.633 136.648  1.00  0.00    -0.023 C 
ENDBRANCH   2   4
ENDBRANCH   1   2
BRANCH   1  11
ATOM     11  C   UNL     1     135.122 139.476 139.001  1.00  0.00     0.027 C 
BRANCH  11  12
ATOM     12  C   UNL     1     134.155 139.026 137.934  1.00  0.00    -0.028 C 
ATOM     13  C   UNL     1     133.937 139.684 136.774  1.00  0.00    -0.080 C 
ATOM     14  C   UNL     1     132.913 139.134 135.816  1.00  0.00     0.039 C 
ATOM     15  C   UNL     1     134.702 140.935 136.410  1.00  0.00     0.039 C 
ENDBRANCH  11  12
ENDBRANCH   1  11
TORSDOF 4
ENDMDL
MODEL 6
REMARK VINA RESULT:    -4.391      3.411      5.826
REMARK INTER + INTRA:          -7.158
REMARK INTER:                  -5.405
REMARK INTRA:                  -1.753
REMARK UNBOUND:                -1.740
REMARK SMILES CC(C)=CCC[C@@H](C)[C@H]1C=CC(C)=CC1
REMARK SMILES IDX 6 1 7 2 8 3 9 4 13 5 12 6 14 7 11 8 15 9 10 10 5 11 4 12
REMARK SMILES IDX 2 13 1 14 3 15
REMARK H PARENT
REMARK Flexibility Score: inf
ROOT
ATOM      1  C   UNL     1     137.864 136.134 139.270  1.00  0.00     0.008 C 
ENDROOT
BRANCH   1   2
ATOM      2  C   UNL     1     138.673 134.949 138.673  1.00  0.00    -0.007 C 
ATOM      3  C   UNL     1     139.091 133.987 139.805  1.00  0.00     0.008 C 
BRANCH   2   4
ATOM      4  C   UNL     1     137.854 134.212 137.560  1.00  0.00     0.018 C 
ATOM      5  C   UNL     1     140.644 135.006 134.329  1.00  0.00     0.044 C 
ATOM      6  C   UNL     1     139.584 134.597 135.308  1.00  0.00    -0.055 C 
ATOM      7  C   UNL     1     139.732 133.485 136.046  1.00  0.00    -0.023 C 
ATOM      8  C   UNL     1     138.337 135.390 135.426  1.00  0.00    -0.001 C 
ATOM      9  C   UNL     1     138.604 133.010 136.926  1.00  0.00     0.035 C 
ATOM     10  C   UNL     1     137.492 135.175 136.444  1.00  0.00    -0.023 C 
ENDBRANCH   2   4
ENDBRANCH   1   2
BRANCH   1  11
ATOM     11  C   UNL     1     138.698 137.421 139.369  1.00  0.00     0.027 C 
BRANCH  11  12
ATOM     12  C   UNL     1     139.819 137.410 138.359  1.00  0.00    -0.028 C 
ATOM     13  C   UNL     1     139.819 138.125 137.212  1.00  0.00    -0.080 C 
ATOM     14  C   UNL     1     140.994 137.986 136.279  1.00  0.00     0.039 C 
ATOM     15  C   UNL     1     138.690 139.063 136.854  1.00  0.00     0.039 C 
ENDBRANCH  11  12
ENDBRANCH   1  11
TORSDOF 4
ENDMDL
MODEL 7
REMARK VINA RESULT:    -4.342      3.768      5.661
REMARK INTER + INTRA:          -7.097
REMARK INTER:                  -5.393
REMARK INTRA:                  -1.705
REMARK UNBOUND:                -1.740
REMARK SMILES CC(C)=CCC[C@@H](C)[C@H]1C=CC(C)=CC1
REMARK SMILES IDX 6 1 7 2 8 3 9 4 13 5 12 6 14 7 11 8 15 9 10 10 5 11 4 12
REMARK SMILES IDX 2 13 1 14 3 15
REMARK H PARENT
REMARK Flexibility Score: inf
ROOT
ATOM      1  C   UNL     1     132.253 137.688 134.362  1.00  0.00     0.008 C 
ENDROOT
BRANCH   1   2
ATOM      2  C   UNL     1     133.595 138.458 134.508  1.00  0.00    -0.007 C 
ATOM      3  C   UNL     1     134.150 138.800 133.109  1.00  0.00     0.008 C 
BRANCH   2   4
ATOM      4  C   UNL     1     133.415 139.740 135.390  1.00  0.00     0.018 C 
ATOM      5  C   UNL     1     136.078 138.486 138.582  1.00  0.00     0.044 C 
ATOM      6  C   UNL     1     135.160 139.112 137.575  1.00  0.00    -0.055 C 
ATOM      7  C   UNL     1     135.658 139.800 136.535  1.00  0.00    -0.023 C 
ATOM      8  C   UNL     1     133.691 139.023 137.753  1.00  0.00    -0.001 C 
ATOM      9  C   UNL     1     134.728 140.538 135.605  1.00  0.00     0.035 C 
ATOM     10  C   UNL     1     132.866 139.371 136.756  1.00  0.00    -0.023 C 
ENDBRANCH   2   4
ENDBRANCH   1   2
BRANCH   1  11
ATOM     11  C   UNL     1     132.426 136.171 134.540  1.00  0.00     0.027 C 
BRANCH  11  12
ATOM     12  C   UNL     1     132.255 135.781 135.987  1.00  0.00    -0.028 C 
ATOM     13  C   UNL     1     133.276 135.497 136.826  1.00  0.00    -0.080 C 
ATOM     14  C   UNL     1     132.952 135.086 138.239  1.00  0.00     0.039 C 
ATOM     15  C   UNL     1     134.719 135.599 136.392  1.00  0.00     0.039 C 
ENDBRANCH  11  12
ENDBRANCH   1  11
TORSDOF 4
ENDMDL
MODEL 8
REMARK VINA RESULT:    -4.342      0.923      4.087
REMARK INTER + INTRA:          -7.097
REMARK INTER:                  -5.421
REMARK INTRA:                  -1.676
REMARK UNBOUND:                -1.740
REMARK SMILES CC(C)=CCC[C@@H](C)[C@H]1C=CC(C)=CC1
REMARK SMILES IDX 6 1 7 2 8 3 9 4 13 5 12 6 14 7 11 8 15 9 10 10 5 11 4 12
REMARK SMILES IDX 2 13 1 14 3 15
REMARK H PARENT
REMARK Flexibility Score: inf
ROOT
ATOM      1  C   UNL     1     135.064 132.235 134.306  1.00  0.00     0.008 C 
ENDROOT
BRANCH   1   2
ATOM      2  C   UNL     1     134.266 133.556 134.485  1.00  0.00    -0.007 C 
ATOM      3  C   UNL     1     133.920 134.143 133.100  1.00  0.00     0.008 C 
BRANCH   2   4
ATOM      4  C   UNL     1     132.983 133.324 135.353  1.00  0.00     0.018 C 
ATOM      5  C   UNL     1     134.037 136.127 138.498  1.00  0.00     0.044 C 
ATOM      6  C   UNL     1     133.479 135.152 137.504  1.00  0.00    -0.055 C 
ATOM      7  C   UNL     1     132.780 135.587 136.444  1.00  0.00    -0.023 C 
ATOM      8  C   UNL     1     133.648 133.695 137.719  1.00  0.00    -0.001 C 
ATOM      9  C   UNL     1     132.109 134.596 135.526  1.00  0.00     0.035 C 
ATOM     10  C   UNL     1     133.361 132.829 136.737  1.00  0.00    -0.023 C 
ENDBRANCH   2   4
ENDBRANCH   1   2
BRANCH   1  11
ATOM     11  C   UNL     1     136.572 132.426 134.538  1.00  0.00     0.027 C 
BRANCH  11  12
ATOM     12  C   UNL     1     136.913 132.251 135.997  1.00  0.00    -0.028 C 
ATOM     13  C   UNL     1     137.170 133.268 136.849  1.00  0.00    -0.080 C 
ATOM     14  C   UNL     1     137.533 132.939 138.274  1.00  0.00     0.039 C 
ATOM     15  C   UNL     1     137.084 134.713 136.417  1.00  0.00     0.039 C 
ENDBRANCH  11  12
ENDBRANCH   1  11
TORSDOF 4
ENDMDL
MODEL 9
REMARK VINA RESULT:    -4.323      4.929      6.185
REMARK INTER + INTRA:          -7.074
REMARK INTER:                  -5.414
REMARK INTRA:                  -1.660
REMARK UNBOUND:                -1.740
REMARK SMILES CC(C)=CCC[C@@H](C)[C@H]1C=CC(C)=CC1
REMARK SMILES IDX 6 1 7 2 8 3 9 4 13 5 12 6 14 7 11 8 15 9 10 10 5 11 4 12
REMARK SMILES IDX 2 13 1 14 3 15
REMARK H PARENT
REMARK Flexibility Score: inf
ROOT
ATOM      1  C   UNL     1     137.530 140.462 134.362  1.00  0.00     0.008 C 
ENDROOT
BRANCH   1   2
ATOM      2  C   UNL     1     138.342 139.140 134.460  1.00  0.00    -0.007 C 
ATOM      3  C   UNL     1     138.657 138.622 133.041  1.00  0.00     0.008 C 
BRANCH   2   4
ATOM      4  C   UNL     1     139.645 139.342 135.305  1.00  0.00     0.018 C 
ATOM      5  C   UNL     1     138.653 136.444 138.384  1.00  0.00     0.044 C 
ATOM      6  C   UNL     1     139.191 137.449 137.409  1.00  0.00    -0.055 C 
ATOM      7  C   UNL     1     139.865 137.046 136.320  1.00  0.00    -0.023 C 
ATOM      8  C   UNL     1     139.031 138.899 137.672  1.00  0.00    -0.001 C 
ATOM      9  C   UNL     1     140.518 138.064 135.419  1.00  0.00     0.035 C 
ATOM     10  C   UNL     1     139.299 139.795 136.712  1.00  0.00    -0.023 C 
ENDBRANCH   2   4
ENDBRANCH   1   2
BRANCH   1  11
ATOM     11  C   UNL     1     136.023 140.240 134.574  1.00  0.00     0.027 C 
BRANCH  11  12
ATOM     12  C   UNL     1     135.663 140.386 136.031  1.00  0.00    -0.028 C 
ATOM     13  C   UNL     1     135.461 139.350 136.876  1.00  0.00    -0.080 C 
ATOM     14  C   UNL     1     135.070 139.648 138.300  1.00  0.00     0.039 C 
ATOM     15  C   UNL     1     135.635 137.916 136.435  1.00  0.00     0.039 C 
ENDBRANCH  11  12
ENDBRANCH   1  11
TORSDOF 4
ENDMDL
