MODEL 1
REMARK VINA RESULT:    -2.952      0.000      0.000
REMARK INTER + INTRA:          -3.579
REMARK INTER:                  -3.469
REMARK INTRA:                  -0.109
REMARK UNBOUND:                -0.109
REMARK SMILES O=C([O-])CCC(=O)[O-]
REMARK SMILES IDX 4 1 2 2 1 3 3 4 5 5 6 6 7 7 8 8
REMARK H PARENT
REMARK Flexibility Score: inf
ROOT
ATOM      1  C   UNL     1     -25.589   2.887 -33.667  1.00  0.00     0.059 C 
ENDROOT
BRANCH   1   2
ATOM      2  C   UNL     1     -26.156   4.138 -33.071  1.00  0.00     0.042 C 
ATOM      3  O   UNL     1     -27.261   4.586 -33.474  1.00  0.00    -0.550 OA
ATOM      4  O   UNL     1     -25.488   4.779 -32.036  1.00  0.00    -0.550 OA
ENDBRANCH   1   2
BRANCH   1   5
ATOM      5  C   UNL     1     -24.321   2.468 -32.923  1.00  0.00     0.059 C 
BRANCH   5   6
ATOM      6  C   UNL     1     -23.134   2.532 -33.833  1.00  0.00     0.042 C 
ATOM      7  O   UNL     1     -22.744   3.639 -34.288  1.00  0.00    -0.550 OA
ATOM      8  O   UNL     1     -22.490   1.364 -34.219  1.00  0.00    -0.550 OA
ENDBRANCH   5   6
ENDBRANCH   1   5
TORSDOF 3
ENDMDL
MODEL 2
REMARK VINA RESULT:    -2.943      0.679      3.904
REMARK INTER + INTRA:          -3.569
REMARK INTER:                  -3.473
REMARK INTRA:                  -0.096
REMARK UNBOUND:                -0.109
REMARK SMILES O=C([O-])CCC(=O)[O-]
REMARK SMILES IDX 4 1 2 2 1 3 3 4 5 5 6 6 7 7 8 8
REMARK H PARENT
REMARK Flexibility Score: inf
ROOT
ATOM      1  C   UNL     1     -24.232   2.846 -32.834  1.00  0.00     0.059 C 
ENDROOT
BRANCH   1   2
ATOM      2  C   UNL     1     -23.134   2.836 -33.852  1.00  0.00     0.042 C 
ATOM      3  O   UNL     1     -22.516   1.769 -34.107  1.00  0.00    -0.550 OA
ATOM      4  O   UNL     1     -22.828   3.994 -34.555  1.00  0.00    -0.550 OA
ENDBRANCH   1   2
BRANCH   1   5
ATOM      5  C   UNL     1     -25.573   2.519 -33.491  1.00  0.00     0.059 C 
BRANCH   5   6
ATOM      6  C   UNL     1     -26.510   3.681 -33.375  1.00  0.00     0.042 C 
ATOM      7  O   UNL     1     -26.142   4.735 -32.794  1.00  0.00    -0.550 OA
ATOM      8  O   UNL     1     -27.805   3.580 -33.865  1.00  0.00    -0.550 OA
ENDBRANCH   5   6
ENDBRANCH   1   5
TORSDOF 3
ENDMDL
MODEL 3
REMARK VINA RESULT:    -2.921      1.011      3.837
REMARK INTER + INTRA:          -3.543
REMARK INTER:                  -3.468
REMARK INTRA:                  -0.075
REMARK UNBOUND:                -0.109
REMARK SMILES O=C([O-])CCC(=O)[O-]
REMARK SMILES IDX 4 1 2 2 1 3 3 4 5 5 6 6 7 7 8 8
REMARK H PARENT
REMARK Flexibility Score: inf
ROOT
ATOM      1  C   UNL     1     -24.623   2.535 -34.617  1.00  0.00     0.059 C 
ENDROOT
BRANCH   1   2
ATOM      2  C   UNL     1     -23.145   2.464 -34.842  1.00  0.00     0.042 C 
ATOM      3  O   UNL     1     -22.688   1.930 -35.886  1.00  0.00    -0.550 OA
ATOM      4  O   UNL     1     -22.274   3.034 -33.921  1.00  0.00    -0.550 OA
ENDBRANCH   1   2
BRANCH   1   5
ATOM      5  C   UNL     1     -24.934   2.616 -33.122  1.00  0.00     0.059 C 
BRANCH   5   6
ATOM      6  C   UNL     1     -25.642   3.896 -32.803  1.00  0.00     0.042 C 
ATOM      7  O   UNL     1     -25.284   4.589 -31.815  1.00  0.00    -0.550 OA
ATOM      8  O   UNL     1     -26.729   4.297 -33.568  1.00  0.00    -0.550 OA
ENDBRANCH   5   6
ENDBRANCH   1   5
TORSDOF 3
ENDMDL
MODEL 4
REMARK VINA RESULT:    -2.920     20.289     21.549
REMARK INTER + INTRA:          -3.542
REMARK INTER:                  -3.470
REMARK INTRA:                  -0.072
REMARK UNBOUND:                -0.109
REMARK SMILES O=C([O-])CCC(=O)[O-]
REMARK SMILES IDX 4 1 2 2 1 3 3 4 5 5 6 6 7 7 8 8
REMARK H PARENT
REMARK Flexibility Score: inf
ROOT
ATOM      1  C   UNL     1     -20.218 -11.377 -19.171  1.00  0.00     0.059 C 
ENDROOT
BRANCH   1   2
ATOM      2  C   UNL     1     -18.998 -10.930 -19.914  1.00  0.00     0.042 C 
ATOM      3  O   UNL     1     -18.273 -11.772 -20.505  1.00  0.00    -0.550 OA
ATOM      4  O   UNL     1     -18.691  -9.577 -19.995  1.00  0.00    -0.550 OA
ENDBRANCH   1   2
BRANCH   1   5
ATOM      5  C   UNL     1     -20.146 -12.876 -18.877  1.00  0.00     0.059 C 
BRANCH   5   6
ATOM      6  C   UNL     1     -21.444 -13.540 -19.216  1.00  0.00     0.042 C 
ATOM      7  O   UNL     1     -21.642 -14.742 -18.902  1.00  0.00    -0.550 OA
ATOM      8  O   UNL     1     -22.416 -12.844 -19.923  1.00  0.00    -0.550 OA
ENDBRANCH   5   6
ENDBRANCH   1   5
TORSDOF 3
ENDMDL
MODEL 5
REMARK VINA RESULT:    -2.914      1.010      1.583
REMARK INTER + INTRA:          -3.535
REMARK INTER:                  -3.355
REMARK INTRA:                  -0.179
REMARK UNBOUND:                -0.109
REMARK SMILES O=C([O-])CCC(=O)[O-]
REMARK SMILES IDX 4 1 2 2 1 3 3 4 5 5 6 6 7 7 8 8
REMARK H PARENT
REMARK Flexibility Score: inf
ROOT
ATOM      1  C   UNL     1     -25.259   2.597 -33.337  1.00  0.00     0.059 C 
ENDROOT
BRANCH   1   2
ATOM      2  C   UNL     1     -25.636   3.930 -32.771  1.00  0.00     0.042 C 
ATOM      3  O   UNL     1     -26.513   4.634 -33.336  1.00  0.00    -0.550 OA
ATOM      4  O   UNL     1     -25.053   4.373 -31.590  1.00  0.00    -0.550 OA
ENDBRANCH   1   2
BRANCH   1   5
ATOM      5  C   UNL     1     -24.556   2.767 -34.685  1.00  0.00     0.059 C 
BRANCH   5   6
ATOM      6  C   UNL     1     -23.263   3.500 -34.512  1.00  0.00     0.042 C 
ATOM      7  O   UNL     1     -22.318   2.974 -33.867  1.00  0.00    -0.550 OA
ATOM      8  O   UNL     1     -23.118   4.784 -35.020  1.00  0.00    -0.550 OA
ENDBRANCH   5   6
ENDBRANCH   1   5
TORSDOF 3
ENDMDL
MODEL 6
REMARK VINA RESULT:    -2.875      1.144      3.950
REMARK INTER + INTRA:          -3.489
REMARK INTER:                  -3.396
REMARK INTRA:                  -0.092
REMARK UNBOUND:                -0.109
REMARK SMILES O=C([O-])CCC(=O)[O-]
REMARK SMILES IDX 4 1 2 2 1 3 3 4 5 5 6 6 7 7 8 8
REMARK H PARENT
REMARK Flexibility Score: inf
ROOT
ATOM      1  C   UNL     1     -24.531   2.515 -34.406  1.00  0.00     0.059 C 
ENDROOT
BRANCH   1   2
ATOM      2  C   UNL     1     -23.076   2.516 -34.757  1.00  0.00     0.042 C 
ATOM      3  O   UNL     1     -22.224   2.930 -33.927  1.00  0.00    -0.550 OA
ATOM      4  O   UNL     1     -22.656   2.011 -35.981  1.00  0.00    -0.550 OA
ENDBRANCH   1   2
BRANCH   1   5
ATOM      5  C   UNL     1     -24.727   2.878 -32.934  1.00  0.00     0.059 C 
BRANCH   5   6
ATOM      6  C   UNL     1     -25.396   4.211 -32.807  1.00  0.00     0.042 C 
ATOM      7  O   UNL     1     -25.857   4.787 -33.827  1.00  0.00    -0.550 OA
ATOM      8  O   UNL     1     -25.466   4.839 -31.570  1.00  0.00    -0.550 OA
ENDBRANCH   5   6
ENDBRANCH   1   5
TORSDOF 3
ENDMDL
MODEL 7
REMARK VINA RESULT:    -2.843     20.241     21.399
REMARK INTER + INTRA:          -3.451
REMARK INTER:                  -3.329
REMARK INTRA:                  -0.122
REMARK UNBOUND:                -0.109
REMARK SMILES O=C([O-])CCC(=O)[O-]
REMARK SMILES IDX 4 1 2 2 1 3 3 4 5 5 6 6 7 7 8 8
REMARK H PARENT
REMARK Flexibility Score: inf
ROOT
ATOM      1  C   UNL     1     -21.200 -11.905 -19.601  1.00  0.00     0.059 C 
ENDROOT
BRANCH   1   2
ATOM      2  C   UNL     1     -21.373 -13.309 -19.114  1.00  0.00     0.042 C 
ATOM      3  O   UNL     1     -22.526 -13.780 -18.936  1.00  0.00    -0.550 OA
ATOM      4  O   UNL     1     -20.260 -14.114 -18.904  1.00  0.00    -0.550 OA
ENDBRANCH   1   2
BRANCH   1   5
ATOM      5  C   UNL     1     -20.038 -11.225 -18.875  1.00  0.00     0.059 C 
BRANCH   5   6
ATOM      6  C   UNL     1     -18.959 -10.855 -19.844  1.00  0.00     0.042 C 
ATOM      7  O   UNL     1     -18.250 -11.750 -20.375  1.00  0.00    -0.550 OA
ATOM      8  O   UNL     1     -18.704  -9.519 -20.123  1.00  0.00    -0.550 OA
ENDBRANCH   5   6
ENDBRANCH   1   5
TORSDOF 3
ENDMDL
MODEL 8
REMARK VINA RESULT:    -2.823      1.468      1.715
REMARK INTER + INTRA:          -3.428
REMARK INTER:                  -3.282
REMARK INTRA:                  -0.146
REMARK UNBOUND:                -0.109
REMARK SMILES O=C([O-])CCC(=O)[O-]
REMARK SMILES IDX 4 1 2 2 1 3 3 4 5 5 6 6 7 7 8 8
REMARK H PARENT
REMARK Flexibility Score: inf
ROOT
ATOM      1  C   UNL     1     -24.626   3.947 -34.594  1.00  0.00     0.059 C 
ENDROOT
BRANCH   1   2
ATOM      2  C   UNL     1     -25.282   3.440 -33.348  1.00  0.00     0.042 C 
ATOM      3  O   UNL     1     -26.421   2.907 -33.404  1.00  0.00    -0.550 OA
ATOM      4  O   UNL     1     -24.614   3.511 -32.133  1.00  0.00    -0.550 OA
ENDBRANCH   1   2
BRANCH   1   5
ATOM      5  C   UNL     1     -23.116   3.715 -34.536  1.00  0.00     0.059 C 
BRANCH   5   6
ATOM      6  C   UNL     1     -22.782   2.326 -34.982  1.00  0.00     0.042 C 
ATOM      7  O   UNL     1     -22.787   2.036 -36.207  1.00  0.00    -0.550 OA
ATOM      8  O   UNL     1     -22.513   1.340 -34.042  1.00  0.00    -0.550 OA
ENDBRANCH   5   6
ENDBRANCH   1   5
TORSDOF 3
ENDMDL
MODEL 9
REMARK VINA RESULT:    -2.726      1.704      3.774
REMARK INTER + INTRA:          -3.314
REMARK INTER:                  -3.193
REMARK INTRA:                  -0.121
REMARK UNBOUND:                -0.109
REMARK SMILES O=C([O-])CCC(=O)[O-]
REMARK SMILES IDX 4 1 2 2 1 3 3 4 5 5 6 6 7 7 8 8
REMARK H PARENT
REMARK Flexibility Score: inf
ROOT
ATOM      1  C   UNL     1     -22.773   3.239 -34.226  1.00  0.00     0.059 C 
ENDROOT
BRANCH   1   2
ATOM      2  C   UNL     1     -23.134   3.049 -35.666  1.00  0.00     0.042 C 
ATOM      3  O   UNL     1     -23.911   3.859 -36.236  1.00  0.00    -0.550 OA
ATOM      4  O   UNL     1     -22.572   2.006 -36.392  1.00  0.00    -0.550 OA
ENDBRANCH   1   2
BRANCH   1   5
ATOM      5  C   UNL     1     -23.549   2.258 -33.346  1.00  0.00     0.059 C 
BRANCH   5   6
ATOM      6  C   UNL     1     -24.830   2.874 -32.879  1.00  0.00     0.042 C 
ATOM      7  O   UNL     1     -25.928   2.499 -33.368  1.00  0.00    -0.550 OA
ATOM      8  O   UNL     1     -24.808   3.898 -31.941  1.00  0.00    -0.550 OA
ENDBRANCH   5   6
ENDBRANCH   1   5
TORSDOF 3
ENDMDL
