MODEL 1
REMARK VINA RESULT:    -5.177      0.000      0.000
REMARK INTER + INTRA:          -8.083
REMARK INTER:                  -7.598
REMARK INTRA:                  -0.485
REMARK UNBOUND:                -0.485
REMARK SMILES O=C([O-])CCCCCCCC(=O)[O-]
REMARK SMILES IDX 7 1 6 2 5 3 4 4 2 5 1 6 3 7 8 8 9 9 10 10 11 11 12 12 13 13
REMARK H PARENT
REMARK Flexibility Score: inf
ROOT
ATOM      1  C   UNL     1       8.272  53.961  21.172  1.00  0.00     0.000 C 
ENDROOT
BRANCH   1   2
ATOM      2  C   UNL     1       9.797  53.928  21.362  1.00  0.00     0.000 C 
BRANCH   2   3
ATOM      3  C   UNL     1      10.210  53.380  22.736  1.00  0.00     0.006 C 
BRANCH   3   4
ATOM      4  C   UNL     1      10.198  54.486  23.795  1.00  0.00     0.053 C 
BRANCH   4   5
ATOM      5  C   UNL     1       9.288  54.120  24.925  1.00  0.00     0.041 C 
ATOM      6  O   UNL     1       9.707  54.153  26.112  1.00  0.00    -0.550 OA
ATOM      7  O   UNL     1       7.991  53.696  24.664  1.00  0.00    -0.550 OA
ENDBRANCH   4   5
ENDBRANCH   3   4
ENDBRANCH   2   3
ENDBRANCH   1   2
BRANCH   1   8
ATOM      8  C   UNL     1       7.710  55.394  21.153  1.00  0.00     0.000 C 
BRANCH   8   9
ATOM      9  C   UNL     1       6.718  55.622  20.001  1.00  0.00     0.006 C 
BRANCH   9  10
ATOM     10  C   UNL     1       7.420  55.828  18.653  1.00  0.00     0.053 C 
BRANCH  10  11
ATOM     11  C   UNL     1       6.903  54.852  17.642  1.00  0.00     0.041 C 
ATOM     12  O   UNL     1       6.666  55.225  16.464  1.00  0.00    -0.550 OA
ATOM     13  O   UNL     1       6.636  53.540  18.016  1.00  0.00    -0.550 OA
ENDBRANCH  10  11
ENDBRANCH   9  10
ENDBRANCH   8   9
ENDBRANCH   1   8
TORSDOF 8
ENDMDL
MODEL 2
REMARK VINA RESULT:    -5.172      0.252      6.465
REMARK INTER + INTRA:          -8.076
REMARK INTER:                  -7.621
REMARK INTRA:                  -0.455
REMARK UNBOUND:                -0.485
REMARK SMILES O=C([O-])CCCCCCCC(=O)[O-]
REMARK SMILES IDX 7 1 6 2 5 3 4 4 2 5 1 6 3 7 8 8 9 9 10 10 11 11 12 12 13 13
REMARK H PARENT
REMARK Flexibility Score: inf
ROOT
ATOM      1  C   UNL     1       8.337  53.929  21.272  1.00  0.00     0.000 C 
ENDROOT
BRANCH   1   2
ATOM      2  C   UNL     1       7.907  55.405  21.269  1.00  0.00     0.000 C 
BRANCH   2   3
ATOM      3  C   UNL     1       6.794  55.695  20.252  1.00  0.00     0.006 C 
BRANCH   3   4
ATOM      4  C   UNL     1       7.376  55.943  18.858  1.00  0.00     0.053 C 
BRANCH   4   5
ATOM      5  C   UNL     1       6.911  54.891  17.900  1.00  0.00     0.041 C 
ATOM      6  O   UNL     1       6.577  53.753  18.323  1.00  0.00    -0.550 OA
ATOM      7  O   UNL     1       6.893  55.152  16.536  1.00  0.00    -0.550 OA
ENDBRANCH   4   5
ENDBRANCH   3   4
ENDBRANCH   2   3
ENDBRANCH   1   2
BRANCH   1   8
ATOM      8  C   UNL     1       9.862  53.757  21.393  1.00  0.00     0.000 C 
BRANCH   8   9
ATOM      9  C   UNL     1      10.286  53.203  22.762  1.00  0.00     0.006 C 
BRANCH   9  10
ATOM     10  C   UNL     1      10.369  54.292  23.838  1.00  0.00     0.053 C 
BRANCH  10  11
ATOM     11  C   UNL     1       9.439  53.982  24.969  1.00  0.00     0.041 C 
ATOM     12  O   UNL     1       9.778  54.230  26.155  1.00  0.00    -0.550 OA
ATOM     13  O   UNL     1       8.217  53.371  24.715  1.00  0.00    -0.550 OA
ENDBRANCH  10  11
ENDBRANCH   9  10
ENDBRANCH   8   9
ENDBRANCH   1   8
TORSDOF 8
ENDMDL
MODEL 3
REMARK VINA RESULT:    -5.105      2.067      2.672
REMARK INTER + INTRA:          -7.978
REMARK INTER:                  -7.564
REMARK INTRA:                  -0.414
REMARK UNBOUND:                -0.485
REMARK SMILES O=C([O-])CCCCCCCC(=O)[O-]
REMARK SMILES IDX 7 1 6 2 5 3 4 4 2 5 1 6 3 7 8 8 9 9 10 10 11 11 12 12 13 13
REMARK H PARENT
REMARK Flexibility Score: inf
ROOT
ATOM      1  C   UNL     1       8.737  54.619  20.937  1.00  0.00     0.000 C 
ENDROOT
BRANCH   1   2
ATOM      2  C   UNL     1       9.627  53.414  21.282  1.00  0.00     0.000 C 
BRANCH   2   3
ATOM      3  C   UNL     1      10.313  53.558  22.648  1.00  0.00     0.006 C 
BRANCH   3   4
ATOM      4  C   UNL     1       9.631  54.638  23.494  1.00  0.00     0.053 C 
BRANCH   4   5
ATOM      5  C   UNL     1       8.987  54.030  24.700  1.00  0.00     0.041 C 
ATOM      6  O   UNL     1       7.874  53.449  24.598  1.00  0.00    -0.550 OA
ATOM      7  O   UNL     1       9.591  54.149  25.945  1.00  0.00    -0.550 OA
ENDBRANCH   4   5
ENDBRANCH   3   4
ENDBRANCH   2   3
ENDBRANCH   1   2
BRANCH   1   8
ATOM      8  C   UNL     1       7.877  54.379  19.683  1.00  0.00     0.000 C 
BRANCH   8   9
ATOM      9  C   UNL     1       7.088  55.629  19.262  1.00  0.00     0.006 C 
BRANCH   9  10
ATOM     10  C   UNL     1       6.901  56.624  20.414  1.00  0.00     0.053 C 
BRANCH  10  11
ATOM     11  C   UNL     1       5.571  56.420  21.069  1.00  0.00     0.041 C 
ATOM     12  O   UNL     1       5.330  55.357  21.698  1.00  0.00    -0.550 OA
ATOM     13  O   UNL     1       4.579  57.384  20.940  1.00  0.00    -0.550 OA
ENDBRANCH  10  11
ENDBRANCH   9  10
ENDBRANCH   8   9
ENDBRANCH   1   8
TORSDOF 8
ENDMDL
MODEL 4
REMARK VINA RESULT:    -5.098      0.914      1.216
REMARK INTER + INTRA:          -7.967
REMARK INTER:                  -7.334
REMARK INTRA:                  -0.633
REMARK UNBOUND:                -0.485
REMARK SMILES O=C([O-])CCCCCCCC(=O)[O-]
REMARK SMILES IDX 7 1 6 2 5 3 4 4 2 5 1 6 3 7 8 8 9 9 10 10 11 11 12 12 13 13
REMARK H PARENT
REMARK Flexibility Score: inf
ROOT
ATOM      1  C   UNL     1       6.915  54.381  21.869  1.00  0.00     0.000 C 
ENDROOT
BRANCH   1   2
ATOM      2  C   UNL     1       8.047  53.381  21.585  1.00  0.00     0.000 C 
BRANCH   2   3
ATOM      3  C   UNL     1       9.441  54.003  21.754  1.00  0.00     0.006 C 
BRANCH   3   4
ATOM      4  C   UNL     1      10.226  53.295  22.862  1.00  0.00     0.053 C 
BRANCH   4   5
ATOM      5  C   UNL     1      10.207  54.106  24.119  1.00  0.00     0.041 C 
ATOM      6  O   UNL     1      11.285  54.510  24.629  1.00  0.00    -0.550 OA
ATOM      7  O   UNL     1       9.001  54.374  24.755  1.00  0.00    -0.550 OA
ENDBRANCH   4   5
ENDBRANCH   3   4
ENDBRANCH   2   3
ENDBRANCH   1   2
BRANCH   1   8
ATOM      8  C   UNL     1       7.257  55.809  21.409  1.00  0.00     0.000 C 
BRANCH   8   9
ATOM      9  C   UNL     1       6.591  56.174  20.072  1.00  0.00     0.006 C 
BRANCH   9  10
ATOM     10  C   UNL     1       7.530  55.983  18.875  1.00  0.00     0.053 C 
BRANCH  10  11
ATOM     11  C   UNL     1       6.973  54.963  17.932  1.00  0.00     0.041 C 
ATOM     12  O   UNL     1       6.874  55.222  16.704  1.00  0.00    -0.550 OA
ATOM     13  O   UNL     1       6.516  53.744  18.418  1.00  0.00    -0.550 OA
ENDBRANCH  10  11
ENDBRANCH   9  10
ENDBRANCH   8   9
ENDBRANCH   1   8
TORSDOF 8
ENDMDL
MODEL 5
REMARK VINA RESULT:    -5.074      2.014      5.966
REMARK INTER + INTRA:          -7.932
REMARK INTER:                  -7.455
REMARK INTRA:                  -0.476
REMARK UNBOUND:                -0.485
REMARK SMILES O=C([O-])CCCCCCCC(=O)[O-]
REMARK SMILES IDX 7 1 6 2 5 3 4 4 2 5 1 6 3 7 8 8 9 9 10 10 11 11 12 12 13 13
REMARK H PARENT
REMARK Flexibility Score: inf
ROOT
ATOM      1  C   UNL     1       8.958  54.325  20.986  1.00  0.00     0.000 C 
ENDROOT
BRANCH   1   2
ATOM      2  C   UNL     1       7.636  53.583  21.238  1.00  0.00     0.000 C 
BRANCH   2   3
ATOM      3  C   UNL     1       6.442  54.248  20.537  1.00  0.00     0.006 C 
BRANCH   3   4
ATOM      4  C   UNL     1       5.758  55.259  21.461  1.00  0.00     0.053 C 
BRANCH   4   5
ATOM      5  C   UNL     1       5.694  56.605  20.810  1.00  0.00     0.041 C 
ATOM      6  O   UNL     1       4.714  57.367  21.025  1.00  0.00    -0.550 OA
ATOM      7  O   UNL     1       6.693  56.999  19.929  1.00  0.00    -0.550 OA
ENDBRANCH   4   5
ENDBRANCH   3   4
ENDBRANCH   2   3
ENDBRANCH   1   2
BRANCH   1   8
ATOM      8  C   UNL     1      10.190  53.481  21.356  1.00  0.00     0.000 C 
BRANCH   8   9
ATOM      9  C   UNL     1      10.244  53.142  22.855  1.00  0.00     0.006 C 
BRANCH   9  10
ATOM     10  C   UNL     1      10.126  54.386  23.744  1.00  0.00     0.053 C 
BRANCH  10  11
ATOM     11  C   UNL     1       9.225  54.112  24.907  1.00  0.00     0.041 C 
ATOM     12  O   UNL     1       9.671  54.172  26.083  1.00  0.00    -0.550 OA
ATOM     13  O   UNL     1       7.904  53.740  24.690  1.00  0.00    -0.550 OA
ENDBRANCH  10  11
ENDBRANCH   9  10
ENDBRANCH   8   9
ENDBRANCH   1   8
TORSDOF 8
ENDMDL
MODEL 6
REMARK VINA RESULT:    -5.039      1.923      5.824
REMARK INTER + INTRA:          -7.880
REMARK INTER:                  -7.337
REMARK INTRA:                  -0.543
REMARK UNBOUND:                -0.485
REMARK SMILES O=C([O-])CCCCCCCC(=O)[O-]
REMARK SMILES IDX 7 1 6 2 5 3 4 4 2 5 1 6 3 7 8 8 9 9 10 10 11 11 12 12 13 13
REMARK H PARENT
REMARK Flexibility Score: inf
ROOT
ATOM      1  C   UNL     1       6.800  54.325  21.984  1.00  0.00     0.000 C 
ENDROOT
BRANCH   1   2
ATOM      2  C   UNL     1       7.457  55.570  21.365  1.00  0.00     0.000 C 
BRANCH   2   3
ATOM      3  C   UNL     1       6.703  56.084  20.130  1.00  0.00     0.006 C 
BRANCH   3   4
ATOM      4  C   UNL     1       7.556  55.941  18.867  1.00  0.00     0.053 C 
BRANCH   4   5
ATOM      5  C   UNL     1       6.967  54.918  17.948  1.00  0.00     0.041 C 
ATOM      6  O   UNL     1       6.802  55.183  16.727  1.00  0.00    -0.550 OA
ATOM      7  O   UNL     1       6.553  53.690  18.448  1.00  0.00    -0.550 OA
ENDBRANCH   4   5
ENDBRANCH   3   4
ENDBRANCH   2   3
ENDBRANCH   1   2
BRANCH   1   8
ATOM      8  C   UNL     1       7.647  53.709  23.112  1.00  0.00     0.000 C 
BRANCH   8   9
ATOM      9  C   UNL     1       8.942  54.493  23.373  1.00  0.00     0.006 C 
BRANCH   9  10
ATOM     10  C   UNL     1      10.185  53.594  23.379  1.00  0.00     0.053 C 
BRANCH  10  11
ATOM     11  C   UNL     1      10.204  52.722  22.162  1.00  0.00     0.041 C 
ATOM     12  O   UNL     1      10.244  51.470  22.280  1.00  0.00    -0.550 OA
ATOM     13  O   UNL     1      10.229  53.296  20.897  1.00  0.00    -0.550 OA
ENDBRANCH  10  11
ENDBRANCH   9  10
ENDBRANCH   8   9
ENDBRANCH   1   8
TORSDOF 8
ENDMDL
MODEL 7
REMARK VINA RESULT:    -4.841      2.021      2.388
REMARK INTER + INTRA:          -7.590
REMARK INTER:                  -7.061
REMARK INTRA:                  -0.529
REMARK UNBOUND:                -0.485
REMARK SMILES O=C([O-])CCCCCCCC(=O)[O-]
REMARK SMILES IDX 7 1 6 2 5 3 4 4 2 5 1 6 3 7 8 8 9 9 10 10 11 11 12 12 13 13
REMARK H PARENT
REMARK Flexibility Score: inf
ROOT
ATOM      1  C   UNL     1       6.944  54.006  21.761  1.00  0.00     0.000 C 
ENDROOT
BRANCH   1   2
ATOM      2  C   UNL     1       7.642  54.040  23.130  1.00  0.00     0.000 C 
BRANCH   2   3
ATOM      3  C   UNL     1       9.027  54.703  23.071  1.00  0.00     0.006 C 
BRANCH   3   4
ATOM      4  C   UNL     1      10.137  53.676  23.314  1.00  0.00     0.053 C 
BRANCH   4   5
ATOM      5  C   UNL     1      10.279  52.768  22.134  1.00  0.00     0.041 C 
ATOM      6  O   UNL     1      10.304  53.243  20.968  1.00  0.00    -0.550 OA
ATOM      7  O   UNL     1      10.333  51.392  22.318  1.00  0.00    -0.550 OA
ENDBRANCH   4   5
ENDBRANCH   3   4
ENDBRANCH   2   3
ENDBRANCH   1   2
BRANCH   1   8
ATOM      8  C   UNL     1       6.032  55.224  21.532  1.00  0.00     0.000 C 
BRANCH   8   9
ATOM      9  C   UNL     1       6.445  56.048  20.302  1.00  0.00     0.006 C 
BRANCH   9  10
ATOM     10  C   UNL     1       7.593  55.400  19.518  1.00  0.00     0.053 C 
BRANCH  10  11
ATOM     11  C   UNL     1       7.079  54.775  18.260  1.00  0.00     0.041 C 
ATOM     12  O   UNL     1       7.126  55.408  17.172  1.00  0.00    -0.550 OA
ATOM     13  O   UNL     1       6.500  53.512  18.297  1.00  0.00    -0.550 OA
ENDBRANCH  10  11
ENDBRANCH   9  10
ENDBRANCH   8   9
ENDBRANCH   1   8
TORSDOF 8
ENDMDL
MODEL 8
REMARK VINA RESULT:    -4.656      1.385      6.542
REMARK INTER + INTRA:          -7.319
REMARK INTER:                  -6.942
REMARK INTRA:                  -0.378
REMARK UNBOUND:                -0.485
REMARK SMILES O=C([O-])CCCCCCCC(=O)[O-]
REMARK SMILES IDX 7 1 6 2 5 3 4 4 2 5 1 6 3 7 8 8 9 9 10 10 11 11 12 12 13 13
REMARK H PARENT
REMARK Flexibility Score: inf
ROOT
ATOM      1  C   UNL     1       7.252  54.393  21.206  1.00  0.00     0.000 C 
ENDROOT
BRANCH   1   2
ATOM      2  C   UNL     1       7.067  55.897  20.949  1.00  0.00     0.000 C 
BRANCH   2   3
ATOM      3  C   UNL     1       7.209  56.265  19.464  1.00  0.00     0.006 C 
BRANCH   3   4
ATOM      4  C   UNL     1       7.789  55.096  18.663  1.00  0.00     0.053 C 
BRANCH   4   5
ATOM      5  C   UNL     1       6.872  54.723  17.541  1.00  0.00     0.041 C 
ATOM      6  O   UNL     1       6.862  55.400  16.479  1.00  0.00    -0.550 OA
ATOM      7  O   UNL     1       5.995  53.656  17.686  1.00  0.00    -0.550 OA
ENDBRANCH   4   5
ENDBRANCH   3   4
ENDBRANCH   2   3
ENDBRANCH   1   2
BRANCH   1   8
ATOM      8  C   UNL     1       6.846  53.983  22.633  1.00  0.00     0.000 C 
BRANCH   8   9
ATOM      9  C   UNL     1       7.906  53.105  23.318  1.00  0.00     0.006 C 
BRANCH   9  10
ATOM     10  C   UNL     1       8.298  53.630  24.705  1.00  0.00     0.053 C 
BRANCH  10  11
ATOM     11  C   UNL     1       9.655  54.260  24.660  1.00  0.00     0.041 C 
ATOM     12  O   UNL     1      10.461  54.098  25.613  1.00  0.00    -0.550 OA
ATOM     13  O   UNL     1      10.010  55.068  23.587  1.00  0.00    -0.550 OA
ENDBRANCH  10  11
ENDBRANCH   9  10
ENDBRANCH   8   9
ENDBRANCH   1   8
TORSDOF 8
ENDMDL
MODEL 9
REMARK VINA RESULT:    -4.606      2.083      5.887
REMARK INTER + INTRA:          -7.246
REMARK INTER:                  -6.571
REMARK INTRA:                  -0.674
REMARK UNBOUND:                -0.485
REMARK SMILES O=C([O-])CCCCCCCC(=O)[O-]
REMARK SMILES IDX 7 1 6 2 5 3 4 4 2 5 1 6 3 7 8 8 9 9 10 10 11 11 12 12 13 13
REMARK H PARENT
REMARK Flexibility Score: inf
ROOT
ATOM      1  C   UNL     1       6.858  53.683  22.549  1.00  0.00     0.000 C 
ENDROOT
BRANCH   1   2
ATOM      2  C   UNL     1       7.374  53.718  21.102  1.00  0.00     0.000 C 
BRANCH   2   3
ATOM      3  C   UNL     1       8.458  54.785  20.886  1.00  0.00     0.006 C 
BRANCH   3   4
ATOM      4  C   UNL     1       7.925  56.182  21.216  1.00  0.00     0.053 C 
BRANCH   4   5
ATOM      5  C   UNL     1       6.930  56.620  20.188  1.00  0.00     0.041 C 
ATOM      6  O   UNL     1       7.263  56.695  18.975  1.00  0.00    -0.550 OA
ATOM      7  O   UNL     1       5.649  56.992  20.575  1.00  0.00    -0.550 OA
ENDBRANCH   4   5
ENDBRANCH   3   4
ENDBRANCH   2   3
ENDBRANCH   1   2
BRANCH   1   8
ATOM      8  C   UNL     1       7.720  52.796  23.465  1.00  0.00     0.000 C 
BRANCH   8   9
ATOM      9  C   UNL     1       8.063  53.481  24.797  1.00  0.00     0.006 C 
BRANCH   9  10
ATOM     10  C   UNL     1       8.980  54.697  24.616  1.00  0.00     0.053 C 
BRANCH  10  11
ATOM     11  C   UNL     1      10.406  54.261  24.493  1.00  0.00     0.041 C 
ATOM     12  O   UNL     1      10.865  53.902  23.377  1.00  0.00    -0.550 OA
ATOM     13  O   UNL     1      11.215  54.203  25.621  1.00  0.00    -0.550 OA
ENDBRANCH  10  11
ENDBRANCH   9  10
ENDBRANCH   8   9
ENDBRANCH   1   8
TORSDOF 8
ENDMDL
