MODEL 1
REMARK VINA RESULT:    -1.810      0.000      0.000
REMARK INTER + INTRA:          -1.943
REMARK INTER:                  -2.550
REMARK INTRA:                   0.607
REMARK UNBOUND:                 0.607
REMARK SMILES CC1=CCC(=C(C)C)C(=O)CC(C)=CCC1
REMARK SMILES IDX 12 1 14 2 13 3 15 4 16 5 2 6 1 7 3 8 11 10 9 11 10 12 5 13
REMARK SMILES IDX 6 14 7 15 8 16 4 17
REMARK H PARENT
REMARK Flexibility Score: 60.00
ROOT
ATOM      1  C   UNL     1      10.113  16.490  13.145  1.00  0.00    -0.070 C 
ATOM      2  C   UNL     1       9.960  16.560  11.804  1.00  0.00    -0.027 C 
ATOM      3  C   UNL     1       8.908  16.132  13.979  1.00  0.00     0.039 C 
ENDROOT
BRANCH   2   4
ATOM      4  C   UNL     1      11.037  16.931  10.804  1.00  0.00     0.032 C 
BRANCH   4   5
ATOM      5  C   UNL     1      11.878  15.753  10.265  1.00  0.00     0.034 C 
BRANCH   5   6
ATOM      6  C   UNL     1      13.353  15.819  10.632  1.00  0.00    -0.077 C 
ATOM      7  C   UNL     1      14.252  16.767   9.879  1.00  0.00     0.039 C 
ATOM      8  C   UNL     1      13.892  15.099  11.645  1.00  0.00    -0.023 CG0
ATOM      9  G   UNL     1      13.108  14.229  12.603  1.00  0.00     0.000 G0
ENDBRANCH   5   6
ENDBRANCH   4   5
ENDBRANCH   2   4
BRANCH   1  10
ATOM     10  C   UNL     1      11.438  16.699  13.845  1.00  0.00     0.111 C 
BRANCH  10  11
ATOM     11  C   UNL     1      11.887  15.432  14.520  1.00  0.00     0.163 C 
ATOM     12  O   UNL     1      11.228  14.969  15.491  1.00  0.00    -0.294 OA
BRANCH  11  13
ATOM     13  C   UNL     1      13.091  14.706  14.056  1.00  0.00    -0.002 C 
ATOM     14  C   UNL     1      14.090  14.401  14.927  1.00  0.00    -0.069 C 
ATOM     15  C   UNL     1      15.302  13.616  14.480  1.00  0.00     0.039 C 
ATOM     16  C   UNL     1      14.007  14.800  16.383  1.00  0.00     0.039 C 
BRANCH  13  17
ATOM     17  C   UNL     1      13.124  14.204  12.619  1.00  0.00     0.066 CG0
ATOM     18  G   UNL     1      13.881  15.091  11.654  1.00  0.00     0.000 G0
ENDBRANCH  13  17
ENDBRANCH  11  13
ENDBRANCH  10  11
ENDBRANCH   1  10
TORSDOF 0
ENDMDL
MODEL 2
REMARK VINA RESULT:    -1.673      1.659      3.389
REMARK INTER + INTRA:          -1.751
REMARK INTER:                  -2.355
REMARK INTRA:                   0.604
REMARK UNBOUND:                 0.607
REMARK SMILES CC1=CCC(=C(C)C)C(=O)CC(C)=CCC1
REMARK SMILES IDX 12 1 14 2 13 3 15 4 16 5 2 6 1 7 3 8 11 10 9 11 10 12 5 13
REMARK SMILES IDX 6 14 7 15 8 16 4 17
REMARK H PARENT
REMARK Flexibility Score: 60.00
ROOT
ATOM      1  C   UNL     1      13.404  15.670  10.514  1.00  0.00    -0.070 C 
ATOM      2  C   UNL     1      12.120  15.647  10.091  1.00  0.00    -0.027 C 
ATOM      3  C   UNL     1      14.307  16.754   9.982  1.00  0.00     0.039 C 
ENDROOT
BRANCH   2   4
ATOM      4  C   UNL     1      11.072  14.626  10.485  1.00  0.00     0.032 C 
BRANCH   4   5
ATOM      5  C   UNL     1       9.924  15.160  11.370  1.00  0.00     0.034 C 
BRANCH   5   6
ATOM      6  C   UNL     1      10.318  16.322  12.270  1.00  0.00    -0.077 C 
ATOM      7  C   UNL     1       9.765  17.693  11.979  1.00  0.00     0.039 C 
ATOM      8  C   UNL     1      11.109  16.172  13.360  1.00  0.00    -0.023 CG0
ATOM      9  G   UNL     1      11.613  14.847  13.890  1.00  0.00     0.000 G0
ENDBRANCH   5   6
ENDBRANCH   4   5
ENDBRANCH   2   4
BRANCH   1  10
ATOM     10  C   UNL     1      13.964  14.698  11.530  1.00  0.00     0.111 C 
BRANCH  10  11
ATOM     11  C   UNL     1      13.947  15.302  12.907  1.00  0.00     0.163 C 
ATOM     12  O   UNL     1      14.631  16.333  13.150  1.00  0.00    -0.294 OA
BRANCH  11  13
ATOM     13  C   UNL     1      13.125  14.712  13.988  1.00  0.00    -0.002 C 
ATOM     14  C   UNL     1      13.719  14.167  15.085  1.00  0.00    -0.069 C 
ATOM     15  C   UNL     1      12.894  13.606  16.220  1.00  0.00     0.039 C 
ATOM     16  C   UNL     1      15.224  14.140  15.227  1.00  0.00     0.039 C 
BRANCH  13  17
ATOM     17  C   UNL     1      11.611  14.841  13.901  1.00  0.00     0.066 CG0
ATOM     18  G   UNL     1      11.118  16.168  13.365  1.00  0.00     0.000 G0
ENDBRANCH  13  17
ENDBRANCH  11  13
ENDBRANCH  10  11
ENDBRANCH   1  10
TORSDOF 0
ENDMDL
MODEL 3
REMARK VINA RESULT:    -1.105      1.848      4.914
REMARK INTER + INTRA:          -0.950
REMARK INTER:                  -2.031
REMARK INTRA:                   1.081
REMARK UNBOUND:                 0.607
REMARK SMILES CC1=CCC(=C(C)C)C(=O)CC(C)=CCC1
REMARK SMILES IDX 12 1 14 2 13 3 15 4 16 5 2 6 1 7 3 8 11 10 9 11 10 12 5 13
REMARK SMILES IDX 6 14 7 15 8 16 4 17
REMARK H PARENT
REMARK Flexibility Score: 60.00
ROOT
ATOM      1  C   UNL     1      13.707  15.128  11.088  1.00  0.00    -0.070 C 
ATOM      2  C   UNL     1      14.462  14.976  12.199  1.00  0.00    -0.027 C 
ATOM      3  C   UNL     1      14.053  14.299   9.877  1.00  0.00     0.039 C 
ENDROOT
BRANCH   2   4
ATOM      4  C   UNL     1      14.294  15.735  13.500  1.00  0.00     0.032 C 
BRANCH   4   5
ATOM      5  C   UNL     1      14.279  14.868  14.779  1.00  0.00     0.034 C 
BRANCH   5   6
ATOM      6  C   UNL     1      12.969  14.130  15.016  1.00  0.00    -0.077 C 
ATOM      7  C   UNL     1      13.010  12.731  15.575  1.00  0.00     0.039 C 
ATOM      8  C   UNL     1      11.757  14.693  14.796  1.00  0.00    -0.023 CG0
ATOM      9  G   UNL     1      11.530  16.135  14.396  1.00  0.00     0.000 G0
ENDBRANCH   5   6
ENDBRANCH   4   5
ENDBRANCH   2   4
BRANCH   1  10
ATOM     10  C   UNL     1      12.506  16.045  11.016  1.00  0.00     0.111 C 
BRANCH  10  11
ATOM     11  C   UNL     1      11.398  15.538  11.897  1.00  0.00     0.163 C 
ATOM     12  O   UNL     1      10.889  14.406  11.679  1.00  0.00    -0.294 OA
BRANCH  11  13
ATOM     13  C   UNL     1      10.897  16.346  13.033  1.00  0.00    -0.002 C 
ATOM     14  C   UNL     1       9.824  17.167  12.875  1.00  0.00    -0.069 C 
ATOM     15  C   UNL     1       9.270  17.959  14.037  1.00  0.00     0.039 C 
ATOM     16  C   UNL     1       9.120  17.285  11.542  1.00  0.00     0.039 C 
BRANCH  13  17
ATOM     17  C   UNL     1      11.531  16.141  14.402  1.00  0.00     0.066 CG0
ATOM     18  G   UNL     1      11.731  14.694  14.799  1.00  0.00     0.000 G0
ENDBRANCH  13  17
ENDBRANCH  11  13
ENDBRANCH  10  11
ENDBRANCH   1  10
TORSDOF 0
ENDMDL
MODEL 4
REMARK VINA RESULT:    -0.651      2.157      5.847
REMARK INTER + INTRA:          -0.310
REMARK INTER:                  -2.973
REMARK INTRA:                   2.663
REMARK UNBOUND:                 0.607
REMARK SMILES CC1=CCC(=C(C)C)C(=O)CC(C)=CCC1
REMARK SMILES IDX 12 1 14 2 13 3 15 4 16 5 2 6 1 7 3 8 11 10 9 11 10 12 5 13
REMARK SMILES IDX 6 14 7 15 8 16 4 17
REMARK H PARENT
REMARK Flexibility Score: 60.00
ROOT
ATOM      1  C   UNL     1      16.103  12.899  14.959  1.00  0.00    -0.070 C 
ATOM      2  C   UNL     1      15.889  13.234  16.251  1.00  0.00    -0.027 C 
ATOM      3  C   UNL     1      17.192  11.901  14.655  1.00  0.00     0.039 C 
ENDROOT
BRANCH   2   4
ATOM      4  C   UNL     1      14.868  14.235  16.753  1.00  0.00     0.032 C 
BRANCH   4   5
ATOM      5  C   UNL     1      13.666  13.632  17.515  1.00  0.00     0.034 C 
BRANCH   5   6
ATOM      6  C   UNL     1      12.653  12.926  16.624  1.00  0.00    -0.077 C 
ATOM      7  C   UNL     1      12.194  11.540  16.996  1.00  0.00     0.039 C 
ATOM      8  C   UNL     1      12.102  13.509  15.533  1.00  0.00    -0.023 CG0
ATOM      9  G   UNL     1      12.323  14.946  15.111  1.00  0.00     0.000 G0
ENDBRANCH   5   6
ENDBRANCH   4   5
ENDBRANCH   2   4
BRANCH   1  10
ATOM     10  C   UNL     1      15.273  13.433  13.812  1.00  0.00     0.111 C 
BRANCH  10  11
ATOM     11  C   UNL     1      14.717  14.790  14.146  1.00  0.00     0.163 C 
ATOM     12  O   UNL     1      15.476  15.684  14.608  1.00  0.00    -0.294 OA
BRANCH  11  13
ATOM     13  C   UNL     1      13.286  15.102  13.929  1.00  0.00    -0.002 C 
ATOM     14  C   UNL     1      12.830  15.418  12.686  1.00  0.00    -0.069 C 
ATOM     15  C   UNL     1      11.364  15.690  12.439  1.00  0.00     0.039 C 
ATOM     16  C   UNL     1      13.766  15.468  11.500  1.00  0.00     0.039 C 
BRANCH  13  17
ATOM     17  C   UNL     1      12.324  14.940  15.098  1.00  0.00     0.066 CG0
ATOM     18  G   UNL     1      12.101  13.510  15.542  1.00  0.00     0.000 G0
ENDBRANCH  13  17
ENDBRANCH  11  13
ENDBRANCH  10  11
ENDBRANCH   1  10
TORSDOF 0
ENDMDL
MODEL 5
REMARK VINA RESULT:    -0.252      1.750      4.636
REMARK INTER + INTRA:           0.251
REMARK INTER:                  -0.862
REMARK INTRA:                   1.113
REMARK UNBOUND:                 0.607
REMARK SMILES CC1=CCC(=C(C)C)C(=O)CC(C)=CCC1
REMARK SMILES IDX 12 1 14 2 13 3 15 4 16 5 2 6 1 7 3 8 11 10 9 11 10 12 5 13
REMARK SMILES IDX 6 14 7 15 8 16 4 17
REMARK H PARENT
REMARK Flexibility Score: 60.00
ROOT
ATOM      1  C   UNL     1      12.452  13.821  15.889  1.00  0.00    -0.070 C 
ATOM      2  C   UNL     1      13.549  13.430  16.576  1.00  0.00    -0.027 C 
ATOM      3  C   UNL     1      11.399  14.612  16.623  1.00  0.00     0.039 C 
ENDROOT
BRANCH   2   4
ATOM      4  C   UNL     1      14.697  12.607  16.026  1.00  0.00     0.032 C 
BRANCH   4   5
ATOM      5  C   UNL     1      15.889  13.417  15.472  1.00  0.00     0.034 C 
BRANCH   5   6
ATOM      6  C   UNL     1      15.665  14.922  15.451  1.00  0.00    -0.077 C 
ATOM      7  C   UNL     1      16.076  15.739  16.649  1.00  0.00     0.039 C 
ATOM      8  C   UNL     1      15.158  15.575  14.377  1.00  0.00    -0.023 CG0
ATOM      9  G   UNL     1      14.849  14.937  13.040  1.00  0.00     0.000 G0
ENDBRANCH   5   6
ENDBRANCH   4   5
ENDBRANCH   2   4
BRANCH   1  10
ATOM     10  C   UNL     1      12.254  13.551  14.413  1.00  0.00     0.111 C 
BRANCH  10  11
ATOM     11  C   UNL     1      12.332  14.829  13.625  1.00  0.00     0.163 C 
ATOM     12  O   UNL     1      11.503  15.754  13.842  1.00  0.00    -0.294 OA
BRANCH  11  13
ATOM     13  C   UNL     1      13.381  15.028  12.599  1.00  0.00    -0.002 C 
ATOM     14  C   UNL     1      13.045  15.394  11.332  1.00  0.00    -0.069 C 
ATOM     15  C   UNL     1      14.107  15.650  10.287  1.00  0.00     0.039 C 
ATOM     16  C   UNL     1      11.601  15.596  10.934  1.00  0.00     0.039 C 
BRANCH  13  17
ATOM     17  C   UNL     1      14.840  14.937  13.027  1.00  0.00     0.066 CG0
ATOM     18  G   UNL     1      15.148  15.565  14.369  1.00  0.00     0.000 G0
ENDBRANCH  13  17
ENDBRANCH  11  13
ENDBRANCH  10  11
ENDBRANCH   1  10
TORSDOF 0
ENDMDL
MODEL 6
REMARK VINA RESULT:     0.080      2.120      3.704
REMARK INTER + INTRA:           0.721
REMARK INTER:                  -0.859
REMARK INTRA:                   1.580
REMARK UNBOUND:                 0.607
REMARK SMILES CC1=CCC(=C(C)C)C(=O)CC(C)=CCC1
REMARK SMILES IDX 12 1 14 2 13 3 15 4 16 5 2 6 1 7 3 8 11 10 9 11 10 12 5 13
REMARK SMILES IDX 6 14 7 15 8 16 4 17
REMARK H PARENT
REMARK Flexibility Score: 60.00
ROOT
ATOM      1  C   UNL     1      12.826  13.294  16.346  1.00  0.00    -0.070 C 
ATOM      2  C   UNL     1      11.995  14.017  15.563  1.00  0.00    -0.027 C 
ATOM      3  C   UNL     1      12.636  11.799  16.393  1.00  0.00     0.039 C 
ENDROOT
BRANCH   2   4
ATOM      4  C   UNL     1      12.006  15.524  15.407  1.00  0.00     0.032 C 
BRANCH   4   5
ATOM      5  C   UNL     1      11.975  16.042  13.952  1.00  0.00     0.034 C 
BRANCH   5   6
ATOM      6  C   UNL     1      12.438  15.025  12.918  1.00  0.00    -0.077 C 
ATOM      7  C   UNL     1      11.457  14.537  11.882  1.00  0.00     0.039 C 
ATOM      8  C   UNL     1      13.713  14.573  12.851  1.00  0.00    -0.023 CG0
ATOM      9  G   UNL     1      14.858  15.079  13.701  1.00  0.00     0.000 G0
ENDBRANCH   5   6
ENDBRANCH   4   5
ENDBRANCH   2   4
BRANCH   1  10
ATOM     10  C   UNL     1      13.966  13.901  17.134  1.00  0.00     0.111 C 
BRANCH  10  11
ATOM     11  C   UNL     1      14.846  14.731  16.241  1.00  0.00     0.163 C 
ATOM     12  O   UNL     1      15.259  15.855  16.632  1.00  0.00    -0.294 OA
BRANCH  11  13
ATOM     13  C   UNL     1      15.250  14.242  14.902  1.00  0.00    -0.002 C 
ATOM     14  C   UNL     1      15.837  13.022  14.763  1.00  0.00    -0.069 C 
ATOM     15  C   UNL     1      16.210  12.487  13.399  1.00  0.00     0.039 C 
ATOM     16  C   UNL     1      16.103  12.141  15.962  1.00  0.00     0.039 C 
BRANCH  13  17
ATOM     17  C   UNL     1      14.880  15.076  13.684  1.00  0.00     0.066 CG0
ATOM     18  G   UNL     1      13.715  14.542  12.879  1.00  0.00     0.000 G0
ENDBRANCH  13  17
ENDBRANCH  11  13
ENDBRANCH  10  11
ENDBRANCH   1  10
TORSDOF 0
ENDMDL
MODEL 7
REMARK VINA RESULT:     0.160      1.916      5.065
REMARK INTER + INTRA:           0.833
REMARK INTER:                  -0.924
REMARK INTRA:                   1.757
REMARK UNBOUND:                 0.607
REMARK SMILES CC1=CCC(=C(C)C)C(=O)CC(C)=CCC1
REMARK SMILES IDX 12 1 14 2 13 3 15 4 16 5 2 6 1 7 3 8 11 10 9 11 10 12 5 13
REMARK SMILES IDX 6 14 7 15 8 16 4 17
REMARK H PARENT
REMARK Flexibility Score: 60.00
ROOT
ATOM      1  C   UNL     1      13.635  15.259  12.264  1.00  0.00    -0.070 C 
ATOM      2  C   UNL     1      14.672  15.400  13.120  1.00  0.00    -0.027 C 
ATOM      3  C   UNL     1      13.593  16.149  11.048  1.00  0.00     0.039 C 
ENDROOT
BRANCH   2   4
ATOM      4  C   UNL     1      14.876  14.625  14.406  1.00  0.00     0.032 C 
BRANCH   4   5
ATOM      5  C   UNL     1      13.969  15.043  15.585  1.00  0.00     0.034 C 
BRANCH   5   6
ATOM      6  C   UNL     1      12.692  14.225  15.711  1.00  0.00    -0.077 C 
ATOM      7  C   UNL     1      12.731  12.919  16.462  1.00  0.00     0.039 C 
ATOM      8  C   UNL     1      11.500  14.642  15.221  1.00  0.00    -0.023 CG0
ATOM      9  G   UNL     1      11.247  15.994  14.589  1.00  0.00     0.000 G0
ENDBRANCH   5   6
ENDBRANCH   4   5
ENDBRANCH   2   4
BRANCH   1  10
ATOM     10  C   UNL     1      12.547  14.223  12.437  1.00  0.00     0.111 C 
BRANCH  10  11
ATOM     11  C   UNL     1      11.189  14.847  12.273  1.00  0.00     0.163 C 
ATOM     12  O   UNL     1      10.395  14.407  11.397  1.00  0.00    -0.294 OA
BRANCH  11  13
ATOM     13  C   UNL     1      10.757  15.971  13.135  1.00  0.00    -0.002 C 
ATOM     14  C   UNL     1       9.864  16.889  12.674  1.00  0.00    -0.069 C 
ATOM     15  C   UNL     1       9.375  18.013  13.559  1.00  0.00     0.039 C 
ATOM     16  C   UNL     1       9.298  16.795  11.276  1.00  0.00     0.039 C 
BRANCH  13  17
ATOM     17  C   UNL     1      11.237  16.002  14.579  1.00  0.00     0.066 CG0
ATOM     18  G   UNL     1      11.495  14.642  15.192  1.00  0.00     0.000 G0
ENDBRANCH  13  17
ENDBRANCH  11  13
ENDBRANCH  10  11
ENDBRANCH   1  10
TORSDOF 0
ENDMDL
MODEL 8
REMARK VINA RESULT:     0.236      1.822      4.629
REMARK INTER + INTRA:           0.940
REMARK INTER:                  -0.111
REMARK INTRA:                   1.052
REMARK UNBOUND:                 0.607
REMARK SMILES CC1=CCC(=C(C)C)C(=O)CC(C)=CCC1
REMARK SMILES IDX 12 1 14 2 13 3 15 4 16 5 2 6 1 7 3 8 11 10 9 11 10 12 5 13
REMARK SMILES IDX 6 14 7 15 8 16 4 17
REMARK H PARENT
REMARK Flexibility Score: 60.00
ROOT
ATOM      1  C   UNL     1      13.696  14.331  14.973  1.00  0.00    -0.070 C 
ATOM      2  C   UNL     1      12.518  14.506  15.613  1.00  0.00    -0.027 C 
ATOM      3  C   UNL     1      14.428  13.028  15.176  1.00  0.00     0.039 C 
ENDROOT
BRANCH   2   4
ATOM      4  C   UNL     1      11.653  15.749  15.561  1.00  0.00     0.032 C 
BRANCH   4   5
ATOM      5  C   UNL     1      10.260  15.562  14.918  1.00  0.00     0.034 C 
BRANCH   5   6
ATOM      6  C   UNL     1      10.026  16.412  13.678  1.00  0.00    -0.077 C 
ATOM      7  C   UNL     1       9.214  17.676  13.800  1.00  0.00     0.039 C 
ATOM      8  C   UNL     1      10.560  16.112  12.470  1.00  0.00    -0.023 CG0
ATOM      9  G   UNL     1      11.528  14.979  12.206  1.00  0.00     0.000 G0
ENDBRANCH   5   6
ENDBRANCH   4   5
ENDBRANCH   2   4
BRANCH   1  10
ATOM     10  C   UNL     1      14.289  15.352  14.027  1.00  0.00     0.111 C 
BRANCH  10  11
ATOM     11  C   UNL     1      14.078  14.935  12.597  1.00  0.00     0.163 C 
ATOM     12  O   UNL     1      14.881  14.131  12.051  1.00  0.00    -0.294 OA
BRANCH  11  13
ATOM     13  C   UNL     1      12.929  15.446  11.816  1.00  0.00    -0.002 C 
ATOM     14  C   UNL     1      13.133  16.215  10.712  1.00  0.00    -0.069 C 
ATOM     15  C   UNL     1      11.973  16.703   9.875  1.00  0.00     0.039 C 
ATOM     16  C   UNL     1      14.530  16.576  10.259  1.00  0.00     0.039 C 
BRANCH  13  17
ATOM     17  C   UNL     1      11.529  14.990  12.204  1.00  0.00     0.066 CG0
ATOM     18  G   UNL     1      10.553  16.111  12.490  1.00  0.00     0.000 G0
ENDBRANCH  13  17
ENDBRANCH  11  13
ENDBRANCH  10  11
ENDBRANCH   1  10
TORSDOF 0
ENDMDL
MODEL 9
REMARK VINA RESULT:     0.449      1.553      3.688
REMARK INTER + INTRA:           1.240
REMARK INTER:                  -1.251
REMARK INTRA:                   2.492
REMARK UNBOUND:                 0.607
REMARK SMILES CC1=CCC(=C(C)C)C(=O)CC(C)=CCC1
REMARK SMILES IDX 12 1 14 2 13 3 15 4 16 5 2 6 1 7 3 8 11 10 9 11 10 12 5 13
REMARK SMILES IDX 6 14 7 15 8 16 4 17
REMARK H PARENT
REMARK Flexibility Score: 60.00
ROOT
ATOM      1  C   UNL     1       9.783  16.545  13.901  1.00  0.00    -0.070 C 
ATOM      2  C   UNL     1      10.163  15.664  14.853  1.00  0.00    -0.027 C 
ATOM      3  C   UNL     1       8.527  17.346  14.137  1.00  0.00     0.039 C 
ENDROOT
BRANCH   2   4
ATOM      4  C   UNL     1      11.370  14.751  14.789  1.00  0.00     0.032 C 
BRANCH   4   5
ATOM      5  C   UNL     1      12.599  15.215  15.602  1.00  0.00     0.034 C 
BRANCH   5   6
ATOM      6  C   UNL     1      13.926  15.056  14.874  1.00  0.00    -0.077 C 
ATOM      7  C   UNL     1      15.204  15.378  15.604  1.00  0.00     0.039 C 
ATOM      8  C   UNL     1      14.017  14.586  13.606  1.00  0.00    -0.023 CG0
ATOM      9  G   UNL     1      12.856  14.063  12.789  1.00  0.00     0.000 G0
ENDBRANCH   5   6
ENDBRANCH   4   5
ENDBRANCH   2   4
BRANCH   1  10
ATOM     10  C   UNL     1      10.578  16.804  12.640  1.00  0.00     0.111 C 
BRANCH  10  11
ATOM     11  C   UNL     1      10.893  15.512  11.938  1.00  0.00     0.163 C 
ATOM     12  O   UNL     1       9.957  14.798  11.485  1.00  0.00    -0.294 OA
BRANCH  11  13
ATOM     13  C   UNL     1      12.292  15.065  11.755  1.00  0.00    -0.002 C 
ATOM     14  C   UNL     1      13.074  15.624  10.790  1.00  0.00    -0.069 C 
ATOM     15  C   UNL     1      14.519  15.214  10.623  1.00  0.00     0.039 C 
ATOM     16  C   UNL     1      12.537  16.703   9.877  1.00  0.00     0.039 C 
BRANCH  13  17
ATOM     17  C   UNL     1      12.868  14.063  12.745  1.00  0.00     0.066 CG0
ATOM     18  G   UNL     1      14.002  14.593  13.597  1.00  0.00     0.000 G0
ENDBRANCH  13  17
ENDBRANCH  11  13
ENDBRANCH  10  11
ENDBRANCH   1  10
TORSDOF 0
ENDMDL
