MODEL 1
REMARK VINA RESULT:    -4.419      0.000      0.000
REMARK INTER + INTRA:         -15.188
REMARK INTER:                 -11.652
REMARK INTRA:                  -3.536
REMARK UNBOUND:                -3.536
REMARK SMILES CCCCCCCCCCCCCCCCCCCCCCCCCCCCCC(=O)[O-]
REMARK SMILES IDX 16 1 17 2 18 3 19 4 20 5 21 6 22 7 23 8 24 9 25 10 26 11
REMARK SMILES IDX 27 12 28 13 29 14 30 15 31 16 32 17 15 18 14 19 13 20 12 21
REMARK SMILES IDX 11 22 10 23 9 24 8 25 7 26 6 27 5 28 4 29 3 30 2 31 1 32
REMARK H PARENT
REMARK Flexibility Score: inf
ROOT
ATOM      1  C   UNL     1     184.867 183.836 198.125  1.00  0.00     0.000 C 
ENDROOT
BRANCH   1   2
ATOM      2  C   UNL     1     184.397 182.586 198.891  1.00  0.00     0.000 C 
BRANCH   2   3
ATOM      3  C   UNL     1     183.095 182.831 199.669  1.00  0.00     0.000 C 
BRANCH   3   4
ATOM      4  C   UNL     1     183.209 182.423 201.148  1.00  0.00     0.000 C 
BRANCH   4   5
ATOM      5  C   UNL     1     183.304 183.631 202.096  1.00  0.00     0.000 C 
BRANCH   5   6
ATOM      6  C   UNL     1     182.430 184.840 201.702  1.00  0.00     0.000 C 
BRANCH   6   7
ATOM      7  C   UNL     1     180.949 184.734 202.107  1.00  0.00     0.000 C 
BRANCH   7   8
ATOM      8  C   UNL     1     180.138 185.991 201.743  1.00  0.00     0.000 C 
BRANCH   8   9
ATOM      9  C   UNL     1     181.025 187.124 201.206  1.00  0.00     0.000 C 
BRANCH   9  10
ATOM     10  C   UNL     1     180.741 187.445 199.727  1.00  0.00     0.000 C 
BRANCH  10  11
ATOM     11  C   UNL     1     181.742 188.451 199.137  1.00  0.00     0.000 C 
BRANCH  11  12
ATOM     12  C   UNL     1     181.739 189.794 199.887  1.00  0.00     0.000 C 
BRANCH  12  13
ATOM     13  C   UNL     1     182.659 190.845 199.233  1.00  0.00     0.006 C 
BRANCH  13  14
ATOM     14  C   UNL     1     182.836 190.655 197.717  1.00  0.00     0.053 C 
BRANCH  14  15
ATOM     15  C   UNL     1     181.831 191.431 196.925  1.00  0.00     0.041 C 
ATOM     16  O   UNL     1     180.691 190.945 196.697  1.00  0.00    -0.550 OA
ATOM     17  O   UNL     1     182.155 192.687 196.428  1.00  0.00    -0.550 OA
ENDBRANCH  14  15
ENDBRANCH  13  14
ENDBRANCH  12  13
ENDBRANCH  11  12
ENDBRANCH  10  11
ENDBRANCH   9  10
ENDBRANCH   8   9
ENDBRANCH   7   8
ENDBRANCH   6   7
ENDBRANCH   5   6
ENDBRANCH   4   5
ENDBRANCH   3   4
ENDBRANCH   2   3
ENDBRANCH   1   2
BRANCH   1  18
ATOM     18  C   UNL     1     184.250 185.138 198.667  1.00  0.00     0.000 C 
BRANCH  18  19
ATOM     19  C   UNL     1     185.177 185.963 199.577  1.00  0.00     0.000 C 
BRANCH  19  20
ATOM     20  C   UNL     1     185.307 187.431 199.132  1.00  0.00     0.000 C 
BRANCH  20  21
ATOM     21  C   UNL     1     185.218 188.417 200.306  1.00  0.00     0.000 C 
BRANCH  21  22
ATOM     22  C   UNL     1     186.594 188.968 200.722  1.00  0.00     0.000 C 
BRANCH  22  23
ATOM     23  C   UNL     1     187.242 189.827 199.625  1.00  0.00     0.000 C 
BRANCH  23  24
ATOM     24  C   UNL     1     188.634 189.317 199.217  1.00  0.00    -0.000 C 
BRANCH  24  25
ATOM     25  C   UNL     1     189.338 188.524 200.335  1.00  0.00    -0.000 C 
BRANCH  25  26
ATOM     26  C   UNL     1     190.311 189.344 201.204  1.00  0.00    -0.000 C 
BRANCH  26  27
ATOM     27  C   UNL     1     190.594 190.743 200.633  1.00  0.00    -0.000 C 
BRANCH  27  28
ATOM     28  C   UNL     1     192.057 190.917 200.194  1.00  0.00    -0.000 C 
BRANCH  28  29
ATOM     29  C   UNL     1     192.681 189.612 199.668  1.00  0.00    -0.000 C 
BRANCH  29  30
ATOM     30  C   UNL     1     192.744 189.578 198.126  1.00  0.00    -0.000 C 
BRANCH  30  31
ATOM     31  C   UNL     1     194.040 190.168 197.546  1.00  0.00    -0.003 C 
ATOM     32  C   UNL     1     195.240 190.007 198.477  1.00  0.00     0.004 C 
ENDBRANCH  30  31
ENDBRANCH  29  30
ENDBRANCH  28  29
ENDBRANCH  27  28
ENDBRANCH  26  27
ENDBRANCH  25  26
ENDBRANCH  24  25
ENDBRANCH  23  24
ENDBRANCH  22  23
ENDBRANCH  21  22
ENDBRANCH  20  21
ENDBRANCH  19  20
ENDBRANCH  18  19
ENDBRANCH   1  18
TORSDOF 28
ENDMDL
MODEL 2
REMARK VINA RESULT:    -4.337      3.774      8.014
REMARK INTER + INTRA:         -14.971
REMARK INTER:                 -11.678
REMARK INTRA:                  -3.293
REMARK UNBOUND:                -3.536
REMARK SMILES CCCCCCCCCCCCCCCCCCCCCCCCCCCCCC(=O)[O-]
REMARK SMILES IDX 16 1 17 2 18 3 19 4 20 5 21 6 22 7 23 8 24 9 25 10 26 11
REMARK SMILES IDX 27 12 28 13 29 14 30 15 31 16 32 17 15 18 14 19 13 20 12 21
REMARK SMILES IDX 11 22 10 23 9 24 8 25 7 26 6 27 5 28 4 29 3 30 2 31 1 32
REMARK H PARENT
REMARK Flexibility Score: inf
ROOT
ATOM      1  C   UNL     1     191.777 189.940 198.871  1.00  0.00     0.000 C 
ENDROOT
BRANCH   1   2
ATOM      2  C   UNL     1     191.340 190.530 200.224  1.00  0.00     0.000 C 
BRANCH   2   3
ATOM      3  C   UNL     1     190.437 189.572 201.016  1.00  0.00     0.000 C 
BRANCH   3   4
ATOM      4  C   UNL     1     189.214 190.284 201.621  1.00  0.00     0.000 C 
BRANCH   4   5
ATOM      5  C   UNL     1     188.056 189.321 201.936  1.00  0.00     0.000 C 
BRANCH   5   6
ATOM      6  C   UNL     1     187.172 188.946 200.728  1.00  0.00     0.000 C 
BRANCH   6   7
ATOM      7  C   UNL     1     187.256 189.913 199.533  1.00  0.00     0.000 C 
BRANCH   7   8
ATOM      8  C   UNL     1     186.321 189.516 198.376  1.00  0.00     0.000 C 
BRANCH   8   9
ATOM      9  C   UNL     1     186.447 188.031 198.005  1.00  0.00     0.000 C 
BRANCH   9  10
ATOM     10  C   UNL     1     185.092 187.396 197.645  1.00  0.00     0.000 C 
BRANCH  10  11
ATOM     11  C   UNL     1     183.945 187.907 198.533  1.00  0.00     0.000 C 
BRANCH  11  12
ATOM     12  C   UNL     1     183.682 186.992 199.741  1.00  0.00     0.000 C 
BRANCH  12  13
ATOM     13  C   UNL     1     183.997 185.511 199.448  1.00  0.00     0.006 C 
BRANCH  13  14
ATOM     14  C   UNL     1     183.754 184.578 200.646  1.00  0.00     0.053 C 
BRANCH  14  15
ATOM     15  C   UNL     1     184.834 183.553 200.799  1.00  0.00     0.041 C 
ATOM     16  O   UNL     1     184.541 182.354 201.048  1.00  0.00    -0.550 OA
ATOM     17  O   UNL     1     186.168 183.924 200.675  1.00  0.00    -0.550 OA
ENDBRANCH  14  15
ENDBRANCH  13  14
ENDBRANCH  12  13
ENDBRANCH  11  12
ENDBRANCH  10  11
ENDBRANCH   9  10
ENDBRANCH   8   9
ENDBRANCH   7   8
ENDBRANCH   6   7
ENDBRANCH   5   6
ENDBRANCH   4   5
ENDBRANCH   3   4
ENDBRANCH   2   3
ENDBRANCH   1   2
BRANCH   1  18
ATOM     18  C   UNL     1     192.762 190.846 198.111  1.00  0.00     0.000 C 
BRANCH  18  19
ATOM     19  C   UNL     1     194.022 190.134 197.588  1.00  0.00     0.000 C 
BRANCH  19  20
ATOM     20  C   UNL     1     194.022 188.622 197.875  1.00  0.00     0.000 C 
BRANCH  20  21
ATOM     21  C   UNL     1     195.250 188.170 198.679  1.00  0.00     0.000 C 
BRANCH  21  22
ATOM     22  C   UNL     1     195.464 189.005 199.954  1.00  0.00     0.000 C 
BRANCH  22  23
ATOM     23  C   UNL     1     196.886 189.578 200.052  1.00  0.00     0.000 C 
BRANCH  23  24
ATOM     24  C   UNL     1     196.909 191.116 200.036  1.00  0.00    -0.000 C 
BRANCH  24  25
ATOM     25  C   UNL     1     195.616 191.744 200.592  1.00  0.00    -0.000 C 
BRANCH  25  26
ATOM     26  C   UNL     1     195.814 192.701 201.783  1.00  0.00    -0.000 C 
BRANCH  26  27
ATOM     27  C   UNL     1     196.923 193.739 201.541  1.00  0.00    -0.000 C 
BRANCH  27  28
ATOM     28  C   UNL     1     196.446 195.180 201.778  1.00  0.00    -0.000 C 
BRANCH  28  29
ATOM     29  C   UNL     1     195.877 195.837 200.508  1.00  0.00    -0.000 C 
BRANCH  29  30
ATOM     30  C   UNL     1     194.356 196.077 200.609  1.00  0.00    -0.000 C 
BRANCH  30  31
ATOM     31  C   UNL     1     193.512 195.015 199.884  1.00  0.00    -0.003 C 
ATOM     32  C   UNL     1     194.179 194.483 198.617  1.00  0.00     0.004 C 
ENDBRANCH  30  31
ENDBRANCH  29  30
ENDBRANCH  28  29
ENDBRANCH  27  28
ENDBRANCH  26  27
ENDBRANCH  25  26
ENDBRANCH  24  25
ENDBRANCH  23  24
ENDBRANCH  22  23
ENDBRANCH  21  22
ENDBRANCH  20  21
ENDBRANCH  19  20
ENDBRANCH  18  19
ENDBRANCH   1  18
TORSDOF 28
ENDMDL
MODEL 3
REMARK VINA RESULT:    -4.329      2.715      7.139
REMARK INTER + INTRA:         -14.950
REMARK INTER:                 -11.435
REMARK INTRA:                  -3.515
REMARK UNBOUND:                -3.536
REMARK SMILES CCCCCCCCCCCCCCCCCCCCCCCCCCCCCC(=O)[O-]
REMARK SMILES IDX 16 1 17 2 18 3 19 4 20 5 21 6 22 7 23 8 24 9 25 10 26 11
REMARK SMILES IDX 27 12 28 13 29 14 30 15 31 16 32 17 15 18 14 19 13 20 12 21
REMARK SMILES IDX 11 22 10 23 9 24 8 25 7 26 6 27 5 28 4 29 3 30 2 31 1 32
REMARK H PARENT
REMARK Flexibility Score: inf
ROOT
ATOM      1  C   UNL     1     191.788 189.879 198.373  1.00  0.00     0.000 C 
ENDROOT
BRANCH   1   2
ATOM      2  C   UNL     1     191.274 190.318 199.756  1.00  0.00     0.000 C 
BRANCH   2   3
ATOM      3  C   UNL     1     190.914 189.123 200.653  1.00  0.00     0.000 C 
BRANCH   3   4
ATOM      4  C   UNL     1     189.769 189.446 201.628  1.00  0.00     0.000 C 
BRANCH   4   5
ATOM      5  C   UNL     1     188.842 188.244 201.880  1.00  0.00     0.000 C 
BRANCH   5   6
ATOM      6  C   UNL     1     188.354 187.517 200.609  1.00  0.00     0.000 C 
BRANCH   6   7
ATOM      7  C   UNL     1     186.903 187.826 200.198  1.00  0.00     0.000 C 
BRANCH   7   8
ATOM      8  C   UNL     1     186.787 188.330 198.748  1.00  0.00     0.000 C 
BRANCH   8   9
ATOM      9  C   UNL     1     185.834 187.469 197.904  1.00  0.00     0.000 C 
BRANCH   9  10
ATOM     10  C   UNL     1     185.309 186.243 198.673  1.00  0.00     0.000 C 
BRANCH  10  11
ATOM     11  C   UNL     1     183.774 186.208 198.752  1.00  0.00     0.000 C 
BRANCH  11  12
ATOM     12  C   UNL     1     183.250 186.467 200.175  1.00  0.00     0.000 C 
BRANCH  12  13
ATOM     13  C   UNL     1     182.114 187.508 200.212  1.00  0.00     0.006 C 
BRANCH  13  14
ATOM     14  C   UNL     1     182.278 188.641 199.185  1.00  0.00     0.053 C 
BRANCH  14  15
ATOM     15  C   UNL     1     183.078 189.786 199.721  1.00  0.00     0.041 C 
ATOM     16  O   UNL     1     182.924 190.165 200.913  1.00  0.00    -0.550 OA
ATOM     17  O   UNL     1     183.990 190.441 198.903  1.00  0.00    -0.550 OA
ENDBRANCH  14  15
ENDBRANCH  13  14
ENDBRANCH  12  13
ENDBRANCH  11  12
ENDBRANCH  10  11
ENDBRANCH   9  10
ENDBRANCH   8   9
ENDBRANCH   7   8
ENDBRANCH   6   7
ENDBRANCH   5   6
ENDBRANCH   4   5
ENDBRANCH   3   4
ENDBRANCH   2   3
ENDBRANCH   1   2
BRANCH   1  18
ATOM     18  C   UNL     1     192.872 190.816 197.810  1.00  0.00     0.000 C 
BRANCH  18  19
ATOM     19  C   UNL     1     194.167 190.113 197.365  1.00  0.00     0.000 C 
BRANCH  19  20
ATOM     20  C   UNL     1     194.151 188.598 197.637  1.00  0.00     0.000 C 
BRANCH  20  21
ATOM     21  C   UNL     1     195.553 187.971 197.582  1.00  0.00     0.000 C 
BRANCH  21  22
ATOM     22  C   UNL     1     195.780 186.930 198.694  1.00  0.00     0.000 C 
BRANCH  22  23
ATOM     23  C   UNL     1     196.993 187.263 199.575  1.00  0.00     0.000 C 
BRANCH  23  24
ATOM     24  C   UNL     1     196.870 188.635 200.260  1.00  0.00    -0.000 C 
BRANCH  24  25
ATOM     25  C   UNL     1     195.729 188.693 201.294  1.00  0.00    -0.000 C 
BRANCH  25  26
ATOM     26  C   UNL     1     194.696 189.813 201.066  1.00  0.00    -0.000 C 
BRANCH  26  27
ATOM     27  C   UNL     1     195.264 191.217 201.332  1.00  0.00    -0.000 C 
BRANCH  27  28
ATOM     28  C   UNL     1     195.425 192.043 200.046  1.00  0.00    -0.000 C 
BRANCH  28  29
ATOM     29  C   UNL     1     195.160 193.544 200.264  1.00  0.00    -0.000 C 
BRANCH  29  30
ATOM     30  C   UNL     1     194.596 194.224 198.998  1.00  0.00    -0.000 C 
BRANCH  30  31
ATOM     31  C   UNL     1     194.681 195.759 199.030  1.00  0.00    -0.003 C 
ATOM     32  C   UNL     1     194.614 196.333 200.444  1.00  0.00     0.004 C 
ENDBRANCH  30  31
ENDBRANCH  29  30
ENDBRANCH  28  29
ENDBRANCH  27  28
ENDBRANCH  26  27
ENDBRANCH  25  26
ENDBRANCH  24  25
ENDBRANCH  23  24
ENDBRANCH  22  23
ENDBRANCH  21  22
ENDBRANCH  20  21
ENDBRANCH  19  20
ENDBRANCH  18  19
ENDBRANCH   1  18
TORSDOF 28
ENDMDL
MODEL 4
REMARK VINA RESULT:    -4.296      1.712      2.173
REMARK INTER + INTRA:         -14.864
REMARK INTER:                 -11.477
REMARK INTRA:                  -3.386
REMARK UNBOUND:                -3.536
REMARK SMILES CCCCCCCCCCCCCCCCCCCCCCCCCCCCCC(=O)[O-]
REMARK SMILES IDX 16 1 17 2 18 3 19 4 20 5 21 6 22 7 23 8 24 9 25 10 26 11
REMARK SMILES IDX 27 12 28 13 29 14 30 15 31 16 32 17 15 18 14 19 13 20 12 21
REMARK SMILES IDX 11 22 10 23 9 24 8 25 7 26 6 27 5 28 4 29 3 30 2 31 1 32
REMARK H PARENT
REMARK Flexibility Score: inf
ROOT
ATOM      1  C   UNL     1     184.874 184.504 197.978  1.00  0.00     0.000 C 
ENDROOT
BRANCH   1   2
ATOM      2  C   UNL     1     184.876 183.566 199.198  1.00  0.00     0.000 C 
BRANCH   2   3
ATOM      3  C   UNL     1     184.127 182.252 198.928  1.00  0.00     0.000 C 
BRANCH   3   4
ATOM      4  C   UNL     1     183.219 181.841 200.100  1.00  0.00     0.000 C 
BRANCH   4   5
ATOM      5  C   UNL     1     181.757 182.278 199.905  1.00  0.00     0.000 C 
BRANCH   5   6
ATOM      6  C   UNL     1     181.133 183.027 201.101  1.00  0.00     0.000 C 
BRANCH   6   7
ATOM      7  C   UNL     1     181.206 184.562 201.018  1.00  0.00     0.000 C 
BRANCH   7   8
ATOM      8  C   UNL     1     182.582 185.119 201.425  1.00  0.00     0.000 C 
BRANCH   8   9
ATOM      9  C   UNL     1     182.702 186.629 201.169  1.00  0.00     0.000 C 
BRANCH   9  10
ATOM     10  C   UNL     1     181.526 187.182 200.344  1.00  0.00     0.000 C 
BRANCH  10  11
ATOM     11  C   UNL     1     181.775 188.615 199.846  1.00  0.00     0.000 C 
BRANCH  11  12
ATOM     12  C   UNL     1     181.884 188.696 198.314  1.00  0.00     0.000 C 
BRANCH  12  13
ATOM     13  C   UNL     1     183.035 189.610 197.845  1.00  0.00     0.006 C 
BRANCH  13  14
ATOM     14  C   UNL     1     183.439 190.675 198.878  1.00  0.00     0.053 C 
BRANCH  14  15
ATOM     15  C   UNL     1     182.651 191.939 198.732  1.00  0.00     0.041 C 
ATOM     16  O   UNL     1     182.794 192.662 197.710  1.00  0.00    -0.550 OA
ATOM     17  O   UNL     1     181.764 192.325 199.729  1.00  0.00    -0.550 OA
ENDBRANCH  14  15
ENDBRANCH  13  14
ENDBRANCH  12  13
ENDBRANCH  11  12
ENDBRANCH  10  11
ENDBRANCH   9  10
ENDBRANCH   8   9
ENDBRANCH   7   8
ENDBRANCH   6   7
ENDBRANCH   5   6
ENDBRANCH   4   5
ENDBRANCH   3   4
ENDBRANCH   2   3
ENDBRANCH   1   2
BRANCH   1  18
ATOM     18  C   UNL     1     184.869 185.994 198.366  1.00  0.00     0.000 C 
BRANCH  18  19
ATOM     19  C   UNL     1     185.622 186.917 197.391  1.00  0.00     0.000 C 
BRANCH  19  20
ATOM     20  C   UNL     1     186.319 188.094 198.096  1.00  0.00     0.000 C 
BRANCH  20  21
ATOM     21  C   UNL     1     186.119 188.077 199.619  1.00  0.00     0.000 C 
BRANCH  21  22
ATOM     22  C   UNL     1     186.623 189.364 200.298  1.00  0.00     0.000 C 
BRANCH  22  23
ATOM     23  C   UNL     1     187.598 189.079 201.451  1.00  0.00     0.000 C 
BRANCH  23  24
ATOM     24  C   UNL     1     189.005 189.645 201.192  1.00  0.00    -0.000 C 
BRANCH  24  25
ATOM     25  C   UNL     1     189.497 189.400 199.754  1.00  0.00    -0.000 C 
BRANCH  25  26
ATOM     26  C   UNL     1     191.028 189.314 199.592  1.00  0.00    -0.000 C 
BRANCH  26  27
ATOM     27  C   UNL     1     191.752 190.594 200.042  1.00  0.00    -0.000 C 
BRANCH  27  28
ATOM     28  C   UNL     1     193.266 190.536 199.788  1.00  0.00    -0.000 C 
BRANCH  28  29
ATOM     29  C   UNL     1     194.046 191.597 200.586  1.00  0.00    -0.000 C 
BRANCH  29  30
ATOM     30  C   UNL     1     194.941 192.466 199.677  1.00  0.00    -0.000 C 
BRANCH  30  31
ATOM     31  C   UNL     1     194.152 193.364 198.710  1.00  0.00    -0.003 C 
ATOM     32  C   UNL     1     194.034 194.808 199.194  1.00  0.00     0.004 C 
ENDBRANCH  30  31
ENDBRANCH  29  30
ENDBRANCH  28  29
ENDBRANCH  27  28
ENDBRANCH  26  27
ENDBRANCH  25  26
ENDBRANCH  24  25
ENDBRANCH  23  24
ENDBRANCH  22  23
ENDBRANCH  21  22
ENDBRANCH  20  21
ENDBRANCH  19  20
ENDBRANCH  18  19
ENDBRANCH   1  18
TORSDOF 28
ENDMDL
MODEL 5
REMARK VINA RESULT:    -4.257      1.767      3.148
REMARK INTER + INTRA:         -14.760
REMARK INTER:                 -10.963
REMARK INTRA:                  -3.798
REMARK UNBOUND:                -3.536
REMARK SMILES CCCCCCCCCCCCCCCCCCCCCCCCCCCCCC(=O)[O-]
REMARK SMILES IDX 16 1 17 2 18 3 19 4 20 5 21 6 22 7 23 8 24 9 25 10 26 11
REMARK SMILES IDX 27 12 28 13 29 14 30 15 31 16 32 17 15 18 14 19 13 20 12 21
REMARK SMILES IDX 11 22 10 23 9 24 8 25 7 26 6 27 5 28 4 29 3 30 2 31 1 32
REMARK H PARENT
REMARK Flexibility Score: inf
ROOT
ATOM      1  C   UNL     1     185.423 188.560 198.213  1.00  0.00     0.000 C 
ENDROOT
BRANCH   1   2
ATOM      2  C   UNL     1     185.581 187.057 198.505  1.00  0.00     0.000 C 
BRANCH   2   3
ATOM      3  C   UNL     1     184.230 186.357 198.722  1.00  0.00     0.000 C 
BRANCH   3   4
ATOM      4  C   UNL     1     184.102 185.752 200.130  1.00  0.00     0.000 C 
BRANCH   4   5
ATOM      5  C   UNL     1     183.250 184.471 200.155  1.00  0.00     0.000 C 
BRANCH   5   6
ATOM      6  C   UNL     1     181.948 184.567 200.977  1.00  0.00     0.000 C 
BRANCH   6   7
ATOM      7  C   UNL     1     181.895 185.734 201.980  1.00  0.00     0.000 C 
BRANCH   7   8
ATOM      8  C   UNL     1     180.773 186.741 201.666  1.00  0.00     0.000 C 
BRANCH   8   9
ATOM      9  C   UNL     1     180.689 187.076 200.169  1.00  0.00     0.000 C 
BRANCH   9  10
ATOM     10  C   UNL     1     181.068 188.538 199.870  1.00  0.00     0.000 C 
BRANCH  10  11
ATOM     11  C   UNL     1     182.351 188.977 200.595  1.00  0.00     0.000 C 
BRANCH  11  12
ATOM     12  C   UNL     1     182.609 190.488 200.473  1.00  0.00     0.000 C 
BRANCH  12  13
ATOM     13  C   UNL     1     182.723 190.958 199.008  1.00  0.00     0.006 C 
BRANCH  13  14
ATOM     14  C   UNL     1     182.584 192.479 198.834  1.00  0.00     0.053 C 
BRANCH  14  15
ATOM     15  C   UNL     1     181.704 192.843 197.680  1.00  0.00     0.041 C 
ATOM     16  O   UNL     1     182.050 192.557 196.503  1.00  0.00    -0.550 OA
ATOM     17  O   UNL     1     180.503 193.507 197.902  1.00  0.00    -0.550 OA
ENDBRANCH  14  15
ENDBRANCH  13  14
ENDBRANCH  12  13
ENDBRANCH  11  12
ENDBRANCH  10  11
ENDBRANCH   9  10
ENDBRANCH   8   9
ENDBRANCH   7   8
ENDBRANCH   6   7
ENDBRANCH   5   6
ENDBRANCH   4   5
ENDBRANCH   3   4
ENDBRANCH   2   3
ENDBRANCH   1   2
BRANCH   1  18
ATOM     18  C   UNL     1     186.168 189.450 199.225  1.00  0.00     0.000 C 
BRANCH  18  19
ATOM     19  C   UNL     1     186.143 188.938 200.676  1.00  0.00     0.000 C 
BRANCH  19  20
ATOM     20  C   UNL     1     187.548 188.794 201.287  1.00  0.00     0.000 C 
BRANCH  20  21
ATOM     21  C   UNL     1     188.529 188.068 200.354  1.00  0.00     0.000 C 
BRANCH  21  22
ATOM     22  C   UNL     1     189.932 188.702 200.360  1.00  0.00     0.000 C 
BRANCH  22  23
ATOM     23  C   UNL     1     189.886 190.237 200.329  1.00  0.00     0.000 C 
BRANCH  23  24
ATOM     24  C   UNL     1     191.281 190.871 200.200  1.00  0.00    -0.000 C 
BRANCH  24  25
ATOM     25  C   UNL     1     192.008 190.469 198.902  1.00  0.00    -0.000 C 
BRANCH  25  26
ATOM     26  C   UNL     1     193.491 190.086 199.075  1.00  0.00    -0.000 C 
BRANCH  26  27
ATOM     27  C   UNL     1     193.883 189.848 200.543  1.00  0.00    -0.000 C 
BRANCH  27  28
ATOM     28  C   UNL     1     195.074 190.713 200.983  1.00  0.00    -0.000 C 
BRANCH  28  29
ATOM     29  C   UNL     1     195.306 191.924 200.062  1.00  0.00    -0.000 C 
BRANCH  29  30
ATOM     30  C   UNL     1     194.567 193.184 200.562  1.00  0.00    -0.000 C 
BRANCH  30  31
ATOM     31  C   UNL     1     194.777 194.418 199.669  1.00  0.00    -0.003 C 
ATOM     32  C   UNL     1     194.052 194.319 198.329  1.00  0.00     0.004 C 
ENDBRANCH  30  31
ENDBRANCH  29  30
ENDBRANCH  28  29
ENDBRANCH  27  28
ENDBRANCH  26  27
ENDBRANCH  25  26
ENDBRANCH  24  25
ENDBRANCH  23  24
ENDBRANCH  22  23
ENDBRANCH  21  22
ENDBRANCH  20  21
ENDBRANCH  19  20
ENDBRANCH  18  19
ENDBRANCH   1  18
TORSDOF 28
ENDMDL
MODEL 6
REMARK VINA RESULT:    -4.212      3.682      8.676
REMARK INTER + INTRA:         -14.643
REMARK INTER:                 -11.376
REMARK INTRA:                  -3.267
REMARK UNBOUND:                -3.536
REMARK SMILES CCCCCCCCCCCCCCCCCCCCCCCCCCCCCC(=O)[O-]
REMARK SMILES IDX 16 1 17 2 18 3 19 4 20 5 21 6 22 7 23 8 24 9 25 10 26 11
REMARK SMILES IDX 27 12 28 13 29 14 30 15 31 16 32 17 15 18 14 19 13 20 12 21
REMARK SMILES IDX 11 22 10 23 9 24 8 25 7 26 6 27 5 28 4 29 3 30 2 31 1 32
REMARK H PARENT
REMARK Flexibility Score: inf
ROOT
ATOM      1  C   UNL     1     193.068 190.882 197.670  1.00  0.00     0.000 C 
ENDROOT
BRANCH   1   2
ATOM      2  C   UNL     1     193.118 189.525 198.393  1.00  0.00     0.000 C 
BRANCH   2   3
ATOM      3  C   UNL     1     191.727 189.045 198.835  1.00  0.00     0.000 C 
BRANCH   3   4
ATOM      4  C   UNL     1     191.409 189.430 200.291  1.00  0.00     0.000 C 
BRANCH   4   5
ATOM      5  C   UNL     1     190.185 190.354 200.411  1.00  0.00     0.000 C 
BRANCH   5   6
ATOM      6  C   UNL     1     188.820 189.635 200.403  1.00  0.00     0.000 C 
BRANCH   6   7
ATOM      7  C   UNL     1     188.825 188.218 201.004  1.00  0.00     0.000 C 
BRANCH   7   8
ATOM      8  C   UNL     1     187.670 187.344 200.485  1.00  0.00     0.000 C 
BRANCH   8   9
ATOM      9  C   UNL     1     186.902 188.012 199.334  1.00  0.00     0.000 C 
BRANCH   9  10
ATOM     10  C   UNL     1     185.405 188.186 199.647  1.00  0.00     0.000 C 
BRANCH  10  11
ATOM     11  C   UNL     1     184.501 187.438 198.654  1.00  0.00     0.000 C 
BRANCH  11  12
ATOM     12  C   UNL     1     184.948 185.983 198.431  1.00  0.00     0.000 C 
BRANCH  12  13
ATOM     13  C   UNL     1     184.752 185.101 199.680  1.00  0.00     0.006 C 
BRANCH  13  14
ATOM     14  C   UNL     1     184.685 183.596 199.371  1.00  0.00     0.053 C 
BRANCH  14  15
ATOM     15  C   UNL     1     183.381 182.987 199.783  1.00  0.00     0.041 C 
ATOM     16  O   UNL     1     182.738 183.462 200.756  1.00  0.00    -0.550 OA
ATOM     17  O   UNL     1     182.879 181.888 199.097  1.00  0.00    -0.550 OA
ENDBRANCH  14  15
ENDBRANCH  13  14
ENDBRANCH  12  13
ENDBRANCH  11  12
ENDBRANCH  10  11
ENDBRANCH   9  10
ENDBRANCH   8   9
ENDBRANCH   7   8
ENDBRANCH   6   7
ENDBRANCH   5   6
ENDBRANCH   4   5
ENDBRANCH   3   4
ENDBRANCH   2   3
ENDBRANCH   1   2
BRANCH   1  18
ATOM     18  C   UNL     1     193.925 191.961 198.357  1.00  0.00     0.000 C 
BRANCH  18  19
ATOM     19  C   UNL     1     193.693 192.101 199.872  1.00  0.00     0.000 C 
BRANCH  19  20
ATOM     20  C   UNL     1     193.824 193.553 200.368  1.00  0.00     0.000 C 
BRANCH  20  21
ATOM     21  C   UNL     1     195.056 193.767 201.260  1.00  0.00     0.000 C 
BRANCH  21  22
ATOM     22  C   UNL     1     195.894 194.986 200.832  1.00  0.00     0.000 C 
BRANCH  22  23
ATOM     23  C   UNL     1     197.402 194.760 201.020  1.00  0.00     0.000 C 
BRANCH  23  24
ATOM     24  C   UNL     1     197.715 193.727 202.116  1.00  0.00    -0.000 C 
BRANCH  24  25
ATOM     25  C   UNL     1     198.601 192.569 201.618  1.00  0.00    -0.000 C 
BRANCH  25  26
ATOM     26  C   UNL     1     198.195 191.172 202.124  1.00  0.00    -0.000 C 
BRANCH  26  27
ATOM     27  C   UNL     1     197.038 190.554 201.322  1.00  0.00    -0.000 C 
BRANCH  27  28
ATOM     28  C   UNL     1     197.113 190.888 199.824  1.00  0.00    -0.000 C 
BRANCH  28  29
ATOM     29  C   UNL     1     196.745 189.692 198.927  1.00  0.00    -0.000 C 
BRANCH  29  30
ATOM     30  C   UNL     1     196.401 188.433 199.750  1.00  0.00    -0.000 C 
BRANCH  30  31
ATOM     31  C   UNL     1     197.194 187.184 199.331  1.00  0.00    -0.003 C 
ATOM     32  C   UNL     1     196.631 185.891 199.918  1.00  0.00     0.004 C 
ENDBRANCH  30  31
ENDBRANCH  29  30
ENDBRANCH  28  29
ENDBRANCH  27  28
ENDBRANCH  26  27
ENDBRANCH  25  26
ENDBRANCH  24  25
ENDBRANCH  23  24
ENDBRANCH  22  23
ENDBRANCH  21  22
ENDBRANCH  20  21
ENDBRANCH  19  20
ENDBRANCH  18  19
ENDBRANCH   1  18
TORSDOF 28
ENDMDL
MODEL 7
REMARK VINA RESULT:    -4.117      1.813      2.598
REMARK INTER + INTRA:         -14.392
REMARK INTER:                 -11.387
REMARK INTRA:                  -3.005
REMARK UNBOUND:                -3.536
REMARK SMILES CCCCCCCCCCCCCCCCCCCCCCCCCCCCCC(=O)[O-]
REMARK SMILES IDX 16 1 17 2 18 3 19 4 20 5 21 6 22 7 23 8 24 9 25 10 26 11
REMARK SMILES IDX 27 12 28 13 29 14 30 15 31 16 32 17 15 18 14 19 13 20 12 21
REMARK SMILES IDX 11 22 10 23 9 24 8 25 7 26 6 27 5 28 4 29 3 30 2 31 1 32
REMARK H PARENT
REMARK Flexibility Score: inf
ROOT
ATOM      1  C   UNL     1     184.590 185.106 199.460  1.00  0.00     0.000 C 
ENDROOT
BRANCH   1   2
ATOM      2  C   UNL     1     184.626 183.863 200.366  1.00  0.00     0.000 C 
BRANCH   2   3
ATOM      3  C   UNL     1     183.242 183.215 200.527  1.00  0.00     0.000 C 
BRANCH   3   4
ATOM      4  C   UNL     1     182.455 183.798 201.715  1.00  0.00     0.000 C 
BRANCH   4   5
ATOM      5  C   UNL     1     181.237 184.628 201.275  1.00  0.00     0.000 C 
BRANCH   5   6
ATOM      6  C   UNL     1     181.095 185.999 201.968  1.00  0.00     0.000 C 
BRANCH   6   7
ATOM      7  C   UNL     1     182.167 187.035 201.588  1.00  0.00     0.000 C 
BRANCH   7   8
ATOM      8  C   UNL     1     181.574 188.419 201.265  1.00  0.00     0.000 C 
BRANCH   8   9
ATOM      9  C   UNL     1     182.625 189.392 200.711  1.00  0.00     0.000 C 
BRANCH   9  10
ATOM     10  C   UNL     1     182.310 189.845 199.274  1.00  0.00     0.000 C 
BRANCH  10  11
ATOM     11  C   UNL     1     183.504 190.537 198.596  1.00  0.00     0.000 C 
BRANCH  11  12
ATOM     12  C   UNL     1     183.302 192.055 198.453  1.00  0.00     0.000 C 
BRANCH  12  13
ATOM     13  C   UNL     1     181.818 192.469 198.526  1.00  0.00     0.006 C 
BRANCH  13  14
ATOM     14  C   UNL     1     181.558 193.679 199.438  1.00  0.00     0.053 C 
BRANCH  14  15
ATOM     15  C   UNL     1     180.164 194.208 199.300  1.00  0.00     0.041 C 
ATOM     16  O   UNL     1     179.464 194.426 200.324  1.00  0.00    -0.550 OA
ATOM     17  O   UNL     1     179.635 194.454 198.040  1.00  0.00    -0.550 OA
ENDBRANCH  14  15
ENDBRANCH  13  14
ENDBRANCH  12  13
ENDBRANCH  11  12
ENDBRANCH  10  11
ENDBRANCH   9  10
ENDBRANCH   8   9
ENDBRANCH   7   8
ENDBRANCH   6   7
ENDBRANCH   5   6
ENDBRANCH   4   5
ENDBRANCH   3   4
ENDBRANCH   2   3
ENDBRANCH   1   2
BRANCH   1  18
ATOM     18  C   UNL     1     185.642 186.162 199.846  1.00  0.00     0.000 C 
BRANCH  18  19
ATOM     19  C   UNL     1     185.414 187.555 199.234  1.00  0.00     0.000 C 
BRANCH  19  20
ATOM     20  C   UNL     1     186.353 187.853 198.051  1.00  0.00     0.000 C 
BRANCH  20  21
ATOM     21  C   UNL     1     187.273 189.055 198.311  1.00  0.00     0.000 C 
BRANCH  21  22
ATOM     22  C   UNL     1     187.087 189.651 199.718  1.00  0.00     0.000 C 
BRANCH  22  23
ATOM     23  C   UNL     1     188.415 189.806 200.474  1.00  0.00     0.000 C 
BRANCH  23  24
ATOM     24  C   UNL     1     189.447 188.733 200.085  1.00  0.00    -0.000 C 
BRANCH  24  25
ATOM     25  C   UNL     1     190.890 189.121 200.461  1.00  0.00    -0.000 C 
BRANCH  25  26
ATOM     26  C   UNL     1     191.936 188.903 199.350  1.00  0.00    -0.000 C 
BRANCH  26  27
ATOM     27  C   UNL     1     191.634 189.707 198.075  1.00  0.00    -0.000 C 
BRANCH  27  28
ATOM     28  C   UNL     1     192.681 190.799 197.802  1.00  0.00    -0.000 C 
BRANCH  28  29
ATOM     29  C   UNL     1     194.126 190.299 197.983  1.00  0.00    -0.000 C 
BRANCH  29  30
ATOM     30  C   UNL     1     194.919 191.163 198.986  1.00  0.00    -0.000 C 
BRANCH  30  31
ATOM     31  C   UNL     1     196.060 190.406 199.687  1.00  0.00    -0.003 C 
ATOM     32  C   UNL     1     195.588 189.145 200.408  1.00  0.00     0.004 C 
ENDBRANCH  30  31
ENDBRANCH  29  30
ENDBRANCH  28  29
ENDBRANCH  27  28
ENDBRANCH  26  27
ENDBRANCH  25  26
ENDBRANCH  24  25
ENDBRANCH  23  24
ENDBRANCH  22  23
ENDBRANCH  21  22
ENDBRANCH  20  21
ENDBRANCH  19  20
ENDBRANCH  18  19
ENDBRANCH   1  18
TORSDOF 28
ENDMDL
MODEL 8
REMARK VINA RESULT:    -4.050      2.301      6.084
REMARK INTER + INTRA:         -14.216
REMARK INTER:                 -10.759
REMARK INTRA:                  -3.457
REMARK UNBOUND:                -3.536
REMARK SMILES CCCCCCCCCCCCCCCCCCCCCCCCCCCCCC(=O)[O-]
REMARK SMILES IDX 16 1 17 2 18 3 19 4 20 5 21 6 22 7 23 8 24 9 25 10 26 11
REMARK SMILES IDX 27 12 28 13 29 14 30 15 31 16 32 17 15 18 14 19 13 20 12 21
REMARK SMILES IDX 11 22 10 23 9 24 8 25 7 26 6 27 5 28 4 29 3 30 2 31 1 32
REMARK H PARENT
REMARK Flexibility Score: inf
ROOT
ATOM      1  C   UNL     1     189.494 190.116 199.973  1.00  0.00     0.000 C 
ENDROOT
BRANCH   1   2
ATOM      2  C   UNL     1     188.928 189.057 200.935  1.00  0.00     0.000 C 
BRANCH   2   3
ATOM      3  C   UNL     1     187.525 189.420 201.447  1.00  0.00     0.000 C 
BRANCH   3   4
ATOM      4  C   UNL     1     186.410 188.718 200.653  1.00  0.00     0.000 C 
BRANCH   4   5
ATOM      5  C   UNL     1     186.135 189.383 199.293  1.00  0.00     0.000 C 
BRANCH   5   6
ATOM      6  C   UNL     1     186.361 188.476 198.066  1.00  0.00     0.000 C 
BRANCH   6   7
ATOM      7  C   UNL     1     185.162 187.593 197.677  1.00  0.00     0.000 C 
BRANCH   7   8
ATOM      8  C   UNL     1     185.106 186.276 198.472  1.00  0.00     0.000 C 
BRANCH   8   9
ATOM      9  C   UNL     1     183.683 185.933 198.938  1.00  0.00     0.000 C 
BRANCH   9  10
ATOM     10  C   UNL     1     183.285 186.685 200.221  1.00  0.00     0.000 C 
BRANCH  10  11
ATOM     11  C   UNL     1     182.208 187.753 199.970  1.00  0.00     0.000 C 
BRANCH  11  12
ATOM     12  C   UNL     1     182.657 189.158 200.407  1.00  0.00     0.000 C 
BRANCH  12  13
ATOM     13  C   UNL     1     182.080 190.274 199.513  1.00  0.00     0.006 C 
BRANCH  13  14
ATOM     14  C   UNL     1     183.114 191.335 199.103  1.00  0.00     0.053 C 
BRANCH  14  15
ATOM     15  C   UNL     1     182.488 192.503 198.408  1.00  0.00     0.041 C 
ATOM     16  O   UNL     1     182.459 192.552 197.149  1.00  0.00    -0.550 OA
ATOM     17  O   UNL     1     181.944 193.544 199.149  1.00  0.00    -0.550 OA
ENDBRANCH  14  15
ENDBRANCH  13  14
ENDBRANCH  12  13
ENDBRANCH  11  12
ENDBRANCH  10  11
ENDBRANCH   9  10
ENDBRANCH   8   9
ENDBRANCH   7   8
ENDBRANCH   6   7
ENDBRANCH   5   6
ENDBRANCH   4   5
ENDBRANCH   3   4
ENDBRANCH   2   3
ENDBRANCH   1   2
BRANCH   1  18
ATOM     18  C   UNL     1     190.553 191.019 200.630  1.00  0.00     0.000 C 
BRANCH  18  19
ATOM     19  C   UNL     1     192.010 190.582 200.396  1.00  0.00     0.000 C 
BRANCH  19  20
ATOM     20  C   UNL     1     192.637 191.224 199.145  1.00  0.00     0.000 C 
BRANCH  20  21
ATOM     21  C   UNL     1     192.827 190.223 197.996  1.00  0.00     0.000 C 
BRANCH  21  22
ATOM     22  C   UNL     1     193.145 188.801 198.494  1.00  0.00     0.000 C 
BRANCH  22  23
ATOM     23  C   UNL     1     194.604 188.396 198.233  1.00  0.00     0.000 C 
BRANCH  23  24
ATOM     24  C   UNL     1     195.595 189.540 198.506  1.00  0.00    -0.000 C 
BRANCH  24  25
ATOM     25  C   UNL     1     196.342 189.384 199.844  1.00  0.00    -0.000 C 
BRANCH  25  26
ATOM     26  C   UNL     1     195.562 189.854 201.088  1.00  0.00    -0.000 C 
BRANCH  26  27
ATOM     27  C   UNL     1     196.438 190.622 202.091  1.00  0.00    -0.000 C 
BRANCH  27  28
ATOM     28  C   UNL     1     197.876 190.824 201.587  1.00  0.00    -0.000 C 
BRANCH  28  29
ATOM     29  C   UNL     1     198.150 192.266 201.127  1.00  0.00    -0.000 C 
BRANCH  29  30
ATOM     30  C   UNL     1     197.188 193.279 201.784  1.00  0.00    -0.000 C 
BRANCH  30  31
ATOM     31  C   UNL     1     196.499 194.219 200.780  1.00  0.00    -0.003 C 
ATOM     32  C   UNL     1     195.322 193.566 200.059  1.00  0.00     0.004 C 
ENDBRANCH  30  31
ENDBRANCH  29  30
ENDBRANCH  28  29
ENDBRANCH  27  28
ENDBRANCH  26  27
ENDBRANCH  25  26
ENDBRANCH  24  25
ENDBRANCH  23  24
ENDBRANCH  22  23
ENDBRANCH  21  22
ENDBRANCH  20  21
ENDBRANCH  19  20
ENDBRANCH  18  19
ENDBRANCH   1  18
TORSDOF 28
ENDMDL
MODEL 9
REMARK VINA RESULT:    -4.025     12.057     16.544
REMARK INTER + INTRA:         -14.148
REMARK INTER:                  -9.271
REMARK INTRA:                  -4.878
REMARK UNBOUND:                -3.536
REMARK SMILES CCCCCCCCCCCCCCCCCCCCCCCCCCCCCC(=O)[O-]
REMARK SMILES IDX 16 1 17 2 18 3 19 4 20 5 21 6 22 7 23 8 24 9 25 10 26 11
REMARK SMILES IDX 27 12 28 13 29 14 30 15 31 16 32 17 15 18 14 19 13 20 12 21
REMARK SMILES IDX 11 22 10 23 9 24 8 25 7 26 6 27 5 28 4 29 3 30 2 31 1 32
REMARK H PARENT
REMARK Flexibility Score: inf
ROOT
ATOM      1  C   UNL     1     191.969 184.862 190.010  1.00  0.00     0.000 C 
ENDROOT
BRANCH   1   2
ATOM      2  C   UNL     1     193.180 183.921 190.139  1.00  0.00     0.000 C 
BRANCH   2   3
ATOM      3  C   UNL     1     192.853 182.483 189.709  1.00  0.00     0.000 C 
BRANCH   3   4
ATOM      4  C   UNL     1     193.128 182.240 188.214  1.00  0.00     0.000 C 
BRANCH   4   5
ATOM      5  C   UNL     1     194.161 183.219 187.630  1.00  0.00     0.000 C 
BRANCH   5   6
ATOM      6  C   UNL     1     193.929 183.611 186.156  1.00  0.00     0.000 C 
BRANCH   6   7
ATOM      7  C   UNL     1     193.946 185.123 185.873  1.00  0.00     0.000 C 
BRANCH   7   8
ATOM      8  C   UNL     1     194.167 185.967 187.142  1.00  0.00     0.000 C 
BRANCH   8   9
ATOM      9  C   UNL     1     195.484 186.757 187.097  1.00  0.00     0.000 C 
BRANCH   9  10
ATOM     10  C   UNL     1     196.111 186.937 188.492  1.00  0.00     0.000 C 
BRANCH  10  11
ATOM     11  C   UNL     1     195.371 187.982 189.343  1.00  0.00     0.000 C 
BRANCH  11  12
ATOM     12  C   UNL     1     195.382 189.380 188.700  1.00  0.00     0.000 C 
BRANCH  12  13
ATOM     13  C   UNL     1     195.351 190.516 189.743  1.00  0.00     0.006 C 
BRANCH  13  14
ATOM     14  C   UNL     1     193.971 190.727 190.387  1.00  0.00     0.053 C 
BRANCH  14  15
ATOM     15  C   UNL     1     194.032 191.620 191.586  1.00  0.00     0.041 C 
ATOM     16  O   UNL     1     195.062 191.640 192.312  1.00  0.00    -0.550 OA
ATOM     17  O   UNL     1     192.948 192.427 191.909  1.00  0.00    -0.550 OA
ENDBRANCH  14  15
ENDBRANCH  13  14
ENDBRANCH  12  13
ENDBRANCH  11  12
ENDBRANCH  10  11
ENDBRANCH   9  10
ENDBRANCH   8   9
ENDBRANCH   7   8
ENDBRANCH   6   7
ENDBRANCH   5   6
ENDBRANCH   4   5
ENDBRANCH   3   4
ENDBRANCH   2   3
ENDBRANCH   1   2
BRANCH   1  18
ATOM     18  C   UNL     1     190.622 184.123 190.110  1.00  0.00     0.000 C 
BRANCH  18  19
ATOM     19  C   UNL     1     189.785 184.127 188.819  1.00  0.00     0.000 C 
BRANCH  19  20
ATOM     20  C   UNL     1     190.473 184.870 187.659  1.00  0.00     0.000 C 
BRANCH  20  21
ATOM     21  C   UNL     1     190.146 184.261 186.287  1.00  0.00     0.000 C 
BRANCH  21  22
ATOM     22  C   UNL     1     190.278 182.727 186.273  1.00  0.00     0.000 C 
BRANCH  22  23
ATOM     23  C   UNL     1     190.748 182.188 184.913  1.00  0.00     0.000 C 
BRANCH  23  24
ATOM     24  C   UNL     1     191.669 180.963 185.047  1.00  0.00    -0.000 C 
BRANCH  24  25
ATOM     25  C   UNL     1     190.904 179.664 185.361  1.00  0.00    -0.000 C 
BRANCH  25  26
ATOM     26  C   UNL     1     190.353 178.916 184.132  1.00  0.00    -0.000 C 
BRANCH  26  27
ATOM     27  C   UNL     1     188.835 179.088 183.955  1.00  0.00    -0.000 C 
BRANCH  27  28
ATOM     28  C   UNL     1     188.121 179.422 185.275  1.00  0.00    -0.000 C 
BRANCH  28  29
ATOM     29  C   UNL     1     186.845 180.257 185.067  1.00  0.00    -0.000 C 
BRANCH  29  30
ATOM     30  C   UNL     1     186.763 181.447 186.047  1.00  0.00    -0.000 C 
BRANCH  30  31
ATOM     31  C   UNL     1     186.733 182.819 185.353  1.00  0.00    -0.003 C 
ATOM     32  C   UNL     1     187.243 182.774 183.915  1.00  0.00     0.004 C 
ENDBRANCH  30  31
ENDBRANCH  29  30
ENDBRANCH  28  29
ENDBRANCH  27  28
ENDBRANCH  26  27
ENDBRANCH  25  26
ENDBRANCH  24  25
ENDBRANCH  23  24
ENDBRANCH  22  23
ENDBRANCH  21  22
ENDBRANCH  20  21
ENDBRANCH  19  20
ENDBRANCH  18  19
ENDBRANCH   1  18
TORSDOF 28
ENDMDL
