MODEL 1
REMARK VINA RESULT:    -3.803      0.000      0.000
REMARK INTER + INTRA:          -3.803
REMARK INTER:                  -3.803
REMARK INTRA:                   0.000
REMARK UNBOUND:                 0.000
REMARK SMILES CC1=CC(=O)[C@H]2C[C@@H]1C2(C)C
REMARK SMILES IDX 1 1 2 2 3 3 4 4 5 5 6 6 7 7 8 8 9 9 10 10 11 11
REMARK H PARENT
REMARK Flexibility Score: inf
ROOT
ATOM      1  C   UNL     1      28.340  41.870  23.669  1.00  0.00     0.040 C 
ATOM      2  C   UNL     1      27.982  41.669  22.231  1.00  0.00    -0.066 C 
ATOM      3  C   UNL     1      28.647  40.771  21.453  1.00  0.00     0.047 C 
ATOM      4  C   UNL     1      28.214  40.684  20.021  1.00  0.00     0.159 C 
ATOM      5  O   UNL     1      28.778  39.921  19.194  1.00  0.00    -0.295 OA
ATOM      6  C   UNL     1      27.041  41.586  19.637  1.00  0.00     0.067 C 
ATOM      7  C   UNL     1      26.023  41.391  20.780  1.00  0.00     0.021 C 
ATOM      8  C   UNL     1      26.831  42.451  21.564  1.00  0.00     0.022 C 
ATOM      9  C   UNL     1      27.312  43.013  20.195  1.00  0.00    -0.019 C 
ATOM     10  C   UNL     1      28.756  43.582  20.101  1.00  0.00     0.012 C 
ATOM     11  C   UNL     1      26.336  44.068  19.614  1.00  0.00     0.012 C 
ENDROOT
TORSDOF 0
ENDMDL
MODEL 2
REMARK VINA RESULT:    -3.615      2.050      3.616
REMARK INTER + INTRA:          -3.615
REMARK INTER:                  -3.615
REMARK INTRA:                   0.000
REMARK UNBOUND:                 0.000
REMARK SMILES CC1=CC(=O)[C@H]2C[C@@H]1C2(C)C
REMARK SMILES IDX 1 1 2 2 3 3 4 4 5 5 6 6 7 7 8 8 9 9 10 10 11 11
REMARK H PARENT
REMARK Flexibility Score: inf
ROOT
ATOM      1  C   UNL     1      28.569  39.111  17.172  1.00  0.00     0.040 C 
ATOM      2  C   UNL     1      27.984  39.563  18.472  1.00  0.00    -0.066 C 
ATOM      3  C   UNL     1      26.708  39.244  18.825  1.00  0.00     0.047 C 
ATOM      4  C   UNL     1      26.229  39.782  20.139  1.00  0.00     0.159 C 
ATOM      5  O   UNL     1      25.057  39.590  20.557  1.00  0.00    -0.295 OA
ATOM      6  C   UNL     1      27.262  40.582  20.934  1.00  0.00     0.067 C 
ATOM      7  C   UNL     1      28.545  39.727  20.854  1.00  0.00     0.021 C 
ATOM      8  C   UNL     1      28.800  40.394  19.484  1.00  0.00     0.022 C 
ATOM      9  C   UNL     1      27.945  41.598  19.975  1.00  0.00    -0.019 C 
ATOM     10  C   UNL     1      27.061  42.344  18.936  1.00  0.00     0.012 C 
ATOM     11  C   UNL     1      28.790  42.650  20.737  1.00  0.00     0.012 C 
ENDROOT
TORSDOF 0
ENDMDL
MODEL 3
REMARK VINA RESULT:    -3.612      1.646      3.119
REMARK INTER + INTRA:          -3.612
REMARK INTER:                  -3.612
REMARK INTRA:                   0.000
REMARK UNBOUND:                 0.000
REMARK SMILES CC1=CC(=O)[C@H]2C[C@@H]1C2(C)C
REMARK SMILES IDX 1 1 2 2 3 3 4 4 5 5 6 6 7 7 8 8 9 9 10 10 11 11
REMARK H PARENT
REMARK Flexibility Score: inf
ROOT
ATOM      1  C   UNL     1      28.022  44.125  19.237  1.00  0.00     0.040 C 
ATOM      2  C   UNL     1      27.828  42.910  20.087  1.00  0.00    -0.066 C 
ATOM      3  C   UNL     1      28.473  42.767  21.278  1.00  0.00     0.047 C 
ATOM      4  C   UNL     1      28.219  41.491  22.022  1.00  0.00     0.159 C 
ATOM      5  O   UNL     1      28.787  41.225  23.113  1.00  0.00    -0.295 OA
ATOM      6  C   UNL     1      27.223  40.537  21.362  1.00  0.00     0.067 C 
ATOM      7  C   UNL     1      26.051  41.447  20.937  1.00  0.00     0.021 C 
ATOM      8  C   UNL     1      26.875  41.770  19.670  1.00  0.00     0.022 C 
ATOM      9  C   UNL     1      27.592  40.401  19.857  1.00  0.00    -0.019 C 
ATOM     10  C   UNL     1      29.094  40.299  19.469  1.00  0.00     0.012 C 
ATOM     11  C   UNL     1      26.833  39.239  19.167  1.00  0.00     0.012 C 
ENDROOT
TORSDOF 0
ENDMDL
MODEL 4
REMARK VINA RESULT:    -3.531      1.653      3.080
REMARK INTER + INTRA:          -3.531
REMARK INTER:                  -3.531
REMARK INTRA:                   0.000
REMARK UNBOUND:                 0.000
REMARK SMILES CC1=CC(=O)[C@H]2C[C@@H]1C2(C)C
REMARK SMILES IDX 1 1 2 2 3 3 4 4 5 5 6 6 7 7 8 8 9 9 10 10 11 11
REMARK H PARENT
REMARK Flexibility Score: inf
ROOT
ATOM      1  C   UNL     1      27.130  42.623  23.446  1.00  0.00     0.040 C 
ATOM      2  C   UNL     1      27.305  42.279  22.001  1.00  0.00    -0.066 C 
ATOM      3  C   UNL     1      26.870  43.112  21.016  1.00  0.00     0.047 C 
ATOM      4  C   UNL     1      27.078  42.641  19.609  1.00  0.00     0.159 C 
ATOM      5  O   UNL     1      26.683  43.302  18.613  1.00  0.00    -0.295 OA
ATOM      6  C   UNL     1      27.799  41.300  19.468  1.00  0.00     0.067 C 
ATOM      7  C   UNL     1      28.989  41.407  20.445  1.00  0.00     0.021 C 
ATOM      8  C   UNL     1      28.004  40.977  21.556  1.00  0.00     0.022 C 
ATOM      9  C   UNL     1      27.153  40.284  20.452  1.00  0.00    -0.019 C 
ATOM     10  C   UNL     1      25.606  40.287  20.607  1.00  0.00     0.012 C 
ATOM     11  C   UNL     1      27.610  38.829  20.181  1.00  0.00     0.012 C 
ENDROOT
TORSDOF 0
ENDMDL
MODEL 5
REMARK VINA RESULT:    -3.453      0.881      3.130
REMARK INTER + INTRA:          -3.453
REMARK INTER:                  -3.453
REMARK INTRA:                   0.000
REMARK UNBOUND:                 0.000
REMARK SMILES CC1=CC(=O)[C@H]2C[C@@H]1C2(C)C
REMARK SMILES IDX 1 1 2 2 3 3 4 4 5 5 6 6 7 7 8 8 9 9 10 10 11 11
REMARK H PARENT
REMARK Flexibility Score: inf
ROOT
ATOM      1  C   UNL     1      26.491  44.124  18.626  1.00  0.00     0.040 C 
ATOM      2  C   UNL     1      27.132  43.003  19.381  1.00  0.00    -0.066 C 
ATOM      3  C   UNL     1      27.247  41.759  18.840  1.00  0.00     0.047 C 
ATOM      4  C   UNL     1      27.881  40.714  19.708  1.00  0.00     0.159 C 
ATOM      5  O   UNL     1      28.007  39.518  19.336  1.00  0.00    -0.295 OA
ATOM      6  C   UNL     1      28.360  41.202  21.075  1.00  0.00     0.067 C 
ATOM      7  C   UNL     1      29.098  42.523  20.767  1.00  0.00     0.021 C 
ATOM      8  C   UNL     1      27.711  43.204  20.797  1.00  0.00     0.022 C 
ATOM      9  C   UNL     1      27.228  42.049  21.723  1.00  0.00    -0.019 C 
ATOM     10  C   UNL     1      25.760  41.557  21.578  1.00  0.00     0.012 C 
ATOM     11  C   UNL     1      27.495  42.343  23.221  1.00  0.00     0.012 C 
ENDROOT
TORSDOF 0
ENDMDL
MODEL 6
REMARK VINA RESULT:    -3.371     16.080     17.403
REMARK INTER + INTRA:          -3.371
REMARK INTER:                  -3.371
REMARK INTRA:                   0.000
REMARK UNBOUND:                 0.000
REMARK SMILES CC1=CC(=O)[C@H]2C[C@@H]1C2(C)C
REMARK SMILES IDX 1 1 2 2 3 3 4 4 5 5 6 6 7 7 8 8 9 9 10 10 11 11
REMARK H PARENT
REMARK Flexibility Score: inf
ROOT
ATOM      1  C   UNL     1      27.861  24.574  30.378  1.00  0.00     0.040 C 
ATOM      2  C   UNL     1      27.398  25.651  29.450  1.00  0.00    -0.066 C 
ATOM      3  C   UNL     1      26.148  26.182  29.548  1.00  0.00     0.047 C 
ATOM      4  C   UNL     1      25.793  27.233  28.541  1.00  0.00     0.159 C 
ATOM      5  O   UNL     1      24.655  27.770  28.502  1.00  0.00    -0.295 OA
ATOM      6  C   UNL     1      26.908  27.606  27.563  1.00  0.00     0.067 C 
ATOM      7  C   UNL     1      28.157  27.762  28.457  1.00  0.00     0.021 C 
ATOM      8  C   UNL     1      28.317  26.228  28.353  1.00  0.00     0.022 C 
ATOM      9  C   UNL     1      27.537  26.296  27.007  1.00  0.00    -0.019 C 
ATOM     10  C   UNL     1      26.590  25.117  26.647  1.00  0.00     0.012 C 
ATOM     11  C   UNL     1      28.469  26.558  25.798  1.00  0.00     0.012 C 
ENDROOT
TORSDOF 0
ENDMDL
MODEL 7
REMARK VINA RESULT:    -3.313     16.420     17.851
REMARK INTER + INTRA:          -3.313
REMARK INTER:                  -3.313
REMARK INTRA:                   0.000
REMARK UNBOUND:                 0.000
REMARK SMILES CC1=CC(=O)[C@H]2C[C@@H]1C2(C)C
REMARK SMILES IDX 1 1 2 2 3 3 4 4 5 5 6 6 7 7 8 8 9 9 10 10 11 11
REMARK H PARENT
REMARK Flexibility Score: inf
ROOT
ATOM      1  C   UNL     1      27.792  26.186  25.514  1.00  0.00     0.040 C 
ATOM      2  C   UNL     1      27.193  26.341  26.876  1.00  0.00    -0.066 C 
ATOM      3  C   UNL     1      27.070  27.564  27.461  1.00  0.00     0.047 C 
ATOM      4  C   UNL     1      26.481  27.583  28.839  1.00  0.00     0.159 C 
ATOM      5  O   UNL     1      26.353  28.647  29.500  1.00  0.00    -0.295 OA
ATOM      6  C   UNL     1      26.050  26.222  29.386  1.00  0.00     0.067 C 
ATOM      7  C   UNL     1      25.287  25.568  28.214  1.00  0.00     0.021 C 
ATOM      8  C   UNL     1      26.667  25.129  27.674  1.00  0.00     0.022 C 
ATOM      9  C   UNL     1      27.198  25.202  29.136  1.00  0.00    -0.019 C 
ATOM     10  C   UNL     1      28.663  25.668  29.363  1.00  0.00     0.012 C 
ATOM     11  C   UNL     1      26.985  23.875  29.908  1.00  0.00     0.012 C 
ENDROOT
TORSDOF 0
ENDMDL
MODEL 8
REMARK VINA RESULT:    -3.067     16.280     17.689
REMARK INTER + INTRA:          -3.067
REMARK INTER:                  -3.067
REMARK INTRA:                   0.000
REMARK UNBOUND:                 0.000
REMARK SMILES CC1=CC(=O)[C@H]2C[C@@H]1C2(C)C
REMARK SMILES IDX 1 1 2 2 3 3 4 4 5 5 6 6 7 7 8 8 9 9 10 10 11 11
REMARK H PARENT
REMARK Flexibility Score: inf
ROOT
ATOM      1  C   UNL     1      28.373  28.743  28.146  1.00  0.00     0.040 C 
ATOM      2  C   UNL     1      28.052  27.332  27.768  1.00  0.00    -0.066 C 
ATOM      3  C   UNL     1      27.635  27.012  26.512  1.00  0.00     0.047 C 
ATOM      4  C   UNL     1      27.317  25.568  26.266  1.00  0.00     0.159 C 
ATOM      5  O   UNL     1      26.884  25.154  25.159  1.00  0.00    -0.295 OA
ATOM      6  C   UNL     1      27.552  24.635  27.454  1.00  0.00     0.067 C 
ATOM      7  C   UNL     1      28.936  25.054  27.996  1.00  0.00     0.021 C 
ATOM      8  C   UNL     1      28.197  26.169  28.772  1.00  0.00     0.022 C 
ATOM      9  C   UNL     1      26.921  25.279  28.722  1.00  0.00    -0.019 C 
ATOM     10  C   UNL     1      25.541  25.981  28.585  1.00  0.00     0.012 C 
ATOM     11  C   UNL     1      26.846  24.288  29.910  1.00  0.00     0.012 C 
ENDROOT
TORSDOF 0
ENDMDL
MODEL 9
REMARK VINA RESULT:    -3.058     16.169     17.584
REMARK INTER + INTRA:          -3.058
REMARK INTER:                  -3.058
REMARK INTRA:                   0.000
REMARK UNBOUND:                 0.000
REMARK SMILES CC1=CC(=O)[C@H]2C[C@@H]1C2(C)C
REMARK SMILES IDX 1 1 2 2 3 3 4 4 5 5 6 6 7 7 8 8 9 9 10 10 11 11
REMARK H PARENT
REMARK Flexibility Score: inf
ROOT
ATOM      1  C   UNL     1      28.692  28.844  28.377  1.00  0.00     0.040 C 
ATOM      2  C   UNL     1      27.860  27.638  28.077  1.00  0.00    -0.066 C 
ATOM      3  C   UNL     1      26.545  27.578  28.427  1.00  0.00     0.047 C 
ATOM      4  C   UNL     1      25.829  26.303  28.098  1.00  0.00     0.159 C 
ATOM      5  O   UNL     1      24.623  26.112  28.406  1.00  0.00    -0.295 OA
ATOM      6  C   UNL     1      26.664  25.253  27.366  1.00  0.00     0.067 C 
ATOM      7  C   UNL     1      27.394  26.051  26.265  1.00  0.00     0.021 C 
ATOM      8  C   UNL     1      28.443  26.412  27.342  1.00  0.00     0.022 C 
ATOM      9  C   UNL     1      28.032  25.113  28.095  1.00  0.00    -0.019 C 
ATOM     10  C   UNL     1      28.046  25.129  29.649  1.00  0.00     0.012 C 
ATOM     11  C   UNL     1      28.831  23.875  27.615  1.00  0.00     0.012 C 
ENDROOT
TORSDOF 0
ENDMDL
