MODEL 1
REMARK VINA RESULT:    -5.837      0.000      0.000
REMARK INTER + INTRA:          -6.428
REMARK INTER:                  -6.348
REMARK INTRA:                  -0.079
REMARK UNBOUND:                -0.079
REMARK SMILES CC(=O)[C@H]1CC[C@H]2[C@H]3CC=C4C[C@@H](O)CC[C@]4(C)[C@@H]3CC[C@]12C
REMARK SMILES IDX 4 1 5 2 6 3 7 4 22 5 21 6 20 7 19 8 8 9 9 10 10 11 11 12
REMARK SMILES IDX 17 13 16 14 15 15 13 16 12 17 18 18 23 19 2 20 1 21 3 22
REMARK SMILES IDX 14 23
REMARK H PARENT 14 24
REMARK Flexibility Score: inf
ROOT
ATOM      1  C   UNL     1      -7.088  27.037 -11.153  1.00  0.00     0.062 C 
ATOM      2  C   UNL     1      -5.637  27.553 -10.944  1.00  0.00     0.012 C 
ATOM      3  C   UNL     1      -4.856  26.414 -10.260  1.00  0.00     0.005 C 
ATOM      4  C   UNL     1      -5.839  25.252 -10.246  1.00  0.00    -0.001 C 
ATOM      5  C   UNL     1      -7.233  25.887 -10.117  1.00  0.00    -0.020 C 
ATOM      6  C   UNL     1      -8.323  24.821 -10.482  1.00  0.00     0.008 C 
ATOM      7  C   UNL     1      -7.883  23.347 -10.241  1.00  0.00     0.005 C 
ATOM      8  C   UNL     1      -6.882  23.220  -9.062  1.00  0.00     0.003 C 
ATOM      9  C   UNL     1      -5.572  23.994  -9.374  1.00  0.00     0.000 C 
ATOM     10  C   UNL     1      -4.816  24.198  -8.059  1.00  0.00     0.031 C 
ATOM     11  C   UNL     1      -4.551  22.854  -7.426  1.00  0.00    -0.027 C 
ATOM     12  C   UNL     1      -5.314  21.753  -7.655  1.00  0.00    -0.065 C 
ATOM     13  C   UNL     1      -6.569  21.763  -8.557  1.00  0.00    -0.008 C 
ATOM     14  C   UNL     1      -6.315  20.790  -9.749  1.00  0.00     0.014 C 
ATOM     15  C   UNL     1      -5.779  19.410  -9.315  1.00  0.00     0.033 C 
ATOM     16  C   UNL     1      -4.524  19.528  -8.430  1.00  0.00     0.118 C 
ATOM     17  C   UNL     1      -4.800  20.404  -7.200  1.00  0.00     0.063 C 
ATOM     18  C   UNL     1      -7.782  21.265  -7.725  1.00  0.00     0.016 C 
ATOM     19  C   UNL     1      -7.502  26.499  -8.704  1.00  0.00     0.012 C 
ENDROOT
BRANCH   1  20
ATOM     20  C   UNL     1      -8.182  28.094 -11.099  1.00  0.00     0.133 C 
ATOM     21  C   UNL     1      -9.524  27.914 -11.756  1.00  0.00     0.088 C 
ATOM     22  O   UNL     1      -7.975  29.125 -10.475  1.00  0.00    -0.300 OA
ENDBRANCH   1  20
BRANCH  16  23
ATOM     23  O   UNL     1      -4.120  18.254  -8.003  1.00  0.00    -0.393 OA
ATOM     24  H   UNL     1      -3.188  18.345  -7.674  1.00  0.00     0.210 HD
ENDBRANCH  16  23
TORSDOF 2
ENDMDL
MODEL 2
REMARK VINA RESULT:    -5.734      2.001      3.387
REMARK INTER + INTRA:          -6.316
REMARK INTER:                  -6.163
REMARK INTRA:                  -0.153
REMARK UNBOUND:                -0.079
REMARK SMILES CC(=O)[C@H]1CC[C@H]2[C@H]3CC=C4C[C@@H](O)CC[C@]4(C)[C@@H]3CC[C@]12C
REMARK SMILES IDX 4 1 5 2 6 3 7 4 22 5 21 6 20 7 19 8 8 9 9 10 10 11 11 12
REMARK SMILES IDX 17 13 16 14 15 15 13 16 12 17 18 18 23 19 2 20 1 21 3 22
REMARK SMILES IDX 14 23
REMARK H PARENT 14 24
REMARK Flexibility Score: inf
ROOT
ATOM      1  C   UNL     1      -9.139  27.111  -7.422  1.00  0.00     0.062 C 
ATOM      2  C   UNL     1     -10.128  26.375  -6.475  1.00  0.00     0.012 C 
ATOM      3  C   UNL     1      -9.785  24.875  -6.556  1.00  0.00     0.005 C 
ATOM      4  C   UNL     1      -8.530  24.832  -7.415  1.00  0.00    -0.001 C 
ATOM      5  C   UNL     1      -8.659  26.004  -8.401  1.00  0.00    -0.020 C 
ATOM      6  C   UNL     1      -7.263  26.283  -9.060  1.00  0.00     0.008 C 
ATOM      7  C   UNL     1      -6.323  25.043  -9.117  1.00  0.00     0.005 C 
ATOM      8  C   UNL     1      -7.114  23.715  -9.250  1.00  0.00     0.003 C 
ATOM      9  C   UNL     1      -8.015  23.489  -8.006  1.00  0.00     0.000 C 
ATOM     10  C   UNL     1      -9.061  22.431  -8.362  1.00  0.00     0.031 C 
ATOM     11  C   UNL     1      -8.360  21.167  -8.798  1.00  0.00    -0.027 C 
ATOM     12  C   UNL     1      -7.108  21.148  -9.325  1.00  0.00    -0.065 C 
ATOM     13  C   UNL     1      -6.275  22.425  -9.579  1.00  0.00    -0.008 C 
ATOM     14  C   UNL     1      -4.988  22.345  -8.701  1.00  0.00     0.014 C 
ATOM     15  C   UNL     1      -4.248  20.995  -8.814  1.00  0.00     0.033 C 
ATOM     16  C   UNL     1      -5.178  19.800  -8.531  1.00  0.00     0.118 C 
ATOM     17  C   UNL     1      -6.397  19.819  -9.463  1.00  0.00     0.063 C 
ATOM     18  C   UNL     1      -5.881  22.470 -11.081  1.00  0.00     0.016 C 
ATOM     19  C   UNL     1      -9.754  25.773  -9.492  1.00  0.00     0.012 C 
ENDROOT
BRANCH   1  20
ATOM     20  C   UNL     1      -9.672  28.373  -8.087  1.00  0.00     0.133 C 
ATOM     21  C   UNL     1     -11.126  28.762  -8.053  1.00  0.00     0.088 C 
ATOM     22  O   UNL     1      -8.885  29.118  -8.652  1.00  0.00    -0.300 OA
ENDBRANCH   1  20
BRANCH  16  23
ATOM     23  O   UNL     1      -4.478  18.598  -8.715  1.00  0.00    -0.393 OA
ATOM     24  H   UNL     1      -4.400  18.460  -9.695  1.00  0.00     0.210 HD
ENDBRANCH  16  23
TORSDOF 2
ENDMDL
MODEL 3
REMARK VINA RESULT:    -5.469      1.660      7.107
REMARK INTER + INTRA:          -6.028
REMARK INTER:                  -6.208
REMARK INTRA:                   0.180
REMARK UNBOUND:                -0.079
REMARK SMILES CC(=O)[C@H]1CC[C@H]2[C@H]3CC=C4C[C@@H](O)CC[C@]4(C)[C@@H]3CC[C@]12C
REMARK SMILES IDX 4 1 5 2 6 3 7 4 22 5 21 6 20 7 19 8 8 9 9 10 10 11 11 12
REMARK SMILES IDX 17 13 16 14 15 15 13 16 12 17 18 18 23 19 2 20 1 21 3 22
REMARK SMILES IDX 14 23
REMARK H PARENT 14 24
REMARK Flexibility Score: inf
ROOT
ATOM      1  C   UNL     1      -5.750  21.116  -9.541  1.00  0.00     0.062 C 
ATOM      2  C   UNL     1      -7.052  20.280  -9.391  1.00  0.00     0.012 C 
ATOM      3  C   UNL     1      -8.226  21.276  -9.439  1.00  0.00     0.005 C 
ATOM      4  C   UNL     1      -7.565  22.607  -9.765  1.00  0.00    -0.001 C 
ATOM      5  C   UNL     1      -6.171  22.551  -9.118  1.00  0.00    -0.020 C 
ATOM      6  C   UNL     1      -5.276  23.691  -9.715  1.00  0.00     0.008 C 
ATOM      7  C   UNL     1      -6.072  24.922 -10.239  1.00  0.00     0.005 C 
ATOM      8  C   UNL     1      -7.383  25.153  -9.442  1.00  0.00     0.003 C 
ATOM      9  C   UNL     1      -8.343  23.944  -9.608  1.00  0.00     0.000 C 
ATOM     10  C   UNL     1      -9.396  24.017  -8.500  1.00  0.00     0.031 C 
ATOM     11  C   UNL     1     -10.120  25.338  -8.590  1.00  0.00    -0.027 C 
ATOM     12  C   UNL     1      -9.576  26.455  -9.143  1.00  0.00    -0.065 C 
ATOM     13  C   UNL     1      -8.137  26.510  -9.703  1.00  0.00    -0.008 C 
ATOM     14  C   UNL     1      -8.223  26.828 -11.228  1.00  0.00     0.014 C 
ATOM     15  C   UNL     1      -9.146  28.020 -11.557  1.00  0.00     0.033 C 
ATOM     16  C   UNL     1     -10.554  27.846 -10.955  1.00  0.00     0.118 C 
ATOM     17  C   UNL     1     -10.479  27.634  -9.437  1.00  0.00     0.063 C 
ATOM     18  C   UNL     1      -7.365  27.644  -8.975  1.00  0.00     0.016 C 
ATOM     19  C   UNL     1      -6.214  22.634  -7.557  1.00  0.00     0.012 C 
ENDROOT
BRANCH   1  20
ATOM     20  C   UNL     1      -4.523  20.567  -8.826  1.00  0.00     0.133 C 
ATOM     21  C   UNL     1      -4.390  19.122  -8.425  1.00  0.00     0.088 C 
ATOM     22  O   UNL     1      -3.592  21.323  -8.588  1.00  0.00    -0.300 OA
ENDBRANCH   1  20
BRANCH  16  23
ATOM     23  O   UNL     1     -11.329  28.985 -11.221  1.00  0.00    -0.393 OA
ATOM     24  H   UNL     1     -11.124  29.260 -12.152  1.00  0.00     0.210 HD
ENDBRANCH  16  23
TORSDOF 2
ENDMDL
MODEL 4
REMARK VINA RESULT:    -5.045      2.815      6.730
REMARK INTER + INTRA:          -5.567
REMARK INTER:                  -5.460
REMARK INTRA:                  -0.108
REMARK UNBOUND:                -0.079
REMARK SMILES CC(=O)[C@H]1CC[C@H]2[C@H]3CC=C4C[C@@H](O)CC[C@]4(C)[C@@H]3CC[C@]12C
REMARK SMILES IDX 4 1 5 2 6 3 7 4 22 5 21 6 20 7 19 8 8 9 9 10 10 11 11 12
REMARK SMILES IDX 17 13 16 14 15 15 13 16 12 17 18 18 23 19 2 20 1 21 3 22
REMARK SMILES IDX 14 23
REMARK H PARENT 14 24
REMARK Flexibility Score: inf
ROOT
ATOM      1  C   UNL     1      -8.667  21.986  -8.045  1.00  0.00     0.062 C 
ATOM      2  C   UNL     1      -9.423  21.635  -9.357  1.00  0.00     0.012 C 
ATOM      3  C   UNL     1      -9.054  22.722 -10.385  1.00  0.00     0.005 C 
ATOM      4  C   UNL     1      -7.994  23.552  -9.676  1.00  0.00    -0.001 C 
ATOM      5  C   UNL     1      -8.354  23.502  -8.183  1.00  0.00    -0.020 C 
ATOM      6  C   UNL     1      -7.126  23.989  -7.337  1.00  0.00     0.008 C 
ATOM      7  C   UNL     1      -6.176  24.965  -8.092  1.00  0.00     0.005 C 
ATOM      8  C   UNL     1      -6.934  25.832  -9.131  1.00  0.00     0.003 C 
ATOM      9  C   UNL     1      -7.562  24.937 -10.234  1.00  0.00     0.000 C 
ATOM     10  C   UNL     1      -8.624  25.761 -10.967  1.00  0.00     0.031 C 
ATOM     11  C   UNL     1      -7.982  27.004 -11.535  1.00  0.00    -0.027 C 
ATOM     12  C   UNL     1      -6.859  27.570 -11.020  1.00  0.00    -0.065 C 
ATOM     13  C   UNL     1      -6.135  27.030  -9.766  1.00  0.00    -0.008 C 
ATOM     14  C   UNL     1      -4.697  26.595 -10.188  1.00  0.00     0.014 C 
ATOM     15  C   UNL     1      -3.952  27.658 -11.020  1.00  0.00     0.033 C 
ATOM     16  C   UNL     1      -4.767  28.110 -12.247  1.00  0.00     0.118 C 
ATOM     17  C   UNL     1      -6.146  28.635 -11.826  1.00  0.00     0.063 C 
ATOM     18  C   UNL     1      -6.048  28.170  -8.714  1.00  0.00     0.016 C 
ATOM     19  C   UNL     1      -9.636  24.324  -7.830  1.00  0.00     0.012 C 
ENDROOT
BRANCH   1  20
ATOM     20  C   UNL     1      -9.362  21.585  -6.751  1.00  0.00     0.133 C 
ATOM     21  C   UNL     1      -8.678  21.625  -5.411  1.00  0.00     0.088 C 
ATOM     22  O   UNL     1     -10.534  21.240  -6.794  1.00  0.00    -0.300 OA
ENDBRANCH   1  20
BRANCH  16  23
ATOM     23  O   UNL     1      -4.079  29.125 -12.929  1.00  0.00    -0.393 OA
ATOM     24  H   UNL     1      -3.132  29.075 -12.636  1.00  0.00     0.210 HD
ENDBRANCH  16  23
TORSDOF 2
ENDMDL
MODEL 5
REMARK VINA RESULT:    -4.948      2.914      6.985
REMARK INTER + INTRA:          -5.462
REMARK INTER:                  -5.609
REMARK INTRA:                   0.148
REMARK UNBOUND:                -0.079
REMARK SMILES CC(=O)[C@H]1CC[C@H]2[C@H]3CC=C4C[C@@H](O)CC[C@]4(C)[C@@H]3CC[C@]12C
REMARK SMILES IDX 4 1 5 2 6 3 7 4 22 5 21 6 20 7 19 8 8 9 9 10 10 11 11 12
REMARK SMILES IDX 17 13 16 14 15 15 13 16 12 17 18 18 23 19 2 20 1 21 3 22
REMARK SMILES IDX 14 23
REMARK H PARENT 14 24
REMARK Flexibility Score: inf
ROOT
ATOM      1  C   UNL     1      -5.800  21.315  -9.244  1.00  0.00     0.062 C 
ATOM      2  C   UNL     1      -6.198  21.937 -10.612  1.00  0.00     0.012 C 
ATOM      3  C   UNL     1      -7.074  23.166 -10.302  1.00  0.00     0.005 C 
ATOM      4  C   UNL     1      -7.014  23.286  -8.786  1.00  0.00    -0.001 C 
ATOM      5  C   UNL     1      -6.877  21.848  -8.259  1.00  0.00    -0.020 C 
ATOM      6  C   UNL     1      -6.421  21.887  -6.759  1.00  0.00     0.008 C 
ATOM      7  C   UNL     1      -6.830  23.183  -5.999  1.00  0.00     0.005 C 
ATOM      8  C   UNL     1      -8.158  23.781  -6.535  1.00  0.00     0.003 C 
ATOM      9  C   UNL     1      -8.003  24.208  -8.020  1.00  0.00     0.000 C 
ATOM     10  C   UNL     1      -9.403  24.383  -8.613  1.00  0.00     0.031 C 
ATOM     11  C   UNL     1     -10.163  25.403  -7.799  1.00  0.00    -0.027 C 
ATOM     12  C   UNL     1      -9.894  25.673  -6.495  1.00  0.00    -0.065 C 
ATOM     13  C   UNL     1      -8.807  24.933  -5.682  1.00  0.00    -0.008 C 
ATOM     14  C   UNL     1      -7.740  25.981  -5.237  1.00  0.00     0.014 C 
ATOM     15  C   UNL     1      -8.349  27.246  -4.598  1.00  0.00     0.033 C 
ATOM     16  C   UNL     1      -9.410  27.899  -5.504  1.00  0.00     0.118 C 
ATOM     17  C   UNL     1     -10.517  26.899  -5.862  1.00  0.00     0.063 C 
ATOM     18  C   UNL     1      -9.470  24.298  -4.429  1.00  0.00     0.016 C 
ATOM     19  C   UNL     1      -8.184  21.006  -8.423  1.00  0.00     0.012 C 
ENDROOT
BRANCH   1  20
ATOM     20  C   UNL     1      -5.607  19.805  -9.233  1.00  0.00     0.133 C 
ATOM     21  C   UNL     1      -4.453  19.135  -8.537  1.00  0.00     0.088 C 
ATOM     22  O   UNL     1      -6.436  19.101  -9.791  1.00  0.00    -0.300 OA
ENDBRANCH   1  20
BRANCH  16  23
ATOM     23  O   UNL     1      -9.983  29.001  -4.850  1.00  0.00    -0.393 OA
ATOM     24  H   UNL     1      -9.333  29.292  -4.157  1.00  0.00     0.210 HD
ENDBRANCH  16  23
TORSDOF 2
ENDMDL
MODEL 6
REMARK VINA RESULT:    -4.942      3.048      5.830
REMARK INTER + INTRA:          -5.454
REMARK INTER:                  -5.338
REMARK INTRA:                  -0.116
REMARK UNBOUND:                -0.079
REMARK SMILES CC(=O)[C@H]1CC[C@H]2[C@H]3CC=C4C[C@@H](O)CC[C@]4(C)[C@@H]3CC[C@]12C
REMARK SMILES IDX 4 1 5 2 6 3 7 4 22 5 21 6 20 7 19 8 8 9 9 10 10 11 11 12
REMARK SMILES IDX 17 13 16 14 15 15 13 16 12 17 18 18 23 19 2 20 1 21 3 22
REMARK SMILES IDX 14 23
REMARK H PARENT 14 24
REMARK Flexibility Score: inf
ROOT
ATOM      1  C   UNL     1      -1.965  24.062  -7.069  1.00  0.00     0.062 C 
ATOM      2  C   UNL     1      -2.172  25.506  -7.608  1.00  0.00     0.012 C 
ATOM      3  C   UNL     1      -3.567  25.538  -8.262  1.00  0.00     0.005 C 
ATOM      4  C   UNL     1      -4.156  24.173  -7.938  1.00  0.00    -0.001 C 
ATOM      5  C   UNL     1      -2.964  23.204  -7.894  1.00  0.00    -0.020 C 
ATOM      6  C   UNL     1      -3.404  21.871  -7.195  1.00  0.00     0.008 C 
ATOM      7  C   UNL     1      -4.926  21.561  -7.310  1.00  0.00     0.005 C 
ATOM      8  C   UNL     1      -5.538  22.114  -8.624  1.00  0.00     0.003 C 
ATOM      9  C   UNL     1      -5.431  23.663  -8.666  1.00  0.00     0.000 C 
ATOM     10  C   UNL     1      -5.643  24.115 -10.112  1.00  0.00     0.031 C 
ATOM     11  C   UNL     1      -6.985  23.621 -10.595  1.00  0.00    -0.027 C 
ATOM     12  C   UNL     1      -7.611  22.528 -10.082  1.00  0.00    -0.065 C 
ATOM     13  C   UNL     1      -6.997  21.641  -8.975  1.00  0.00    -0.008 C 
ATOM     14  C   UNL     1      -7.932  21.707  -7.729  1.00  0.00     0.014 C 
ATOM     15  C   UNL     1      -9.421  21.477  -8.063  1.00  0.00     0.033 C 
ATOM     16  C   UNL     1      -9.920  22.424  -9.170  1.00  0.00     0.118 C 
ATOM     17  C   UNL     1      -9.063  22.288 -10.436  1.00  0.00     0.063 C 
ATOM     18  C   UNL     1      -6.923  20.179  -9.495  1.00  0.00     0.016 C 
ATOM     19  C   UNL     1      -2.351  22.918  -9.304  1.00  0.00     0.012 C 
ENDROOT
BRANCH   1  20
ATOM     20  C   UNL     1      -0.530  23.556  -7.064  1.00  0.00     0.133 C 
ATOM     21  C   UNL     1       0.542  24.131  -7.951  1.00  0.00     0.088 C 
ATOM     22  O   UNL     1      -0.223  22.660  -6.291  1.00  0.00    -0.300 OA
ENDBRANCH   1  20
BRANCH  16  23
ATOM     23  O   UNL     1     -11.254  22.128  -9.486  1.00  0.00    -0.393 OA
ATOM     24  H   UNL     1     -11.793  22.920  -9.226  1.00  0.00     0.210 HD
ENDBRANCH  16  23
TORSDOF 2
ENDMDL
MODEL 7
REMARK VINA RESULT:    -4.876      3.806      6.141
REMARK INTER + INTRA:          -5.383
REMARK INTER:                  -5.231
REMARK INTRA:                  -0.153
REMARK UNBOUND:                -0.079
REMARK SMILES CC(=O)[C@H]1CC[C@H]2[C@H]3CC=C4C[C@@H](O)CC[C@]4(C)[C@@H]3CC[C@]12C
REMARK SMILES IDX 4 1 5 2 6 3 7 4 22 5 21 6 20 7 19 8 8 9 9 10 10 11 11 12
REMARK SMILES IDX 17 13 16 14 15 15 13 16 12 17 18 18 23 19 2 20 1 21 3 22
REMARK SMILES IDX 14 23
REMARK H PARENT 14 24
REMARK Flexibility Score: inf
ROOT
ATOM      1  C   UNL     1      -1.879  23.764  -6.805  1.00  0.00     0.062 C 
ATOM      2  C   UNL     1      -1.375  23.444  -8.240  1.00  0.00     0.012 C 
ATOM      3  C   UNL     1      -2.594  22.936  -9.034  1.00  0.00     0.005 C 
ATOM      4  C   UNL     1      -3.762  23.131  -8.078  1.00  0.00    -0.001 C 
ATOM      5  C   UNL     1      -3.184  22.932  -6.667  1.00  0.00    -0.020 C 
ATOM      6  C   UNL     1      -4.198  23.488  -5.608  1.00  0.00     0.008 C 
ATOM      7  C   UNL     1      -5.683  23.479  -6.078  1.00  0.00     0.005 C 
ATOM      8  C   UNL     1      -5.979  22.315  -7.059  1.00  0.00     0.003 C 
ATOM      9  C   UNL     1      -5.140  22.468  -8.357  1.00  0.00     0.000 C 
ATOM     10  C   UNL     1      -5.137  21.122  -9.083  1.00  0.00     0.031 C 
ATOM     11  C   UNL     1      -6.560  20.708  -9.368  1.00  0.00    -0.027 C 
ATOM     12  C   UNL     1      -7.625  21.129  -8.634  1.00  0.00    -0.065 C 
ATOM     13  C   UNL     1      -7.492  22.045  -7.396  1.00  0.00    -0.008 C 
ATOM     14  C   UNL     1      -8.254  23.373  -7.694  1.00  0.00     0.014 C 
ATOM     15  C   UNL     1      -9.676  23.155  -8.253  1.00  0.00     0.033 C 
ATOM     16  C   UNL     1      -9.679  22.236  -9.489  1.00  0.00     0.118 C 
ATOM     17  C   UNL     1      -9.019  20.887  -9.171  1.00  0.00     0.063 C 
ATOM     18  C   UNL     1      -8.143  21.331  -6.179  1.00  0.00     0.016 C 
ATOM     19  C   UNL     1      -2.814  21.445  -6.358  1.00  0.00     0.012 C 
ENDROOT
BRANCH   1  20
ATOM     20  C   UNL     1      -0.866  23.565  -5.686  1.00  0.00     0.133 C 
ATOM     21  C   UNL     1       0.423  22.812  -5.877  1.00  0.00     0.088 C 
ATOM     22  O   UNL     1      -1.093  24.057  -4.591  1.00  0.00    -0.300 OA
ENDBRANCH   1  20
BRANCH  16  23
ATOM     23  O   UNL     1     -10.997  22.012  -9.914  1.00  0.00    -0.393 OA
ATOM     24  H   UNL     1     -10.992  22.078 -10.905  1.00  0.00     0.210 HD
ENDBRANCH  16  23
TORSDOF 2
ENDMDL
MODEL 8
REMARK VINA RESULT:    -4.679      1.779      2.389
REMARK INTER + INTRA:          -5.168
REMARK INTER:                  -5.051
REMARK INTRA:                  -0.117
REMARK UNBOUND:                -0.079
REMARK SMILES CC(=O)[C@H]1CC[C@H]2[C@H]3CC=C4C[C@@H](O)CC[C@]4(C)[C@@H]3CC[C@]12C
REMARK SMILES IDX 4 1 5 2 6 3 7 4 22 5 21 6 20 7 19 8 8 9 9 10 10 11 11 12
REMARK SMILES IDX 17 13 16 14 15 15 13 16 12 17 18 18 23 19 2 20 1 21 3 22
REMARK SMILES IDX 14 23
REMARK H PARENT 14 24
REMARK Flexibility Score: inf
ROOT
ATOM      1  C   UNL     1      -8.740  27.535  -9.391  1.00  0.00     0.062 C 
ATOM      2  C   UNL     1      -8.614  28.066  -7.935  1.00  0.00     0.012 C 
ATOM      3  C   UNL     1      -7.883  26.976  -7.128  1.00  0.00     0.005 C 
ATOM      4  C   UNL     1      -7.488  25.946  -8.176  1.00  0.00    -0.001 C 
ATOM      5  C   UNL     1      -8.591  25.995  -9.245  1.00  0.00    -0.020 C 
ATOM      6  C   UNL     1      -8.090  25.268 -10.541  1.00  0.00     0.008 C 
ATOM      7  C   UNL     1      -7.010  24.175 -10.285  1.00  0.00     0.005 C 
ATOM      8  C   UNL     1      -7.182  23.497  -8.900  1.00  0.00     0.003 C 
ATOM      9  C   UNL     1      -6.997  24.532  -7.758  1.00  0.00     0.000 C 
ATOM     10  C   UNL     1      -7.582  23.936  -6.476  1.00  0.00     0.031 C 
ATOM     11  C   UNL     1      -6.893  22.626  -6.179  1.00  0.00    -0.027 C 
ATOM     12  C   UNL     1      -6.308  21.853  -7.132  1.00  0.00    -0.065 C 
ATOM     13  C   UNL     1      -6.321  22.206  -8.636  1.00  0.00    -0.008 C 
ATOM     14  C   UNL     1      -4.844  22.404  -9.098  1.00  0.00     0.014 C 
ATOM     15  C   UNL     1      -3.903  21.264  -8.657  1.00  0.00     0.033 C 
ATOM     16  C   UNL     1      -3.970  21.012  -7.139  1.00  0.00     0.118 C 
ATOM     17  C   UNL     1      -5.409  20.716  -6.695  1.00  0.00     0.063 C 
ATOM     18  C   UNL     1      -6.960  21.025  -9.418  1.00  0.00     0.016 C 
ATOM     19  C   UNL     1      -9.948  25.392  -8.757  1.00  0.00     0.012 C 
ENDROOT
BRANCH   1  20
ATOM     20  C   UNL     1      -9.970  27.995 -10.160  1.00  0.00     0.133 C 
ATOM     21  C   UNL     1     -11.220  28.490  -9.482  1.00  0.00     0.088 C 
ATOM     22  O   UNL     1      -9.938  27.987 -11.382  1.00  0.00    -0.300 OA
ENDBRANCH   1  20
BRANCH  16  23
ATOM     23  O   UNL     1      -3.153  19.923  -6.800  1.00  0.00    -0.393 OA
ATOM     24  H   UNL     1      -2.277  20.074  -7.241  1.00  0.00     0.210 HD
ENDBRANCH  16  23
TORSDOF 2
ENDMDL
