MODEL 1
REMARK VINA RESULT:    -4.166      0.000      0.000
REMARK INTER + INTRA:          -4.429
REMARK INTER:                  -4.409
REMARK INTRA:                  -0.020
REMARK UNBOUND:                -0.020
REMARK SMILES O=C([O-])c1cccnc1
REMARK SMILES IDX 4 1 5 2 9 3 6 4 8 5 7 6 2 7 1 8 3 9
REMARK H PARENT
REMARK Flexibility Score: inf
ROOT
ATOM      1  C   UNL     1      19.669  19.625  -5.807  1.00  0.00     0.016 A 
ATOM      2  C   UNL     1      18.600  20.148  -6.553  1.00  0.00     0.013 A 
ATOM      3  C   UNL     1      20.878  20.344  -5.778  1.00  0.00     0.120 A 
ATOM      4  C   UNL     1      18.750  21.352  -7.243  1.00  0.00     0.021 A 
ATOM      5  N   UNL     1      20.997  21.514  -6.461  1.00  0.00    -0.264 NA
ATOM      6  C   UNL     1      19.969  22.028  -7.184  1.00  0.00     0.111 A 
ENDROOT
BRANCH   1   7
ATOM      7  C   UNL     1      19.523  18.351  -5.071  1.00  0.00     0.073 C 
ATOM      8  O   UNL     1      19.991  18.226  -3.909  1.00  0.00    -0.545 OA
ATOM      9  O   UNL     1      18.867  17.273  -5.654  1.00  0.00    -0.545 OA
ENDBRANCH   1   7
TORSDOF 1
ENDMDL
MODEL 2
REMARK VINA RESULT:    -4.120      0.903      1.600
REMARK INTER + INTRA:          -4.381
REMARK INTER:                  -4.361
REMARK INTRA:                  -0.020
REMARK UNBOUND:                -0.020
REMARK SMILES O=C([O-])c1cccnc1
REMARK SMILES IDX 4 1 5 2 9 3 6 4 8 5 7 6 2 7 1 8 3 9
REMARK H PARENT
REMARK Flexibility Score: inf
ROOT
ATOM      1  C   UNL     1      19.698  19.616  -5.792  1.00  0.00     0.016 A 
ATOM      2  C   UNL     1      20.900  20.337  -5.717  1.00  0.00     0.013 A 
ATOM      3  C   UNL     1      18.654  20.136  -6.579  1.00  0.00     0.120 A 
ATOM      4  C   UNL     1      21.041  21.539  -6.412  1.00  0.00     0.021 A 
ATOM      5  N   UNL     1      18.818  21.310  -7.246  1.00  0.00    -0.264 NA
ATOM      6  C   UNL     1      19.977  22.014  -7.180  1.00  0.00     0.111 A 
ENDROOT
BRANCH   1   7
ATOM      7  C   UNL     1      19.536  18.341  -5.061  1.00  0.00     0.073 C 
ATOM      8  O   UNL     1      19.976  18.215  -3.887  1.00  0.00    -0.545 OA
ATOM      9  O   UNL     1      18.896  17.262  -5.660  1.00  0.00    -0.545 OA
ENDBRANCH   1   7
TORSDOF 1
ENDMDL
MODEL 3
REMARK VINA RESULT:    -4.118      2.533      3.116
REMARK INTER + INTRA:          -4.378
REMARK INTER:                  -4.362
REMARK INTRA:                  -0.017
REMARK UNBOUND:                -0.020
REMARK SMILES O=C([O-])c1cccnc1
REMARK SMILES IDX 4 1 5 2 9 3 6 4 8 5 7 6 2 7 1 8 3 9
REMARK H PARENT
REMARK Flexibility Score: inf
ROOT
ATOM      1  C   UNL     1      20.704  21.179  -6.232  1.00  0.00     0.016 A 
ATOM      2  C   UNL     1      20.299  22.007  -7.292  1.00  0.00     0.013 A 
ATOM      3  C   UNL     1      19.727  20.409  -5.574  1.00  0.00     0.120 A 
ATOM      4  C   UNL     1      18.957  22.053  -7.670  1.00  0.00     0.021 A 
ATOM      5  N   UNL     1      18.426  20.474  -5.964  1.00  0.00    -0.264 NA
ATOM      6  C   UNL     1      18.025  21.271  -6.987  1.00  0.00     0.111 A 
ENDROOT
BRANCH   1   7
ATOM      7  C   UNL     1      22.124  21.120  -5.820  1.00  0.00     0.073 C 
ATOM      8  O   UNL     1      22.634  22.054  -5.147  1.00  0.00    -0.545 OA
ATOM      9  O   UNL     1      22.914  20.033  -6.173  1.00  0.00    -0.545 OA
ENDBRANCH   1   7
TORSDOF 1
ENDMDL
MODEL 4
REMARK VINA RESULT:    -4.012      2.942      3.897
REMARK INTER + INTRA:          -4.266
REMARK INTER:                  -4.243
REMARK INTRA:                  -0.024
REMARK UNBOUND:                -0.020
REMARK SMILES O=C([O-])c1cccnc1
REMARK SMILES IDX 4 1 5 2 9 3 6 4 8 5 7 6 2 7 1 8 3 9
REMARK H PARENT
REMARK Flexibility Score: inf
ROOT
ATOM      1  C   UNL     1      19.954  20.382  -6.462  1.00  0.00     0.016 A 
ATOM      2  C   UNL     1      20.566  19.915  -5.287  1.00  0.00     0.013 A 
ATOM      3  C   UNL     1      19.019  19.551  -7.104  1.00  0.00     0.120 A 
ATOM      4  C   UNL     1      20.244  18.654  -4.783  1.00  0.00     0.021 A 
ATOM      5  N   UNL     1      18.724  18.327  -6.591  1.00  0.00    -0.264 NA
ATOM      6  C   UNL     1      19.310  17.866  -5.456  1.00  0.00     0.111 A 
ENDROOT
BRANCH   1   7
ATOM      7  C   UNL     1      20.287  21.716  -7.006  1.00  0.00     0.073 C 
ATOM      8  O   UNL     1      21.297  22.344  -6.590  1.00  0.00    -0.545 OA
ATOM      9  O   UNL     1      19.488  22.296  -7.985  1.00  0.00    -0.545 OA
ENDBRANCH   1   7
TORSDOF 1
ENDMDL
MODEL 5
REMARK VINA RESULT:    -4.009      1.812      2.198
REMARK INTER + INTRA:          -4.263
REMARK INTER:                  -4.246
REMARK INTRA:                  -0.017
REMARK UNBOUND:                -0.020
REMARK SMILES O=C([O-])c1cccnc1
REMARK SMILES IDX 4 1 5 2 9 3 6 4 8 5 7 6 2 7 1 8 3 9
REMARK H PARENT
REMARK Flexibility Score: inf
ROOT
ATOM      1  C   UNL     1      18.733  18.627  -7.248  1.00  0.00     0.016 A 
ATOM      2  C   UNL     1      17.748  19.629  -7.263  1.00  0.00     0.013 A 
ATOM      3  C   UNL     1      20.073  19.010  -7.062  1.00  0.00     0.120 A 
ATOM      4  C   UNL     1      18.109  20.967  -7.097  1.00  0.00     0.021 A 
ATOM      5  N   UNL     1      20.396  20.321  -6.903  1.00  0.00    -0.264 NA
ATOM      6  C   UNL     1      19.452  21.297  -6.916  1.00  0.00     0.111 A 
ENDROOT
BRANCH   1   7
ATOM      7  C   UNL     1      18.364  17.205  -7.423  1.00  0.00     0.073 C 
ATOM      8  O   UNL     1      18.538  16.379  -6.488  1.00  0.00    -0.545 OA
ATOM      9  O   UNL     1      17.820  16.762  -8.622  1.00  0.00    -0.545 OA
ENDBRANCH   1   7
TORSDOF 1
ENDMDL
MODEL 6
REMARK VINA RESULT:    -3.969      3.059      3.658
REMARK INTER + INTRA:          -4.221
REMARK INTER:                  -4.201
REMARK INTRA:                  -0.020
REMARK UNBOUND:                -0.020
REMARK SMILES O=C([O-])c1cccnc1
REMARK SMILES IDX 4 1 5 2 9 3 6 4 8 5 7 6 2 7 1 8 3 9
REMARK H PARENT
REMARK Flexibility Score: inf
ROOT
ATOM      1  C   UNL     1      18.930  19.680  -7.230  1.00  0.00     0.016 A 
ATOM      2  C   UNL     1      18.024  18.609  -7.295  1.00  0.00     0.013 A 
ATOM      3  C   UNL     1      20.273  19.442  -7.574  1.00  0.00     0.120 A 
ATOM      4  C   UNL     1      18.462  17.344  -7.693  1.00  0.00     0.021 A 
ATOM      5  N   UNL     1      20.673  18.200  -7.958  1.00  0.00    -0.264 NA
ATOM      6  C   UNL     1      19.805  17.158  -8.024  1.00  0.00     0.111 A 
ENDROOT
BRANCH   1   7
ATOM      7  C   UNL     1      18.479  21.025  -6.811  1.00  0.00     0.073 C 
ATOM      8  O   UNL     1      17.691  21.161  -5.838  1.00  0.00    -0.545 OA
ATOM      9  O   UNL     1      18.920  22.157  -7.486  1.00  0.00    -0.545 OA
ENDBRANCH   1   7
TORSDOF 1
ENDMDL
MODEL 7
REMARK VINA RESULT:    -3.947      2.323      3.090
REMARK INTER + INTRA:          -4.198
REMARK INTER:                  -4.178
REMARK INTRA:                  -0.020
REMARK UNBOUND:                -0.020
REMARK SMILES O=C([O-])c1cccnc1
REMARK SMILES IDX 4 1 5 2 9 3 6 4 8 5 7 6 2 7 1 8 3 9
REMARK H PARENT
REMARK Flexibility Score: inf
ROOT
ATOM      1  C   UNL     1      18.418  18.729  -6.892  1.00  0.00     0.016 A 
ATOM      2  C   UNL     1      19.366  18.128  -6.047  1.00  0.00     0.013 A 
ATOM      3  C   UNL     1      18.387  20.133  -6.968  1.00  0.00     0.120 A 
ATOM      4  C   UNL     1      20.246  18.918  -5.307  1.00  0.00     0.021 A 
ATOM      5  N   UNL     1      19.256  20.879  -6.235  1.00  0.00    -0.264 NA
ATOM      6  C   UNL     1      20.175  20.308  -5.416  1.00  0.00     0.111 A 
ENDROOT
BRANCH   1   7
ATOM      7  C   UNL     1      17.480  17.903  -7.681  1.00  0.00     0.073 C 
ATOM      8  O   UNL     1      16.258  18.202  -7.743  1.00  0.00    -0.545 OA
ATOM      9  O   UNL     1      17.935  16.782  -8.367  1.00  0.00    -0.545 OA
ENDBRANCH   1   7
TORSDOF 1
ENDMDL
MODEL 8
REMARK VINA RESULT:    -3.919      2.905      3.616
REMARK INTER + INTRA:          -4.168
REMARK INTER:                  -4.146
REMARK INTRA:                  -0.023
REMARK UNBOUND:                -0.020
REMARK SMILES O=C([O-])c1cccnc1
REMARK SMILES IDX 4 1 5 2 9 3 6 4 8 5 7 6 2 7 1 8 3 9
REMARK H PARENT
REMARK Flexibility Score: inf
ROOT
ATOM      1  C   UNL     1      19.822  20.406  -6.579  1.00  0.00     0.016 A 
ATOM      2  C   UNL     1      18.886  19.599  -7.246  1.00  0.00     0.013 A 
ATOM      3  C   UNL     1      20.461  19.885  -5.439  1.00  0.00     0.120 A 
ATOM      4  C   UNL     1      18.607  18.315  -6.776  1.00  0.00     0.021 A 
ATOM      5  N   UNL     1      20.170  18.630  -5.003  1.00  0.00    -0.264 NA
ATOM      6  C   UNL     1      19.266  17.843  -5.641  1.00  0.00     0.111 A 
ENDROOT
BRANCH   1   7
ATOM      7  C   UNL     1      20.127  21.768  -7.067  1.00  0.00     0.073 C 
ATOM      8  O   UNL     1      21.170  22.365  -6.691  1.00  0.00    -0.545 OA
ATOM      9  O   UNL     1      19.264  22.410  -7.947  1.00  0.00    -0.545 OA
ENDBRANCH   1   7
TORSDOF 1
ENDMDL
MODEL 9
REMARK VINA RESULT:    -3.901      1.954      2.348
REMARK INTER + INTRA:          -4.149
REMARK INTER:                  -4.125
REMARK INTRA:                  -0.024
REMARK UNBOUND:                -0.020
REMARK SMILES O=C([O-])c1cccnc1
REMARK SMILES IDX 4 1 5 2 9 3 6 4 8 5 7 6 2 7 1 8 3 9
REMARK H PARENT
REMARK Flexibility Score: inf
ROOT
ATOM      1  C   UNL     1      20.087  19.271  -6.980  1.00  0.00     0.016 A 
ATOM      2  C   UNL     1      18.746  18.916  -7.202  1.00  0.00     0.013 A 
ATOM      3  C   UNL     1      20.398  20.630  -6.798  1.00  0.00     0.120 A 
ATOM      4  C   UNL     1      17.758  19.901  -7.238  1.00  0.00     0.021 A 
ATOM      5  N   UNL     1      19.415  21.569  -6.838  1.00  0.00    -0.264 NA
ATOM      6  C   UNL     1      18.116  21.237  -7.052  1.00  0.00     0.111 A 
ENDROOT
BRANCH   1   7
ATOM      7  C   UNL     1      21.144  18.236  -6.939  1.00  0.00     0.073 C 
ATOM      8  O   UNL     1      20.897  17.054  -7.295  1.00  0.00    -0.545 OA
ATOM      9  O   UNL     1      22.425  18.557  -6.506  1.00  0.00    -0.545 OA
ENDBRANCH   1   7
TORSDOF 1
ENDMDL
