MODEL 1
REMARK VINA RESULT:    -5.778      0.000      0.000
REMARK INTER + INTRA:          -5.947
REMARK INTER:                  -5.947
REMARK INTRA:                   0.000
REMARK UNBOUND:                 0.000
REMARK SMILES Oc1ccc2[nH]ccc2c1
REMARK SMILES IDX 3 1 4 2 5 3 9 4 8 5 7 6 6 7 10 8 2 9 1 11
REMARK H PARENT 6 10 1 12
REMARK Flexibility Score: inf
ROOT
ATOM      1  C   UNL     1      50.340  51.677  21.313  1.00  0.00     0.048 A 
ATOM      2  C   UNL     1      51.742  51.563  21.371  1.00  0.00     0.030 A 
ATOM      3  C   UNL     1      52.426  52.381  22.267  1.00  0.00     0.046 A 
ATOM      4  C   UNL     1      51.769  53.273  23.073  1.00  0.00     0.003 A 
ATOM      5  C   UNL     1      52.720  53.920  23.831  1.00  0.00     0.028 A 
ATOM      6  C   UNL     1      53.935  53.373  23.434  1.00  0.00     0.083 A 
ATOM      7  N   UNL     1      53.751  52.433  22.479  1.00  0.00    -0.361 N 
ATOM      8  C   UNL     1      50.383  53.411  23.042  1.00  0.00     0.056 A 
ATOM      9  C   UNL     1      49.659  52.597  22.145  1.00  0.00     0.116 A 
ATOM     10  H   UNL     1      54.490  51.867  22.006  1.00  0.00     0.166 HD
ENDROOT
BRANCH   9  11
ATOM     11  O   UNL     1      48.272  52.690  22.070  1.00  0.00    -0.508 OA
ATOM     12  H   UNL     1      47.804  53.588  22.031  1.00  0.00     0.293 HD
ENDBRANCH   9  11
TORSDOF 1
ENDMDL
MODEL 2
REMARK VINA RESULT:    -5.448      1.586      1.945
REMARK INTER + INTRA:          -5.607
REMARK INTER:                  -5.607
REMARK INTRA:                   0.000
REMARK UNBOUND:                 0.000
REMARK SMILES Oc1ccc2[nH]ccc2c1
REMARK SMILES IDX 3 1 4 2 5 3 9 4 8 5 7 6 6 7 10 8 2 9 1 11
REMARK H PARENT 6 10 1 12
REMARK Flexibility Score: inf
ROOT
ATOM      1  C   UNL     1      49.438  50.009  22.150  1.00  0.00     0.048 A 
ATOM      2  C   UNL     1      50.815  50.139  21.886  1.00  0.00     0.030 A 
ATOM      3  C   UNL     1      51.338  51.425  21.777  1.00  0.00     0.046 A 
ATOM      4  C   UNL     1      50.551  52.538  21.920  1.00  0.00     0.003 A 
ATOM      5  C   UNL     1      51.362  53.639  21.758  1.00  0.00     0.028 A 
ATOM      6  C   UNL     1      52.631  53.124  21.518  1.00  0.00     0.083 A 
ATOM      7  N   UNL     1      52.612  51.772  21.531  1.00  0.00    -0.361 N 
ATOM      8  C   UNL     1      49.186  52.444  22.183  1.00  0.00     0.056 A 
ATOM      9  C   UNL     1      48.623  51.155  22.298  1.00  0.00     0.116 A 
ATOM     10  H   UNL     1      53.423  51.132  21.379  1.00  0.00     0.166 HD
ENDROOT
BRANCH   9  11
ATOM     11  O   UNL     1      47.264  51.000  22.560  1.00  0.00    -0.508 OA
ATOM     12  H   UNL     1      46.586  51.693  22.265  1.00  0.00     0.293 HD
ENDBRANCH   9  11
TORSDOF 1
ENDMDL
MODEL 3
REMARK VINA RESULT:    -5.438      3.817      4.791
REMARK INTER + INTRA:          -5.596
REMARK INTER:                  -5.596
REMARK INTRA:                   0.000
REMARK UNBOUND:                 0.000
REMARK SMILES Oc1ccc2[nH]ccc2c1
REMARK SMILES IDX 3 1 4 2 5 3 9 4 8 5 7 6 6 7 10 8 2 9 1 11
REMARK H PARENT 6 10 1 12
REMARK Flexibility Score: inf
ROOT
ATOM      1  C   UNL     1      48.506  48.671  24.184  1.00  0.00     0.048 A 
ATOM      2  C   UNL     1      48.201  49.828  23.443  1.00  0.00     0.030 A 
ATOM      3  C   UNL     1      49.167  50.312  22.563  1.00  0.00     0.046 A 
ATOM      4  C   UNL     1      50.379  49.692  22.413  1.00  0.00     0.003 A 
ATOM      5  C   UNL     1      51.096  50.409  21.480  1.00  0.00     0.028 A 
ATOM      6  C   UNL     1      50.260  51.454  21.105  1.00  0.00     0.083 A 
ATOM      7  N   UNL     1      49.082  51.391  21.768  1.00  0.00    -0.361 N 
ATOM      8  C   UNL     1      50.713  48.545  23.129  1.00  0.00     0.056 A 
ATOM      9  C   UNL     1      49.757  48.029  24.030  1.00  0.00     0.116 A 
ATOM     10  H   UNL     1      48.276  52.049  21.678  1.00  0.00     0.166 HD
ENDROOT
BRANCH   9  11
ATOM     11  O   UNL     1      50.034  46.885  24.774  1.00  0.00    -0.508 OA
ATOM     12  H   UNL     1      49.736  46.795  25.738  1.00  0.00     0.293 HD
ENDBRANCH   9  11
TORSDOF 1
ENDMDL
MODEL 4
REMARK VINA RESULT:    -5.417      3.146      4.095
REMARK INTER + INTRA:          -5.575
REMARK INTER:                  -5.575
REMARK INTRA:                   0.000
REMARK UNBOUND:                 0.000
REMARK SMILES Oc1ccc2[nH]ccc2c1
REMARK SMILES IDX 3 1 4 2 5 3 9 4 8 5 7 6 6 7 10 8 2 9 1 11
REMARK H PARENT 6 10 1 12
REMARK Flexibility Score: inf
ROOT
ATOM      1  C   UNL     1      50.353  51.365  21.571  1.00  0.00     0.048 A 
ATOM      2  C   UNL     1      51.038  50.167  21.850  1.00  0.00     0.030 A 
ATOM      3  C   UNL     1      50.462  49.286  22.762  1.00  0.00     0.046 A 
ATOM      4  C   UNL     1      49.269  49.561  23.376  1.00  0.00     0.003 A 
ATOM      5  C   UNL     1      48.980  48.502  24.207  1.00  0.00     0.028 A 
ATOM      6  C   UNL     1      50.041  47.617  24.052  1.00  0.00     0.083 A 
ATOM      7  N   UNL     1      50.944  48.099  23.168  1.00  0.00    -0.361 N 
ATOM      8  C   UNL     1      48.565  50.736  23.122  1.00  0.00     0.056 A 
ATOM      9  C   UNL     1      49.121  51.652  22.203  1.00  0.00     0.116 A 
ATOM     10  H   UNL     1      51.832  47.640  22.866  1.00  0.00     0.166 HD
ENDROOT
BRANCH   9  11
ATOM     11  O   UNL     1      48.462  52.844  21.910  1.00  0.00    -0.508 OA
ATOM     12  H   UNL     1      47.899  53.321  22.603  1.00  0.00     0.293 HD
ENDBRANCH   9  11
TORSDOF 1
ENDMDL
MODEL 5
REMARK VINA RESULT:    -5.323      1.190      2.015
REMARK INTER + INTRA:          -5.479
REMARK INTER:                  -5.479
REMARK INTRA:                   0.000
REMARK UNBOUND:                 0.000
REMARK SMILES Oc1ccc2[nH]ccc2c1
REMARK SMILES IDX 3 1 4 2 5 3 9 4 8 5 7 6 6 7 10 8 2 9 1 11
REMARK H PARENT 6 10 1 12
REMARK Flexibility Score: inf
ROOT
ATOM      1  C   UNL     1      49.404  52.717  23.541  1.00  0.00     0.048 A 
ATOM      2  C   UNL     1      50.431  53.359  24.260  1.00  0.00     0.030 A 
ATOM      3  C   UNL     1      51.724  53.292  23.747  1.00  0.00     0.046 A 
ATOM      4  C   UNL     1      52.004  52.627  22.582  1.00  0.00     0.003 A 
ATOM      5  C   UNL     1      53.356  52.748  22.353  1.00  0.00     0.028 A 
ATOM      6  C   UNL     1      53.840  53.498  23.420  1.00  0.00     0.083 A 
ATOM      7  N   UNL     1      52.839  53.828  24.269  1.00  0.00    -0.361 N 
ATOM      8  C   UNL     1      51.011  51.983  21.846  1.00  0.00     0.056 A 
ATOM      9  C   UNL     1      49.690  52.031  22.338  1.00  0.00     0.116 A 
ATOM     10  H   UNL     1      52.922  54.386  25.148  1.00  0.00     0.166 HD
ENDROOT
BRANCH   9  11
ATOM     11  O   UNL     1      48.656  51.405  21.645  1.00  0.00    -0.508 OA
ATOM     12  H   UNL     1      48.829  50.888  20.791  1.00  0.00     0.293 HD
ENDBRANCH   9  11
TORSDOF 1
ENDMDL
MODEL 6
REMARK VINA RESULT:    -5.311      2.088      2.680
REMARK INTER + INTRA:          -5.466
REMARK INTER:                  -5.466
REMARK INTRA:                   0.000
REMARK UNBOUND:                 0.000
REMARK SMILES Oc1ccc2[nH]ccc2c1
REMARK SMILES IDX 3 1 4 2 5 3 9 4 8 5 7 6 6 7 10 8 2 9 1 11
REMARK H PARENT 6 10 1 12
REMARK Flexibility Score: inf
ROOT
ATOM      1  C   UNL     1      48.919  51.462  22.264  1.00  0.00     0.048 A 
ATOM      2  C   UNL     1      49.345  52.803  22.239  1.00  0.00     0.030 A 
ATOM      3  C   UNL     1      50.669  53.059  21.889  1.00  0.00     0.046 A 
ATOM      4  C   UNL     1      51.539  52.050  21.576  1.00  0.00     0.003 A 
ATOM      5  C   UNL     1      52.753  52.630  21.279  1.00  0.00     0.028 A 
ATOM      6  C   UNL     1      52.550  53.997  21.432  1.00  0.00     0.083 A 
ATOM      7  N   UNL     1      51.275  54.255  21.805  1.00  0.00    -0.361 N 
ATOM      8  C   UNL     1      51.150  50.712  21.590  1.00  0.00     0.056 A 
ATOM      9  C   UNL     1      49.816  50.417  21.941  1.00  0.00     0.116 A 
ATOM     10  H   UNL     1      50.854  55.192  21.988  1.00  0.00     0.166 HD
ENDROOT
BRANCH   9  11
ATOM     11  O   UNL     1      49.370  49.098  21.973  1.00  0.00    -0.508 OA
ATOM     12  H   UNL     1      48.436  48.848  21.672  1.00  0.00     0.293 HD
ENDBRANCH   9  11
TORSDOF 1
ENDMDL
MODEL 7
REMARK VINA RESULT:    -5.298      2.498      3.594
REMARK INTER + INTRA:          -5.453
REMARK INTER:                  -5.453
REMARK INTRA:                   0.000
REMARK UNBOUND:                 0.000
REMARK SMILES Oc1ccc2[nH]ccc2c1
REMARK SMILES IDX 3 1 4 2 5 3 9 4 8 5 7 6 6 7 10 8 2 9 1 11
REMARK H PARENT 6 10 1 12
REMARK Flexibility Score: inf
ROOT
ATOM      1  C   UNL     1      53.003  52.608  21.864  1.00  0.00     0.048 A 
ATOM      2  C   UNL     1      51.978  51.876  21.237  1.00  0.00     0.030 A 
ATOM      3  C   UNL     1      50.738  51.820  21.868  1.00  0.00     0.046 A 
ATOM      4  C   UNL     1      50.507  52.452  23.061  1.00  0.00     0.003 A 
ATOM      5  C   UNL     1      49.199  52.205  23.412  1.00  0.00     0.028 A 
ATOM      6  C   UNL     1      48.690  51.415  22.388  1.00  0.00     0.083 A 
ATOM      7  N   UNL     1      49.633  51.182  21.446  1.00  0.00    -0.361 N 
ATOM      8  C   UNL     1      51.499  53.186  23.708  1.00  0.00     0.056 A 
ATOM      9  C   UNL     1      52.768  53.262  23.096  1.00  0.00     0.116 A 
ATOM     10  H   UNL     1      49.522  50.621  20.573  1.00  0.00     0.166 HD
ENDROOT
BRANCH   9  11
ATOM     11  O   UNL     1      53.799  53.981  23.697  1.00  0.00    -0.508 OA
ATOM     12  H   UNL     1      54.617  53.518  24.074  1.00  0.00     0.293 HD
ENDBRANCH   9  11
TORSDOF 1
ENDMDL
MODEL 8
REMARK VINA RESULT:    -5.278      2.437      3.734
REMARK INTER + INTRA:          -5.432
REMARK INTER:                  -5.432
REMARK INTRA:                   0.000
REMARK UNBOUND:                 0.000
REMARK SMILES Oc1ccc2[nH]ccc2c1
REMARK SMILES IDX 3 1 4 2 5 3 9 4 8 5 7 6 6 7 10 8 2 9 1 11
REMARK H PARENT 6 10 1 12
REMARK Flexibility Score: inf
ROOT
ATOM      1  C   UNL     1      50.903  53.712  24.391  1.00  0.00     0.048 A 
ATOM      2  C   UNL     1      49.956  52.846  23.812  1.00  0.00     0.030 A 
ATOM      3  C   UNL     1      50.346  52.106  22.699  1.00  0.00     0.046 A 
ATOM      4  C   UNL     1      51.607  52.205  22.173  1.00  0.00     0.003 A 
ATOM      5  C   UNL     1      51.671  51.354  21.092  1.00  0.00     0.028 A 
ATOM      6  C   UNL     1      50.412  50.768  21.016  1.00  0.00     0.083 A 
ATOM      7  N   UNL     1      49.606  51.230  21.999  1.00  0.00    -0.361 N 
ATOM      8  C   UNL     1      52.568  53.050  22.722  1.00  0.00     0.056 A 
ATOM      9  C   UNL     1      52.206  53.816  23.851  1.00  0.00     0.116 A 
ATOM     10  H   UNL     1      48.613  50.959  22.175  1.00  0.00     0.166 HD
ENDROOT
BRANCH   9  11
ATOM     11  O   UNL     1      53.126  54.679  24.442  1.00  0.00    -0.508 OA
ATOM     12  H   UNL     1      53.488  54.509  25.373  1.00  0.00     0.293 HD
ENDBRANCH   9  11
TORSDOF 1
ENDMDL
MODEL 9
REMARK VINA RESULT:    -5.173      1.280      2.498
REMARK INTER + INTRA:          -5.325
REMARK INTER:                  -5.325
REMARK INTRA:                   0.000
REMARK UNBOUND:                 0.000
REMARK SMILES Oc1ccc2[nH]ccc2c1
REMARK SMILES IDX 3 1 4 2 5 3 9 4 8 5 7 6 6 7 10 8 2 9 1 11
REMARK H PARENT 6 10 1 12
REMARK Flexibility Score: inf
ROOT
ATOM      1  C   UNL     1      50.556  53.590  24.652  1.00  0.00     0.048 A 
ATOM      2  C   UNL     1      51.864  53.588  24.133  1.00  0.00     0.030 A 
ATOM      3  C   UNL     1      52.090  52.909  22.938  1.00  0.00     0.046 A 
ATOM      4  C   UNL     1      51.081  52.260  22.277  1.00  0.00     0.003 A 
ATOM      5  C   UNL     1      51.626  51.697  21.144  1.00  0.00     0.028 A 
ATOM      6  C   UNL     1      52.972  52.042  21.179  1.00  0.00     0.083 A 
ATOM      7  N   UNL     1      53.252  52.783  22.276  1.00  0.00    -0.361 N 
ATOM      8  C   UNL     1      49.775  52.243  22.762  1.00  0.00     0.056 A 
ATOM      9  C   UNL     1      49.512  52.921  23.971  1.00  0.00     0.116 A 
ATOM     10  H   UNL     1      54.181  53.173  22.548  1.00  0.00     0.166 HD
ENDROOT
BRANCH   9  11
ATOM     11  O   UNL     1      48.226  52.939  24.505  1.00  0.00    -0.508 OA
ATOM     12  H   UNL     1      47.436  52.563  23.994  1.00  0.00     0.293 HD
ENDBRANCH   9  11
TORSDOF 1
ENDMDL
