MODEL 1
REMARK VINA RESULT:    -4.352      0.000      0.000
REMARK INTER + INTRA:          -4.929
REMARK INTER:                  -4.733
REMARK INTRA:                  -0.195
REMARK UNBOUND:                -0.195
REMARK SMILES Cc1ccc(C(C)C)c(O)c1
REMARK SMILES IDX 1 1 2 2 11 3 9 4 5 5 4 6 3 7 10 8 6 10 7 11 8 12
REMARK H PARENT 10 9
REMARK Flexibility Score: inf
ROOT
ATOM      1  C   UNL     1      13.242  -8.246 -28.241  1.00  0.00     0.044 C 
ATOM      2  C   UNL     1      12.964  -9.660 -27.822  1.00  0.00    -0.047 A 
ATOM      3  C   UNL     1      11.787 -10.299 -28.236  1.00  0.00     0.049 A 
ATOM      4  C   UNL     1      11.500 -11.608 -27.820  1.00  0.00     0.119 A 
ATOM      5  C   UNL     1      12.395 -12.290 -26.966  1.00  0.00    -0.004 A 
ATOM      6  C   UNL     1      13.565 -11.629 -26.542  1.00  0.00     0.008 A 
ATOM      7  C   UNL     1      13.842 -10.327 -26.961  1.00  0.00     0.004 A 
ENDROOT
BRANCH   4   8
ATOM      8  O   UNL     1      10.326 -12.224 -28.252  1.00  0.00    -0.508 OA
ATOM      9  H   UNL     1      10.336 -12.954 -28.956  1.00  0.00     0.293 HD
ENDBRANCH   4   8
BRANCH   5  10
ATOM     10  C   UNL     1      12.107 -13.710 -26.500  1.00  0.00     0.017 C 
ATOM     11  C   UNL     1      13.403 -14.517 -26.351  1.00  0.00     0.012 C 
ATOM     12  C   UNL     1      11.303 -13.710 -25.194  1.00  0.00     0.012 C 
ENDBRANCH   5  10
TORSDOF 2
ENDMDL
MODEL 2
REMARK VINA RESULT:    -4.266      2.074      3.522
REMARK INTER + INTRA:          -4.836
REMARK INTER:                  -4.758
REMARK INTRA:                  -0.078
REMARK UNBOUND:                -0.195
REMARK SMILES Cc1ccc(C(C)C)c(O)c1
REMARK SMILES IDX 1 1 2 2 11 3 9 4 5 5 4 6 3 7 10 8 6 10 7 11 8 12
REMARK H PARENT 10 9
REMARK Flexibility Score: inf
ROOT
ATOM      1  C   UNL     1       9.548 -12.846 -29.728  1.00  0.00     0.044 C 
ATOM      2  C   UNL     1      10.816 -12.762 -28.929  1.00  0.00    -0.047 A 
ATOM      3  C   UNL     1      11.279 -13.880 -28.222  1.00  0.00     0.049 A 
ATOM      4  C   UNL     1      12.443 -13.801 -27.442  1.00  0.00     0.119 A 
ATOM      5  C   UNL     1      13.154 -12.583 -27.356  1.00  0.00    -0.004 A 
ATOM      6  C   UNL     1      12.667 -11.462 -28.056  1.00  0.00     0.008 A 
ATOM      7  C   UNL     1      11.507 -11.550 -28.829  1.00  0.00     0.004 A 
ENDROOT
BRANCH   4   8
ATOM      8  O   UNL     1      12.887 -14.930 -26.755  1.00  0.00    -0.508 OA
ATOM      9  H   UNL     1      13.050 -15.812 -27.228  1.00  0.00     0.293 HD
ENDBRANCH   4   8
BRANCH   5  10
ATOM     10  C   UNL     1      14.419 -12.471 -26.517  1.00  0.00     0.017 C 
ATOM     11  C   UNL     1      15.593 -13.194 -27.188  1.00  0.00     0.012 C 
ATOM     12  C   UNL     1      14.764 -11.004 -26.233  1.00  0.00     0.012 C 
ENDBRANCH   5  10
TORSDOF 2
ENDMDL
MODEL 3
REMARK VINA RESULT:    -4.230      1.881      2.827
REMARK INTER + INTRA:          -4.796
REMARK INTER:                  -4.622
REMARK INTRA:                  -0.175
REMARK UNBOUND:                -0.195
REMARK SMILES Cc1ccc(C(C)C)c(O)c1
REMARK SMILES IDX 1 1 2 2 11 3 9 4 5 5 4 6 3 7 10 8 6 10 7 11 8 12
REMARK H PARENT 10 9
REMARK Flexibility Score: inf
ROOT
ATOM      1  C   UNL     1      15.867 -11.017 -26.003  1.00  0.00     0.044 C 
ATOM      2  C   UNL     1      14.551 -11.498 -26.540  1.00  0.00    -0.047 A 
ATOM      3  C   UNL     1      13.392 -10.731 -26.360  1.00  0.00     0.049 A 
ATOM      4  C   UNL     1      12.151 -11.190 -26.825  1.00  0.00     0.119 A 
ATOM      5  C   UNL     1      12.058 -12.442 -27.472  1.00  0.00    -0.004 A 
ATOM      6  C   UNL     1      13.227 -13.213 -27.629  1.00  0.00     0.008 A 
ATOM      7  C   UNL     1      14.457 -12.748 -27.163  1.00  0.00     0.004 A 
ENDROOT
BRANCH   4   8
ATOM      8  O   UNL     1      11.015 -10.402 -26.641  1.00  0.00    -0.508 OA
ATOM      9  H   UNL     1      10.683 -10.154 -25.715  1.00  0.00     0.293 HD
ENDBRANCH   4   8
BRANCH   5  10
ATOM     10  C   UNL     1      10.723 -12.962 -27.985  1.00  0.00     0.017 C 
ATOM     11  C   UNL     1      10.411 -12.404 -29.380  1.00  0.00     0.012 C 
ATOM     12  C   UNL     1      10.692 -14.496 -27.986  1.00  0.00     0.012 C 
ENDBRANCH   5  10
TORSDOF 2
ENDMDL
MODEL 4
REMARK VINA RESULT:    -3.876      2.014      3.031
REMARK INTER + INTRA:          -4.412
REMARK INTER:                  -4.260
REMARK INTRA:                  -0.152
REMARK UNBOUND:                -0.195
REMARK SMILES Cc1ccc(C(C)C)c(O)c1
REMARK SMILES IDX 1 1 2 2 11 3 9 4 5 5 4 6 3 7 10 8 6 10 7 11 8 12
REMARK H PARENT 10 9
REMARK Flexibility Score: inf
ROOT
ATOM      1  C   UNL     1      11.333 -11.419 -30.868  1.00  0.00     0.044 C 
ATOM      2  C   UNL     1      11.457 -11.613 -29.385  1.00  0.00    -0.047 A 
ATOM      3  C   UNL     1      12.407 -10.885 -28.655  1.00  0.00     0.049 A 
ATOM      4  C   UNL     1      12.554 -11.085 -27.274  1.00  0.00     0.119 A 
ATOM      5  C   UNL     1      11.750 -12.036 -26.608  1.00  0.00    -0.004 A 
ATOM      6  C   UNL     1      10.813 -12.776 -27.357  1.00  0.00     0.008 A 
ATOM      7  C   UNL     1      10.673 -12.570 -28.730  1.00  0.00     0.004 A 
ENDROOT
BRANCH   4   8
ATOM      8  O   UNL     1      13.501 -10.342 -26.570  1.00  0.00    -0.508 OA
ATOM      9  H   UNL     1      13.947  -9.526 -26.975  1.00  0.00     0.293 HD
ENDBRANCH   4   8
BRANCH   5  10
ATOM     10  C   UNL     1      11.892 -12.273 -25.112  1.00  0.00     0.017 C 
ATOM     11  C   UNL     1      11.144 -11.201 -24.309  1.00  0.00     0.012 C 
ATOM     12  C   UNL     1      11.417 -13.680 -24.728  1.00  0.00     0.012 C 
ENDBRANCH   5  10
TORSDOF 2
ENDMDL
MODEL 5
REMARK VINA RESULT:    -3.826      1.589      2.227
REMARK INTER + INTRA:          -4.357
REMARK INTER:                  -4.158
REMARK INTRA:                  -0.199
REMARK UNBOUND:                -0.195
REMARK SMILES Cc1ccc(C(C)C)c(O)c1
REMARK SMILES IDX 1 1 2 2 11 3 9 4 5 5 4 6 3 7 10 8 6 10 7 11 8 12
REMARK H PARENT 10 9
REMARK Flexibility Score: inf
ROOT
ATOM      1  C   UNL     1      13.464  -8.352 -27.968  1.00  0.00     0.044 C 
ATOM      2  C   UNL     1      13.075  -9.718 -27.484  1.00  0.00    -0.047 A 
ATOM      3  C   UNL     1      14.014 -10.758 -27.476  1.00  0.00     0.049 A 
ATOM      4  C   UNL     1      13.649 -12.048 -27.060  1.00  0.00     0.119 A 
ATOM      5  C   UNL     1      12.322 -12.310 -26.654  1.00  0.00    -0.004 A 
ATOM      6  C   UNL     1      11.383 -11.261 -26.686  1.00  0.00     0.008 A 
ATOM      7  C   UNL     1      11.754  -9.981 -27.101  1.00  0.00     0.004 A 
ENDROOT
BRANCH   4   8
ATOM      8  O   UNL     1      14.606 -13.063 -27.054  1.00  0.00    -0.508 OA
ATOM      9  H   UNL     1      15.575 -12.881 -26.818  1.00  0.00     0.293 HD
ENDBRANCH   4   8
BRANCH   5  10
ATOM     10  C   UNL     1      11.902 -13.700 -26.199  1.00  0.00     0.017 C 
ATOM     11  C   UNL     1      11.126 -13.638 -24.878  1.00  0.00     0.012 C 
ATOM     12  C   UNL     1      11.086 -14.414 -27.285  1.00  0.00     0.012 C 
ENDBRANCH   5  10
TORSDOF 2
ENDMDL
MODEL 6
REMARK VINA RESULT:    -3.793      1.875      3.082
REMARK INTER + INTRA:          -4.321
REMARK INTER:                  -5.405
REMARK INTRA:                   1.084
REMARK UNBOUND:                -0.195
REMARK SMILES Cc1ccc(C(C)C)c(O)c1
REMARK SMILES IDX 1 1 2 2 11 3 9 4 5 5 4 6 3 7 10 8 6 10 7 11 8 12
REMARK H PARENT 10 9
REMARK Flexibility Score: inf
ROOT
ATOM      1  C   UNL     1      15.619 -11.013 -26.126  1.00  0.00     0.044 C 
ATOM      2  C   UNL     1      14.314 -11.563 -26.623  1.00  0.00    -0.047 A 
ATOM      3  C   UNL     1      14.101 -12.947 -26.665  1.00  0.00     0.049 A 
ATOM      4  C   UNL     1      12.898 -13.471 -27.162  1.00  0.00     0.119 A 
ATOM      5  C   UNL     1      11.892 -12.602 -27.637  1.00  0.00    -0.004 A 
ATOM      6  C   UNL     1      12.126 -11.213 -27.608  1.00  0.00     0.008 A 
ATOM      7  C   UNL     1      13.326 -10.700 -27.112  1.00  0.00     0.004 A 
ENDROOT
BRANCH   4   8
ATOM      8  O   UNL     1      12.709 -14.853 -27.185  1.00  0.00    -0.508 OA
ATOM      9  H   UNL     1      12.349 -15.328 -28.005  1.00  0.00     0.293 HD
ENDBRANCH   4   8
BRANCH   5  10
ATOM     10  C   UNL     1      10.579 -13.145 -28.182  1.00  0.00     0.017 C 
ATOM     11  C   UNL     1      10.229 -12.498 -29.528  1.00  0.00     0.012 C 
ATOM     12  C   UNL     1      10.620 -14.674 -28.299  1.00  0.00     0.012 C 
ENDBRANCH   5  10
TORSDOF 2
ENDMDL
MODEL 7
REMARK VINA RESULT:    -3.772      1.907      4.232
REMARK INTER + INTRA:          -4.298
REMARK INTER:                  -4.348
REMARK INTRA:                   0.051
REMARK UNBOUND:                -0.195
REMARK SMILES Cc1ccc(C(C)C)c(O)c1
REMARK SMILES IDX 1 1 2 2 11 3 9 4 5 5 4 6 3 7 10 8 6 10 7 11 8 12
REMARK H PARENT 10 9
REMARK Flexibility Score: inf
ROOT
ATOM      1  C   UNL     1       9.797 -15.125 -28.662  1.00  0.00     0.044 C 
ATOM      2  C   UNL     1      10.637 -13.980 -28.178  1.00  0.00    -0.047 A 
ATOM      3  C   UNL     1      11.158 -13.987 -26.877  1.00  0.00     0.049 A 
ATOM      4  C   UNL     1      11.914 -12.904 -26.404  1.00  0.00     0.119 A 
ATOM      5  C   UNL     1      12.147 -11.787 -27.236  1.00  0.00    -0.004 A 
ATOM      6  C   UNL     1      11.602 -11.784 -28.535  1.00  0.00     0.008 A 
ATOM      7  C   UNL     1      10.851 -12.865 -28.998  1.00  0.00     0.004 A 
ENDROOT
BRANCH   4   8
ATOM      8  O   UNL     1      12.428 -12.940 -25.108  1.00  0.00    -0.508 OA
ATOM      9  H   UNL     1      12.968 -12.171 -24.727  1.00  0.00     0.293 HD
ENDBRANCH   4   8
BRANCH   5  10
ATOM     10  C   UNL     1      12.964 -10.600 -26.746  1.00  0.00     0.017 C 
ATOM     11  C   UNL     1      14.413 -11.008 -26.455  1.00  0.00     0.012 C 
ATOM     12  C   UNL     1      12.907  -9.440 -27.748  1.00  0.00     0.012 C 
ENDBRANCH   5  10
TORSDOF 2
ENDMDL
MODEL 8
REMARK VINA RESULT:    -3.712      1.563      2.184
REMARK INTER + INTRA:          -4.233
REMARK INTER:                  -4.063
REMARK INTRA:                  -0.170
REMARK UNBOUND:                -0.195
REMARK SMILES Cc1ccc(C(C)C)c(O)c1
REMARK SMILES IDX 1 1 2 2 11 3 9 4 5 5 4 6 3 7 10 8 6 10 7 11 8 12
REMARK H PARENT 10 9
REMARK Flexibility Score: inf
ROOT
ATOM      1  C   UNL     1      12.682  -8.366 -28.206  1.00  0.00     0.044 C 
ATOM      2  C   UNL     1      12.373  -9.796 -27.869  1.00  0.00    -0.047 A 
ATOM      3  C   UNL     1      12.385 -10.225 -26.535  1.00  0.00     0.049 A 
ATOM      4  C   UNL     1      12.134 -11.568 -26.214  1.00  0.00     0.119 A 
ATOM      5  C   UNL     1      11.876 -12.503 -27.240  1.00  0.00    -0.004 A 
ATOM      6  C   UNL     1      11.886 -12.063 -28.578  1.00  0.00     0.008 A 
ATOM      7  C   UNL     1      12.138 -10.725 -28.888  1.00  0.00     0.004 A 
ENDROOT
BRANCH   4   8
ATOM      8  O   UNL     1      12.144 -11.967 -24.878  1.00  0.00    -0.508 OA
ATOM      9  H   UNL     1      11.412 -12.551 -24.490  1.00  0.00     0.293 HD
ENDBRANCH   4   8
BRANCH   5  10
ATOM     10  C   UNL     1      11.601 -13.965 -26.917  1.00  0.00     0.017 C 
ATOM     11  C   UNL     1      10.718 -14.612 -27.992  1.00  0.00     0.012 C 
ATOM     12  C   UNL     1      12.909 -14.746 -26.734  1.00  0.00     0.012 C 
ENDBRANCH   5  10
TORSDOF 2
ENDMDL
MODEL 9
REMARK VINA RESULT:    -3.654      1.561      4.301
REMARK INTER + INTRA:          -4.170
REMARK INTER:                  -3.990
REMARK INTRA:                  -0.180
REMARK UNBOUND:                -0.195
REMARK SMILES Cc1ccc(C(C)C)c(O)c1
REMARK SMILES IDX 1 1 2 2 11 3 9 4 5 5 4 6 3 7 10 8 6 10 7 11 8 12
REMARK H PARENT 10 9
REMARK Flexibility Score: inf
ROOT
ATOM      1  C   UNL     1      10.848 -14.012 -23.697  1.00  0.00     0.044 C 
ATOM      2  C   UNL     1      11.295 -13.196 -24.874  1.00  0.00    -0.047 A 
ATOM      3  C   UNL     1      12.202 -13.730 -25.800  1.00  0.00     0.049 A 
ATOM      4  C   UNL     1      12.654 -12.961 -26.883  1.00  0.00     0.119 A 
ATOM      5  C   UNL     1      12.205 -11.632 -27.042  1.00  0.00    -0.004 A 
ATOM      6  C   UNL     1      11.309 -11.100 -26.094  1.00  0.00     0.008 A 
ATOM      7  C   UNL     1      10.865 -11.872 -25.019  1.00  0.00     0.004 A 
ENDROOT
BRANCH   4   8
ATOM      8  O   UNL     1      13.550 -13.520 -27.794  1.00  0.00    -0.508 OA
ATOM      9  H   UNL     1      13.828 -14.493 -27.740  1.00  0.00     0.293 HD
ENDBRANCH   4   8
BRANCH   5  10
ATOM     10  C   UNL     1      12.681 -10.777 -28.208  1.00  0.00     0.017 C 
ATOM     11  C   UNL     1      11.827 -11.022 -29.458  1.00  0.00     0.012 C 
ATOM     12  C   UNL     1      12.697  -9.290 -27.832  1.00  0.00     0.012 C 
ENDBRANCH   5  10
TORSDOF 2
ENDMDL
