MODEL 1
REMARK VINA RESULT:    -5.860      0.000      0.000
REMARK INTER + INTRA:          -7.394
REMARK INTER:                  -7.059
REMARK INTRA:                  -0.335
REMARK UNBOUND:                -0.335
REMARK SMILES O=c1c(O)c(-c2ccc(O)c(O)c2)oc2cc(O)cc(O)c12
REMARK SMILES IDX 5 1 3 2 2 3 1 4 22 5 20 6 19 7 17 8 16 9 15 10 14 11 6 12
REMARK SMILES IDX 7 13 8 14 9 15 13 16 11 17 10 18 12 20 4 22 21 24 18 26
REMARK H PARENT 10 19 12 21 4 23 21 25 18 27
REMARK Flexibility Score: inf
ROOT
ATOM      1  C   UNL     1     124.226 132.929 111.129  1.00  0.00     0.180 A 
ATOM      2  C   UNL     1     125.323 132.108 111.446  1.00  0.00     0.208 A 
ATOM      3  C   UNL     1     126.608 132.673 111.486  1.00  0.00     0.238 A 
ATOM      4  O   UNL     1     127.591 131.923 111.717  1.00  0.00    -0.285 OA
ATOM      5  C   UNL     1     126.778 134.055 111.224  1.00  0.00     0.111 A 
ATOM      6  C   UNL     1     128.029 134.740 111.277  1.00  0.00     0.134 A 
ATOM      7  C   UNL     1     128.099 136.079 110.872  1.00  0.00     0.093 A 
ATOM      8  C   UNL     1     126.953 136.775 110.479  1.00  0.00     0.123 A 
ATOM      9  C   UNL     1     125.718 136.130 110.483  1.00  0.00     0.094 A 
ATOM     10  C   UNL     1     125.622 134.784 110.846  1.00  0.00     0.146 A 
ATOM     11  O   UNL     1     124.427 134.206 110.825  1.00  0.00    -0.452 OA
ENDROOT
BRANCH   1  12
ATOM     12  C   UNL     1     122.839 132.412 111.092  1.00  0.00     0.025 A 
ATOM     13  C   UNL     1     122.034 132.395 112.245  1.00  0.00     0.016 A 
ATOM     14  C   UNL     1     120.720 131.925 112.181  1.00  0.00     0.051 A 
ATOM     15  C   UNL     1     120.187 131.478 110.965  1.00  0.00     0.157 A 
ATOM     16  C   UNL     1     122.294 131.982 109.871  1.00  0.00     0.062 A 
ATOM     17  C   UNL     1     120.978 131.510 109.804  1.00  0.00     0.158 A 
BRANCH  15  18
ATOM     18  O   UNL     1     118.875 131.007 110.904  1.00  0.00    -0.504 OA
ATOM     19  H   UNL     1     118.445 130.535 111.691  1.00  0.00     0.293 HD
ENDBRANCH  15  18
BRANCH  17  20
ATOM     20  O   UNL     1     120.475 131.079 108.576  1.00  0.00    -0.504 OA
ATOM     21  H   UNL     1     119.913 131.679 107.985  1.00  0.00     0.293 HD
ENDBRANCH  17  20
ENDBRANCH   1  12
BRANCH   2  22
ATOM     22  O   UNL     1     125.134 130.743 111.679  1.00  0.00    -0.502 OA
ATOM     23  H   UNL     1     124.432 130.200 111.190  1.00  0.00     0.293 HD
ENDBRANCH   2  22
BRANCH   6  24
ATOM     24  O   UNL     1     129.216 134.165 111.740  1.00  0.00    -0.507 OA
ATOM     25  H   UNL     1     129.265 133.400 112.396  1.00  0.00     0.293 HD
ENDBRANCH   6  24
BRANCH   8  26
ATOM     26  O   UNL     1     127.029 138.111 110.094  1.00  0.00    -0.508 OA
ATOM     27  H   UNL     1     126.277 138.762 110.286  1.00  0.00     0.293 HD
ENDBRANCH   8  26
TORSDOF 6
ENDMDL
MODEL 2
REMARK VINA RESULT:    -5.528     11.413     13.335
REMARK INTER + INTRA:          -6.993
REMARK INTER:                  -6.688
REMARK INTRA:                  -0.305
REMARK UNBOUND:                -0.335
REMARK SMILES O=c1c(O)c(-c2ccc(O)c(O)c2)oc2cc(O)cc(O)c12
REMARK SMILES IDX 5 1 3 2 2 3 1 4 22 5 20 6 19 7 17 8 16 9 15 10 14 11 6 12
REMARK SMILES IDX 7 13 8 14 9 15 13 16 11 17 10 18 12 20 4 22 21 24 18 26
REMARK H PARENT 10 19 12 21 4 23 21 25 18 27
REMARK Flexibility Score: inf
ROOT
ATOM      1  C   UNL     1     126.942 121.191 109.275  1.00  0.00     0.180 A 
ATOM      2  C   UNL     1     126.233 120.530 110.293  1.00  0.00     0.208 A 
ATOM      3  C   UNL     1     126.949 119.911 111.330  1.00  0.00     0.238 A 
ATOM      4  O   UNL     1     126.312 119.276 112.209  1.00  0.00    -0.285 OA
ATOM      5  C   UNL     1     128.364 119.975 111.345  1.00  0.00     0.111 A 
ATOM      6  C   UNL     1     129.189 119.419 112.370  1.00  0.00     0.134 A 
ATOM      7  C   UNL     1     130.581 119.428 112.215  1.00  0.00     0.093 A 
ATOM      8  C   UNL     1     131.179 120.031 111.106  1.00  0.00     0.123 A 
ATOM      9  C   UNL     1     130.383 120.629 110.131  1.00  0.00     0.094 A 
ATOM     10  C   UNL     1     128.991 120.604 110.239  1.00  0.00     0.146 A 
ATOM     11  O   UNL     1     128.270 121.176 109.282  1.00  0.00    -0.452 OA
ENDROOT
BRANCH   1  12
ATOM     12  C   UNL     1     126.258 121.887 108.162  1.00  0.00     0.025 A 
ATOM     13  C   UNL     1     125.795 121.185 107.034  1.00  0.00     0.016 A 
ATOM     14  C   UNL     1     125.130 121.860 106.007  1.00  0.00     0.051 A 
ATOM     15  C   UNL     1     124.907 123.240 106.096  1.00  0.00     0.157 A 
ATOM     16  C   UNL     1     126.013 123.267 108.255  1.00  0.00     0.062 A 
ATOM     17  C   UNL     1     125.349 123.946 107.228  1.00  0.00     0.158 A 
BRANCH  15  18
ATOM     18  O   UNL     1     124.245 123.911 105.068  1.00  0.00    -0.504 OA
ATOM     19  H   UNL     1     124.716 124.154 104.204  1.00  0.00     0.293 HD
ENDBRANCH  15  18
BRANCH  17  20
ATOM     20  O   UNL     1     125.135 125.319 107.350  1.00  0.00    -0.504 OA
ATOM     21  H   UNL     1     124.506 125.705 108.043  1.00  0.00     0.293 HD
ENDBRANCH  17  20
ENDBRANCH   1  12
BRANCH   2  22
ATOM     22  O   UNL     1     124.838 120.460 110.246  1.00  0.00    -0.502 OA
ATOM     23  H   UNL     1     124.337 119.580 110.260  1.00  0.00     0.293 HD
ENDBRANCH   2  22
BRANCH   6  24
ATOM     24  O   UNL     1     128.696 118.875 113.559  1.00  0.00    -0.507 OA
ATOM     25  H   UNL     1     128.475 119.409 114.387  1.00  0.00     0.293 HD
ENDBRANCH   6  24
BRANCH   8  26
ATOM     26  O   UNL     1     132.565 120.050 110.968  1.00  0.00    -0.508 OA
ATOM     27  H   UNL     1     133.013 120.493 110.175  1.00  0.00     0.293 HD
ENDBRANCH   8  26
TORSDOF 6
ENDMDL
MODEL 3
REMARK VINA RESULT:    -5.520      1.677      6.860
REMARK INTER + INTRA:          -6.984
REMARK INTER:                  -6.725
REMARK INTRA:                  -0.259
REMARK UNBOUND:                -0.335
REMARK SMILES O=c1c(O)c(-c2ccc(O)c(O)c2)oc2cc(O)cc(O)c12
REMARK SMILES IDX 5 1 3 2 2 3 1 4 22 5 20 6 19 7 17 8 16 9 15 10 14 11 6 12
REMARK SMILES IDX 7 13 8 14 9 15 13 16 11 17 10 18 12 20 4 22 21 24 18 26
REMARK H PARENT 10 19 12 21 4 23 21 25 18 27
REMARK Flexibility Score: inf
ROOT
ATOM      1  C   UNL     1     124.071 133.747 110.914  1.00  0.00     0.180 A 
ATOM      2  C   UNL     1     123.737 133.110 112.122  1.00  0.00     0.208 A 
ATOM      3  C   UNL     1     122.455 132.557 112.268  1.00  0.00     0.238 A 
ATOM      4  O   UNL     1     122.143 132.036 113.370  1.00  0.00    -0.285 OA
ATOM      5  C   UNL     1     121.528 132.634 111.199  1.00  0.00     0.111 A 
ATOM      6  C   UNL     1     120.216 132.072 111.223  1.00  0.00     0.134 A 
ATOM      7  C   UNL     1     119.340 132.322 110.160  1.00  0.00     0.093 A 
ATOM      8  C   UNL     1     119.750 133.056 109.045  1.00  0.00     0.123 A 
ATOM      9  C   UNL     1     121.048 133.557 108.987  1.00  0.00     0.094 A 
ATOM     10  C   UNL     1     121.934 133.356 110.048  1.00  0.00     0.146 A 
ATOM     11  O   UNL     1     123.158 133.860 109.956  1.00  0.00    -0.452 OA
ENDROOT
BRANCH   1  12
ATOM     12  C   UNL     1     125.411 134.331 110.675  1.00  0.00     0.025 A 
ATOM     13  C   UNL     1     126.538 133.517 110.468  1.00  0.00     0.016 A 
ATOM     14  C   UNL     1     127.787 134.091 110.220  1.00  0.00     0.051 A 
ATOM     15  C   UNL     1     127.928 135.484 110.164  1.00  0.00     0.157 A 
ATOM     16  C   UNL     1     125.552 135.727 110.597  1.00  0.00     0.062 A 
ATOM     17  C   UNL     1     126.803 136.305 110.351  1.00  0.00     0.158 A 
BRANCH  15  18
ATOM     18  O   UNL     1     129.177 136.054 109.919  1.00  0.00    -0.504 OA
ATOM     19  H   UNL     1     129.937 135.514 109.522  1.00  0.00     0.293 HD
ENDBRANCH  15  18
BRANCH  17  20
ATOM     20  O   UNL     1     126.907 137.695 110.293  1.00  0.00    -0.504 OA
ATOM     21  H   UNL     1     126.653 138.286 111.075  1.00  0.00     0.293 HD
ENDBRANCH  17  20
ENDBRANCH   1  12
BRANCH   2  22
ATOM     22  O   UNL     1     124.659 133.065 113.171  1.00  0.00    -0.502 OA
ATOM     23  H   UNL     1     124.920 133.888 113.700  1.00  0.00     0.293 HD
ENDBRANCH   2  22
BRANCH   6  24
ATOM     24  O   UNL     1     119.738 131.248 112.246  1.00  0.00    -0.507 OA
ATOM     25  H   UNL     1     118.803 131.282 112.622  1.00  0.00     0.293 HD
ENDBRANCH   6  24
BRANCH   8  26
ATOM     26  O   UNL     1     118.876 133.286 107.984  1.00  0.00    -0.508 OA
ATOM     27  H   UNL     1     118.232 132.572 107.665  1.00  0.00     0.293 HD
ENDBRANCH   8  26
TORSDOF 6
ENDMDL
MODEL 4
REMARK VINA RESULT:    -5.485      1.732      6.748
REMARK INTER + INTRA:          -6.941
REMARK INTER:                  -6.886
REMARK INTRA:                  -0.056
REMARK UNBOUND:                -0.335
REMARK SMILES O=c1c(O)c(-c2ccc(O)c(O)c2)oc2cc(O)cc(O)c12
REMARK SMILES IDX 5 1 3 2 2 3 1 4 22 5 20 6 19 7 17 8 16 9 15 10 14 11 6 12
REMARK SMILES IDX 7 13 8 14 9 15 13 16 11 17 10 18 12 20 4 22 21 24 18 26
REMARK H PARENT 10 19 12 21 4 23 21 25 18 27
REMARK Flexibility Score: inf
ROOT
ATOM      1  C   UNL     1     125.459 134.518 110.596  1.00  0.00     0.180 A 
ATOM      2  C   UNL     1     125.958 133.764 111.672  1.00  0.00     0.208 A 
ATOM      3  C   UNL     1     125.091 132.899 112.359  1.00  0.00     0.238 A 
ATOM      4  O   UNL     1     125.530 132.268 113.355  1.00  0.00    -0.285 OA
ATOM      5  C   UNL     1     123.739 132.787 111.949  1.00  0.00     0.111 A 
ATOM      6  C   UNL     1     122.783 131.911 112.547  1.00  0.00     0.134 A 
ATOM      7  C   UNL     1     121.443 131.978 112.147  1.00  0.00     0.093 A 
ATOM      8  C   UNL     1     121.037 132.841 111.126  1.00  0.00     0.123 A 
ATOM      9  C   UNL     1     121.975 133.655 110.497  1.00  0.00     0.094 A 
ATOM     10  C   UNL     1     123.313 133.638 110.898  1.00  0.00     0.146 A 
ATOM     11  O   UNL     1     124.171 134.439 110.279  1.00  0.00    -0.452 OA
ENDROOT
BRANCH   1  12
ATOM     12  C   UNL     1     126.317 135.432 109.808  1.00  0.00     0.025 A 
ATOM     13  C   UNL     1     126.435 135.304 108.413  1.00  0.00     0.016 A 
ATOM     14  C   UNL     1     127.232 136.194 107.688  1.00  0.00     0.051 A 
ATOM     15  C   UNL     1     127.911 137.230 108.341  1.00  0.00     0.157 A 
ATOM     16  C   UNL     1     126.984 136.485 110.457  1.00  0.00     0.062 A 
ATOM     17  C   UNL     1     127.784 137.377 109.733  1.00  0.00     0.158 A 
BRANCH  15  18
ATOM     18  O   UNL     1     128.708 138.114 107.615  1.00  0.00    -0.504 OA
ATOM     19  H   UNL     1     128.913 139.046 107.957  1.00  0.00     0.293 HD
ENDBRANCH  15  18
BRANCH  17  20
ATOM     20  O   UNL     1     128.441 138.402 110.413  1.00  0.00    -0.504 OA
ATOM     21  H   UNL     1     128.147 139.368 110.344  1.00  0.00     0.293 HD
ENDBRANCH  17  20
ENDBRANCH   1  12
BRANCH   2  22
ATOM     22  O   UNL     1     127.290 133.908 112.072  1.00  0.00    -0.502 OA
ATOM     23  H   UNL     1     127.562 134.494 112.853  1.00  0.00     0.293 HD
ENDBRANCH   2  22
BRANCH   6  24
ATOM     24  O   UNL     1     123.101 130.948 113.510  1.00  0.00    -0.507 OA
ATOM     25  H   UNL     1     123.781 130.214 113.385  1.00  0.00     0.293 HD
ENDBRANCH   6  24
BRANCH   8  26
ATOM     26  O   UNL     1     119.705 132.888 110.723  1.00  0.00    -0.508 OA
ATOM     27  H   UNL     1     119.402 132.485 109.844  1.00  0.00     0.293 HD
ENDBRANCH   8  26
TORSDOF 6
ENDMDL
MODEL 5
REMARK VINA RESULT:    -5.446      1.945      6.680
REMARK INTER + INTRA:          -6.895
REMARK INTER:                  -6.598
REMARK INTRA:                  -0.297
REMARK UNBOUND:                -0.335
REMARK SMILES O=c1c(O)c(-c2ccc(O)c(O)c2)oc2cc(O)cc(O)c12
REMARK SMILES IDX 5 1 3 2 2 3 1 4 22 5 20 6 19 7 17 8 16 9 15 10 14 11 6 12
REMARK SMILES IDX 7 13 8 14 9 15 13 16 11 17 10 18 12 20 4 22 21 24 18 26
REMARK H PARENT 10 19 12 21 4 23 21 25 18 27
REMARK Flexibility Score: inf
ROOT
ATOM      1  C   UNL     1     125.252 132.935 111.163  1.00  0.00     0.180 A 
ATOM      2  C   UNL     1     124.823 132.137 112.238  1.00  0.00     0.208 A 
ATOM      3  C   UNL     1     123.447 131.935 112.430  1.00  0.00     0.238 A 
ATOM      4  O   UNL     1     123.067 131.265 113.425  1.00  0.00    -0.285 OA
ATOM      5  C   UNL     1     122.518 132.520 111.535  1.00  0.00     0.111 A 
ATOM      6  C   UNL     1     121.103 132.348 111.611  1.00  0.00     0.134 A 
ATOM      7  C   UNL     1     120.272 133.079 110.753  1.00  0.00     0.093 A 
ATOM      8  C   UNL     1     120.808 133.925 109.778  1.00  0.00     0.123 A 
ATOM      9  C   UNL     1     122.190 134.052 109.658  1.00  0.00     0.094 A 
ATOM     10  C   UNL     1     123.044 133.365 110.524  1.00  0.00     0.146 A 
ATOM     11  O   UNL     1     124.354 133.523 110.382  1.00  0.00    -0.452 OA
ENDROOT
BRANCH   1  12
ATOM     12  C   UNL     1     126.686 133.174 110.882  1.00  0.00     0.025 A 
ATOM     13  C   UNL     1     127.359 132.469 109.868  1.00  0.00     0.016 A 
ATOM     14  C   UNL     1     128.706 132.729 109.604  1.00  0.00     0.051 A 
ATOM     15  C   UNL     1     129.397 133.702 110.337  1.00  0.00     0.157 A 
ATOM     16  C   UNL     1     127.377 134.163 111.601  1.00  0.00     0.062 A 
ATOM     17  C   UNL     1     128.727 134.424 111.339  1.00  0.00     0.158 A 
BRANCH  15  18
ATOM     18  O   UNL     1     130.742 133.957 110.073  1.00  0.00    -0.504 OA
ATOM     19  H   UNL     1     131.465 133.286 110.308  1.00  0.00     0.293 HD
ENDBRANCH  15  18
BRANCH  17  20
ATOM     20  O   UNL     1     129.383 135.405 112.083  1.00  0.00    -0.504 OA
ATOM     21  H   UNL     1     130.357 135.317 112.346  1.00  0.00     0.293 HD
ENDBRANCH  17  20
ENDBRANCH   1  12
BRANCH   2  22
ATOM     22  O   UNL     1     125.757 131.588 113.121  1.00  0.00    -0.502 OA
ATOM     23  H   UNL     1     126.270 130.739 112.911  1.00  0.00     0.293 HD
ENDBRANCH   2  22
BRANCH   6  24
ATOM     24  O   UNL     1     120.470 131.460 112.486  1.00  0.00    -0.507 OA
ATOM     25  H   UNL     1     119.592 130.999 112.300  1.00  0.00     0.293 HD
ENDBRANCH   6  24
BRANCH   8  26
ATOM     26  O   UNL     1     119.975 134.636 108.918  1.00  0.00    -0.508 OA
ATOM     27  H   UNL     1     120.237 135.546 108.558  1.00  0.00     0.293 HD
ENDBRANCH   8  26
TORSDOF 6
ENDMDL
MODEL 6
REMARK VINA RESULT:    -5.446      2.000      7.419
REMARK INTER + INTRA:          -6.895
REMARK INTER:                  -6.605
REMARK INTRA:                  -0.290
REMARK UNBOUND:                -0.335
REMARK SMILES O=c1c(O)c(-c2ccc(O)c(O)c2)oc2cc(O)cc(O)c12
REMARK SMILES IDX 5 1 3 2 2 3 1 4 22 5 20 6 19 7 17 8 16 9 15 10 14 11 6 12
REMARK SMILES IDX 7 13 8 14 9 15 13 16 11 17 10 18 12 20 4 22 21 24 18 26
REMARK H PARENT 10 19 12 21 4 23 21 25 18 27
REMARK Flexibility Score: inf
ROOT
ATOM      1  C   UNL     1     126.318 134.674 110.589  1.00  0.00     0.180 A 
ATOM      2  C   UNL     1     125.225 134.892 109.732  1.00  0.00     0.208 A 
ATOM      3  C   UNL     1     124.028 134.196 109.966  1.00  0.00     0.238 A 
ATOM      4  O   UNL     1     123.071 134.354 109.164  1.00  0.00    -0.285 OA
ATOM      5  C   UNL     1     123.934 133.304 111.062  1.00  0.00     0.111 A 
ATOM      6  C   UNL     1     122.757 132.577 111.415  1.00  0.00     0.134 A 
ATOM      7  C   UNL     1     122.817 131.624 112.440  1.00  0.00     0.093 A 
ATOM      8  C   UNL     1     123.993 131.419 113.166  1.00  0.00     0.123 A 
ATOM      9  C   UNL     1     125.129 132.167 112.867  1.00  0.00     0.094 A 
ATOM     10  C   UNL     1     125.111 133.099 111.826  1.00  0.00     0.146 A 
ATOM     11  O   UNL     1     126.219 133.782 111.568  1.00  0.00    -0.452 OA
ENDROOT
BRANCH   1  12
ATOM     12  C   UNL     1     127.604 135.389 110.423  1.00  0.00     0.025 A 
ATOM     13  C   UNL     1     128.702 134.781 109.788  1.00  0.00     0.016 A 
ATOM     14  C   UNL     1     129.898 135.483 109.621  1.00  0.00     0.051 A 
ATOM     15  C   UNL     1     130.012 136.804 110.072  1.00  0.00     0.157 A 
ATOM     16  C   UNL     1     127.717 136.720 110.855  1.00  0.00     0.062 A 
ATOM     17  C   UNL     1     128.914 137.426 110.690  1.00  0.00     0.158 A 
BRANCH  15  18
ATOM     18  O   UNL     1     131.208 137.502 109.906  1.00  0.00    -0.504 OA
ATOM     19  H   UNL     1     132.063 137.031 109.634  1.00  0.00     0.293 HD
ENDBRANCH  15  18
BRANCH  17  20
ATOM     20  O   UNL     1     128.992 138.743 111.144  1.00  0.00    -0.504 OA
ATOM     21  H   UNL     1     129.862 139.262 111.141  1.00  0.00     0.293 HD
ENDBRANCH  17  20
ENDBRANCH   1  12
BRANCH   2  22
ATOM     22  O   UNL     1     125.347 135.760 108.645  1.00  0.00    -0.502 OA
ATOM     23  H   UNL     1     124.676 136.496 108.459  1.00  0.00     0.293 HD
ENDBRANCH   2  22
BRANCH   6  24
ATOM     24  O   UNL     1     121.510 132.771 110.815  1.00  0.00    -0.507 OA
ATOM     25  H   UNL     1     120.756 133.307 111.218  1.00  0.00     0.293 HD
ENDBRANCH   6  24
BRANCH   8  26
ATOM     26  O   UNL     1     124.038 130.481 114.195  1.00  0.00    -0.508 OA
ATOM     27  H   UNL     1     123.404 129.691 114.220  1.00  0.00     0.293 HD
ENDBRANCH   8  26
TORSDOF 6
ENDMDL
MODEL 7
REMARK VINA RESULT:    -5.290     10.626     14.258
REMARK INTER + INTRA:          -6.707
REMARK INTER:                  -6.391
REMARK INTRA:                  -0.317
REMARK UNBOUND:                -0.335
REMARK SMILES O=c1c(O)c(-c2ccc(O)c(O)c2)oc2cc(O)cc(O)c12
REMARK SMILES IDX 5 1 3 2 2 3 1 4 22 5 20 6 19 7 17 8 16 9 15 10 14 11 6 12
REMARK SMILES IDX 7 13 8 14 9 15 13 16 11 17 10 18 12 20 4 22 21 24 18 26
REMARK H PARENT 10 19 12 21 4 23 21 25 18 27
REMARK Flexibility Score: inf
ROOT
ATOM      1  C   UNL     1     133.990 125.692 110.539  1.00  0.00     0.180 A 
ATOM      2  C   UNL     1     132.921 126.484 110.994  1.00  0.00     0.208 A 
ATOM      3  C   UNL     1     131.693 125.867 111.285  1.00  0.00     0.238 A 
ATOM      4  O   UNL     1     130.724 126.588 111.639  1.00  0.00    -0.285 OA
ATOM      5  C   UNL     1     131.555 124.466 111.134  1.00  0.00     0.111 A 
ATOM      6  C   UNL     1     130.369 123.732 111.439  1.00  0.00     0.134 A 
ATOM      7  C   UNL     1     130.303 122.368 111.126  1.00  0.00     0.093 A 
ATOM      8  C   UNL     1     131.402 121.699 110.582  1.00  0.00     0.123 A 
ATOM      9  C   UNL     1     132.583 122.395 110.338  1.00  0.00     0.094 A 
ATOM     10  C   UNL     1     132.668 123.764 110.604  1.00  0.00     0.146 A 
ATOM     11  O   UNL     1     133.809 124.391 110.345  1.00  0.00    -0.452 OA
ENDROOT
BRANCH   1  12
ATOM     12  C   UNL     1     135.321 126.265 110.236  1.00  0.00     0.025 A 
ATOM     13  C   UNL     1     135.605 126.830 108.981  1.00  0.00     0.016 A 
ATOM     14  C   UNL     1     136.861 127.387 108.725  1.00  0.00     0.051 A 
ATOM     15  C   UNL     1     137.846 127.398 109.721  1.00  0.00     0.157 A 
ATOM     16  C   UNL     1     136.305 126.297 111.238  1.00  0.00     0.062 A 
ATOM     17  C   UNL     1     137.564 126.853 110.985  1.00  0.00     0.158 A 
BRANCH  15  18
ATOM     18  O   UNL     1     139.099 127.952 109.463  1.00  0.00    -0.504 OA
ATOM     19  H   UNL     1     139.216 128.718 108.810  1.00  0.00     0.293 HD
ENDBRANCH  15  18
BRANCH  17  20
ATOM     20  O   UNL     1     138.520 126.856 112.001  1.00  0.00    -0.504 OA
ATOM     21  H   UNL     1     139.500 126.677 111.818  1.00  0.00     0.293 HD
ENDBRANCH  17  20
ENDBRANCH   1  12
BRANCH   2  22
ATOM     22  O   UNL     1     133.073 127.867 111.115  1.00  0.00    -0.502 OA
ATOM     23  H   UNL     1     132.742 128.514 110.409  1.00  0.00     0.293 HD
ENDBRANCH   2  22
BRANCH   6  24
ATOM     24  O   UNL     1     129.249 124.284 112.066  1.00  0.00    -0.507 OA
ATOM     25  H   UNL     1     129.242 124.661 113.002  1.00  0.00     0.293 HD
ENDBRANCH   6  24
BRANCH   8  26
ATOM     26  O   UNL     1     131.333 120.338 110.290  1.00  0.00    -0.508 OA
ATOM     27  H   UNL     1     130.885 119.683 110.921  1.00  0.00     0.293 HD
ENDBRANCH   8  26
TORSDOF 6
ENDMDL
MODEL 8
REMARK VINA RESULT:    -5.242     10.759     12.386
REMARK INTER + INTRA:          -6.649
REMARK INTER:                  -6.483
REMARK INTRA:                  -0.166
REMARK UNBOUND:                -0.335
REMARK SMILES O=c1c(O)c(-c2ccc(O)c(O)c2)oc2cc(O)cc(O)c12
REMARK SMILES IDX 5 1 3 2 2 3 1 4 22 5 20 6 19 7 17 8 16 9 15 10 14 11 6 12
REMARK SMILES IDX 7 13 8 14 9 15 13 16 11 17 10 18 12 20 4 22 21 24 18 26
REMARK H PARENT 10 19 12 21 4 23 21 25 18 27
REMARK Flexibility Score: inf
ROOT
ATOM      1  C   UNL     1     131.640 123.901 110.909  1.00  0.00     0.180 A 
ATOM      2  C   UNL     1     131.287 124.966 110.061  1.00  0.00     0.208 A 
ATOM      3  C   UNL     1     132.054 126.143 110.091  1.00  0.00     0.238 A 
ATOM      4  O   UNL     1     131.701 127.112 109.371  1.00  0.00    -0.285 OA
ATOM      5  C   UNL     1     133.172 126.233 110.956  1.00  0.00     0.111 A 
ATOM      6  C   UNL     1     134.042 127.362 111.038  1.00  0.00     0.134 A 
ATOM      7  C   UNL     1     135.039 127.394 112.022  1.00  0.00     0.093 A 
ATOM      8  C   UNL     1     135.238 126.311 112.881  1.00  0.00     0.123 A 
ATOM      9  C   UNL     1     134.432 125.181 112.768  1.00  0.00     0.094 A 
ATOM     10  C   UNL     1     133.406 125.134 111.821  1.00  0.00     0.146 A 
ATOM     11  O   UNL     1     132.654 124.042 111.755  1.00  0.00    -0.452 OA
ENDROOT
BRANCH   1  12
ATOM     12  C   UNL     1     130.897 122.621 110.916  1.00  0.00     0.025 A 
ATOM     13  C   UNL     1     129.557 122.556 111.337  1.00  0.00     0.016 A 
ATOM     14  C   UNL     1     128.868 121.340 111.312  1.00  0.00     0.051 A 
ATOM     15  C   UNL     1     129.501 120.177 110.857  1.00  0.00     0.157 A 
ATOM     16  C   UNL     1     131.521 121.456 110.441  1.00  0.00     0.062 A 
ATOM     17  C   UNL     1     130.834 120.237 110.417  1.00  0.00     0.158 A 
BRANCH  15  18
ATOM     18  O   UNL     1     128.812 118.964 110.836  1.00  0.00    -0.504 OA
ATOM     19  H   UNL     1     129.271 118.090 111.064  1.00  0.00     0.293 HD
ENDBRANCH  15  18
BRANCH  17  20
ATOM     20  O   UNL     1     131.491 119.098 109.950  1.00  0.00    -0.504 OA
ATOM     21  H   UNL     1     131.027 118.200 109.880  1.00  0.00     0.293 HD
ENDBRANCH  17  20
ENDBRANCH   1  12
BRANCH   2  22
ATOM     22  O   UNL     1     130.167 124.863 109.233  1.00  0.00    -0.502 OA
ATOM     23  H   UNL     1     129.230 124.745 109.598  1.00  0.00     0.293 HD
ENDBRANCH   2  22
BRANCH   6  24
ATOM     24  O   UNL     1     133.987 128.455 110.169  1.00  0.00    -0.507 OA
ATOM     25  H   UNL     1     134.105 129.418 110.448  1.00  0.00     0.293 HD
ENDBRANCH   6  24
BRANCH   8  26
ATOM     26  O   UNL     1     136.243 126.345 113.846  1.00  0.00    -0.508 OA
ATOM     27  H   UNL     1     136.682 127.215 114.123  1.00  0.00     0.293 HD
ENDBRANCH   8  26
TORSDOF 6
ENDMDL
MODEL 9
REMARK VINA RESULT:    -5.194      1.801      3.906
REMARK INTER + INTRA:          -6.592
REMARK INTER:                  -6.313
REMARK INTRA:                  -0.279
REMARK UNBOUND:                -0.335
REMARK SMILES O=c1c(O)c(-c2ccc(O)c(O)c2)oc2cc(O)cc(O)c12
REMARK SMILES IDX 5 1 3 2 2 3 1 4 22 5 20 6 19 7 17 8 16 9 15 10 14 11 6 12
REMARK SMILES IDX 7 13 8 14 9 15 13 16 11 17 10 18 12 20 4 22 21 24 18 26
REMARK H PARENT 10 19 12 21 4 23 21 25 18 27
REMARK Flexibility Score: inf
ROOT
ATOM      1  C   UNL     1     124.514 132.050 111.038  1.00  0.00     0.180 A 
ATOM      2  C   UNL     1     125.118 133.315 111.142  1.00  0.00     0.208 A 
ATOM      3  C   UNL     1     126.506 133.393 111.344  1.00  0.00     0.238 A 
ATOM      4  O   UNL     1     127.032 134.526 111.491  1.00  0.00    -0.285 OA
ATOM      5  C   UNL     1     127.274 132.205 111.422  1.00  0.00     0.111 A 
ATOM      6  C   UNL     1     128.692 132.168 111.584  1.00  0.00     0.134 A 
ATOM      7  C   UNL     1     129.331 130.937 111.780  1.00  0.00     0.093 A 
ATOM      8  C   UNL     1     128.612 129.739 111.755  1.00  0.00     0.123 A 
ATOM      9  C   UNL     1     127.237 129.763 111.537  1.00  0.00     0.094 A 
ATOM     10  C   UNL     1     126.565 130.977 111.375  1.00  0.00     0.146 A 
ATOM     11  O   UNL     1     125.253 130.955 111.181  1.00  0.00    -0.452 OA
ENDROOT
BRANCH   1  12
ATOM     12  C   UNL     1     123.062 131.886 110.800  1.00  0.00     0.025 A 
ATOM     13  C   UNL     1     122.563 131.533 109.534  1.00  0.00     0.016 A 
ATOM     14  C   UNL     1     121.190 131.361 109.339  1.00  0.00     0.051 A 
ATOM     15  C   UNL     1     120.298 131.526 110.406  1.00  0.00     0.157 A 
ATOM     16  C   UNL     1     122.165 132.031 111.871  1.00  0.00     0.062 A 
ATOM     17  C   UNL     1     120.789 131.861 111.679  1.00  0.00     0.158 A 
BRANCH  15  18
ATOM     18  O   UNL     1     118.928 131.356 110.208  1.00  0.00    -0.504 OA
ATOM     19  H   UNL     1     118.562 130.946 109.356  1.00  0.00     0.293 HD
ENDBRANCH  15  18
BRANCH  17  20
ATOM     20  O   UNL     1     119.928 132.025 112.764  1.00  0.00    -0.504 OA
ATOM     21  H   UNL     1     120.207 131.798 113.711  1.00  0.00     0.293 HD
ENDBRANCH  17  20
ENDBRANCH   1  12
BRANCH   2  22
ATOM     22  O   UNL     1     124.338 134.472 111.084  1.00  0.00    -0.502 OA
ATOM     23  H   UNL     1     124.387 135.123 110.308  1.00  0.00     0.293 HD
ENDBRANCH   2  22
BRANCH   6  24
ATOM     24  O   UNL     1     129.513 133.297 111.533  1.00  0.00    -0.507 OA
ATOM     25  H   UNL     1     129.250 134.214 111.862  1.00  0.00     0.293 HD
ENDBRANCH   6  24
BRANCH   8  26
ATOM     26  O   UNL     1     129.259 128.519 111.934  1.00  0.00    -0.508 OA
ATOM     27  H   UNL     1     128.851 127.780 112.494  1.00  0.00     0.293 HD
ENDBRANCH   8  26
TORSDOF 6
ENDMDL
