MODEL 1
REMARK VINA RESULT:    -5.010      0.000      0.000
REMARK INTER + INTRA:          -6.472
REMARK INTER:                  -7.060
REMARK INTRA:                   0.588
REMARK UNBOUND:                 0.588
REMARK SMILES CC1=CCC(=C(C)C)C(=O)CC(C)=CCC1
REMARK SMILES IDX 12 1 14 2 13 3 15 4 16 5 2 6 1 7 3 8 11 10 9 11 10 12 5 13
REMARK SMILES IDX 6 14 7 15 8 16 4 17
REMARK H PARENT
REMARK Flexibility Score: 60.00
ROOT
ATOM      1  C   UNL     1       4.134  10.523  29.465  1.00  0.00    -0.070 C 
ATOM      2  C   UNL     1       3.354  10.153  30.515  1.00  0.00    -0.027 C 
ATOM      3  C   UNL     1       5.561  10.034  29.459  1.00  0.00     0.039 C 
ENDROOT
BRANCH   2   4
ATOM      4  C   UNL     1       1.880  10.441  30.674  1.00  0.00     0.032 C 
BRANCH   4   5
ATOM      5  C   UNL     1       1.539  11.147  31.993  1.00  0.00     0.034 C 
BRANCH   5   6
ATOM      6  C   UNL     1       1.091  12.571  31.724  1.00  0.00    -0.077 C 
ATOM      7  C   UNL     1      -0.385  12.871  31.735  1.00  0.00     0.039 C 
ATOM      8  C   UNL     1       1.944  13.571  31.397  1.00  0.00    -0.023 CG0
ATOM      9  G   UNL     1       3.451  13.466  31.349  1.00  0.00     0.000 G0
ENDBRANCH   5   6
ENDBRANCH   4   5
ENDBRANCH   2   4
BRANCH   1  10
ATOM     10  C   UNL     1       3.686  11.458  28.345  1.00  0.00     0.111 C 
BRANCH  10  11
ATOM     11  C   UNL     1       3.269  12.827  28.819  1.00  0.00     0.163 C 
ATOM     12  O   UNL     1       2.299  13.379  28.231  1.00  0.00    -0.294 OA
BRANCH  11  13
ATOM     13  C   UNL     1       3.994  13.565  29.906  1.00  0.00    -0.002 C 
ATOM     14  C   UNL     1       5.079  14.350  29.615  1.00  0.00    -0.069 C 
ATOM     15  C   UNL     1       5.682  14.392  28.228  1.00  0.00     0.039 C 
ATOM     16  C   UNL     1       5.767  15.180  30.677  1.00  0.00     0.039 C 
BRANCH  13  17
ATOM     17  C   UNL     1       3.466  13.471  31.337  1.00  0.00     0.066 CG0
ATOM     18  G   UNL     1       1.960  13.571  31.397  1.00  0.00     0.000 G0
ENDBRANCH  13  17
ENDBRANCH  11  13
ENDBRANCH  10  11
ENDBRANCH   1  10
TORSDOF 0
ENDMDL
MODEL 2
REMARK VINA RESULT:    -4.961      1.742      3.683
REMARK INTER + INTRA:          -6.403
REMARK INTER:                  -7.318
REMARK INTRA:                   0.914
REMARK UNBOUND:                 0.588
REMARK SMILES CC1=CCC(=C(C)C)C(=O)CC(C)=CCC1
REMARK SMILES IDX 12 1 14 2 13 3 15 4 16 5 2 6 1 7 3 8 11 10 9 11 10 12 5 13
REMARK SMILES IDX 6 14 7 15 8 16 4 17
REMARK H PARENT
REMARK Flexibility Score: 60.00
ROOT
ATOM      1  C   UNL     1       4.820  13.718  28.908  1.00  0.00    -0.070 C 
ATOM      2  C   UNL     1       4.858  14.447  30.054  1.00  0.00    -0.027 C 
ATOM      3  C   UNL     1       5.015  14.462  27.610  1.00  0.00     0.039 C 
ENDROOT
BRANCH   2   4
ATOM      4  C   UNL     1       4.789  13.899  31.461  1.00  0.00     0.032 C 
BRANCH   4   5
ATOM      5  C   UNL     1       3.443  13.239  31.789  1.00  0.00     0.034 C 
BRANCH   5   6
ATOM      6  C   UNL     1       3.646  11.771  32.111  1.00  0.00    -0.077 C 
ATOM      7  C   UNL     1       4.766  11.391  33.043  1.00  0.00     0.039 C 
ATOM      8  C   UNL     1       2.922  10.777  31.544  1.00  0.00    -0.023 CG0
ATOM      9  G   UNL     1       1.754  10.962  30.603  1.00  0.00     0.000 G0
ENDBRANCH   5   6
ENDBRANCH   4   5
ENDBRANCH   2   4
BRANCH   1  10
ATOM     10  C   UNL     1       4.517  12.224  28.845  1.00  0.00     0.111 C 
BRANCH  10  11
ATOM     11  C   UNL     1       3.073  11.903  28.551  1.00  0.00     0.163 C 
ATOM     12  O   UNL     1       2.783  11.534  27.381  1.00  0.00    -0.294 OA
BRANCH  11  13
ATOM     13  C   UNL     1       1.983  12.065  29.570  1.00  0.00    -0.002 C 
ATOM     14  C   UNL     1       1.170  13.167  29.555  1.00  0.00    -0.069 C 
ATOM     15  C   UNL     1       1.421  14.330  28.621  1.00  0.00     0.039 C 
ATOM     16  C   UNL     1       0.003  13.307  30.509  1.00  0.00     0.039 C 
BRANCH  13  17
ATOM     17  C   UNL     1       1.759  10.950  30.590  1.00  0.00     0.066 CG0
ATOM     18  G   UNL     1       2.935  10.787  31.525  1.00  0.00     0.000 G0
ENDBRANCH  13  17
ENDBRANCH  11  13
ENDBRANCH  10  11
ENDBRANCH   1  10
TORSDOF 0
ENDMDL
MODEL 3
REMARK VINA RESULT:    -4.513      1.933      4.669
REMARK INTER + INTRA:          -5.772
REMARK INTER:                  -6.027
REMARK INTRA:                   0.255
REMARK UNBOUND:                 0.588
REMARK SMILES CC1=CCC(=C(C)C)C(=O)CC(C)=CCC1
REMARK SMILES IDX 12 1 14 2 13 3 15 4 16 5 2 6 1 7 3 8 11 10 9 11 10 12 5 13
REMARK SMILES IDX 6 14 7 15 8 16 4 17
REMARK H PARENT
REMARK Flexibility Score: 60.00
ROOT
ATOM      1  C   UNL     1       4.498  13.593  30.732  1.00  0.00    -0.070 C 
ATOM      2  C   UNL     1       4.944  14.358  29.701  1.00  0.00    -0.027 C 
ATOM      3  C   UNL     1       4.152  14.302  32.018  1.00  0.00     0.039 C 
ENDROOT
BRANCH   2   4
ATOM      4  C   UNL     1       5.249  13.877  28.302  1.00  0.00     0.032 C 
BRANCH   4   5
ATOM      5  C   UNL     1       4.127  14.177  27.299  1.00  0.00     0.034 C 
BRANCH   5   6
ATOM      6  C   UNL     1       3.376  12.904  26.958  1.00  0.00    -0.077 C 
ATOM      7  C   UNL     1       3.860  12.078  25.794  1.00  0.00     0.039 C 
ATOM      8  C   UNL     1       2.247  12.511  27.594  1.00  0.00    -0.023 CG0
ATOM      9  G   UNL     1       1.621  13.197  28.786  1.00  0.00     0.000 G0
ENDBRANCH   5   6
ENDBRANCH   4   5
ENDBRANCH   2   4
BRANCH   1  10
ATOM     10  C   UNL     1       4.401  12.070  30.698  1.00  0.00     0.111 C 
BRANCH  10  11
ATOM     11  C   UNL     1       3.081  11.552  30.182  1.00  0.00     0.163 C 
ATOM     12  O   UNL     1       3.040  10.357  29.781  1.00  0.00    -0.294 OA
BRANCH  11  13
ATOM     13  C   UNL     1       1.857  12.413  30.075  1.00  0.00    -0.002 C 
ATOM     14  C   UNL     1       1.002  12.549  31.136  1.00  0.00    -0.069 C 
ATOM     15  C   UNL     1       1.165  11.732  32.399  1.00  0.00     0.039 C 
ATOM     16  C   UNL     1      -0.185  13.486  31.086  1.00  0.00     0.039 C 
BRANCH  13  17
ATOM     17  C   UNL     1       1.612  13.183  28.778  1.00  0.00     0.066 CG0
ATOM     18  G   UNL     1       2.257  12.514  27.587  1.00  0.00     0.000 G0
ENDBRANCH  13  17
ENDBRANCH  11  13
ENDBRANCH  10  11
ENDBRANCH   1  10
TORSDOF 0
ENDMDL
MODEL 4
REMARK VINA RESULT:    -4.492      1.607      3.647
REMARK INTER + INTRA:          -5.742
REMARK INTER:                  -6.173
REMARK INTRA:                   0.431
REMARK UNBOUND:                 0.588
REMARK SMILES CC1=CCC(=C(C)C)C(=O)CC(C)=CCC1
REMARK SMILES IDX 12 1 14 2 13 3 15 4 16 5 2 6 1 7 3 8 11 10 9 11 10 12 5 13
REMARK SMILES IDX 6 14 7 15 8 16 4 17
REMARK H PARENT
REMARK Flexibility Score: 60.00
ROOT
ATOM      1  C   UNL     1       4.023  10.595  29.214  1.00  0.00    -0.070 C 
ATOM      2  C   UNL     1       4.130  11.476  28.185  1.00  0.00    -0.027 C 
ATOM      3  C   UNL     1       5.279   9.876  29.641  1.00  0.00     0.039 C 
ENDROOT
BRANCH   2   4
ATOM      4  C   UNL     1       3.033  12.374  27.663  1.00  0.00     0.032 C 
BRANCH   4   5
ATOM      5  C   UNL     1       2.957  13.723  28.391  1.00  0.00     0.034 C 
BRANCH   5   6
ATOM      6  C   UNL     1       4.266  14.009  29.101  1.00  0.00    -0.077 C 
ATOM      7  C   UNL     1       5.466  14.379  28.268  1.00  0.00     0.039 C 
ATOM      8  C   UNL     1       4.434  13.875  30.438  1.00  0.00    -0.023 CG0
ATOM      9  G   UNL     1       3.350  13.529  31.433  1.00  0.00     0.000 G0
ENDBRANCH   5   6
ENDBRANCH   4   5
ENDBRANCH   2   4
BRANCH   1  10
ATOM     10  C   UNL     1       2.712  10.232  29.906  1.00  0.00     0.111 C 
BRANCH  10  11
ATOM     11  C   UNL     1       2.291  11.211  30.974  1.00  0.00     0.163 C 
ATOM     12  O   UNL     1       1.055  11.362  31.173  1.00  0.00    -0.294 OA
BRANCH  11  13
ATOM     13  C   UNL     1       3.274  12.038  31.749  1.00  0.00    -0.002 C 
ATOM     14  C   UNL     1       4.112  11.456  32.663  1.00  0.00    -0.069 C 
ATOM     15  C   UNL     1       3.987   9.996  33.041  1.00  0.00     0.039 C 
ATOM     16  C   UNL     1       5.177  12.252  33.386  1.00  0.00     0.039 C 
BRANCH  13  17
ATOM     17  C   UNL     1       3.364  13.536  31.459  1.00  0.00     0.066 CG0
ATOM     18  G   UNL     1       4.421  13.854  30.427  1.00  0.00     0.000 G0
ENDBRANCH  13  17
ENDBRANCH  11  13
ENDBRANCH  10  11
ENDBRANCH   1  10
TORSDOF 0
ENDMDL
MODEL 5
REMARK VINA RESULT:    -4.481      1.649      2.804
REMARK INTER + INTRA:          -5.726
REMARK INTER:                  -6.461
REMARK INTRA:                   0.735
REMARK UNBOUND:                 0.588
REMARK SMILES CC1=CCC(=C(C)C)C(=O)CC(C)=CCC1
REMARK SMILES IDX 12 1 14 2 13 3 15 4 16 5 2 6 1 7 3 8 11 10 9 11 10 12 5 13
REMARK SMILES IDX 6 14 7 15 8 16 4 17
REMARK H PARENT
REMARK Flexibility Score: 60.00
ROOT
ATOM      1  C   UNL     1       1.451  13.245  28.983  1.00  0.00    -0.070 C 
ATOM      2  C   UNL     1       1.076  12.436  30.008  1.00  0.00    -0.027 C 
ATOM      3  C   UNL     1       0.606  14.467  28.722  1.00  0.00     0.039 C 
ENDROOT
BRANCH   2   4
ATOM      4  C   UNL     1       1.827  11.225  30.508  1.00  0.00     0.032 C 
BRANCH   4   5
ATOM      5  C   UNL     1       2.173  11.299  32.001  1.00  0.00     0.034 C 
BRANCH   5   6
ATOM      6  C   UNL     1       3.678  11.271  32.191  1.00  0.00    -0.077 C 
ATOM      7  C   UNL     1       4.294  10.062  32.845  1.00  0.00     0.039 C 
ATOM      8  C   UNL     1       4.488  12.309  31.873  1.00  0.00    -0.023 CG0
ATOM      9  G   UNL     1       4.058  13.591  31.200  1.00  0.00     0.000 G0
ENDBRANCH   5   6
ENDBRANCH   4   5
ENDBRANCH   2   4
BRANCH   1  10
ATOM     10  C   UNL     1       2.614  12.957  28.037  1.00  0.00     0.111 C 
BRANCH  10  11
ATOM     11  C   UNL     1       3.921  12.683  28.739  1.00  0.00     0.163 C 
ATOM     12  O   UNL     1       4.483  11.576  28.516  1.00  0.00    -0.294 OA
BRANCH  11  13
ATOM     13  C   UNL     1       4.530  13.640  29.721  1.00  0.00    -0.002 C 
ATOM     14  C   UNL     1       5.443  14.575  29.312  1.00  0.00    -0.069 C 
ATOM     15  C   UNL     1       5.988  14.593  27.901  1.00  0.00     0.039 C 
ATOM     16  C   UNL     1       5.998  15.613  30.264  1.00  0.00     0.039 C 
BRANCH  13  17
ATOM     17  C   UNL     1       4.071  13.589  31.178  1.00  0.00     0.066 CG0
ATOM     18  G   UNL     1       4.480  12.305  31.861  1.00  0.00     0.000 G0
ENDBRANCH  13  17
ENDBRANCH  11  13
ENDBRANCH  10  11
ENDBRANCH   1  10
TORSDOF 0
ENDMDL
MODEL 6
REMARK VINA RESULT:    -4.330      2.056      4.555
REMARK INTER + INTRA:          -5.514
REMARK INTER:                  -6.240
REMARK INTRA:                   0.726
REMARK UNBOUND:                 0.588
REMARK SMILES CC1=CCC(=C(C)C)C(=O)CC(C)=CCC1
REMARK SMILES IDX 12 1 14 2 13 3 15 4 16 5 2 6 1 7 3 8 11 10 9 11 10 12 5 13
REMARK SMILES IDX 6 14 7 15 8 16 4 17
REMARK H PARENT
REMARK Flexibility Score: 60.00
ROOT
ATOM      1  C   UNL     1       5.822  14.829  28.593  1.00  0.00    -0.070 C 
ATOM      2  C   UNL     1       5.469  15.111  27.311  1.00  0.00    -0.027 C 
ATOM      3  C   UNL     1       6.728  15.812  29.292  1.00  0.00     0.039 C 
ENDROOT
BRANCH   2   4
ATOM      4  C   UNL     1       4.498  14.326  26.461  1.00  0.00     0.032 C 
BRANCH   4   5
ATOM      5  C   UNL     1       3.124  14.145  27.121  1.00  0.00     0.034 C 
BRANCH   5   6
ATOM      6  C   UNL     1       2.822  12.670  27.304  1.00  0.00    -0.077 C 
ATOM      7  C   UNL     1       3.019  11.748  26.128  1.00  0.00     0.039 C 
ATOM      8  C   UNL     1       2.311  12.150  28.445  1.00  0.00    -0.023 CG0
ATOM      9  G   UNL     1       2.061  12.910  29.726  1.00  0.00     0.000 G0
ENDBRANCH   5   6
ENDBRANCH   4   5
ENDBRANCH   2   4
BRANCH   1  10
ATOM     10  C   UNL     1       5.429  13.555  29.336  1.00  0.00     0.111 C 
BRANCH  10  11
ATOM     11  C   UNL     1       4.425  13.775  30.440  1.00  0.00     0.163 C 
ATOM     12  O   UNL     1       4.613  14.753  31.215  1.00  0.00    -0.294 OA
BRANCH  11  13
ATOM     13  C   UNL     1       3.266  12.852  30.678  1.00  0.00    -0.002 C 
ATOM     14  C   UNL     1       3.258  12.003  31.754  1.00  0.00    -0.069 C 
ATOM     15  C   UNL     1       4.462  11.850  32.656  1.00  0.00     0.039 C 
ATOM     16  C   UNL     1       2.061  11.133  32.070  1.00  0.00     0.039 C 
BRANCH  13  17
ATOM     17  C   UNL     1       2.069  12.915  29.731  1.00  0.00     0.066 CG0
ATOM     18  G   UNL     1       2.314  12.149  28.451  1.00  0.00     0.000 G0
ENDBRANCH  13  17
ENDBRANCH  11  13
ENDBRANCH  10  11
ENDBRANCH   1  10
TORSDOF 0
ENDMDL
MODEL 7
REMARK VINA RESULT:    -4.327      2.022      3.072
REMARK INTER + INTRA:          -5.509
REMARK INTER:                  -6.213
REMARK INTRA:                   0.704
REMARK UNBOUND:                 0.588
REMARK SMILES CC1=CCC(=C(C)C)C(=O)CC(C)=CCC1
REMARK SMILES IDX 12 1 14 2 13 3 15 4 16 5 2 6 1 7 3 8 11 10 9 11 10 12 5 13
REMARK SMILES IDX 6 14 7 15 8 16 4 17
REMARK H PARENT
REMARK Flexibility Score: 60.00
ROOT
ATOM      1  C   UNL     1       3.687  13.205  31.488  1.00  0.00    -0.070 C 
ATOM      2  C   UNL     1       2.397  13.558  31.729  1.00  0.00    -0.027 C 
ATOM      3  C   UNL     1       4.722  14.302  31.531  1.00  0.00     0.039 C 
ENDROOT
BRANCH   2   4
ATOM      4  C   UNL     1       1.221  12.616  31.837  1.00  0.00     0.032 C 
BRANCH   4   5
ATOM      5  C   UNL     1       0.725  12.107  30.477  1.00  0.00     0.034 C 
BRANCH   5   6
ATOM      6  C   UNL     1       0.730  13.235  29.463  1.00  0.00    -0.077 C 
ATOM      7  C   UNL     1      -0.243  14.369  29.651  1.00  0.00     0.039 C 
ATOM      8  C   UNL     1       1.509  13.238  28.355  1.00  0.00    -0.023 CG0
ATOM      9  G   UNL     1       2.550  12.200  28.005  1.00  0.00     0.000 G0
ENDBRANCH   5   6
ENDBRANCH   4   5
ENDBRANCH   2   4
BRANCH   1  10
ATOM     10  C   UNL     1       4.140  11.800  31.104  1.00  0.00     0.111 C 
BRANCH  10  11
ATOM     11  C   UNL     1       4.490  11.646  29.645  1.00  0.00     0.163 C 
ATOM     12  O   UNL     1       5.333  10.760  29.336  1.00  0.00    -0.294 OA
BRANCH  11  13
ATOM     13  C   UNL     1       3.926  12.538  28.577  1.00  0.00    -0.002 C 
ATOM     14  C   UNL     1       4.650  13.596  28.095  1.00  0.00    -0.069 C 
ATOM     15  C   UNL     1       5.970  14.004  28.710  1.00  0.00     0.039 C 
ATOM     16  C   UNL     1       4.144  14.450  26.953  1.00  0.00     0.039 C 
BRANCH  13  17
ATOM     17  C   UNL     1       2.551  12.209  27.996  1.00  0.00     0.066 CG0
ATOM     18  G   UNL     1       1.516  13.248  28.358  1.00  0.00     0.000 G0
ENDBRANCH  13  17
ENDBRANCH  11  13
ENDBRANCH  10  11
ENDBRANCH   1  10
TORSDOF 0
ENDMDL
MODEL 8
REMARK VINA RESULT:    -4.272      2.171      4.712
REMARK INTER + INTRA:          -5.432
REMARK INTER:                  -6.666
REMARK INTRA:                   1.234
REMARK UNBOUND:                 0.588
REMARK SMILES CC1=CCC(=C(C)C)C(=O)CC(C)=CCC1
REMARK SMILES IDX 12 1 14 2 13 3 15 4 16 5 2 6 1 7 3 8 11 10 9 11 10 12 5 13
REMARK SMILES IDX 6 14 7 15 8 16 4 17
REMARK H PARENT
REMARK Flexibility Score: 60.00
ROOT
ATOM      1  C   UNL     1       4.597  13.882  31.333  1.00  0.00    -0.070 C 
ATOM      2  C   UNL     1       5.228  14.750  30.499  1.00  0.00    -0.027 C 
ATOM      3  C   UNL     1       4.144  14.416  32.670  1.00  0.00     0.039 C 
ENDROOT
BRANCH   2   4
ATOM      4  C   UNL     1       5.672  14.462  29.084  1.00  0.00     0.032 C 
BRANCH   4   5
ATOM      5  C   UNL     1       5.078  13.167  28.514  1.00  0.00     0.034 C 
BRANCH   5   6
ATOM      6  C   UNL     1       3.986  13.489  27.513  1.00  0.00    -0.077 C 
ATOM      7  C   UNL     1       4.252  14.554  26.481  1.00  0.00     0.039 C 
ATOM      8  C   UNL     1       2.755  12.924  27.545  1.00  0.00    -0.023 CG0
ATOM      9  G   UNL     1       2.309  11.833  28.491  1.00  0.00     0.000 G0
ENDBRANCH   5   6
ENDBRANCH   4   5
ENDBRANCH   2   4
BRANCH   1  10
ATOM     10  C   UNL     1       4.389  12.399  31.039  1.00  0.00     0.111 C 
BRANCH  10  11
ATOM     11  C   UNL     1       2.940  11.978  31.011  1.00  0.00     0.163 C 
ATOM     12  O   UNL     1       2.529  11.237  31.946  1.00  0.00    -0.294 OA
BRANCH  11  13
ATOM     13  C   UNL     1       2.008  12.354  29.898  1.00  0.00    -0.002 C 
ATOM     14  C   UNL     1       0.950  13.195  30.124  1.00  0.00    -0.069 C 
ATOM     15  C   UNL     1       0.587  13.660  31.517  1.00  0.00     0.039 C 
ATOM     16  C   UNL     1       0.054  13.665  28.999  1.00  0.00     0.039 C 
BRANCH  13  17
ATOM     17  C   UNL     1       2.292  11.826  28.492  1.00  0.00     0.066 CG0
ATOM     18  G   UNL     1       2.757  12.918  27.556  1.00  0.00     0.000 G0
ENDBRANCH  13  17
ENDBRANCH  11  13
ENDBRANCH  10  11
ENDBRANCH   1  10
TORSDOF 0
ENDMDL
MODEL 9
REMARK VINA RESULT:    -4.225      1.829      3.211
REMARK INTER + INTRA:          -5.366
REMARK INTER:                  -6.961
REMARK INTRA:                   1.595
REMARK UNBOUND:                 0.588
REMARK SMILES CC1=CCC(=C(C)C)C(=O)CC(C)=CCC1
REMARK SMILES IDX 12 1 14 2 13 3 15 4 16 5 2 6 1 7 3 8 11 10 9 11 10 12 5 13
REMARK SMILES IDX 6 14 7 15 8 16 4 17
REMARK H PARENT
REMARK Flexibility Score: 60.00
ROOT
ATOM      1  C   UNL     1       4.397  14.026  31.942  1.00  0.00    -0.070 C 
ATOM      2  C   UNL     1       4.334  12.796  32.516  1.00  0.00    -0.027 C 
ATOM      3  C   UNL     1       5.075  15.121  32.728  1.00  0.00     0.039 C 
ENDROOT
BRANCH   2   4
ATOM      4  C   UNL     1       3.796  11.540  31.872  1.00  0.00     0.032 C 
BRANCH   4   5
ATOM      5  C   UNL     1       2.335  11.248  32.240  1.00  0.00     0.034 C 
BRANCH   5   6
ATOM      6  C   UNL     1       1.402  11.936  31.261  1.00  0.00    -0.077 C 
ATOM      7  C   UNL     1       0.098  12.482  31.780  1.00  0.00     0.039 C 
ATOM      8  C   UNL     1       1.645  12.016  29.931  1.00  0.00    -0.023 CG0
ATOM      9  G   UNL     1       2.898  11.542  29.233  1.00  0.00     0.000 G0
ENDBRANCH   5   6
ENDBRANCH   4   5
ENDBRANCH   2   4
BRANCH   1  10
ATOM     10  C   UNL     1       3.763  14.387  30.601  1.00  0.00     0.111 C 
BRANCH  10  11
ATOM     11  C   UNL     1       4.394  13.694  29.419  1.00  0.00     0.163 C 
ATOM     12  O   UNL     1       5.585  13.997  29.132  1.00  0.00    -0.294 OA
BRANCH  11  13
ATOM     13  C   UNL     1       3.646  12.723  28.554  1.00  0.00    -0.002 C 
ATOM     14  C   UNL     1       3.666  12.842  27.189  1.00  0.00    -0.069 C 
ATOM     15  C   UNL     1       4.308  14.027  26.503  1.00  0.00     0.039 C 
ATOM     16  C   UNL     1       3.001  11.820  26.293  1.00  0.00     0.039 C 
BRANCH  13  17
ATOM     17  C   UNL     1       2.908  11.563  29.221  1.00  0.00     0.066 CG0
ATOM     18  G   UNL     1       1.650  12.016  29.924  1.00  0.00     0.000 G0
ENDBRANCH  13  17
ENDBRANCH  11  13
ENDBRANCH  10  11
ENDBRANCH   1  10
TORSDOF 0
ENDMDL
