MODEL 1
REMARK VINA RESULT:     0.100      0.000      0.000
REMARK INTER + INTRA:          -0.177
REMARK INTER:                   0.118
REMARK INTRA:                  -0.295
REMARK UNBOUND:                -0.295
REMARK SMILES O=c1cc(-c2ccc(O)c(O)c2)oc2cc(O)cc(O)c12
REMARK SMILES IDX 4 1 3 2 2 3 1 4 21 5 19 6 18 7 16 8 15 9 14 10 13 11 5 12
REMARK SMILES IDX 6 13 7 14 8 15 12 16 10 17 9 18 11 20 20 22 17 24
REMARK H PARENT 9 19 11 21 20 23 17 25
REMARK Flexibility Score: inf
ROOT
ATOM      1  C   UNL     1      19.745  -4.552  35.062  1.00  0.00     0.138 A 
ATOM      2  C   UNL     1      18.433  -5.044  35.073  1.00  0.00     0.100 A 
ATOM      3  C   UNL     1      18.074  -6.071  34.200  1.00  0.00     0.197 A 
ATOM      4  O   UNL     1      16.907  -6.534  34.276  1.00  0.00    -0.289 OA
ATOM      5  C   UNL     1      19.026  -6.584  33.288  1.00  0.00     0.107 A 
ATOM      6  C   UNL     1      18.762  -7.603  32.324  1.00  0.00     0.134 A 
ATOM      7  C   UNL     1      19.814  -8.113  31.553  1.00  0.00     0.093 A 
ATOM      8  C   UNL     1      21.107  -7.602  31.668  1.00  0.00     0.123 A 
ATOM      9  C   UNL     1      21.366  -6.569  32.570  1.00  0.00     0.094 A 
ATOM     10  C   UNL     1      20.344  -6.062  33.377  1.00  0.00     0.146 A 
ATOM     11  O   UNL     1      20.636  -5.088  34.234  1.00  0.00    -0.456 OA
ENDROOT
BRANCH   1  12
ATOM     12  C   UNL     1      20.181  -3.459  35.968  1.00  0.00     0.021 A 
ATOM     13  C   UNL     1      21.549  -3.156  36.079  1.00  0.00     0.016 A 
ATOM     14  C   UNL     1      21.984  -2.128  36.919  1.00  0.00     0.051 A 
ATOM     15  C   UNL     1      21.058  -1.379  37.657  1.00  0.00     0.157 A 
ATOM     16  C   UNL     1      19.254  -2.693  36.704  1.00  0.00     0.062 A 
ATOM     17  C   UNL     1      19.692  -1.661  37.546  1.00  0.00     0.158 A 
BRANCH  15  18
ATOM     18  O   UNL     1      21.488  -0.355  38.497  1.00  0.00    -0.504 OA
ATOM     19  H   UNL     1      20.965   0.508  38.593  1.00  0.00     0.293 HD
ENDBRANCH  15  18
BRANCH  17  20
ATOM     20  O   UNL     1      18.772  -0.907  38.274  1.00  0.00    -0.504 OA
ATOM     21  H   UNL     1      17.776  -0.970  38.097  1.00  0.00     0.293 HD
ENDBRANCH  17  20
ENDBRANCH   1  12
BRANCH   6  22
ATOM     22  O   UNL     1      17.491  -8.125  32.067  1.00  0.00    -0.507 OA
ATOM     23  H   UNL     1      17.297  -8.883  31.432  1.00  0.00     0.293 HD
ENDBRANCH   6  22
BRANCH   8  24
ATOM     24  O   UNL     1      22.125  -8.124  30.875  1.00  0.00    -0.508 OA
ATOM     25  H   UNL     1      23.025  -7.665  30.798  1.00  0.00     0.293 HD
ENDBRANCH   8  24
TORSDOF 5
ENDMDL
MODEL 2
REMARK VINA RESULT:     2.558      1.220      2.966
REMARK INTER + INTRA:           2.711
REMARK INTER:                   3.008
REMARK INTRA:                  -0.297
REMARK UNBOUND:                -0.295
REMARK SMILES O=c1cc(-c2ccc(O)c(O)c2)oc2cc(O)cc(O)c12
REMARK SMILES IDX 4 1 3 2 2 3 1 4 21 5 19 6 18 7 16 8 15 9 14 10 13 11 5 12
REMARK SMILES IDX 6 13 7 14 8 15 12 16 10 17 9 18 11 20 20 22 17 24
REMARK H PARENT 9 19 11 21 20 23 17 25
REMARK Flexibility Score: inf
ROOT
ATOM      1  C   UNL     1      19.679  -4.294  35.213  1.00  0.00     0.138 A 
ATOM      2  C   UNL     1      20.924  -4.661  34.683  1.00  0.00     0.100 A 
ATOM      3  C   UNL     1      20.999  -5.703  33.759  1.00  0.00     0.197 A 
ATOM      4  O   UNL     1      22.121  -5.969  33.254  1.00  0.00    -0.289 OA
ATOM      5  C   UNL     1      19.826  -6.401  33.387  1.00  0.00     0.107 A 
ATOM      6  C   UNL     1      19.789  -7.506  32.485  1.00  0.00     0.134 A 
ATOM      7  C   UNL     1      18.553  -8.043  32.103  1.00  0.00     0.093 A 
ATOM      8  C   UNL     1      17.359  -7.556  32.635  1.00  0.00     0.123 A 
ATOM      9  C   UNL     1      17.387  -6.511  33.559  1.00  0.00     0.094 A 
ATOM     10  C   UNL     1      18.602  -5.932  33.935  1.00  0.00     0.146 A 
ATOM     11  O   UNL     1      18.585  -4.928  34.806  1.00  0.00    -0.456 OA
ENDROOT
BRANCH   1  12
ATOM     12  C   UNL     1      19.541  -3.193  36.200  1.00  0.00     0.021 A 
ATOM     13  C   UNL     1      18.271  -2.876  36.710  1.00  0.00     0.016 A 
ATOM     14  C   UNL     1      18.114  -1.851  37.646  1.00  0.00     0.051 A 
ATOM     15  C   UNL     1      19.228  -1.130  38.096  1.00  0.00     0.157 A 
ATOM     16  C   UNL     1      20.659  -2.473  36.668  1.00  0.00     0.062 A 
ATOM     17  C   UNL     1      20.502  -1.445  37.608  1.00  0.00     0.158 A 
BRANCH  15  18
ATOM     18  O   UNL     1      19.077  -0.106  39.028  1.00  0.00    -0.504 OA
ATOM     19  H   UNL     1      19.399   0.836  38.838  1.00  0.00     0.293 HD
ENDBRANCH  15  18
BRANCH  17  20
ATOM     20  O   UNL     1      21.610  -0.733  38.066  1.00  0.00    -0.504 OA
ATOM     21  H   UNL     1      22.477  -1.198  38.310  1.00  0.00     0.293 HD
ENDBRANCH  17  20
ENDBRANCH   1  12
BRANCH   6  22
ATOM     22  O   UNL     1      20.926  -8.125  31.960  1.00  0.00    -0.507 OA
ATOM     23  H   UNL     1      20.963  -9.076  31.626  1.00  0.00     0.293 HD
ENDBRANCH   6  22
BRANCH   8  24
ATOM     24  O   UNL     1      16.150  -8.125  32.243  1.00  0.00    -0.508 OA
ATOM     25  H   UNL     1      16.010  -9.128  32.244  1.00  0.00     0.293 HD
ENDBRANCH   8  24
TORSDOF 5
ENDMDL
