MODEL 1
REMARK VINA RESULT:    -3.542      0.000      0.000
REMARK INTER + INTRA:          -5.430
REMARK INTER:                  -4.785
REMARK INTRA:                  -0.645
REMARK UNBOUND:                -0.645
REMARK SMILES CCCCCCCC(=O)[O-]
REMARK SMILES IDX 5 1 6 2 7 3 8 4 9 5 10 6 4 7 3 8 2 9 1 10
REMARK H PARENT
REMARK Flexibility Score: inf
ROOT
ATOM      1  C   UNL     1      54.221  -2.822  31.722  1.00  0.00     0.000 C 
ENDROOT
BRANCH   1   2
ATOM      2  C   UNL     1      54.524  -1.690  30.727  1.00  0.00     0.006 C 
BRANCH   2   3
ATOM      3  C   UNL     1      55.470  -0.637  31.317  1.00  0.00     0.053 C 
BRANCH   3   4
ATOM      4  C   UNL     1      56.495  -0.187  30.320  1.00  0.00     0.041 C 
ATOM      5  O   UNL     1      57.015   0.955  30.418  1.00  0.00    -0.550 OA
ATOM      6  O   UNL     1      56.849  -1.016  29.263  1.00  0.00    -0.550 OA
ENDBRANCH   3   4
ENDBRANCH   2   3
ENDBRANCH   1   2
BRANCH   1   7
ATOM      7  C   UNL     1      55.460  -3.695  31.953  1.00  0.00     0.000 C 
BRANCH   7   8
ATOM      8  C   UNL     1      55.938  -4.333  30.644  1.00  0.00    -0.000 C 
BRANCH   8   9
ATOM      9  C   UNL     1      57.461  -4.235  30.507  1.00  0.00    -0.003 C 
ATOM     10  C   UNL     1      58.081  -3.542  31.717  1.00  0.00     0.004 C 
ENDBRANCH   8   9
ENDBRANCH   7   8
ENDBRANCH   1   7
TORSDOF 6
ENDMDL
MODEL 2
REMARK VINA RESULT:    -3.526      1.786      2.223
REMARK INTER + INTRA:          -5.407
REMARK INTER:                  -4.978
REMARK INTRA:                  -0.429
REMARK UNBOUND:                -0.645
REMARK SMILES CCCCCCCC(=O)[O-]
REMARK SMILES IDX 5 1 6 2 7 3 8 4 9 5 10 6 4 7 3 8 2 9 1 10
REMARK H PARENT
REMARK Flexibility Score: inf
ROOT
ATOM      1  C   UNL     1      54.910  -4.078  31.761  1.00  0.00     0.000 C 
ENDROOT
BRANCH   1   2
ATOM      2  C   UNL     1      54.120  -2.777  31.963  1.00  0.00     0.006 C 
BRANCH   2   3
ATOM      3  C   UNL     1      54.722  -1.604  31.177  1.00  0.00     0.053 C 
BRANCH   3   4
ATOM      4  C   UNL     1      54.235  -1.574  29.760  1.00  0.00     0.041 C 
ATOM      5  O   UNL     1      53.047  -1.243  29.505  1.00  0.00    -0.550 OA
ATOM      6  O   UNL     1      55.083  -1.946  28.725  1.00  0.00    -0.550 OA
ENDBRANCH   3   4
ENDBRANCH   2   3
ENDBRANCH   1   2
BRANCH   1   7
ATOM      7  C   UNL     1      56.420  -3.817  31.807  1.00  0.00     0.000 C 
BRANCH   7   8
ATOM      8  C   UNL     1      57.121  -4.408  30.579  1.00  0.00    -0.000 C 
BRANCH   8   9
ATOM      9  C   UNL     1      58.051  -3.380  29.927  1.00  0.00    -0.003 C 
ATOM     10  C   UNL     1      59.436  -3.969  29.676  1.00  0.00     0.004 C 
ENDBRANCH   8   9
ENDBRANCH   7   8
ENDBRANCH   1   7
TORSDOF 6
ENDMDL
MODEL 3
REMARK VINA RESULT:    -3.480      2.013      3.917
REMARK INTER + INTRA:          -5.346
REMARK INTER:                  -4.845
REMARK INTRA:                  -0.501
REMARK UNBOUND:                -0.645
REMARK SMILES CCCCCCCC(=O)[O-]
REMARK SMILES IDX 5 1 6 2 7 3 8 4 9 5 10 6 4 7 3 8 2 9 1 10
REMARK H PARENT
REMARK Flexibility Score: inf
ROOT
ATOM      1  C   UNL     1      57.555  -2.355  30.306  1.00  0.00     0.000 C 
ENDROOT
BRANCH   1   2
ATOM      2  C   UNL     1      56.172  -3.010  30.436  1.00  0.00     0.006 C 
BRANCH   2   3
ATOM      3  C   UNL     1      55.077  -1.991  30.779  1.00  0.00     0.053 C 
BRANCH   3   4
ATOM      4  C   UNL     1      54.347  -1.525  29.556  1.00  0.00     0.041 C 
ATOM      5  O   UNL     1      54.948  -1.441  28.453  1.00  0.00    -0.550 OA
ATOM      6  O   UNL     1      53.012  -1.150  29.642  1.00  0.00    -0.550 OA
ENDBRANCH   3   4
ENDBRANCH   2   3
ENDBRANCH   1   2
BRANCH   1   7
ATOM      7  C   UNL     1      57.720  -1.214  31.316  1.00  0.00     0.000 C 
BRANCH   7   8
ATOM      8  C   UNL     1      58.286   0.042  30.642  1.00  0.00    -0.000 C 
BRANCH   8   9
ATOM      9  C   UNL     1      57.171   1.037  30.305  1.00  0.00    -0.003 C 
ATOM     10  C   UNL     1      57.144   1.352  28.813  1.00  0.00     0.004 C 
ENDBRANCH   8   9
ENDBRANCH   7   8
ENDBRANCH   1   7
TORSDOF 6
ENDMDL
MODEL 4
REMARK VINA RESULT:    -3.460      1.812      2.802
REMARK INTER + INTRA:          -5.319
REMARK INTER:                  -4.740
REMARK INTRA:                  -0.578
REMARK UNBOUND:                -0.645
REMARK SMILES CCCCCCCC(=O)[O-]
REMARK SMILES IDX 5 1 6 2 7 3 8 4 9 5 10 6 4 7 3 8 2 9 1 10
REMARK H PARENT
REMARK Flexibility Score: inf
ROOT
ATOM      1  C   UNL     1      57.472  -2.264  29.883  1.00  0.00     0.000 C 
ENDROOT
BRANCH   1   2
ATOM      2  C   UNL     1      56.828  -0.873  29.784  1.00  0.00     0.006 C 
BRANCH   2   3
ATOM      3  C   UNL     1      55.741  -0.660  30.845  1.00  0.00     0.053 C 
BRANCH   3   4
ATOM      4  C   UNL     1      54.450  -1.318  30.461  1.00  0.00     0.041 C 
ATOM      5  O   UNL     1      53.761  -1.915  31.330  1.00  0.00    -0.550 OA
ATOM      6  O   UNL     1      54.027  -1.302  29.139  1.00  0.00    -0.550 OA
ENDBRANCH   3   4
ENDBRANCH   2   3
ENDBRANCH   1   2
BRANCH   1   7
ATOM      7  C   UNL     1      58.012  -2.520  31.295  1.00  0.00     0.000 C 
BRANCH   7   8
ATOM      8  C   UNL     1      57.507  -3.859  31.844  1.00  0.00    -0.000 C 
BRANCH   8   9
ATOM      9  C   UNL     1      56.403  -4.439  30.954  1.00  0.00    -0.003 C 
ATOM     10  C   UNL     1      55.241  -4.968  31.789  1.00  0.00     0.004 C 
ENDBRANCH   8   9
ENDBRANCH   7   8
ENDBRANCH   1   7
TORSDOF 6
ENDMDL
MODEL 5
REMARK VINA RESULT:    -3.434      2.149      4.496
REMARK INTER + INTRA:          -5.284
REMARK INTER:                  -4.699
REMARK INTRA:                  -0.584
REMARK UNBOUND:                -0.645
REMARK SMILES CCCCCCCC(=O)[O-]
REMARK SMILES IDX 5 1 6 2 7 3 8 4 9 5 10 6 4 7 3 8 2 9 1 10
REMARK H PARENT
REMARK Flexibility Score: inf
ROOT
ATOM      1  C   UNL     1      59.097  -2.026  29.551  1.00  0.00     0.000 C 
ENDROOT
BRANCH   1   2
ATOM      2  C   UNL     1      58.348  -2.570  30.777  1.00  0.00     0.006 C 
BRANCH   2   3
ATOM      3  C   UNL     1      57.225  -3.540  30.388  1.00  0.00     0.053 C 
BRANCH   3   4
ATOM      4  C   UNL     1      56.010  -2.816  29.894  1.00  0.00     0.041 C 
ATOM      5  O   UNL     1      55.703  -2.853  28.673  1.00  0.00    -0.550 OA
ATOM      6  O   UNL     1      55.236  -2.072  30.776  1.00  0.00    -0.550 OA
ENDBRANCH   3   4
ENDBRANCH   2   3
ENDBRANCH   1   2
BRANCH   1   7
ATOM      7  C   UNL     1      59.035  -0.495  29.505  1.00  0.00     0.000 C 
BRANCH   7   8
ATOM      8  C   UNL     1      58.299   0.065  30.727  1.00  0.00    -0.000 C 
BRANCH   8   9
ATOM      9  C   UNL     1      57.114   0.940  30.304  1.00  0.00    -0.003 C 
ATOM     10  C   UNL     1      57.111   1.174  28.796  1.00  0.00     0.004 C 
ENDBRANCH   8   9
ENDBRANCH   7   8
ENDBRANCH   1   7
TORSDOF 6
ENDMDL
MODEL 6
REMARK VINA RESULT:    -3.434      2.276      4.147
REMARK INTER + INTRA:          -5.284
REMARK INTER:                  -4.689
REMARK INTRA:                  -0.594
REMARK UNBOUND:                -0.645
REMARK SMILES CCCCCCCC(=O)[O-]
REMARK SMILES IDX 5 1 6 2 7 3 8 4 9 5 10 6 4 7 3 8 2 9 1 10
REMARK H PARENT
REMARK Flexibility Score: inf
ROOT
ATOM      1  C   UNL     1      55.564  -0.511  28.333  1.00  0.00     0.000 C 
ENDROOT
BRANCH   1   2
ATOM      2  C   UNL     1      55.239  -1.540  29.427  1.00  0.00     0.006 C 
BRANCH   2   3
ATOM      3  C   UNL     1      55.928  -2.888  29.180  1.00  0.00     0.053 C 
BRANCH   3   4
ATOM      4  C   UNL     1      56.220  -3.608  30.461  1.00  0.00     0.041 C 
ATOM      5  O   UNL     1      55.971  -4.838  30.566  1.00  0.00    -0.550 OA
ATOM      6  O   UNL     1      56.733  -2.914  31.549  1.00  0.00    -0.550 OA
ENDBRANCH   3   4
ENDBRANCH   2   3
ENDBRANCH   1   2
BRANCH   1   7
ATOM      7  C   UNL     1      56.736   0.385  28.752  1.00  0.00     0.000 C 
BRANCH   7   8
ATOM      8  C   UNL     1      56.841   0.478  30.279  1.00  0.00    -0.000 C 
BRANCH   8   9
ATOM      9  C   UNL     1      58.273   0.205  30.750  1.00  0.00    -0.003 C 
ATOM     10  C   UNL     1      59.024  -0.676  29.756  1.00  0.00     0.004 C 
ENDBRANCH   8   9
ENDBRANCH   7   8
ENDBRANCH   1   7
TORSDOF 6
ENDMDL
MODEL 7
REMARK VINA RESULT:    -3.429      1.408      2.728
REMARK INTER + INTRA:          -5.276
REMARK INTER:                  -4.979
REMARK INTRA:                  -0.297
REMARK UNBOUND:                -0.645
REMARK SMILES CCCCCCCC(=O)[O-]
REMARK SMILES IDX 5 1 6 2 7 3 8 4 9 5 10 6 4 7 3 8 2 9 1 10
REMARK H PARENT
REMARK Flexibility Score: inf
ROOT
ATOM      1  C   UNL     1      57.794  -2.920  29.890  1.00  0.00     0.000 C 
ENDROOT
BRANCH   1   2
ATOM      2  C   UNL     1      58.179  -1.723  30.772  1.00  0.00     0.006 C 
BRANCH   2   3
ATOM      3  C   UNL     1      58.364  -0.437  29.955  1.00  0.00     0.053 C 
BRANCH   3   4
ATOM      4  C   UNL     1      57.170   0.464  30.057  1.00  0.00     0.041 C 
ATOM      5  O   UNL     1      56.264   0.221  30.896  1.00  0.00    -0.550 OA
ATOM      6  O   UNL     1      57.043   1.551  29.202  1.00  0.00    -0.550 OA
ENDBRANCH   3   4
ENDBRANCH   2   3
ENDBRANCH   1   2
BRANCH   1   7
ATOM      7  C   UNL     1      57.511  -4.162  30.744  1.00  0.00     0.000 C 
BRANCH   7   8
ATOM      8  C   UNL     1      56.075  -4.657  30.539  1.00  0.00    -0.000 C 
BRANCH   8   9
ATOM      9  C   UNL     1      55.284  -4.612  31.850  1.00  0.00    -0.003 C 
ATOM     10  C   UNL     1      54.485  -3.318  31.969  1.00  0.00     0.004 C 
ENDBRANCH   8   9
ENDBRANCH   7   8
ENDBRANCH   1   7
TORSDOF 6
ENDMDL
MODEL 8
REMARK VINA RESULT:    -3.407      1.344      2.121
REMARK INTER + INTRA:          -5.247
REMARK INTER:                  -4.820
REMARK INTRA:                  -0.426
REMARK UNBOUND:                -0.645
REMARK SMILES CCCCCCCC(=O)[O-]
REMARK SMILES IDX 5 1 6 2 7 3 8 4 9 5 10 6 4 7 3 8 2 9 1 10
REMARK H PARENT
REMARK Flexibility Score: inf
ROOT
ATOM      1  C   UNL     1      54.735  -0.964  31.328  1.00  0.00     0.000 C 
ENDROOT
BRANCH   1   2
ATOM      2  C   UNL     1      56.104  -0.266  31.332  1.00  0.00     0.006 C 
BRANCH   2   3
ATOM      3  C   UNL     1      57.149  -1.033  30.512  1.00  0.00     0.053 C 
BRANCH   3   4
ATOM      4  C   UNL     1      57.772  -0.170  29.457  1.00  0.00     0.041 C 
ATOM      5  O   UNL     1      59.024  -0.123  29.335  1.00  0.00    -0.550 OA
ATOM      6  O   UNL     1      56.971   0.609  28.632  1.00  0.00    -0.550 OA
ENDBRANCH   3   4
ENDBRANCH   2   3
ENDBRANCH   1   2
BRANCH   1   7
ATOM      7  C   UNL     1      54.859  -2.415  30.850  1.00  0.00     0.000 C 
BRANCH   7   8
ATOM      8  C   UNL     1      54.475  -3.397  31.962  1.00  0.00    -0.000 C 
BRANCH   8   9
ATOM      9  C   UNL     1      55.217  -4.728  31.803  1.00  0.00    -0.003 C 
ATOM     10  C   UNL     1      56.218  -4.668  30.654  1.00  0.00     0.004 C 
ENDBRANCH   8   9
ENDBRANCH   7   8
ENDBRANCH   1   7
TORSDOF 6
ENDMDL
MODEL 9
REMARK VINA RESULT:    -3.344      1.677      3.050
REMARK INTER + INTRA:          -5.162
REMARK INTER:                  -4.492
REMARK INTRA:                  -0.670
REMARK UNBOUND:                -0.645
REMARK SMILES CCCCCCCC(=O)[O-]
REMARK SMILES IDX 5 1 6 2 7 3 8 4 9 5 10 6 4 7 3 8 2 9 1 10
REMARK H PARENT
REMARK Flexibility Score: inf
ROOT
ATOM      1  C   UNL     1      59.206  -1.518  30.561  1.00  0.00     0.000 C 
ENDROOT
BRANCH   1   2
ATOM      2  C   UNL     1      58.748  -0.324  29.710  1.00  0.00     0.006 C 
BRANCH   2   3
ATOM      3  C   UNL     1      57.582   0.436  30.356  1.00  0.00     0.053 C 
BRANCH   3   4
ATOM      4  C   UNL     1      56.351  -0.413  30.455  1.00  0.00     0.041 C 
ATOM      5  O   UNL     1      55.700  -0.461  31.532  1.00  0.00    -0.550 OA
ATOM      6  O   UNL     1      55.942  -1.177  29.370  1.00  0.00    -0.550 OA
ENDBRANCH   3   4
ENDBRANCH   2   3
ENDBRANCH   1   2
BRANCH   1   7
ATOM      7  C   UNL     1      59.360  -2.779  29.702  1.00  0.00     0.000 C 
BRANCH   7   8
ATOM      8  C   UNL     1      58.291  -3.820  30.052  1.00  0.00    -0.000 C 
BRANCH   8   9
ATOM      9  C   UNL     1      57.837  -3.675  31.509  1.00  0.00    -0.003 C 
ATOM     10  C   UNL     1      56.361  -4.030  31.665  1.00  0.00     0.004 C 
ENDBRANCH   8   9
ENDBRANCH   7   8
ENDBRANCH   1   7
TORSDOF 6
ENDMDL
