MODEL 1
REMARK VINA RESULT:    -1.934      0.000      0.000
REMARK INTER + INTRA:          -1.648
REMARK INTER:                  -2.952
REMARK INTRA:                   1.303
REMARK UNBOUND:                 1.303
REMARK SMILES CC(=O)CCC=C(C)CCC=C(C)CCC=C(C)C
REMARK SMILES IDX 10 1 11 2 12 3 13 4 14 5 15 6 16 7 18 8 17 9 19 10 9 11 7 12
REMARK SMILES IDX 6 13 8 14 5 15 4 16 2 17 3 18 1 19
REMARK H PARENT
REMARK Flexibility Score: inf
ROOT
ATOM      1  C   UNL     1      -2.684  -7.012 -15.113  1.00  0.00     0.032 C 
ENDROOT
BRANCH   1   2
ATOM      2  C   UNL     1      -3.692  -7.703 -16.004  1.00  0.00    -0.028 C 
ATOM      3  C   UNL     1      -3.400  -8.217 -17.219  1.00  0.00    -0.077 C 
ATOM      4  C   UNL     1      -4.493  -8.932 -17.975  1.00  0.00     0.039 C 
BRANCH   3   5
ATOM      5  C   UNL     1      -2.032  -8.098 -17.866  1.00  0.00     0.034 C 
BRANCH   5   6
ATOM      6  C   UNL     1      -0.899  -8.213 -16.836  1.00  0.00     0.032 C 
BRANCH   6   7
ATOM      7  C   UNL     1      -0.875  -9.579 -16.193  1.00  0.00    -0.028 C 
ATOM      8  C   UNL     1      -0.903  -8.689 -13.852  1.00  0.00     0.039 C 
ATOM      9  C   UNL     1      -0.901  -9.810 -14.862  1.00  0.00    -0.080 C 
ATOM     10  C   UNL     1      -0.929 -11.239 -14.382  1.00  0.00     0.039 C 
ENDBRANCH   6   7
ENDBRANCH   5   6
ENDBRANCH   3   5
ENDBRANCH   1   2
BRANCH   1  11
ATOM     11  C   UNL     1      -3.301  -5.831 -14.348  1.00  0.00     0.034 C 
BRANCH  11  12
ATOM     12  C   UNL     1      -3.141  -4.522 -15.096  1.00  0.00    -0.077 C 
ATOM     13  C   UNL     1      -2.825  -4.552 -16.410  1.00  0.00    -0.028 C 
ATOM     14  C   UNL     1      -3.370  -3.221 -14.361  1.00  0.00     0.039 C 
BRANCH  13  15
ATOM     15  C   UNL     1      -2.543  -3.330 -17.252  1.00  0.00     0.035 C 
BRANCH  15  16
ATOM     16  C   UNL     1      -3.745  -2.942 -18.124  1.00  0.00     0.079 C 
BRANCH  16  17
ATOM     17  C   UNL     1      -4.962  -3.773 -17.804  1.00  0.00     0.130 C 
ATOM     18  O   UNL     1      -4.937  -4.979 -17.999  1.00  0.00    -0.300 OA
ATOM     19  C   UNL     1      -6.212  -3.148 -17.260  1.00  0.00     0.087 C 
ENDBRANCH  16  17
ENDBRANCH  15  16
ENDBRANCH  13  15
ENDBRANCH  11  12
ENDBRANCH   1  11
TORSDOF 9
ENDMDL
MODEL 2
REMARK VINA RESULT:    -1.644      1.494      5.483
REMARK INTER + INTRA:          -1.206
REMARK INTER:                  -1.632
REMARK INTRA:                   0.427
REMARK UNBOUND:                 1.303
REMARK SMILES CC(=O)CCC=C(C)CCC=C(C)CCC=C(C)C
REMARK SMILES IDX 10 1 11 2 12 3 13 4 14 5 15 6 16 7 18 8 17 9 19 10 9 11 7 12
REMARK SMILES IDX 6 13 8 14 5 15 4 16 2 17 3 18 1 19
REMARK H PARENT
REMARK Flexibility Score: inf
ROOT
ATOM      1  C   UNL     1      -2.677  -6.766 -13.998  1.00  0.00     0.032 C 
ENDROOT
BRANCH   1   2
ATOM      2  C   UNL     1      -2.435  -5.280 -13.865  1.00  0.00    -0.028 C 
ATOM      3  C   UNL     1      -3.208  -4.333 -14.442  1.00  0.00    -0.077 C 
ATOM      4  C   UNL     1      -2.883  -2.885 -14.177  1.00  0.00     0.039 C 
BRANCH   3   5
ATOM      5  C   UNL     1      -4.377  -4.657 -15.355  1.00  0.00     0.034 C 
BRANCH   5   6
ATOM      6  C   UNL     1      -3.922  -4.926 -16.796  1.00  0.00     0.032 C 
BRANCH   6   7
ATOM      7  C   UNL     1      -2.980  -3.852 -17.286  1.00  0.00    -0.028 C 
ATOM      8  C   UNL     1      -1.000  -5.381 -17.422  1.00  0.00     0.039 C 
ATOM      9  C   UNL     1      -1.678  -4.043 -17.594  1.00  0.00    -0.080 C 
ATOM     10  C   UNL     1      -0.887  -2.875 -18.125  1.00  0.00     0.039 C 
ENDBRANCH   6   7
ENDBRANCH   5   6
ENDBRANCH   3   5
ENDBRANCH   1   2
BRANCH   1  11
ATOM     11  C   UNL     1      -1.374  -7.576 -13.901  1.00  0.00     0.034 C 
BRANCH  11  12
ATOM     12  C   UNL     1      -1.184  -8.493 -15.094  1.00  0.00    -0.077 C 
ATOM     13  C   UNL     1      -1.016  -7.948 -16.320  1.00  0.00    -0.028 C 
ATOM     14  C   UNL     1      -1.157  -9.988 -14.877  1.00  0.00     0.039 C 
BRANCH  13  15
ATOM     15  C   UNL     1      -0.913  -8.738 -17.602  1.00  0.00     0.035 C 
BRANCH  15  16
ATOM     16  C   UNL     1      -2.153  -9.610 -17.842  1.00  0.00     0.079 C 
BRANCH  16  17
ATOM     17  C   UNL     1      -3.407  -8.780 -17.966  1.00  0.00     0.130 C 
ATOM     18  O   UNL     1      -3.330  -7.561 -17.928  1.00  0.00    -0.300 OA
ATOM     19  C   UNL     1      -4.753  -9.422 -18.125  1.00  0.00     0.087 C 
ENDBRANCH  16  17
ENDBRANCH  15  16
ENDBRANCH  13  15
ENDBRANCH  11  12
ENDBRANCH   1  11
TORSDOF 9
ENDMDL
MODEL 3
REMARK VINA RESULT:    -1.610     15.191     17.303
REMARK INTER + INTRA:          -1.153
REMARK INTER:                  -1.620
REMARK INTRA:                   0.467
REMARK UNBOUND:                 1.303
REMARK SMILES CC(=O)CCC=C(C)CCC=C(C)CCC=C(C)C
REMARK SMILES IDX 10 1 11 2 12 3 13 4 14 5 15 6 16 7 18 8 17 9 19 10 9 11 7 12
REMARK SMILES IDX 6 13 8 14 5 15 4 16 2 17 3 18 1 19
REMARK H PARENT
REMARK Flexibility Score: inf
ROOT
ATOM      1  C   UNL     1      -1.354  -7.760   1.971  1.00  0.00     0.032 C 
ENDROOT
BRANCH   1   2
ATOM      2  C   UNL     1      -0.911  -8.813   0.981  1.00  0.00    -0.028 C 
ATOM      3  C   UNL     1      -1.360 -10.088   0.981  1.00  0.00    -0.077 C 
ATOM      4  C   UNL     1      -0.875 -11.017  -0.103  1.00  0.00     0.039 C 
BRANCH   3   5
ATOM      5  C   UNL     1      -2.315 -10.632   2.027  1.00  0.00     0.034 C 
BRANCH   5   6
ATOM      6  C   UNL     1      -3.769 -10.231   1.741  1.00  0.00     0.032 C 
BRANCH   6   7
ATOM      7  C   UNL     1      -4.134 -10.474   0.296  1.00  0.00    -0.028 C 
ATOM      8  C   UNL     1      -3.986  -8.059  -0.349  1.00  0.00     0.039 C 
ATOM      9  C   UNL     1      -4.212  -9.519  -0.657  1.00  0.00    -0.080 C 
ATOM     10  C   UNL     1      -4.535  -9.937  -2.068  1.00  0.00     0.039 C 
ENDBRANCH   6   7
ENDBRANCH   5   6
ENDBRANCH   3   5
ENDBRANCH   1   2
BRANCH   1  11
ATOM     11  C   UNL     1      -1.016  -6.338   1.495  1.00  0.00     0.034 C 
BRANCH  11  12
ATOM     12  C   UNL     1      -2.131  -5.356   1.800  1.00  0.00    -0.077 C 
ATOM     13  C   UNL     1      -1.869  -4.030   1.752  1.00  0.00    -0.028 C 
ATOM     14  C   UNL     1      -3.511  -5.884   2.117  1.00  0.00     0.039 C 
BRANCH  13  15
ATOM     15  C   UNL     1      -2.855  -2.948   2.124  1.00  0.00     0.035 C 
BRANCH  15  16
ATOM     16  C   UNL     1      -4.187  -3.102   1.377  1.00  0.00     0.079 C 
BRANCH  16  17
ATOM     17  C   UNL     1      -3.979  -3.358  -0.094  1.00  0.00     0.130 C 
ATOM     18  O   UNL     1      -4.844  -3.936  -0.735  1.00  0.00    -0.300 OA
ATOM     19  C   UNL     1      -2.722  -2.926  -0.790  1.00  0.00     0.087 C 
ENDBRANCH  16  17
ENDBRANCH  15  16
ENDBRANCH  13  15
ENDBRANCH  11  12
ENDBRANCH   1  11
TORSDOF 9
ENDMDL
MODEL 4
REMARK VINA RESULT:    -1.556      1.686      5.855
REMARK INTER + INTRA:          -1.072
REMARK INTER:                  -2.115
REMARK INTRA:                   1.044
REMARK UNBOUND:                 1.303
REMARK SMILES CC(=O)CCC=C(C)CCC=C(C)CCC=C(C)C
REMARK SMILES IDX 10 1 11 2 12 3 13 4 14 5 15 6 16 7 18 8 17 9 19 10 9 11 7 12
REMARK SMILES IDX 6 13 8 14 5 15 4 16 2 17 3 18 1 19
REMARK H PARENT
REMARK Flexibility Score: inf
ROOT
ATOM      1  C   UNL     1      -1.571  -7.763 -17.991  1.00  0.00     0.032 C 
ENDROOT
BRANCH   1   2
ATOM      2  C   UNL     1      -0.986  -6.557 -17.294  1.00  0.00    -0.028 C 
ATOM      3  C   UNL     1      -1.542  -5.325 -17.318  1.00  0.00    -0.077 C 
ATOM      4  C   UNL     1      -0.879  -4.225 -16.528  1.00  0.00     0.039 C 
BRANCH   3   5
ATOM      5  C   UNL     1      -2.791  -4.993 -18.114  1.00  0.00     0.034 C 
BRANCH   5   6
ATOM      6  C   UNL     1      -3.220  -3.530 -17.924  1.00  0.00     0.032 C 
BRANCH   6   7
ATOM      7  C   UNL     1      -4.707  -3.361 -18.125  1.00  0.00    -0.028 C 
ATOM      8  C   UNL     1      -5.214  -3.208 -15.677  1.00  0.00     0.039 C 
ATOM      9  C   UNL     1      -5.609  -3.192 -17.133  1.00  0.00    -0.080 C 
ATOM     10  C   UNL     1      -7.054  -2.981 -17.506  1.00  0.00     0.039 C 
ENDBRANCH   6   7
ENDBRANCH   5   6
ENDBRANCH   3   5
ENDBRANCH   1   2
BRANCH   1  11
ATOM     11  C   UNL     1      -2.218  -8.748 -17.004  1.00  0.00     0.034 C 
BRANCH  11  12
ATOM     12  C   UNL     1      -1.557  -8.702 -15.640  1.00  0.00    -0.077 C 
ATOM     13  C   UNL     1      -1.598  -7.552 -14.929  1.00  0.00    -0.028 C 
ATOM     14  C   UNL     1      -0.899  -9.950 -15.098  1.00  0.00     0.039 C 
BRANCH  13  15
ATOM     15  C   UNL     1      -0.902  -7.338 -13.606  1.00  0.00     0.035 C 
BRANCH  15  16
ATOM     16  C   UNL     1      -1.406  -6.077 -12.890  1.00  0.00     0.079 C 
BRANCH  16  17
ATOM     17  C   UNL     1      -2.524  -5.409 -13.649  1.00  0.00     0.130 C 
ATOM     18  O   UNL     1      -3.556  -6.025 -13.869  1.00  0.00    -0.300 OA
ATOM     19  C   UNL     1      -2.392  -4.002 -14.153  1.00  0.00     0.087 C 
ENDBRANCH  16  17
ENDBRANCH  15  16
ENDBRANCH  13  15
ENDBRANCH  11  12
ENDBRANCH   1  11
TORSDOF 9
ENDMDL
MODEL 5
REMARK VINA RESULT:    -1.267      1.688      5.675
REMARK INTER + INTRA:          -0.630
REMARK INTER:                  -1.757
REMARK INTRA:                   1.127
REMARK UNBOUND:                 1.303
REMARK SMILES CC(=O)CCC=C(C)CCC=C(C)CCC=C(C)C
REMARK SMILES IDX 10 1 11 2 12 3 13 4 14 5 15 6 16 7 18 8 17 9 19 10 9 11 7 12
REMARK SMILES IDX 6 13 8 14 5 15 4 16 2 17 3 18 1 19
REMARK H PARENT
REMARK Flexibility Score: inf
ROOT
ATOM      1  C   UNL     1      -0.997  -5.094 -15.083  1.00  0.00     0.032 C 
ENDROOT
BRANCH   1   2
ATOM      2  C   UNL     1      -1.222  -3.957 -16.054  1.00  0.00    -0.028 C 
ATOM      3  C   UNL     1      -1.760  -4.108 -17.284  1.00  0.00    -0.077 C 
ATOM      4  C   UNL     1      -1.981  -2.875 -18.125  1.00  0.00     0.039 C 
BRANCH   3   5
ATOM      5  C   UNL     1      -2.139  -5.458 -17.866  1.00  0.00     0.034 C 
BRANCH   5   6
ATOM      6  C   UNL     1      -3.649  -5.568 -18.125  1.00  0.00     0.032 C 
BRANCH   6   7
ATOM      7  C   UNL     1      -4.448  -5.027 -16.963  1.00  0.00    -0.028 C 
ATOM      8  C   UNL     1      -5.038  -2.884 -18.118  1.00  0.00     0.039 C 
ATOM      9  C   UNL     1      -5.095  -3.841 -16.952  1.00  0.00    -0.080 C 
ATOM     10  C   UNL     1      -5.897  -3.472 -15.731  1.00  0.00     0.039 C 
ENDBRANCH   6   7
ENDBRANCH   5   6
ENDBRANCH   3   5
ENDBRANCH   1   2
BRANCH   1  11
ATOM     11  C   UNL     1      -2.318  -5.670 -14.548  1.00  0.00     0.034 C 
BRANCH  11  12
ATOM     12  C   UNL     1      -2.384  -7.178 -14.698  1.00  0.00    -0.077 C 
ATOM     13  C   UNL     1      -1.239  -7.894 -14.632  1.00  0.00    -0.028 C 
ATOM     14  C   UNL     1      -3.728  -7.841 -14.885  1.00  0.00     0.039 C 
BRANCH  13  15
ATOM     15  C   UNL     1      -1.146  -9.384 -14.860  1.00  0.00     0.035 C 
BRANCH  15  16
ATOM     16  C   UNL     1      -0.923  -9.727 -16.339  1.00  0.00     0.079 C 
BRANCH  16  17
ATOM     17  C   UNL     1      -1.696  -8.807 -17.251  1.00  0.00     0.130 C 
ATOM     18  O   UNL     1      -1.130  -7.857 -17.771  1.00  0.00    -0.300 OA
ATOM     19  C   UNL     1      -3.154  -9.027 -17.526  1.00  0.00     0.087 C 
ENDBRANCH  16  17
ENDBRANCH  15  16
ENDBRANCH  13  15
ENDBRANCH  11  12
ENDBRANCH   1  11
TORSDOF 9
ENDMDL
MODEL 6
REMARK VINA RESULT:     0.082      1.697      3.387
REMARK INTER + INTRA:           1.428
REMARK INTER:                  -0.233
REMARK INTRA:                   1.661
REMARK UNBOUND:                 1.303
REMARK SMILES CC(=O)CCC=C(C)CCC=C(C)CCC=C(C)C
REMARK SMILES IDX 10 1 11 2 12 3 13 4 14 5 15 6 16 7 18 8 17 9 19 10 9 11 7 12
REMARK SMILES IDX 6 13 8 14 5 15 4 16 2 17 3 18 1 19
REMARK H PARENT
REMARK Flexibility Score: inf
ROOT
ATOM      1  C   UNL     1      -0.949  -6.387 -15.328  1.00  0.00     0.032 C 
ENDROOT
BRANCH   1   2
ATOM      2  C   UNL     1      -0.883  -4.905 -15.619  1.00  0.00    -0.028 C 
ATOM      3  C   UNL     1      -0.888  -4.377 -16.863  1.00  0.00    -0.077 C 
ATOM      4  C   UNL     1      -0.876  -2.875 -17.003  1.00  0.00     0.039 C 
BRANCH   3   5
ATOM      5  C   UNL     1      -0.890  -5.221 -18.125  1.00  0.00     0.034 C 
BRANCH   5   6
ATOM      6  C   UNL     1      -1.039  -6.717 -17.813  1.00  0.00     0.032 C 
BRANCH   6   7
ATOM      7  C   UNL     1      -2.492  -7.123 -17.739  1.00  0.00    -0.028 C 
ATOM      8  C   UNL     1      -1.993  -9.528 -17.245  1.00  0.00     0.039 C 
ATOM      9  C   UNL     1      -2.936  -8.369 -17.462  1.00  0.00    -0.080 C 
ATOM     10  C   UNL     1      -4.423  -8.597 -17.370  1.00  0.00     0.039 C 
ENDBRANCH   6   7
ENDBRANCH   5   6
ENDBRANCH   3   5
ENDBRANCH   1   2
BRANCH   1  11
ATOM     11  C   UNL     1      -1.741  -6.692 -14.047  1.00  0.00     0.034 C 
BRANCH  11  12
ATOM     12  C   UNL     1      -3.069  -5.960 -14.011  1.00  0.00    -0.077 C 
ATOM     13  C   UNL     1      -3.258  -4.902 -14.832  1.00  0.00    -0.028 C 
ATOM     14  C   UNL     1      -4.155  -6.451 -13.082  1.00  0.00     0.039 C 
BRANCH  13  15
ATOM     15  C   UNL     1      -4.488  -4.027 -14.833  1.00  0.00     0.035 C 
BRANCH  15  16
ATOM     16  C   UNL     1      -4.528  -3.091 -16.049  1.00  0.00     0.079 C 
BRANCH  16  17
ATOM     17  C   UNL     1      -5.168  -3.751 -17.244  1.00  0.00     0.130 C 
ATOM     18  O   UNL     1      -6.184  -3.273 -17.726  1.00  0.00    -0.300 OA
ATOM     19  C   UNL     1      -4.589  -4.995 -17.850  1.00  0.00     0.087 C 
ENDBRANCH  16  17
ENDBRANCH  15  16
ENDBRANCH  13  15
ENDBRANCH  11  12
ENDBRANCH   1  11
TORSDOF 9
ENDMDL
