MODEL 1
REMARK VINA RESULT:    -6.485      0.000      0.000
REMARK INTER + INTRA:          -9.138
REMARK INTER:                  -8.760
REMARK INTRA:                  -0.379
REMARK UNBOUND:                -0.379
REMARK SMILES O=c1c(-c2ccc(O)cc2)coc2c([C@@H]3O[C@H](CO)[C@@H](O)[C@H](O)[C@H]3O)c(O)ccc12
REMARK SMILES IDX 3 1 11 2 12 3 13 4 30 5 2 6 1 7 29 8 28 9 26 10 14 11 4 12
REMARK SMILES IDX 5 13 6 14 7 15 10 16 9 17 8 18 15 20 24 21 16 22 22 23 17 24
REMARK SMILES IDX 20 25 25 26 23 28 18 30 19 31 21 33 27 35
REMARK H PARENT 8 19 25 27 23 29 19 32 21 34 27 36
REMARK Flexibility Score: inf
ROOT
ATOM      1  C   UNL     1      -8.348 -16.086   0.525  1.00  0.00     0.065 A 
ATOM      2  C   UNL     1      -7.432 -16.001   1.584  1.00  0.00     0.208 A 
ATOM      3  O   UNL     1      -7.752 -15.379   2.711  1.00  0.00    -0.463 OA
ATOM      4  C   UNL     1      -8.933 -14.803   2.917  1.00  0.00     0.147 A 
ATOM      5  C   UNL     1      -9.916 -14.841   1.902  1.00  0.00     0.066 A 
ATOM      6  C   UNL     1      -9.609 -15.486   0.690  1.00  0.00     0.200 A 
ATOM      7  O   UNL     1     -10.452 -15.510  -0.250  1.00  0.00    -0.288 OA
ATOM      8  C   UNL     1     -11.166 -14.240   2.123  1.00  0.00     0.020 A 
ATOM      9  C   UNL     1     -11.440 -13.620   3.341  1.00  0.00     0.047 A 
ATOM     10  C   UNL     1     -10.476 -13.581   4.355  1.00  0.00     0.125 A 
ATOM     11  C   UNL     1      -9.203 -14.158   4.148  1.00  0.00     0.069 A 
ENDROOT
BRANCH   1  12
ATOM     12  C   UNL     1      -7.970 -16.793  -0.725  1.00  0.00    -0.011 A 
ATOM     13  C   UNL     1      -8.957 -17.297  -1.591  1.00  0.00     0.013 A 
ATOM     14  C   UNL     1      -8.595 -17.969  -2.761  1.00  0.00     0.047 A 
ATOM     15  C   UNL     1      -7.242 -18.150  -3.080  1.00  0.00     0.115 A 
ATOM     16  C   UNL     1      -6.615 -16.985  -1.048  1.00  0.00     0.013 A 
ATOM     17  C   UNL     1      -6.256 -17.658  -2.221  1.00  0.00     0.047 A 
BRANCH  15  18
ATOM     18  O   UNL     1      -6.870 -18.818  -4.243  1.00  0.00    -0.508 OA
ATOM     19  H   UNL     1      -7.309 -18.616  -5.134  1.00  0.00     0.293 HD
ENDBRANCH  15  18
ENDBRANCH   1  12
BRANCH  11  20
ATOM     20  C   UNL     1      -8.159 -14.133   5.257  1.00  0.00     0.188 C 
ATOM     21  C   UNL     1      -7.349 -12.819   5.197  1.00  0.00     0.179 C 
ATOM     22  O   UNL     1      -8.810 -14.265   6.511  1.00  0.00    -0.362 OA
ATOM     23  C   UNL     1      -6.328 -12.787   6.345  1.00  0.00     0.177 C 
ATOM     24  C   UNL     1      -7.870 -14.391   7.565  1.00  0.00     0.176 C 
ATOM     25  C   UNL     1      -7.026 -13.094   7.685  1.00  0.00     0.177 C 
BRANCH  21  26
ATOM     26  O   UNL     1      -6.680 -12.736   3.964  1.00  0.00    -0.387 OA
ATOM     27  H   UNL     1      -7.361 -12.879   3.257  1.00  0.00     0.211 HD
ENDBRANCH  21  26
BRANCH  23  28
ATOM     28  O   UNL     1      -5.727 -11.519   6.397  1.00  0.00    -0.387 OA
ATOM     29  H   UNL     1      -6.223 -10.993   7.078  1.00  0.00     0.211 HD
ENDBRANCH  23  28
BRANCH  24  30
ATOM     30  C   UNL     1      -8.651 -14.675   8.859  1.00  0.00     0.191 C 
BRANCH  30  31
ATOM     31  O   UNL     1      -7.785 -14.907   9.937  1.00  0.00    -0.394 OA
ATOM     32  H   UNL     1      -6.862 -14.883   9.572  1.00  0.00     0.210 HD
ENDBRANCH  30  31
ENDBRANCH  24  30
BRANCH  25  33
ATOM     33  O   UNL     1      -6.080 -13.189   8.721  1.00  0.00    -0.388 OA
ATOM     34  H   UNL     1      -6.479 -12.774   9.530  1.00  0.00     0.211 HD
ENDBRANCH  25  33
ENDBRANCH  11  20
BRANCH  10  35
ATOM     35  O   UNL     1     -10.787 -12.970   5.570  1.00  0.00    -0.507 OA
ATOM     36  H   UNL     1     -11.629 -13.201   6.083  1.00  0.00     0.293 HD
ENDBRANCH  10  35
TORSDOF 9
ENDMDL
MODEL 2
REMARK VINA RESULT:    -6.416      2.009      3.106
REMARK INTER + INTRA:          -9.045
REMARK INTER:                  -7.957
REMARK INTRA:                  -1.089
REMARK UNBOUND:                -0.379
REMARK SMILES O=c1c(-c2ccc(O)cc2)coc2c([C@@H]3O[C@H](CO)[C@@H](O)[C@H](O)[C@H]3O)c(O)ccc12
REMARK SMILES IDX 3 1 11 2 12 3 13 4 30 5 2 6 1 7 29 8 28 9 26 10 14 11 4 12
REMARK SMILES IDX 5 13 6 14 7 15 10 16 9 17 8 18 15 20 24 21 16 22 22 23 17 24
REMARK SMILES IDX 20 25 25 26 23 28 18 30 19 31 21 33 27 35
REMARK H PARENT 8 19 25 27 23 29 19 32 21 34 27 36
REMARK Flexibility Score: inf
ROOT
ATOM      1  C   UNL     1      -7.569 -17.522  -1.973  1.00  0.00     0.065 A 
ATOM      2  C   UNL     1      -6.731 -17.013  -0.970  1.00  0.00     0.208 A 
ATOM      3  O   UNL     1      -7.238 -16.452   0.120  1.00  0.00    -0.463 OA
ATOM      4  C   UNL     1      -8.544 -16.332   0.339  1.00  0.00     0.147 A 
ATOM      5  C   UNL     1      -9.462 -16.817  -0.621  1.00  0.00     0.066 A 
ATOM      6  C   UNL     1      -8.960 -17.412  -1.794  1.00  0.00     0.200 A 
ATOM      7  O   UNL     1      -9.750 -17.826  -2.687  1.00  0.00    -0.288 OA
ATOM      8  C   UNL     1     -10.841 -16.698  -0.386  1.00  0.00     0.020 A 
ATOM      9  C   UNL     1     -11.303 -16.114   0.792  1.00  0.00     0.047 A 
ATOM     10  C   UNL     1     -10.404 -15.634   1.751  1.00  0.00     0.125 A 
ATOM     11  C   UNL     1      -9.012 -15.721   1.527  1.00  0.00     0.069 A 
ENDROOT
BRANCH   1  12
ATOM     12  C   UNL     1      -6.979 -18.151  -3.182  1.00  0.00    -0.011 A 
ATOM     13  C   UNL     1      -6.972 -19.550  -3.332  1.00  0.00     0.013 A 
ATOM     14  C   UNL     1      -6.408 -20.137  -4.468  1.00  0.00     0.047 A 
ATOM     15  C   UNL     1      -5.838 -19.335  -5.466  1.00  0.00     0.115 A 
ATOM     16  C   UNL     1      -6.399 -17.354  -4.184  1.00  0.00     0.013 A 
ATOM     17  C   UNL     1      -5.835 -17.944  -5.320  1.00  0.00     0.047 A 
BRANCH  15  18
ATOM     18  O   UNL     1      -5.272 -19.908  -6.601  1.00  0.00    -0.508 OA
ATOM     19  H   UNL     1      -5.644 -19.729  -7.527  1.00  0.00     0.293 HD
ENDBRANCH  15  18
ENDBRANCH   1  12
BRANCH  11  20
ATOM     20  C   UNL     1      -8.031 -15.217   2.578  1.00  0.00     0.188 C 
ATOM     21  C   UNL     1      -7.801 -13.699   2.408  1.00  0.00     0.179 C 
ATOM     22  O   UNL     1      -8.545 -15.505   3.869  1.00  0.00    -0.362 OA
ATOM     23  C   UNL     1      -6.844 -13.194   3.499  1.00  0.00     0.177 C 
ATOM     24  C   UNL     1      -7.603 -15.184   4.879  1.00  0.00     0.176 C 
ATOM     25  C   UNL     1      -7.331 -13.656   4.887  1.00  0.00     0.177 C 
BRANCH  21  26
ATOM     26  O   UNL     1      -7.252 -13.447   1.140  1.00  0.00    -0.387 OA
ATOM     27  H   UNL     1      -7.857 -12.805   0.686  1.00  0.00     0.211 HD
ENDBRANCH  21  26
BRANCH  23  28
ATOM     28  O   UNL     1      -6.786 -11.792   3.453  1.00  0.00    -0.387 OA
ATOM     29  H   UNL     1      -6.613 -11.480   4.380  1.00  0.00     0.211 HD
ENDBRANCH  23  28
BRANCH  24  30
ATOM     30  C   UNL     1      -8.176 -15.660   6.224  1.00  0.00     0.191 C 
BRANCH  30  31
ATOM     31  O   UNL     1      -7.166 -15.807   7.186  1.00  0.00    -0.394 OA
ATOM     32  H   UNL     1      -7.149 -14.965   7.712  1.00  0.00     0.210 HD
ENDBRANCH  30  31
ENDBRANCH  24  30
BRANCH  25  33
ATOM     33  O   UNL     1      -6.395 -13.305   5.877  1.00  0.00    -0.388 OA
ATOM     34  H   UNL     1      -6.821 -12.627   6.464  1.00  0.00     0.211 HD
ENDBRANCH  25  33
ENDBRANCH  11  20
BRANCH  10  35
ATOM     35  O   UNL     1     -10.897 -15.072   2.929  1.00  0.00    -0.507 OA
ATOM     36  H   UNL     1     -11.747 -14.520   2.942  1.00  0.00     0.293 HD
ENDBRANCH  10  35
TORSDOF 9
ENDMDL
MODEL 3
REMARK VINA RESULT:    -6.284      6.855     11.322
REMARK INTER + INTRA:          -8.867
REMARK INTER:                  -7.940
REMARK INTRA:                  -0.927
REMARK UNBOUND:                -0.379
REMARK SMILES O=c1c(-c2ccc(O)cc2)coc2c([C@@H]3O[C@H](CO)[C@@H](O)[C@H](O)[C@H]3O)c(O)ccc12
REMARK SMILES IDX 3 1 11 2 12 3 13 4 30 5 2 6 1 7 29 8 28 9 26 10 14 11 4 12
REMARK SMILES IDX 5 13 6 14 7 15 10 16 9 17 8 18 15 20 24 21 16 22 22 23 17 24
REMARK SMILES IDX 20 25 25 26 23 28 18 30 19 31 21 33 27 35
REMARK H PARENT 8 19 25 27 23 29 19 32 21 34 27 36
REMARK Flexibility Score: inf
ROOT
ATOM      1  C   UNL     1       1.012 -19.154  -0.757  1.00  0.00     0.065 A 
ATOM      2  C   UNL     1      -0.263 -19.085  -0.176  1.00  0.00     0.208 A 
ATOM      3  O   UNL     1      -1.319 -18.723  -0.893  1.00  0.00    -0.463 OA
ATOM      4  C   UNL     1      -1.251 -18.406  -2.183  1.00  0.00     0.147 A 
ATOM      5  C   UNL     1      -0.004 -18.448  -2.849  1.00  0.00     0.066 A 
ATOM      6  C   UNL     1       1.139 -18.821  -2.118  1.00  0.00     0.200 A 
ATOM      7  O   UNL     1       2.273 -18.837  -2.673  1.00  0.00    -0.288 OA
ATOM      8  C   UNL     1       0.065 -18.122  -4.213  1.00  0.00     0.020 A 
ATOM      9  C   UNL     1      -1.089 -17.768  -4.909  1.00  0.00     0.047 A 
ATOM     10  C   UNL     1      -2.329 -17.728  -4.261  1.00  0.00     0.125 A 
ATOM     11  C   UNL     1      -2.422 -18.030  -2.884  1.00  0.00     0.069 A 
ENDROOT
BRANCH   1  12
ATOM     12  C   UNL     1       2.178 -19.568   0.064  1.00  0.00    -0.011 A 
ATOM     13  C   UNL     1       3.038 -18.607   0.624  1.00  0.00     0.013 A 
ATOM     14  C   UNL     1       4.139 -19.003   1.389  1.00  0.00     0.047 A 
ATOM     15  C   UNL     1       4.398 -20.364   1.599  1.00  0.00     0.115 A 
ATOM     16  C   UNL     1       2.449 -20.932   0.273  1.00  0.00     0.013 A 
ATOM     17  C   UNL     1       3.552 -21.325   1.038  1.00  0.00     0.047 A 
BRANCH  15  18
ATOM     18  O   UNL     1       5.492 -20.770   2.359  1.00  0.00    -0.508 OA
ATOM     19  H   UNL     1       6.341 -21.112   1.925  1.00  0.00     0.293 HD
ENDBRANCH  15  18
ENDBRANCH   1  12
BRANCH  11  20
ATOM     20  C   UNL     1      -3.773 -18.005  -2.181  1.00  0.00     0.188 C 
ATOM     21  C   UNL     1      -4.125 -16.563  -1.754  1.00  0.00     0.179 C 
ATOM     22  O   UNL     1      -4.761 -18.525  -3.056  1.00  0.00    -0.362 OA
ATOM     23  C   UNL     1      -5.508 -16.544  -1.084  1.00  0.00     0.177 C 
ATOM     24  C   UNL     1      -6.010 -18.655  -2.398  1.00  0.00     0.176 C 
ATOM     25  C   UNL     1      -6.540 -17.259  -1.978  1.00  0.00     0.177 C 
BRANCH  21  26
ATOM     26  O   UNL     1      -3.155 -16.089  -0.855  1.00  0.00    -0.387 OA
ATOM     27  H   UNL     1      -2.678 -16.885  -0.500  1.00  0.00     0.211 HD
ENDBRANCH  21  26
BRANCH  23  28
ATOM     28  O   UNL     1      -5.901 -15.213  -0.868  1.00  0.00    -0.387 OA
ATOM     29  H   UNL     1      -5.539 -14.680  -1.624  1.00  0.00     0.211 HD
ENDBRANCH  23  28
BRANCH  24  30
ATOM     30  C   UNL     1      -6.979 -19.357  -3.364  1.00  0.00     0.191 C 
BRANCH  30  31
ATOM     31  O   UNL     1      -6.463 -20.584  -3.804  1.00  0.00    -0.394 OA
ATOM     32  H   UNL     1      -7.233 -21.111  -4.144  1.00  0.00     0.210 HD
ENDBRANCH  30  31
ENDBRANCH  24  30
BRANCH  25  33
ATOM     33  O   UNL     1      -7.779 -17.354  -1.318  1.00  0.00    -0.388 OA
ATOM     34  H   UNL     1      -8.331 -16.580  -1.603  1.00  0.00     0.211 HD
ENDBRANCH  25  33
ENDBRANCH  11  20
BRANCH  10  35
ATOM     35  O   UNL     1      -3.470 -17.390  -4.989  1.00  0.00    -0.507 OA
ATOM     36  H   UNL     1      -3.422 -16.805  -5.815  1.00  0.00     0.293 HD
ENDBRANCH  10  35
TORSDOF 9
ENDMDL
MODEL 4
REMARK VINA RESULT:    -5.936      7.005     10.588
REMARK INTER + INTRA:          -8.397
REMARK INTER:                  -7.357
REMARK INTRA:                  -1.040
REMARK UNBOUND:                -0.379
REMARK SMILES O=c1c(-c2ccc(O)cc2)coc2c([C@@H]3O[C@H](CO)[C@@H](O)[C@H](O)[C@H]3O)c(O)ccc12
REMARK SMILES IDX 3 1 11 2 12 3 13 4 30 5 2 6 1 7 29 8 28 9 26 10 14 11 4 12
REMARK SMILES IDX 5 13 6 14 7 15 10 16 9 17 8 18 15 20 24 21 16 22 22 23 17 24
REMARK SMILES IDX 20 25 25 26 23 28 18 30 19 31 21 33 27 35
REMARK H PARENT 8 19 25 27 23 29 19 32 21 34 27 36
REMARK Flexibility Score: inf
ROOT
ATOM      1  C   UNL     1       1.080 -18.942  -0.469  1.00  0.00     0.065 A 
ATOM      2  C   UNL     1       0.102 -18.257   0.267  1.00  0.00     0.208 A 
ATOM      3  O   UNL     1      -0.984 -17.777  -0.326  1.00  0.00    -0.463 OA
ATOM      4  C   UNL     1      -1.221 -17.905  -1.628  1.00  0.00     0.147 A 
ATOM      5  C   UNL     1      -0.287 -18.582  -2.446  1.00  0.00     0.066 A 
ATOM      6  C   UNL     1       0.880 -19.097  -1.852  1.00  0.00     0.200 A 
ATOM      7  O   UNL     1       1.751 -19.678  -2.559  1.00  0.00    -0.288 OA
ATOM      8  C   UNL     1      -0.541 -18.724  -3.819  1.00  0.00     0.020 A 
ATOM      9  C   UNL     1      -1.713 -18.211  -4.372  1.00  0.00     0.047 A 
ATOM     10  C   UNL     1      -2.647 -17.544  -3.571  1.00  0.00     0.125 A 
ATOM     11  C   UNL     1      -2.403 -17.367  -2.191  1.00  0.00     0.069 A 
ENDROOT
BRANCH   1  12
ATOM     12  C   UNL     1       2.284 -19.475   0.218  1.00  0.00    -0.011 A 
ATOM     13  C   UNL     1       2.455 -20.860   0.393  1.00  0.00     0.013 A 
ATOM     14  C   UNL     1       3.586 -21.355   1.047  1.00  0.00     0.047 A 
ATOM     15  C   UNL     1       4.558 -20.474   1.540  1.00  0.00     0.115 A 
ATOM     16  C   UNL     1       3.260 -18.597   0.721  1.00  0.00     0.013 A 
ATOM     17  C   UNL     1       4.390 -19.096   1.375  1.00  0.00     0.047 A 
BRANCH  15  18
ATOM     18  O   UNL     1       5.688 -20.956   2.194  1.00  0.00    -0.508 OA
ATOM     19  H   UNL     1       6.248 -20.362   2.793  1.00  0.00     0.293 HD
ENDBRANCH  15  18
ENDBRANCH   1  12
BRANCH  11  20
ATOM     20  C   UNL     1      -3.427 -16.659  -1.314  1.00  0.00     0.188 C 
ATOM     21  C   UNL     1      -3.225 -15.129  -1.388  1.00  0.00     0.179 C 
ATOM     22  O   UNL     1      -4.732 -17.014  -1.743  1.00  0.00    -0.362 OA
ATOM     23  C   UNL     1      -4.290 -14.423  -0.533  1.00  0.00     0.177 C 
ATOM     24  C   UNL     1      -5.719 -16.492  -0.869  1.00  0.00     0.176 C 
ATOM     25  C   UNL     1      -5.694 -14.941  -0.901  1.00  0.00     0.177 C 
BRANCH  21  26
ATOM     26  O   UNL     1      -1.943 -14.802  -0.916  1.00  0.00    -0.387 OA
ATOM     27  H   UNL     1      -1.450 -15.656  -0.804  1.00  0.00     0.211 HD
ENDBRANCH  21  26
BRANCH  23  28
ATOM     28  O   UNL     1      -4.216 -13.038  -0.753  1.00  0.00    -0.387 OA
ATOM     29  H   UNL     1      -5.087 -12.655  -0.467  1.00  0.00     0.211 HD
ENDBRANCH  23  28
BRANCH  24  30
ATOM     30  C   UNL     1      -7.083 -17.042  -1.319  1.00  0.00     0.191 C 
BRANCH  30  31
ATOM     31  O   UNL     1      -8.056 -16.869  -0.325  1.00  0.00    -0.394 OA
ATOM     32  H   UNL     1      -7.575 -16.603   0.502  1.00  0.00     0.210 HD
ENDBRANCH  30  31
ENDBRANCH  24  30
BRANCH  25  33
ATOM     33  O   UNL     1      -6.660 -14.392  -0.039  1.00  0.00    -0.388 OA
ATOM     34  H   UNL     1      -7.184 -15.145   0.342  1.00  0.00     0.211 HD
ENDBRANCH  25  33
ENDBRANCH  11  20
BRANCH  10  35
ATOM     35  O   UNL     1      -3.821 -17.059  -4.150  1.00  0.00    -0.507 OA
ATOM     36  H   UNL     1      -3.901 -16.910  -5.148  1.00  0.00     0.293 HD
ENDBRANCH  10  35
TORSDOF 9
ENDMDL
MODEL 5
REMARK VINA RESULT:    -5.882      1.884      8.551
REMARK INTER + INTRA:          -8.324
REMARK INTER:                  -7.346
REMARK INTRA:                  -0.978
REMARK UNBOUND:                -0.379
REMARK SMILES O=c1c(-c2ccc(O)cc2)coc2c([C@@H]3O[C@H](CO)[C@@H](O)[C@H](O)[C@H]3O)c(O)ccc12
REMARK SMILES IDX 3 1 11 2 12 3 13 4 30 5 2 6 1 7 29 8 28 9 26 10 14 11 4 12
REMARK SMILES IDX 5 13 6 14 7 15 10 16 9 17 8 18 15 20 24 21 16 22 22 23 17 24
REMARK SMILES IDX 20 25 25 26 23 28 18 30 19 31 21 33 27 35
REMARK H PARENT 8 19 25 27 23 29 19 32 21 34 27 36
REMARK Flexibility Score: inf
ROOT
ATOM      1  C   UNL     1      -9.266 -14.251   5.146  1.00  0.00     0.065 A 
ATOM      2  C   UNL     1      -8.588 -15.112   4.269  1.00  0.00     0.208 A 
ATOM      3  O   UNL     1      -8.963 -15.225   3.002  1.00  0.00    -0.463 OA
ATOM      4  C   UNL     1      -9.985 -14.551   2.480  1.00  0.00     0.147 A 
ATOM      5  C   UNL     1     -10.725 -13.662   3.294  1.00  0.00     0.066 A 
ATOM      6  C   UNL     1     -10.359 -13.522   4.645  1.00  0.00     0.200 A 
ATOM      7  O   UNL     1     -11.018 -12.762   5.408  1.00  0.00    -0.288 OA
ATOM      8  C   UNL     1     -11.797 -12.945   2.740  1.00  0.00     0.020 A 
ATOM      9  C   UNL     1     -12.125 -13.099   1.395  1.00  0.00     0.047 A 
ATOM     10  C   UNL     1     -11.396 -13.973   0.579  1.00  0.00     0.125 A 
ATOM     11  C   UNL     1     -10.327 -14.724   1.117  1.00  0.00     0.069 A 
ENDROOT
BRANCH   1  12
ATOM     12  C   UNL     1      -8.823 -14.136   6.559  1.00  0.00    -0.011 A 
ATOM     13  C   UNL     1      -9.345 -14.990   7.546  1.00  0.00     0.013 A 
ATOM     14  C   UNL     1      -8.931 -14.871   8.876  1.00  0.00     0.047 A 
ATOM     15  C   UNL     1      -7.993 -13.893   9.236  1.00  0.00     0.115 A 
ATOM     16  C   UNL     1      -7.888 -13.153   6.930  1.00  0.00     0.013 A 
ATOM     17  C   UNL     1      -7.476 -13.036   8.261  1.00  0.00     0.047 A 
BRANCH  15  18
ATOM     18  O   UNL     1      -7.574 -13.765  10.557  1.00  0.00    -0.508 OA
ATOM     19  H   UNL     1      -7.625 -14.541  11.208  1.00  0.00     0.293 HD
ENDBRANCH  15  18
ENDBRANCH   1  12
BRANCH  11  20
ATOM     20  C   UNL     1      -9.521 -15.661   0.228  1.00  0.00     0.188 C 
ATOM     21  C   UNL     1     -10.439 -16.750  -0.370  1.00  0.00     0.179 C 
ATOM     22  O   UNL     1      -8.903 -14.906  -0.802  1.00  0.00    -0.362 OA
ATOM     23  C   UNL     1      -9.624 -17.664  -1.299  1.00  0.00     0.177 C 
ATOM     24  C   UNL     1      -8.026 -15.711  -1.573  1.00  0.00     0.176 C 
ATOM     25  C   UNL     1      -8.828 -16.816  -2.311  1.00  0.00     0.177 C 
BRANCH  21  26
ATOM     26  O   UNL     1     -11.003 -17.510   0.669  1.00  0.00    -0.387 OA
ATOM     27  H   UNL     1     -10.853 -18.465   0.442  1.00  0.00     0.211 HD
ENDBRANCH  21  26
BRANCH  23  28
ATOM     28  O   UNL     1     -10.495 -18.530  -1.978  1.00  0.00    -0.387 OA
ATOM     29  H   UNL     1      -9.956 -18.995  -2.671  1.00  0.00     0.211 HD
ENDBRANCH  23  28
BRANCH  24  30
ATOM     30  C   UNL     1      -7.292 -14.793  -2.563  1.00  0.00     0.191 C 
BRANCH  30  31
ATOM     31  O   UNL     1      -6.066 -15.345  -2.960  1.00  0.00    -0.394 OA
ATOM     32  H   UNL     1      -5.429 -14.588  -3.052  1.00  0.00     0.210 HD
ENDBRANCH  30  31
ENDBRANCH  24  30
BRANCH  25  33
ATOM     33  O   UNL     1      -7.985 -17.637  -3.082  1.00  0.00    -0.388 OA
ATOM     34  H   UNL     1      -7.649 -17.092  -3.841  1.00  0.00     0.211 HD
ENDBRANCH  25  33
ENDBRANCH  11  20
BRANCH  10  35
ATOM     35  O   UNL     1     -11.735 -14.092  -0.769  1.00  0.00    -0.507 OA
ATOM     36  H   UNL     1     -11.081 -13.859  -1.507  1.00  0.00     0.293 HD
ENDBRANCH  10  35
TORSDOF 9
ENDMDL
MODEL 6
REMARK VINA RESULT:    -5.835      6.902     11.370
REMARK INTER + INTRA:          -8.260
REMARK INTER:                  -7.535
REMARK INTRA:                  -0.725
REMARK UNBOUND:                -0.379
REMARK SMILES O=c1c(-c2ccc(O)cc2)coc2c([C@@H]3O[C@H](CO)[C@@H](O)[C@H](O)[C@H]3O)c(O)ccc12
REMARK SMILES IDX 3 1 11 2 12 3 13 4 30 5 2 6 1 7 29 8 28 9 26 10 14 11 4 12
REMARK SMILES IDX 5 13 6 14 7 15 10 16 9 17 8 18 15 20 24 21 16 22 22 23 17 24
REMARK SMILES IDX 20 25 25 26 23 28 18 30 19 31 21 33 27 35
REMARK H PARENT 8 19 25 27 23 29 19 32 21 34 27 36
REMARK Flexibility Score: inf
ROOT
ATOM      1  C   UNL     1       0.958 -18.442  -0.728  1.00  0.00     0.065 A 
ATOM      2  C   UNL     1      -0.319 -19.002  -0.567  1.00  0.00     0.208 A 
ATOM      3  O   UNL     1      -1.362 -18.519  -1.230  1.00  0.00    -0.463 OA
ATOM      4  C   UNL     1      -1.280 -17.494  -2.072  1.00  0.00     0.147 A 
ATOM      5  C   UNL     1      -0.031 -16.869  -2.294  1.00  0.00     0.066 A 
ATOM      6  C   UNL     1       1.096 -17.350  -1.603  1.00  0.00     0.200 A 
ATOM      7  O   UNL     1       2.220 -16.794  -1.752  1.00  0.00    -0.288 OA
ATOM      8  C   UNL     1       0.057 -15.792  -3.190  1.00  0.00     0.020 A 
ATOM      9  C   UNL     1      -1.078 -15.348  -3.867  1.00  0.00     0.047 A 
ATOM     10  C   UNL     1      -2.318 -15.963  -3.659  1.00  0.00     0.125 A 
ATOM     11  C   UNL     1      -2.437 -17.033  -2.745  1.00  0.00     0.069 A 
ENDROOT
BRANCH   1  12
ATOM     12  C   UNL     1       2.112 -19.004   0.019  1.00  0.00    -0.011 A 
ATOM     13  C   UNL     1       2.957 -18.168   0.769  1.00  0.00     0.013 A 
ATOM     14  C   UNL     1       4.046 -18.701   1.463  1.00  0.00     0.047 A 
ATOM     15  C   UNL     1       4.308 -20.077   1.412  1.00  0.00     0.115 A 
ATOM     16  C   UNL     1       2.385 -20.383  -0.033  1.00  0.00     0.013 A 
ATOM     17  C   UNL     1       3.477 -20.914   0.662  1.00  0.00     0.047 A 
BRANCH  15  18
ATOM     18  O   UNL     1       5.391 -20.620   2.099  1.00  0.00    -0.508 OA
ATOM     19  H   UNL     1       5.274 -21.080   2.994  1.00  0.00     0.293 HD
ENDBRANCH  15  18
ENDBRANCH   1  12
BRANCH  11  20
ATOM     20  C   UNL     1      -3.782 -17.716  -2.531  1.00  0.00     0.188 C 
ATOM     21  C   UNL     1      -4.753 -16.764  -1.798  1.00  0.00     0.179 C 
ATOM     22  O   UNL     1      -4.312 -18.101  -3.790  1.00  0.00    -0.362 OA
ATOM     23  C   UNL     1      -6.118 -17.448  -1.626  1.00  0.00     0.177 C 
ATOM     24  C   UNL     1      -5.495 -18.867  -3.634  1.00  0.00     0.176 C 
ATOM     25  C   UNL     1      -6.606 -18.006  -2.978  1.00  0.00     0.177 C 
BRANCH  21  26
ATOM     26  O   UNL     1      -4.224 -16.434  -0.539  1.00  0.00    -0.387 OA
ATOM     27  H   UNL     1      -4.169 -15.444  -0.499  1.00  0.00     0.211 HD
ENDBRANCH  21  26
BRANCH  23  28
ATOM     28  O   UNL     1      -7.044 -16.516  -1.130  1.00  0.00    -0.387 OA
ATOM     29  H   UNL     1      -7.515 -16.131  -1.915  1.00  0.00     0.211 HD
ENDBRANCH  23  28
BRANCH  24  30
ATOM     30  C   UNL     1      -5.918 -19.365  -5.026  1.00  0.00     0.191 C 
BRANCH  30  31
ATOM     31  O   UNL     1      -6.496 -20.641  -4.959  1.00  0.00    -0.394 OA
ATOM     32  H   UNL     1      -7.298 -20.622  -5.544  1.00  0.00     0.210 HD
ENDBRANCH  30  31
ENDBRANCH  24  30
BRANCH  25  33
ATOM     33  O   UNL     1      -7.793 -18.740  -2.806  1.00  0.00    -0.388 OA
ATOM     34  H   UNL     1      -7.593 -19.688  -3.023  1.00  0.00     0.211 HD
ENDBRANCH  25  33
ENDBRANCH  11  20
BRANCH  10  35
ATOM     35  O   UNL     1      -3.432 -15.509  -4.366  1.00  0.00    -0.507 OA
ATOM     36  H   UNL     1      -3.389 -14.691  -4.962  1.00  0.00     0.293 HD
ENDBRANCH  10  35
TORSDOF 9
ENDMDL
MODEL 7
REMARK VINA RESULT:    -5.790     13.207     14.903
REMARK INTER + INTRA:          -8.200
REMARK INTER:                  -7.091
REMARK INTRA:                  -1.109
REMARK UNBOUND:                -0.379
REMARK SMILES O=c1c(-c2ccc(O)cc2)coc2c([C@@H]3O[C@H](CO)[C@@H](O)[C@H](O)[C@H]3O)c(O)ccc12
REMARK SMILES IDX 3 1 11 2 12 3 13 4 30 5 2 6 1 7 29 8 28 9 26 10 14 11 4 12
REMARK SMILES IDX 5 13 6 14 7 15 10 16 9 17 8 18 15 20 24 21 16 22 22 23 17 24
REMARK SMILES IDX 20 25 25 26 23 28 18 30 19 31 21 33 27 35
REMARK H PARENT 8 19 25 27 23 29 19 32 21 34 27 36
REMARK Flexibility Score: inf
ROOT
ATOM      1  C   UNL     1       1.373 -22.454  -4.815  1.00  0.00     0.065 A 
ATOM      2  C   UNL     1       1.168 -21.469  -3.837  1.00  0.00     0.208 A 
ATOM      3  O   UNL     1       2.194 -20.824  -3.297  1.00  0.00    -0.463 OA
ATOM      4  C   UNL     1       3.460 -21.057  -3.631  1.00  0.00     0.147 A 
ATOM      5  C   UNL     1       3.757 -22.035  -4.608  1.00  0.00     0.066 A 
ATOM      6  C   UNL     1       2.695 -22.744  -5.198  1.00  0.00     0.200 A 
ATOM      7  O   UNL     1       2.926 -23.647  -6.050  1.00  0.00    -0.288 OA
ATOM      8  C   UNL     1       5.094 -22.274  -4.966  1.00  0.00     0.020 A 
ATOM      9  C   UNL     1       6.121 -21.545  -4.370  1.00  0.00     0.047 A 
ATOM     10  C   UNL     1       5.838 -20.571  -3.405  1.00  0.00     0.125 A 
ATOM     11  C   UNL     1       4.503 -20.328  -3.011  1.00  0.00     0.069 A 
ENDROOT
BRANCH   1  12
ATOM     12  C   UNL     1       0.209 -23.158  -5.411  1.00  0.00    -0.011 A 
ATOM     13  C   UNL     1      -0.428 -22.649  -6.557  1.00  0.00     0.013 A 
ATOM     14  C   UNL     1      -1.528 -23.312  -7.108  1.00  0.00     0.047 A 
ATOM     15  C   UNL     1      -2.010 -24.488  -6.518  1.00  0.00     0.115 A 
ATOM     16  C   UNL     1      -0.285 -24.335  -4.821  1.00  0.00     0.013 A 
ATOM     17  C   UNL     1      -1.387 -24.996  -5.374  1.00  0.00     0.047 A 
BRANCH  15  18
ATOM     18  O   UNL     1      -3.105 -25.156  -7.058  1.00  0.00    -0.508 OA
ATOM     19  H   UNL     1      -3.139 -26.168  -7.106  1.00  0.00     0.293 HD
ENDBRANCH  15  18
ENDBRANCH   1  12
BRANCH  11  20
ATOM     20  C   UNL     1       4.191 -19.256  -1.975  1.00  0.00     0.188 C 
ATOM     21  C   UNL     1       4.385 -19.819  -0.549  1.00  0.00     0.179 C 
ATOM     22  O   UNL     1       5.039 -18.139  -2.192  1.00  0.00    -0.362 OA
ATOM     23  C   UNL     1       4.109 -18.717   0.486  1.00  0.00     0.177 C 
ATOM     24  C   UNL     1       4.690 -17.058  -1.344  1.00  0.00     0.176 C 
ATOM     25  C   UNL     1       4.917 -17.451   0.140  1.00  0.00     0.177 C 
BRANCH  21  26
ATOM     26  O   UNL     1       3.504 -20.895  -0.346  1.00  0.00    -0.387 OA
ATOM     27  H   UNL     1       3.623 -21.192   0.593  1.00  0.00     0.211 HD
ENDBRANCH  21  26
BRANCH  23  28
ATOM     28  O   UNL     1       4.465 -19.181   1.762  1.00  0.00    -0.387 OA
ATOM     29  H   UNL     1       5.272 -18.672   2.038  1.00  0.00     0.211 HD
ENDBRANCH  23  28
BRANCH  24  30
ATOM     30  C   UNL     1       5.553 -15.850  -1.743  1.00  0.00     0.191 C 
BRANCH  30  31
ATOM     31  O   UNL     1       6.836 -15.932  -1.185  1.00  0.00    -0.394 OA
ATOM     32  H   UNL     1       7.455 -16.163  -1.927  1.00  0.00     0.210 HD
ENDBRANCH  30  31
ENDBRANCH  24  30
BRANCH  25  33
ATOM     33  O   UNL     1       4.575 -16.399   1.010  1.00  0.00    -0.388 OA
ATOM     34  H   UNL     1       5.418 -16.043   1.394  1.00  0.00     0.211 HD
ENDBRANCH  25  33
ENDBRANCH  11  20
BRANCH  10  35
ATOM     35  O   UNL     1       6.886 -19.844  -2.840  1.00  0.00    -0.507 OA
ATOM     36  H   UNL     1       7.684 -19.545  -3.388  1.00  0.00     0.293 HD
ENDBRANCH  10  35
TORSDOF 9
ENDMDL
MODEL 8
REMARK VINA RESULT:    -5.682      8.088     12.030
REMARK INTER + INTRA:          -8.053
REMARK INTER:                  -7.283
REMARK INTRA:                  -0.770
REMARK UNBOUND:                -0.379
REMARK SMILES O=c1c(-c2ccc(O)cc2)coc2c([C@@H]3O[C@H](CO)[C@@H](O)[C@H](O)[C@H]3O)c(O)ccc12
REMARK SMILES IDX 3 1 11 2 12 3 13 4 30 5 2 6 1 7 29 8 28 9 26 10 14 11 4 12
REMARK SMILES IDX 5 13 6 14 7 15 10 16 9 17 8 18 15 20 24 21 16 22 22 23 17 24
REMARK SMILES IDX 20 25 25 26 23 28 18 30 19 31 21 33 27 35
REMARK H PARENT 8 19 25 27 23 29 19 32 21 34 27 36
REMARK Flexibility Score: inf
ROOT
ATOM      1  C   UNL     1      -2.565 -17.697  -1.813  1.00  0.00     0.065 A 
ATOM      2  C   UNL     1      -1.669 -17.833  -0.742  1.00  0.00     0.208 A 
ATOM      3  O   UNL     1      -0.417 -18.221  -0.947  1.00  0.00    -0.463 OA
ATOM      4  C   UNL     1       0.070 -18.505  -2.152  1.00  0.00     0.147 A 
ATOM      5  C   UNL     1      -0.765 -18.395  -3.288  1.00  0.00     0.066 A 
ATOM      6  C   UNL     1      -2.101 -17.993  -3.107  1.00  0.00     0.200 A 
ATOM      7  O   UNL     1      -2.883 -17.916  -4.095  1.00  0.00    -0.288 OA
ATOM      8  C   UNL     1      -0.247 -18.687  -4.560  1.00  0.00     0.020 A 
ATOM      9  C   UNL     1       1.084 -19.072  -4.704  1.00  0.00     0.047 A 
ATOM     10  C   UNL     1       1.921 -19.179  -3.587  1.00  0.00     0.125 A 
ATOM     11  C   UNL     1       1.418 -18.914  -2.294  1.00  0.00     0.069 A 
ENDROOT
BRANCH   1  12
ATOM     12  C   UNL     1      -3.960 -17.254  -1.559  1.00  0.00    -0.011 A 
ATOM     13  C   UNL     1      -4.218 -16.043  -0.891  1.00  0.00     0.013 A 
ATOM     14  C   UNL     1      -5.532 -15.636  -0.648  1.00  0.00     0.047 A 
ATOM     15  C   UNL     1      -6.606 -16.435  -1.063  1.00  0.00     0.115 A 
ATOM     16  C   UNL     1      -5.042 -18.054  -1.966  1.00  0.00     0.013 A 
ATOM     17  C   UNL     1      -6.356 -17.643  -1.721  1.00  0.00     0.047 A 
BRANCH  15  18
ATOM     18  O   UNL     1      -7.919 -16.040  -0.826  1.00  0.00    -0.508 OA
ATOM     19  H   UNL     1      -8.413 -16.318   0.014  1.00  0.00     0.293 HD
ENDBRANCH  15  18
ENDBRANCH   1  12
BRANCH  11  20
ATOM     20  C   UNL     1       2.331 -19.012  -1.079  1.00  0.00     0.188 C 
ATOM     21  C   UNL     1       2.315 -20.449  -0.514  1.00  0.00     0.179 C 
ATOM     22  O   UNL     1       3.646 -18.635  -1.456  1.00  0.00    -0.362 OA
ATOM     23  C   UNL     1       3.272 -20.546   0.685  1.00  0.00     0.177 C 
ATOM     24  C   UNL     1       4.504 -18.572  -0.328  1.00  0.00     0.176 C 
ATOM     25  C   UNL     1       4.655 -19.981   0.306  1.00  0.00     0.177 C 
BRANCH  21  26
ATOM     26  O   UNL     1       1.011 -20.779  -0.109  1.00  0.00    -0.387 OA
ATOM     27  H   UNL     1       1.072 -21.097   0.829  1.00  0.00     0.211 HD
ENDBRANCH  21  26
BRANCH  23  28
ATOM     28  O   UNL     1       3.393 -21.889   1.074  1.00  0.00    -0.387 OA
ATOM     29  H   UNL     1       2.538 -22.336   0.838  1.00  0.00     0.211 HD
ENDBRANCH  23  28
BRANCH  24  30
ATOM     30  C   UNL     1       5.859 -18.019  -0.798  1.00  0.00     0.191 C 
BRANCH  30  31
ATOM     31  O   UNL     1       6.869 -18.986  -0.695  1.00  0.00    -0.394 OA
ATOM     32  H   UNL     1       6.424 -19.838  -0.446  1.00  0.00     0.210 HD
ENDBRANCH  30  31
ENDBRANCH  24  30
BRANCH  25  33
ATOM     33  O   UNL     1       5.498 -19.951   1.432  1.00  0.00    -0.388 OA
ATOM     34  H   UNL     1       6.277 -19.378   1.208  1.00  0.00     0.211 HD
ENDBRANCH  25  33
ENDBRANCH  11  20
BRANCH  10  35
ATOM     35  O   UNL     1       3.255 -19.548  -3.765  1.00  0.00    -0.507 OA
ATOM     36  H   UNL     1       4.017 -18.982  -3.410  1.00  0.00     0.293 HD
ENDBRANCH  10  35
TORSDOF 9
ENDMDL
MODEL 9
REMARK VINA RESULT:    -5.595      2.642      8.516
REMARK INTER + INTRA:          -7.936
REMARK INTER:                  -6.968
REMARK INTRA:                  -0.968
REMARK UNBOUND:                -0.379
REMARK SMILES O=c1c(-c2ccc(O)cc2)coc2c([C@@H]3O[C@H](CO)[C@@H](O)[C@H](O)[C@H]3O)c(O)ccc12
REMARK SMILES IDX 3 1 11 2 12 3 13 4 30 5 2 6 1 7 29 8 28 9 26 10 14 11 4 12
REMARK SMILES IDX 5 13 6 14 7 15 10 16 9 17 8 18 15 20 24 21 16 22 22 23 17 24
REMARK SMILES IDX 20 25 25 26 23 28 18 30 19 31 21 33 27 35
REMARK H PARENT 8 19 25 27 23 29 19 32 21 34 27 36
REMARK Flexibility Score: inf
ROOT
ATOM      1  C   UNL     1      -7.734 -14.029   5.361  1.00  0.00     0.065 A 
ATOM      2  C   UNL     1      -7.585 -13.104   4.316  1.00  0.00     0.208 A 
ATOM      3  O   UNL     1      -7.787 -13.463   3.055  1.00  0.00    -0.463 OA
ATOM      4  C   UNL     1      -8.137 -14.694   2.694  1.00  0.00     0.147 A 
ATOM      5  C   UNL     1      -8.309 -15.691   3.683  1.00  0.00     0.066 A 
ATOM      6  C   UNL     1      -8.096 -15.348   5.031  1.00  0.00     0.200 A 
ATOM      7  O   UNL     1      -8.209 -16.221   5.936  1.00  0.00    -0.288 OA
ATOM      8  C   UNL     1      -8.687 -16.988   3.302  1.00  0.00     0.020 A 
ATOM      9  C   UNL     1      -8.901 -17.290   1.959  1.00  0.00     0.047 A 
ATOM     10  C   UNL     1      -8.738 -16.311   0.972  1.00  0.00     0.125 A 
ATOM     11  C   UNL     1      -8.336 -15.004   1.327  1.00  0.00     0.069 A 
ENDROOT
BRANCH   1  12
ATOM     12  C   UNL     1      -7.509 -13.602   6.765  1.00  0.00    -0.011 A 
ATOM     13  C   UNL     1      -8.548 -13.667   7.710  1.00  0.00     0.013 A 
ATOM     14  C   UNL     1      -8.333 -13.255   9.028  1.00  0.00     0.047 A 
ATOM     15  C   UNL     1      -7.077 -12.770   9.418  1.00  0.00     0.115 A 
ATOM     16  C   UNL     1      -6.254 -13.107   7.162  1.00  0.00     0.013 A 
ATOM     17  C   UNL     1      -6.041 -12.697   8.482  1.00  0.00     0.047 A 
BRANCH  15  18
ATOM     18  O   UNL     1      -6.851 -12.358  10.728  1.00  0.00    -0.508 OA
ATOM     19  H   UNL     1      -5.971 -12.541  11.197  1.00  0.00     0.293 HD
ENDBRANCH  15  18
ENDBRANCH   1  12
BRANCH  11  20
ATOM     20  C   UNL     1      -8.177 -13.931   0.258  1.00  0.00     0.188 C 
ATOM     21  C   UNL     1      -6.784 -14.038  -0.401  1.00  0.00     0.179 C 
ATOM     22  O   UNL     1      -9.203 -14.085  -0.710  1.00  0.00    -0.362 OA
ATOM     23  C   UNL     1      -6.651 -12.978  -1.506  1.00  0.00     0.177 C 
ATOM     24  C   UNL     1      -9.183 -13.023  -1.650  1.00  0.00     0.176 C 
ATOM     25  C   UNL     1      -7.860 -13.052  -2.459  1.00  0.00     0.177 C 
BRANCH  21  26
ATOM     26  O   UNL     1      -5.789 -13.838   0.571  1.00  0.00    -0.387 OA
ATOM     27  H   UNL     1      -5.753 -14.664   1.121  1.00  0.00     0.211 HD
ENDBRANCH  21  26
BRANCH  23  28
ATOM     28  O   UNL     1      -5.462 -13.201  -2.220  1.00  0.00    -0.387 OA
ATOM     29  H   UNL     1      -5.717 -13.324  -3.172  1.00  0.00     0.211 HD
ENDBRANCH  23  28
BRANCH  24  30
ATOM     30  C   UNL     1     -10.407 -13.185  -2.568  1.00  0.00     0.191 C 
BRANCH  30  31
ATOM     31  O   UNL     1     -10.080 -13.890  -3.735  1.00  0.00    -0.394 OA
ATOM     32  H   UNL     1      -9.126 -14.153  -3.651  1.00  0.00     0.210 HD
ENDBRANCH  30  31
ENDBRANCH  24  30
BRANCH  25  33
ATOM     33  O   UNL     1      -7.807 -12.007  -3.399  1.00  0.00    -0.388 OA
ATOM     34  H   UNL     1      -7.095 -11.379  -3.109  1.00  0.00     0.211 HD
ENDBRANCH  25  33
ENDBRANCH  11  20
BRANCH  10  35
ATOM     35  O   UNL     1      -8.979 -16.638  -0.363  1.00  0.00    -0.507 OA
ATOM     36  H   UNL     1      -9.041 -17.600  -0.673  1.00  0.00     0.293 HD
ENDBRANCH  10  35
TORSDOF 9
ENDMDL
