MODEL 1
REMARK VINA RESULT:    -4.474      0.000      0.000
REMARK INTER + INTRA:          -8.296
REMARK INTER:                  -7.613
REMARK INTRA:                  -0.684
REMARK UNBOUND:                -0.684
REMARK SMILES CCCCCCCCCCCCCC(=O)[O-]
REMARK SMILES IDX 8 1 9 2 10 3 11 4 12 5 13 6 14 7 15 8 16 9 7 10 6 11 5 12
REMARK SMILES IDX 4 13 3 14 2 15 1 16
REMARK H PARENT
REMARK Flexibility Score: inf
ROOT
ATOM      1  C   UNL     1      50.196  33.759   4.019  1.00  0.00     0.000 C 
ENDROOT
BRANCH   1   2
ATOM      2  C   UNL     1      50.515  33.904   2.527  1.00  0.00     0.000 C 
BRANCH   2   3
ATOM      3  C   UNL     1      51.651  32.957   2.113  1.00  0.00     0.000 C 
BRANCH   3   4
ATOM      4  C   UNL     1      51.494  32.423   0.677  1.00  0.00     0.000 C 
BRANCH   4   5
ATOM      5  C   UNL     1      50.198  32.853  -0.041  1.00  0.00     0.006 C 
BRANCH   5   6
ATOM      6  C   UNL     1      50.091  32.385  -1.500  1.00  0.00     0.053 C 
BRANCH   6   7
ATOM      7  C   UNL     1      49.937  33.533  -2.449  1.00  0.00     0.041 C 
ATOM      8  O   UNL     1      50.874  34.360  -2.600  1.00  0.00    -0.550 OA
ATOM      9  O   UNL     1      48.745  33.710  -3.140  1.00  0.00    -0.550 OA
ENDBRANCH   6   7
ENDBRANCH   5   6
ENDBRANCH   4   5
ENDBRANCH   3   4
ENDBRANCH   2   3
ENDBRANCH   1   2
BRANCH   1  10
ATOM     10  C   UNL     1      50.967  32.587   4.636  1.00  0.00     0.000 C 
BRANCH  10  11
ATOM     11  C   UNL     1      50.599  32.401   6.113  1.00  0.00    -0.000 C 
BRANCH  11  12
ATOM     12  C   UNL     1      49.409  33.287   6.501  1.00  0.00    -0.000 C 
BRANCH  12  13
ATOM     13  C   UNL     1      49.378  33.535   8.013  1.00  0.00    -0.000 C 
BRANCH  13  14
ATOM     14  C   UNL     1      49.970  34.906   8.359  1.00  0.00    -0.000 C 
BRANCH  14  15
ATOM     15  C   UNL     1      49.575  35.334   9.778  1.00  0.00    -0.003 C 
ATOM     16  C   UNL     1      48.161  34.870  10.120  1.00  0.00     0.004 C 
ENDBRANCH  14  15
ENDBRANCH  13  14
ENDBRANCH  12  13
ENDBRANCH  11  12
ENDBRANCH  10  11
ENDBRANCH   1  10
TORSDOF 12
ENDMDL
MODEL 2
REMARK VINA RESULT:    -4.394      4.561      8.900
REMARK INTER + INTRA:          -8.161
REMARK INTER:                  -7.492
REMARK INTRA:                  -0.668
REMARK UNBOUND:                -0.684
REMARK SMILES CCCCCCCCCCCCCC(=O)[O-]
REMARK SMILES IDX 8 1 9 2 10 3 11 4 12 5 13 6 14 7 15 8 16 9 7 10 6 11 5 12
REMARK SMILES IDX 4 13 3 14 2 15 1 16
REMARK H PARENT
REMARK Flexibility Score: inf
ROOT
ATOM      1  C   UNL     1      50.362  33.759   3.730  1.00  0.00     0.000 C 
ENDROOT
BRANCH   1   2
ATOM      2  C   UNL     1      51.175  32.641   4.395  1.00  0.00     0.000 C 
BRANCH   2   3
ATOM      3  C   UNL     1      50.342  31.916   5.462  1.00  0.00     0.000 C 
BRANCH   3   4
ATOM      4  C   UNL     1      50.480  32.543   6.861  1.00  0.00     0.000 C 
BRANCH   4   5
ATOM      5  C   UNL     1      49.403  33.588   7.217  1.00  0.00     0.006 C 
BRANCH   5   6
ATOM      6  C   UNL     1      49.937  34.838   7.932  1.00  0.00     0.053 C 
BRANCH   6   7
ATOM      7  C   UNL     1      49.521  34.884   9.370  1.00  0.00     0.041 C 
ATOM      8  O   UNL     1      48.299  34.869   9.676  1.00  0.00    -0.550 OA
ATOM      9  O   UNL     1      50.480  34.978  10.370  1.00  0.00    -0.550 OA
ENDBRANCH   6   7
ENDBRANCH   5   6
ENDBRANCH   4   5
ENDBRANCH   3   4
ENDBRANCH   2   3
ENDBRANCH   1   2
BRANCH   1  10
ATOM     10  C   UNL     1      50.561  33.755   2.210  1.00  0.00     0.000 C 
BRANCH  10  11
ATOM     11  C   UNL     1      51.909  33.132   1.831  1.00  0.00    -0.000 C 
BRANCH  11  12
ATOM     12  C   UNL     1      51.762  32.180   0.638  1.00  0.00    -0.000 C 
BRANCH  12  13
ATOM     13  C   UNL     1      50.486  32.485  -0.155  1.00  0.00    -0.000 C 
BRANCH  13  14
ATOM     14  C   UNL     1      50.802  33.304  -1.412  1.00  0.00    -0.000 C 
BRANCH  14  15
ATOM     15  C   UNL     1      49.515  33.765  -2.105  1.00  0.00    -0.003 C 
ATOM     16  C   UNL     1      49.638  33.657  -3.623  1.00  0.00     0.004 C 
ENDBRANCH  14  15
ENDBRANCH  13  14
ENDBRANCH  12  13
ENDBRANCH  11  12
ENDBRANCH  10  11
ENDBRANCH   1  10
TORSDOF 12
ENDMDL
MODEL 3
REMARK VINA RESULT:    -4.373      4.000      8.178
REMARK INTER + INTRA:          -8.124
REMARK INTER:                  -6.643
REMARK INTRA:                  -1.482
REMARK UNBOUND:                -0.684
REMARK SMILES CCCCCCCCCCCCCC(=O)[O-]
REMARK SMILES IDX 8 1 9 2 10 3 11 4 12 5 13 6 14 7 15 8 16 9 7 10 6 11 5 12
REMARK SMILES IDX 4 13 3 14 2 15 1 16
REMARK H PARENT
REMARK Flexibility Score: inf
ROOT
ATOM      1  C   UNL     1      51.947  31.899   0.958  1.00  0.00     0.000 C 
ENDROOT
BRANCH   1   2
ATOM      2  C   UNL     1      52.036  33.016   2.003  1.00  0.00     0.000 C 
BRANCH   2   3
ATOM      3  C   UNL     1      50.713  33.791   2.094  1.00  0.00     0.000 C 
BRANCH   3   4
ATOM      4  C   UNL     1      50.015  33.628   3.457  1.00  0.00     0.000 C 
BRANCH   4   5
ATOM      5  C   UNL     1      50.935  33.182   4.612  1.00  0.00     0.006 C 
BRANCH   5   6
ATOM      6  C   UNL     1      50.248  32.315   5.677  1.00  0.00     0.053 C 
BRANCH   6   7
ATOM      7  C   UNL     1      49.538  33.143   6.704  1.00  0.00     0.041 C 
ATOM      8  O   UNL     1      48.665  32.620   7.445  1.00  0.00    -0.550 OA
ATOM      9  O   UNL     1      49.817  34.499   6.818  1.00  0.00    -0.550 OA
ENDBRANCH   6   7
ENDBRANCH   5   6
ENDBRANCH   4   5
ENDBRANCH   3   4
ENDBRANCH   2   3
ENDBRANCH   1   2
BRANCH   1  10
ATOM     10  C   UNL     1      50.816  32.167  -0.041  1.00  0.00     0.000 C 
BRANCH  10  11
ATOM     11  C   UNL     1      51.358  32.282  -1.471  1.00  0.00    -0.000 C 
BRANCH  11  12
ATOM     12  C   UNL     1      51.211  33.712  -2.003  1.00  0.00    -0.000 C 
BRANCH  12  13
ATOM     13  C   UNL     1      52.552  34.454  -1.964  1.00  0.00    -0.000 C 
BRANCH  13  14
ATOM     14  C   UNL     1      53.725  33.469  -1.917  1.00  0.00    -0.000 C 
BRANCH  14  15
ATOM     15  C   UNL     1      54.752  33.887  -0.857  1.00  0.00    -0.003 C 
ATOM     16  C   UNL     1      54.242  35.064  -0.031  1.00  0.00     0.004 C 
ENDBRANCH  14  15
ENDBRANCH  13  14
ENDBRANCH  12  13
ENDBRANCH  11  12
ENDBRANCH  10  11
ENDBRANCH   1  10
TORSDOF 12
ENDMDL
MODEL 4
REMARK VINA RESULT:    -4.348      4.145      8.582
REMARK INTER + INTRA:          -8.082
REMARK INTER:                  -7.147
REMARK INTRA:                  -0.935
REMARK UNBOUND:                -0.684
REMARK SMILES CCCCCCCCCCCCCC(=O)[O-]
REMARK SMILES IDX 8 1 9 2 10 3 11 4 12 5 13 6 14 7 15 8 16 9 7 10 6 11 5 12
REMARK SMILES IDX 4 13 3 14 2 15 1 16
REMARK H PARENT
REMARK Flexibility Score: inf
ROOT
ATOM      1  C   UNL     1      52.037  32.298   2.162  1.00  0.00     0.000 C 
ENDROOT
BRANCH   1   2
ATOM      2  C   UNL     1      51.039  33.457   2.257  1.00  0.00     0.000 C 
BRANCH   2   3
ATOM      3  C   UNL     1      50.607  33.694   3.712  1.00  0.00     0.000 C 
BRANCH   3   4
ATOM      4  C   UNL     1      51.016  32.546   4.653  1.00  0.00     0.000 C 
BRANCH   4   5
ATOM      5  C   UNL     1      50.419  32.623   6.074  1.00  0.00     0.006 C 
BRANCH   5   6
ATOM      6  C   UNL     1      49.448  33.793   6.296  1.00  0.00     0.053 C 
BRANCH   6   7
ATOM      7  C   UNL     1      49.342  34.167   7.742  1.00  0.00     0.041 C 
ATOM      8  O   UNL     1      48.375  33.753   8.434  1.00  0.00    -0.550 OA
ATOM      9  O   UNL     1      50.292  35.002   8.317  1.00  0.00    -0.550 OA
ENDBRANCH   6   7
ENDBRANCH   5   6
ENDBRANCH   4   5
ENDBRANCH   3   4
ENDBRANCH   2   3
ENDBRANCH   1   2
BRANCH   1  10
ATOM     10  C   UNL     1      52.608  32.177   0.744  1.00  0.00     0.000 C 
BRANCH  10  11
ATOM     11  C   UNL     1      52.429  33.485  -0.036  1.00  0.00    -0.000 C 
BRANCH  11  12
ATOM     12  C   UNL     1      52.117  33.210  -1.511  1.00  0.00    -0.000 C 
BRANCH  12  13
ATOM     13  C   UNL     1      51.061  32.109  -1.654  1.00  0.00    -0.000 C 
BRANCH  13  14
ATOM     14  C   UNL     1      49.652  32.663  -1.412  1.00  0.00    -0.000 C 
BRANCH  14  15
ATOM     15  C   UNL     1      49.323  33.783  -2.407  1.00  0.00    -0.003 C 
ATOM     16  C   UNL     1      49.132  33.230  -3.816  1.00  0.00     0.004 C 
ENDBRANCH  14  15
ENDBRANCH  13  14
ENDBRANCH  12  13
ENDBRANCH  11  12
ENDBRANCH  10  11
ENDBRANCH   1  10
TORSDOF 12
ENDMDL
MODEL 5
REMARK VINA RESULT:    -4.340      5.143      9.065
REMARK INTER + INTRA:          -8.068
REMARK INTER:                  -7.178
REMARK INTRA:                  -0.890
REMARK UNBOUND:                -0.684
REMARK SMILES CCCCCCCCCCCCCC(=O)[O-]
REMARK SMILES IDX 8 1 9 2 10 3 11 4 12 5 13 6 14 7 15 8 16 9 7 10 6 11 5 12
REMARK SMILES IDX 4 13 3 14 2 15 1 16
REMARK H PARENT
REMARK Flexibility Score: inf
ROOT
ATOM      1  C   UNL     1      50.781  31.877   6.322  1.00  0.00     0.000 C 
ENDROOT
BRANCH   1   2
ATOM      2  C   UNL     1      49.259  31.923   6.494  1.00  0.00     0.000 C 
BRANCH   2   3
ATOM      3  C   UNL     1      48.879  32.296   7.935  1.00  0.00     0.000 C 
BRANCH   3   4
ATOM      4  C   UNL     1      48.670  33.809   8.128  1.00  0.00     0.000 C 
BRANCH   4   5
ATOM      5  C   UNL     1      49.936  34.598   8.523  1.00  0.00     0.006 C 
BRANCH   5   6
ATOM      6  C   UNL     1      49.794  35.432   9.805  1.00  0.00     0.053 C 
BRANCH   6   7
ATOM      7  C   UNL     1      49.316  34.609  10.961  1.00  0.00     0.041 C 
ATOM      8  O   UNL     1      48.229  34.890  11.533  1.00  0.00    -0.550 OA
ATOM      9  O   UNL     1      50.086  33.553  11.430  1.00  0.00    -0.550 OA
ENDBRANCH   6   7
ENDBRANCH   5   6
ENDBRANCH   4   5
ENDBRANCH   3   4
ENDBRANCH   2   3
ENDBRANCH   1   2
BRANCH   1  10
ATOM     10  C   UNL     1      51.197  32.405   4.945  1.00  0.00     0.000 C 
BRANCH  10  11
ATOM     11  C   UNL     1      50.255  33.521   4.475  1.00  0.00    -0.000 C 
BRANCH  11  12
ATOM     12  C   UNL     1      50.425  33.790   2.975  1.00  0.00    -0.000 C 
BRANCH  12  13
ATOM     13  C   UNL     1      51.590  32.979   2.398  1.00  0.00    -0.000 C 
BRANCH  13  14
ATOM     14  C   UNL     1      51.860  33.364   0.939  1.00  0.00    -0.000 C 
BRANCH  14  15
ATOM     15  C   UNL     1      50.769  32.811   0.014  1.00  0.00    -0.003 C 
ATOM     16  C   UNL     1      50.881  33.407  -1.387  1.00  0.00     0.004 C 
ENDBRANCH  14  15
ENDBRANCH  13  14
ENDBRANCH  12  13
ENDBRANCH  11  12
ENDBRANCH  10  11
ENDBRANCH   1  10
TORSDOF 12
ENDMDL
MODEL 6
REMARK VINA RESULT:    -4.330     15.227     16.701
REMARK INTER + INTRA:          -8.051
REMARK INTER:                  -6.566
REMARK INTRA:                  -1.485
REMARK UNBOUND:                -0.684
REMARK SMILES CCCCCCCCCCCCCC(=O)[O-]
REMARK SMILES IDX 8 1 9 2 10 3 11 4 12 5 13 6 14 7 15 8 16 9 7 10 6 11 5 12
REMARK SMILES IDX 4 13 3 14 2 15 1 16
REMARK H PARENT
REMARK Flexibility Score: inf
ROOT
ATOM      1  C   UNL     1      49.557  48.483  10.961  1.00  0.00     0.000 C 
ENDROOT
BRANCH   1   2
ATOM      2  C   UNL     1      51.060  48.398  10.675  1.00  0.00     0.000 C 
BRANCH   2   3
ATOM      3  C   UNL     1      51.475  46.958  10.335  1.00  0.00     0.000 C 
BRANCH   3   4
ATOM      4  C   UNL     1      51.975  46.172  11.561  1.00  0.00     0.000 C 
BRANCH   4   5
ATOM      5  C   UNL     1      53.259  46.726  12.212  1.00  0.00     0.006 C 
BRANCH   5   6
ATOM      6  C   UNL     1      54.556  46.052  11.740  1.00  0.00     0.053 C 
BRANCH   6   7
ATOM      7  C   UNL     1      54.569  44.585  12.044  1.00  0.00     0.041 C 
ATOM      8  O   UNL     1      54.681  44.185  13.233  1.00  0.00    -0.550 OA
ATOM      9  O   UNL     1      54.493  43.660  11.011  1.00  0.00    -0.550 OA
ENDBRANCH   6   7
ENDBRANCH   5   6
ENDBRANCH   4   5
ENDBRANCH   3   4
ENDBRANCH   2   3
ENDBRANCH   1   2
BRANCH   1  10
ATOM     10  C   UNL     1      49.295  48.914  12.409  1.00  0.00     0.000 C 
BRANCH  10  11
ATOM     11  C   UNL     1      48.690  47.767  13.226  1.00  0.00    -0.000 C 
BRANCH  11  12
ATOM     12  C   UNL     1      48.300  46.591  12.322  1.00  0.00    -0.000 C 
BRANCH  12  13
ATOM     13  C   UNL     1      46.850  46.163  12.570  1.00  0.00    -0.000 C 
BRANCH  13  14
ATOM     14  C   UNL     1      45.868  47.245  12.106  1.00  0.00    -0.000 C 
BRANCH  14  15
ATOM     15  C   UNL     1      46.001  47.498  10.599  1.00  0.00    -0.003 C 
ATOM     16  C   UNL     1      45.940  48.990  10.284  1.00  0.00     0.004 C 
ENDBRANCH  14  15
ENDBRANCH  13  14
ENDBRANCH  12  13
ENDBRANCH  11  12
ENDBRANCH  10  11
ENDBRANCH   1  10
TORSDOF 12
ENDMDL
MODEL 7
REMARK VINA RESULT:    -4.319      1.451      2.267
REMARK INTER + INTRA:          -8.032
REMARK INTER:                  -7.400
REMARK INTRA:                  -0.632
REMARK UNBOUND:                -0.684
REMARK SMILES CCCCCCCCCCCCCC(=O)[O-]
REMARK SMILES IDX 8 1 9 2 10 3 11 4 12 5 13 6 14 7 15 8 16 9 7 10 6 11 5 12
REMARK SMILES IDX 4 13 3 14 2 15 1 16
REMARK H PARENT
REMARK Flexibility Score: inf
ROOT
ATOM      1  C   UNL     1      50.992  32.302   5.094  1.00  0.00     0.000 C 
ENDROOT
BRANCH   1   2
ATOM      2  C   UNL     1      50.636  33.530   4.249  1.00  0.00     0.000 C 
BRANCH   2   3
ATOM      3  C   UNL     1      51.057  33.331   2.785  1.00  0.00     0.000 C 
BRANCH   3   4
ATOM      4  C   UNL     1      50.010  33.851   1.784  1.00  0.00     0.000 C 
BRANCH   4   5
ATOM      5  C   UNL     1      50.082  33.220   0.378  1.00  0.00     0.006 C 
BRANCH   5   6
ATOM      6  C   UNL     1      51.427  32.557   0.044  1.00  0.00     0.053 C 
BRANCH   6   7
ATOM      7  C   UNL     1      52.357  33.494  -0.662  1.00  0.00     0.041 C 
ATOM      8  O   UNL     1      52.099  33.878  -1.834  1.00  0.00    -0.550 OA
ATOM      9  O   UNL     1      53.525  33.917  -0.041  1.00  0.00    -0.550 OA
ENDBRANCH   6   7
ENDBRANCH   5   6
ENDBRANCH   4   5
ENDBRANCH   3   4
ENDBRANCH   2   3
ENDBRANCH   1   2
BRANCH   1  10
ATOM     10  C   UNL     1      50.320  32.366   6.470  1.00  0.00     0.000 C 
BRANCH  10  11
ATOM     11  C   UNL     1      49.410  33.596   6.584  1.00  0.00    -0.000 C 
BRANCH  11  12
ATOM     12  C   UNL     1      49.902  34.546   7.681  1.00  0.00    -0.000 C 
BRANCH  12  13
ATOM     13  C   UNL     1      49.382  34.115   9.057  1.00  0.00    -0.000 C 
BRANCH  13  14
ATOM     14  C   UNL     1      49.270  35.314  10.005  1.00  0.00    -0.000 C 
BRANCH  14  15
ATOM     15  C   UNL     1      47.927  35.308  10.744  1.00  0.00    -0.003 C 
ATOM     16  C   UNL     1      46.867  34.545   9.955  1.00  0.00     0.004 C 
ENDBRANCH  14  15
ENDBRANCH  13  14
ENDBRANCH  12  13
ENDBRANCH  11  12
ENDBRANCH  10  11
ENDBRANCH   1  10
TORSDOF 12
ENDMDL
MODEL 8
REMARK VINA RESULT:    -4.155     17.788     18.819
REMARK INTER + INTRA:          -7.754
REMARK INTER:                  -6.764
REMARK INTRA:                  -0.989
REMARK UNBOUND:                -0.684
REMARK SMILES CCCCCCCCCCCCCC(=O)[O-]
REMARK SMILES IDX 8 1 9 2 10 3 11 4 12 5 13 6 14 7 15 8 16 9 7 10 6 11 5 12
REMARK SMILES IDX 4 13 3 14 2 15 1 16
REMARK H PARENT
REMARK Flexibility Score: inf
ROOT
ATOM      1  C   UNL     1      50.962  51.578   0.897  1.00  0.00     0.000 C 
ENDROOT
BRANCH   1   2
ATOM      2  C   UNL     1      49.458  51.647   0.607  1.00  0.00     0.000 C 
BRANCH   2   3
ATOM      3  C   UNL     1      48.650  50.987   1.735  1.00  0.00     0.000 C 
BRANCH   3   4
ATOM      4  C   UNL     1      47.204  51.507   1.820  1.00  0.00     0.000 C 
BRANCH   4   5
ATOM      5  C   UNL     1      46.510  51.732   0.461  1.00  0.00     0.006 C 
BRANCH   5   6
ATOM      6  C   UNL     1      44.976  51.782   0.528  1.00  0.00     0.053 C 
BRANCH   6   7
ATOM      7  C   UNL     1      44.405  50.593   1.238  1.00  0.00     0.041 C 
ATOM      8  O   UNL     1      43.664  50.752   2.244  1.00  0.00    -0.550 OA
ATOM      9  O   UNL     1      44.720  49.309   0.811  1.00  0.00    -0.550 OA
ENDBRANCH   6   7
ENDBRANCH   5   6
ENDBRANCH   4   5
ENDBRANCH   3   4
ENDBRANCH   2   3
ENDBRANCH   1   2
BRANCH   1  10
ATOM     10  C   UNL     1      51.225  51.313   2.384  1.00  0.00     0.000 C 
BRANCH  10  11
ATOM     11  C   UNL     1      52.519  51.994   2.845  1.00  0.00    -0.000 C 
BRANCH  11  12
ATOM     12  C   UNL     1      53.531  50.964   3.360  1.00  0.00    -0.000 C 
BRANCH  12  13
ATOM     13  C   UNL     1      54.812  50.983   2.519  1.00  0.00    -0.000 C 
BRANCH  13  14
ATOM     14  C   UNL     1      54.663  50.108   1.269  1.00  0.00    -0.000 C 
BRANCH  14  15
ATOM     15  C   UNL     1      55.282  50.790   0.043  1.00  0.00    -0.003 C 
ATOM     16  C   UNL     1      54.421  51.958  -0.432  1.00  0.00     0.004 C 
ENDBRANCH  14  15
ENDBRANCH  13  14
ENDBRANCH  12  13
ENDBRANCH  11  12
ENDBRANCH  10  11
ENDBRANCH   1  10
TORSDOF 12
ENDMDL
MODEL 9
REMARK VINA RESULT:    -4.116      2.344      3.450
REMARK INTER + INTRA:          -7.687
REMARK INTER:                  -6.580
REMARK INTRA:                  -1.108
REMARK UNBOUND:                -0.684
REMARK SMILES CCCCCCCCCCCCCC(=O)[O-]
REMARK SMILES IDX 8 1 9 2 10 3 11 4 12 5 13 6 14 7 15 8 16 9 7 10 6 11 5 12
REMARK SMILES IDX 4 13 3 14 2 15 1 16
REMARK H PARENT
REMARK Flexibility Score: inf
ROOT
ATOM      1  C   UNL     1      50.482  33.760   1.562  1.00  0.00     0.000 C 
ENDROOT
BRANCH   1   2
ATOM      2  C   UNL     1      50.041  33.116   0.242  1.00  0.00     0.000 C 
BRANCH   2   3
ATOM      3  C   UNL     1      50.978  31.964  -0.148  1.00  0.00     0.000 C 
BRANCH   3   4
ATOM      4  C   UNL     1      51.715  32.212  -1.477  1.00  0.00     0.000 C 
BRANCH   4   5
ATOM      5  C   UNL     1      51.971  33.696  -1.813  1.00  0.00     0.006 C 
BRANCH   5   6
ATOM      6  C   UNL     1      53.452  34.102  -1.822  1.00  0.00     0.053 C 
BRANCH   6   7
ATOM      7  C   UNL     1      54.038  34.123  -0.444  1.00  0.00     0.041 C 
ATOM      8  O   UNL     1      53.998  35.176   0.245  1.00  0.00    -0.550 OA
ATOM      9  O   UNL     1      54.657  32.989   0.067  1.00  0.00    -0.550 OA
ENDBRANCH   6   7
ENDBRANCH   5   6
ENDBRANCH   4   5
ENDBRANCH   3   4
ENDBRANCH   2   3
ENDBRANCH   1   2
BRANCH   1  10
ATOM     10  C   UNL     1      51.666  33.004   2.175  1.00  0.00     0.000 C 
BRANCH  10  11
ATOM     11  C   UNL     1      51.415  32.694   3.656  1.00  0.00    -0.000 C 
BRANCH  11  12
ATOM     12  C   UNL     1      50.526  33.764   4.300  1.00  0.00    -0.000 C 
BRANCH  12  13
ATOM     13  C   UNL     1      49.450  33.126   5.186  1.00  0.00    -0.000 C 
BRANCH  13  14
ATOM     14  C   UNL     1      50.075  32.176   6.214  1.00  0.00    -0.000 C 
BRANCH  14  15
ATOM     15  C   UNL     1      49.651  32.552   7.639  1.00  0.00    -0.003 C 
ATOM     16  C   UNL     1      49.439  34.058   7.771  1.00  0.00     0.004 C 
ENDBRANCH  14  15
ENDBRANCH  13  14
ENDBRANCH  12  13
ENDBRANCH  11  12
ENDBRANCH  10  11
ENDBRANCH   1  10
TORSDOF 12
ENDMDL
