MODEL 1
REMARK VINA RESULT:    -5.360      0.000      0.000
REMARK INTER + INTRA:          -9.272
REMARK INTER:                  -7.867
REMARK INTRA:                  -1.405
REMARK UNBOUND:                -1.405
REMARK SMILES CC(C)COC(=O)c1ccccc1C(=O)OCC(C)C
REMARK SMILES IDX 8 1 9 2 10 3 11 4 12 5 13 6 6 7 7 8 5 9 4 10 2 11 1 12 3 13
REMARK SMILES IDX 14 14 15 15 16 16 17 17 18 18 19 19 20 20
REMARK H PARENT
REMARK Flexibility Score: inf
ROOT
ATOM      1  C   UNL     1     -16.141 -12.365   1.952  1.00  0.00     0.074 A 
ATOM      2  C   UNL     1     -15.533 -12.499   0.690  1.00  0.00     0.016 A 
ATOM      3  C   UNL     1     -15.120 -11.375  -0.025  1.00  0.00     0.001 A 
ATOM      4  C   UNL     1     -15.306 -10.101   0.506  1.00  0.00     0.001 A 
ATOM      5  C   UNL     1     -15.929  -9.943   1.745  1.00  0.00     0.016 A 
ATOM      6  C   UNL     1     -16.374 -11.062   2.474  1.00  0.00     0.074 A 
ENDROOT
BRANCH   1   7
ATOM      7  C   UNL     1     -16.455 -13.599   2.703  1.00  0.00     0.339 C 
ATOM      8  O   UNL     1     -17.586 -14.145   2.586  1.00  0.00    -0.246 OA
BRANCH   7   9
ATOM      9  O   UNL     1     -15.506 -14.126   3.588  1.00  0.00    -0.462 OA
BRANCH   9  10
ATOM     10  C   UNL     1     -15.695 -15.340   4.314  1.00  0.00     0.236 C 
BRANCH  10  11
ATOM     11  C   UNL     1     -15.090 -15.242   5.727  1.00  0.00     0.021 C 
ATOM     12  C   UNL     1     -16.030 -15.881   6.755  1.00  0.00     0.011 C 
ATOM     13  C   UNL     1     -14.800 -13.784   6.104  1.00  0.00     0.011 C 
ENDBRANCH  10  11
ENDBRANCH   9  10
ENDBRANCH   7   9
ENDBRANCH   1   7
BRANCH   6  14
ATOM     14  C   UNL     1     -17.127 -10.819   3.725  1.00  0.00     0.339 C 
ATOM     15  O   UNL     1     -16.561 -10.942   4.846  1.00  0.00    -0.246 OA
BRANCH  14  16
ATOM     16  O   UNL     1     -18.490 -10.509   3.657  1.00  0.00    -0.462 OA
BRANCH  16  17
ATOM     17  C   UNL     1     -19.408 -11.242   2.850  1.00  0.00     0.236 C 
BRANCH  17  18
ATOM     18  C   UNL     1     -19.988 -10.331   1.758  1.00  0.00     0.021 C 
ATOM     19  C   UNL     1     -19.788  -8.852   2.112  1.00  0.00     0.011 C 
ATOM     20  C   UNL     1     -19.347 -10.647   0.402  1.00  0.00     0.011 C 
ENDBRANCH  17  18
ENDBRANCH  16  17
ENDBRANCH  14  16
ENDBRANCH   6  14
TORSDOF 8
ENDMDL
MODEL 2
REMARK VINA RESULT:    -5.070      2.078      4.644
REMARK INTER + INTRA:          -8.845
REMARK INTER:                  -7.225
REMARK INTRA:                  -1.621
REMARK UNBOUND:                -1.405
REMARK SMILES CC(C)COC(=O)c1ccccc1C(=O)OCC(C)C
REMARK SMILES IDX 8 1 9 2 10 3 11 4 12 5 13 6 6 7 7 8 5 9 4 10 2 11 1 12 3 13
REMARK SMILES IDX 14 14 15 15 16 16 17 17 18 18 19 19 20 20
REMARK H PARENT
REMARK Flexibility Score: inf
ROOT
ATOM      1  C   UNL     1     -17.243 -12.652   0.694  1.00  0.00     0.074 A 
ATOM      2  C   UNL     1     -17.282 -12.375  -0.685  1.00  0.00     0.016 A 
ATOM      3  C   UNL     1     -16.116 -12.059  -1.382  1.00  0.00     0.001 A 
ATOM      4  C   UNL     1     -14.894 -12.015  -0.716  1.00  0.00     0.001 A 
ATOM      5  C   UNL     1     -14.835 -12.263   0.656  1.00  0.00     0.016 A 
ATOM      6  C   UNL     1     -16.002 -12.561   1.383  1.00  0.00     0.074 A 
ENDROOT
BRANCH   1   7
ATOM      7  C   UNL     1     -18.496 -13.086   1.348  1.00  0.00     0.339 C 
ATOM      8  O   UNL     1     -18.589 -14.247   1.835  1.00  0.00    -0.246 OA
BRANCH   7   9
ATOM      9  O   UNL     1     -19.596 -12.220   1.373  1.00  0.00    -0.462 OA
BRANCH   9  10
ATOM     10  C   UNL     1     -19.684 -11.085   2.234  1.00  0.00     0.236 C 
BRANCH  10  11
ATOM     11  C   UNL     1     -20.297  -9.878   1.500  1.00  0.00     0.021 C 
ATOM     12  C   UNL     1     -19.788  -9.818   0.056  1.00  0.00     0.011 C 
ATOM     13  C   UNL     1     -19.979  -8.568   2.232  1.00  0.00     0.011 C 
ENDBRANCH  10  11
ENDBRANCH   9  10
ENDBRANCH   7   9
ENDBRANCH   1   7
BRANCH   6  14
ATOM     14  C   UNL     1     -15.885 -12.701   2.853  1.00  0.00     0.339 C 
ATOM     15  O   UNL     1     -15.883 -13.844   3.389  1.00  0.00    -0.246 OA
BRANCH  14  16
ATOM     16  O   UNL     1     -15.839 -11.552   3.650  1.00  0.00    -0.462 OA
BRANCH  16  17
ATOM     17  C   UNL     1     -16.749 -10.467   3.493  1.00  0.00     0.236 C 
BRANCH  17  18
ATOM     18  C   UNL     1     -16.010  -9.238   2.943  1.00  0.00     0.021 C 
ATOM     19  C   UNL     1     -14.491  -9.397   3.093  1.00  0.00     0.011 C 
ATOM     20  C   UNL     1     -16.379  -9.006   1.473  1.00  0.00     0.011 C 
ENDBRANCH  17  18
ENDBRANCH  16  17
ENDBRANCH  14  16
ENDBRANCH   6  14
TORSDOF 8
ENDMDL
MODEL 3
REMARK VINA RESULT:    -5.036      2.197      3.824
REMARK INTER + INTRA:          -8.796
REMARK INTER:                  -7.055
REMARK INTRA:                  -1.742
REMARK UNBOUND:                -1.405
REMARK SMILES CC(C)COC(=O)c1ccccc1C(=O)OCC(C)C
REMARK SMILES IDX 8 1 9 2 10 3 11 4 12 5 13 6 6 7 7 8 5 9 4 10 2 11 1 12 3 13
REMARK SMILES IDX 14 14 15 15 16 16 17 17 18 18 19 19 20 20
REMARK H PARENT
REMARK Flexibility Score: inf
ROOT
ATOM      1  C   UNL     1     -16.204 -12.413   1.504  1.00  0.00     0.074 A 
ATOM      2  C   UNL     1     -15.089 -12.079   0.714  1.00  0.00     0.016 A 
ATOM      3  C   UNL     1     -15.187 -12.035  -0.676  1.00  0.00     0.001 A 
ATOM      4  C   UNL     1     -16.398 -12.322  -1.301  1.00  0.00     0.001 A 
ATOM      5  C   UNL     1     -17.511 -12.680  -0.540  1.00  0.00     0.016 A 
ATOM      6  C   UNL     1     -17.429 -12.752   0.863  1.00  0.00     0.074 A 
ENDROOT
BRANCH   1   7
ATOM      7  C   UNL     1     -16.061 -12.334   2.973  1.00  0.00     0.339 C 
ATOM      8  O   UNL     1     -15.714 -13.352   3.633  1.00  0.00    -0.246 OA
BRANCH   7   9
ATOM      9  O   UNL     1     -16.368 -11.137   3.631  1.00  0.00    -0.462 OA
BRANCH   9  10
ATOM     10  C   UNL     1     -15.380 -10.210   4.079  1.00  0.00     0.236 C 
BRANCH  10  11
ATOM     11  C   UNL     1     -14.990  -9.228   2.959  1.00  0.00     0.021 C 
ATOM     12  C   UNL     1     -14.222  -8.035   3.539  1.00  0.00     0.011 C 
ATOM     13  C   UNL     1     -16.229  -8.743   2.195  1.00  0.00     0.011 C 
ENDBRANCH  10  11
ENDBRANCH   9  10
ENDBRANCH   7   9
ENDBRANCH   1   7
BRANCH   6  14
ATOM     14  C   UNL     1     -18.613 -13.248   1.602  1.00  0.00     0.339 C 
ATOM     15  O   UNL     1     -18.648 -14.434   2.033  1.00  0.00    -0.246 OA
BRANCH  14  16
ATOM     16  O   UNL     1     -19.721 -12.409   1.766  1.00  0.00    -0.462 OA
BRANCH  16  17
ATOM     17  C   UNL     1     -19.605 -11.055   2.195  1.00  0.00     0.236 C 
BRANCH  17  18
ATOM     18  C   UNL     1     -20.276 -10.123   1.175  1.00  0.00     0.021 C 
ATOM     19  C   UNL     1     -19.234  -9.485   0.246  1.00  0.00     0.011 C 
ATOM     20  C   UNL     1     -21.321 -10.890   0.357  1.00  0.00     0.011 C 
ENDBRANCH  17  18
ENDBRANCH  16  17
ENDBRANCH  14  16
ENDBRANCH   6  14
TORSDOF 8
ENDMDL
MODEL 4
REMARK VINA RESULT:    -4.982      1.586      5.286
REMARK INTER + INTRA:          -8.716
REMARK INTER:                  -7.272
REMARK INTRA:                  -1.444
REMARK UNBOUND:                -1.405
REMARK SMILES CC(C)COC(=O)c1ccccc1C(=O)OCC(C)C
REMARK SMILES IDX 8 1 9 2 10 3 11 4 12 5 13 6 6 7 7 8 5 9 4 10 2 11 1 12 3 13
REMARK SMILES IDX 14 14 15 15 16 16 17 17 18 18 19 19 20 20
REMARK H PARENT
REMARK Flexibility Score: inf
ROOT
ATOM      1  C   UNL     1     -16.521  -9.854   1.063  1.00  0.00     0.074 A 
ATOM      2  C   UNL     1     -16.521  -9.962  -0.339  1.00  0.00     0.016 A 
ATOM      3  C   UNL     1     -15.828 -10.993  -0.975  1.00  0.00     0.001 A 
ATOM      4  C   UNL     1     -15.126 -11.931  -0.222  1.00  0.00     0.001 A 
ATOM      5  C   UNL     1     -15.093 -11.829   1.170  1.00  0.00     0.016 A 
ATOM      6  C   UNL     1     -15.766 -10.784   1.830  1.00  0.00     0.074 A 
ENDROOT
BRANCH   1   7
ATOM      7  C   UNL     1     -17.364  -8.805   1.676  1.00  0.00     0.339 C 
ATOM      8  O   UNL     1     -16.903  -7.645   1.857  1.00  0.00    -0.246 OA
BRANCH   7   9
ATOM      9  O   UNL     1     -18.658  -9.125   2.104  1.00  0.00    -0.462 OA
BRANCH   9  10
ATOM     10  C   UNL     1     -19.671  -9.633   1.236  1.00  0.00     0.236 C 
BRANCH  10  11
ATOM     11  C   UNL     1     -20.011 -11.096   1.576  1.00  0.00     0.021 C 
ATOM     12  C   UNL     1     -19.419 -11.478   2.937  1.00  0.00     0.011 C 
ATOM     13  C   UNL     1     -19.502 -12.049   0.487  1.00  0.00     0.011 C 
ENDBRANCH  10  11
ENDBRANCH   9  10
ENDBRANCH   7   9
ENDBRANCH   1   7
BRANCH   6  14
ATOM     14  C   UNL     1     -15.595 -10.669   3.296  1.00  0.00     0.339 C 
ATOM     15  O   UNL     1     -14.978  -9.686   3.793  1.00  0.00    -0.246 OA
BRANCH  14  16
ATOM     16  O   UNL     1     -16.071 -11.690   4.126  1.00  0.00    -0.462 OA
BRANCH  16  17
ATOM     17  C   UNL     1     -15.435 -12.048   5.350  1.00  0.00     0.236 C 
BRANCH  17  18
ATOM     18  C   UNL     1     -15.472 -13.573   5.532  1.00  0.00     0.021 C 
ATOM     19  C   UNL     1     -15.482 -14.289   4.175  1.00  0.00     0.011 C 
ATOM     20  C   UNL     1     -14.278 -14.040   6.372  1.00  0.00     0.011 C 
ENDBRANCH  17  18
ENDBRANCH  16  17
ENDBRANCH  14  16
ENDBRANCH   6  14
TORSDOF 8
ENDMDL
MODEL 5
REMARK VINA RESULT:    -4.933      2.368      4.562
REMARK INTER + INTRA:          -8.644
REMARK INTER:                  -7.128
REMARK INTRA:                  -1.516
REMARK UNBOUND:                -1.405
REMARK SMILES CC(C)COC(=O)c1ccccc1C(=O)OCC(C)C
REMARK SMILES IDX 8 1 9 2 10 3 11 4 12 5 13 6 6 7 7 8 5 9 4 10 2 11 1 12 3 13
REMARK SMILES IDX 14 14 15 15 16 16 17 17 18 18 19 19 20 20
REMARK H PARENT
REMARK Flexibility Score: inf
ROOT
ATOM      1  C   UNL     1     -17.308 -12.379   2.195  1.00  0.00     0.074 A 
ATOM      2  C   UNL     1     -18.392 -12.998   1.547  1.00  0.00     0.016 A 
ATOM      3  C   UNL     1     -19.671 -12.443   1.607  1.00  0.00     0.001 A 
ATOM      4  C   UNL     1     -19.887 -11.262   2.313  1.00  0.00     0.001 A 
ATOM      5  C   UNL     1     -18.831 -10.644   2.984  1.00  0.00     0.016 A 
ATOM      6  C   UNL     1     -17.538 -11.198   2.955  1.00  0.00     0.074 A 
ENDROOT
BRANCH   1   7
ATOM      7  C   UNL     1     -15.962 -12.959   2.000  1.00  0.00     0.339 C 
ATOM      8  O   UNL     1     -15.403 -13.594   2.935  1.00  0.00    -0.246 OA
BRANCH   7   9
ATOM      9  O   UNL     1     -15.292 -12.751   0.788  1.00  0.00    -0.462 OA
BRANCH   9  10
ATOM     10  C   UNL     1     -15.161 -11.470   0.172  1.00  0.00     0.236 C 
BRANCH  10  11
ATOM     11  C   UNL     1     -15.944 -11.409  -1.153  1.00  0.00     0.021 C 
ATOM     12  C   UNL     1     -17.192 -10.533  -0.995  1.00  0.00     0.011 C 
ATOM     13  C   UNL     1     -16.337 -12.814  -1.627  1.00  0.00     0.011 C 
ENDBRANCH  10  11
ENDBRANCH   9  10
ENDBRANCH   7   9
ENDBRANCH   1   7
BRANCH   6  14
ATOM     14  C   UNL     1     -16.490 -10.555   3.780  1.00  0.00     0.339 C 
ATOM     15  O   UNL     1     -16.398 -10.814   5.012  1.00  0.00    -0.246 OA
BRANCH  14  16
ATOM     16  O   UNL     1     -15.639  -9.611   3.196  1.00  0.00    -0.462 OA
BRANCH  16  17
ATOM     17  C   UNL     1     -15.947  -8.947   1.974  1.00  0.00     0.236 C 
BRANCH  17  18
ATOM     18  C   UNL     1     -16.788  -7.693   2.257  1.00  0.00     0.021 C 
ATOM     19  C   UNL     1     -15.893  -6.457   2.423  1.00  0.00     0.011 C 
ATOM     20  C   UNL     1     -17.805  -7.466   1.132  1.00  0.00     0.011 C 
ENDBRANCH  17  18
ENDBRANCH  16  17
ENDBRANCH  14  16
ENDBRANCH   6  14
TORSDOF 8
ENDMDL
MODEL 6
REMARK VINA RESULT:    -4.881      2.436      5.323
REMARK INTER + INTRA:          -8.568
REMARK INTER:                  -7.079
REMARK INTRA:                  -1.489
REMARK UNBOUND:                -1.405
REMARK SMILES CC(C)COC(=O)c1ccccc1C(=O)OCC(C)C
REMARK SMILES IDX 8 1 9 2 10 3 11 4 12 5 13 6 6 7 7 8 5 9 4 10 2 11 1 12 3 13
REMARK SMILES IDX 14 14 15 15 16 16 17 17 18 18 19 19 20 20
REMARK H PARENT
REMARK Flexibility Score: inf
ROOT
ATOM      1  C   UNL     1     -16.088 -10.211   1.517  1.00  0.00     0.074 A 
ATOM      2  C   UNL     1     -15.163 -10.601   0.531  1.00  0.00     0.016 A 
ATOM      3  C   UNL     1     -14.729 -11.924   0.445  1.00  0.00     0.001 A 
ATOM      4  C   UNL     1     -15.210 -12.877   1.341  1.00  0.00     0.001 A 
ATOM      5  C   UNL     1     -16.109 -12.507   2.342  1.00  0.00     0.016 A 
ATOM      6  C   UNL     1     -16.543 -11.174   2.460  1.00  0.00     0.074 A 
ENDROOT
BRANCH   1   7
ATOM      7  C   UNL     1     -16.590  -8.820   1.483  1.00  0.00     0.339 C 
ATOM      8  O   UNL     1     -16.109  -7.952   2.262  1.00  0.00    -0.246 OA
BRANCH   7   9
ATOM      9  O   UNL     1     -17.640  -8.489   0.618  1.00  0.00    -0.462 OA
BRANCH   9  10
ATOM     10  C   UNL     1     -18.454  -7.327   0.778  1.00  0.00     0.236 C 
BRANCH  10  11
ATOM     11  C   UNL     1     -19.891  -7.706   1.179  1.00  0.00     0.021 C 
ATOM     12  C   UNL     1     -20.902  -6.849   0.410  1.00  0.00     0.011 C 
ATOM     13  C   UNL     1     -20.101  -7.550   2.691  1.00  0.00     0.011 C 
ENDBRANCH  10  11
ENDBRANCH   9  10
ENDBRANCH   7   9
ENDBRANCH   1   7
BRANCH   6  14
ATOM     14  C   UNL     1     -17.406 -10.827   3.612  1.00  0.00     0.339 C 
ATOM     15  O   UNL     1     -16.912 -10.704   4.768  1.00  0.00    -0.246 OA
BRANCH  14  16
ATOM     16  O   UNL     1     -18.786 -10.695   3.422  1.00  0.00    -0.462 OA
BRANCH  16  17
ATOM     17  C   UNL     1     -19.577 -11.700   2.792  1.00  0.00     0.236 C 
BRANCH  17  18
ATOM     18  C   UNL     1     -19.706 -11.399   1.291  1.00  0.00     0.021 C 
ATOM     19  C   UNL     1     -19.227 -12.588   0.448  1.00  0.00     0.011 C 
ATOM     20  C   UNL     1     -21.157 -11.047   0.940  1.00  0.00     0.011 C 
ENDBRANCH  17  18
ENDBRANCH  16  17
ENDBRANCH  14  16
ENDBRANCH   6  14
TORSDOF 8
ENDMDL
MODEL 7
REMARK VINA RESULT:    -4.844      2.933      5.274
REMARK INTER + INTRA:          -8.514
REMARK INTER:                  -6.965
REMARK INTRA:                  -1.549
REMARK UNBOUND:                -1.405
REMARK SMILES CC(C)COC(=O)c1ccccc1C(=O)OCC(C)C
REMARK SMILES IDX 8 1 9 2 10 3 11 4 12 5 13 6 6 7 7 8 5 9 4 10 2 11 1 12 3 13
REMARK SMILES IDX 14 14 15 15 16 16 17 17 18 18 19 19 20 20
REMARK H PARENT
REMARK Flexibility Score: inf
ROOT
ATOM      1  C   UNL     1     -18.314  -9.091   2.756  1.00  0.00     0.074 A 
ATOM      2  C   UNL     1     -19.600  -8.532   2.641  1.00  0.00     0.016 A 
ATOM      3  C   UNL     1     -19.807  -7.365   1.906  1.00  0.00     0.001 A 
ATOM      4  C   UNL     1     -18.736  -6.737   1.274  1.00  0.00     0.001 A 
ATOM      5  C   UNL     1     -17.448  -7.260   1.395  1.00  0.00     0.016 A 
ATOM      6  C   UNL     1     -17.213  -8.424   2.150  1.00  0.00     0.074 A 
ENDROOT
BRANCH   1   7
ATOM      7  C   UNL     1     -18.183 -10.387   3.456  1.00  0.00     0.339 C 
ATOM      8  O   UNL     1     -17.376 -10.510   4.418  1.00  0.00    -0.246 OA
BRANCH   7   9
ATOM      9  O   UNL     1     -18.920 -11.489   3.007  1.00  0.00    -0.462 OA
BRANCH   9  10
ATOM     10  C   UNL     1     -18.603 -12.218   1.822  1.00  0.00     0.236 C 
BRANCH  10  11
ATOM     11  C   UNL     1     -19.677 -12.009   0.737  1.00  0.00     0.021 C 
ATOM     12  C   UNL     1     -19.241 -10.911  -0.239  1.00  0.00     0.011 C 
ATOM     13  C   UNL     1     -21.032 -11.659   1.363  1.00  0.00     0.011 C 
ENDBRANCH  10  11
ENDBRANCH   9  10
ENDBRANCH   7   9
ENDBRANCH   1   7
BRANCH   6  14
ATOM     14  C   UNL     1     -15.809  -8.860   2.332  1.00  0.00     0.339 C 
ATOM     15  O   UNL     1     -15.021  -8.192   3.057  1.00  0.00    -0.246 OA
BRANCH  14  16
ATOM     16  O   UNL     1     -15.345  -9.987   1.645  1.00  0.00    -0.462 OA
BRANCH  16  17
ATOM     17  C   UNL     1     -15.672 -10.248   0.283  1.00  0.00     0.236 C 
BRANCH  17  18
ATOM     18  C   UNL     1     -15.066 -11.589  -0.154  1.00  0.00     0.021 C 
ATOM     19  C   UNL     1     -14.966 -12.559   1.031  1.00  0.00     0.011 C 
ATOM     20  C   UNL     1     -15.897 -12.211  -1.282  1.00  0.00     0.011 C 
ENDBRANCH  17  18
ENDBRANCH  16  17
ENDBRANCH  14  16
ENDBRANCH   6  14
TORSDOF 8
ENDMDL
MODEL 8
REMARK VINA RESULT:    -4.826      1.555      4.471
REMARK INTER + INTRA:          -8.487
REMARK INTER:                  -7.319
REMARK INTRA:                  -1.168
REMARK UNBOUND:                -1.405
REMARK SMILES CC(C)COC(=O)c1ccccc1C(=O)OCC(C)C
REMARK SMILES IDX 8 1 9 2 10 3 11 4 12 5 13 6 6 7 7 8 5 9 4 10 2 11 1 12 3 13
REMARK SMILES IDX 14 14 15 15 16 16 17 17 18 18 19 19 20 20
REMARK H PARENT
REMARK Flexibility Score: inf
ROOT
ATOM      1  C   UNL     1     -15.919 -12.986   3.315  1.00  0.00     0.074 A 
ATOM      2  C   UNL     1     -15.550 -14.277   3.734  1.00  0.00     0.016 A 
ATOM      3  C   UNL     1     -15.163 -14.516   5.053  1.00  0.00     0.001 A 
ATOM      4  C   UNL     1     -15.138 -13.471   5.974  1.00  0.00     0.001 A 
ATOM      5  C   UNL     1     -15.476 -12.177   5.574  1.00  0.00     0.016 A 
ATOM      6  C   UNL     1     -15.848 -11.910   4.244  1.00  0.00     0.074 A 
ENDROOT
BRANCH   1   7
ATOM      7  C   UNL     1     -16.424 -12.824   1.935  1.00  0.00     0.339 C 
ATOM      8  O   UNL     1     -17.644 -13.013   1.679  1.00  0.00    -0.246 OA
BRANCH   7   9
ATOM      9  O   UNL     1     -15.527 -12.513   0.906  1.00  0.00    -0.462 OA
BRANCH   9  10
ATOM     10  C   UNL     1     -15.351 -11.196   0.386  1.00  0.00     0.236 C 
BRANCH  10  11
ATOM     11  C   UNL     1     -15.928 -11.079  -1.038  1.00  0.00     0.021 C 
ATOM     12  C   UNL     1     -17.267 -10.335  -1.011  1.00  0.00     0.011 C 
ATOM     13  C   UNL     1     -16.099 -12.462  -1.678  1.00  0.00     0.011 C 
ENDBRANCH  10  11
ENDBRANCH   9  10
ENDBRANCH   7   9
ENDBRANCH   1   7
BRANCH   6  14
ATOM     14  C   UNL     1     -16.083 -10.499   3.861  1.00  0.00     0.339 C 
ATOM     15  O   UNL     1     -15.111  -9.711   3.695  1.00  0.00    -0.246 OA
BRANCH  14  16
ATOM     16  O   UNL     1     -17.396 -10.029   3.742  1.00  0.00    -0.462 OA
BRANCH  16  17
ATOM     17  C   UNL     1     -17.892  -9.419   2.553  1.00  0.00     0.236 C 
BRANCH  17  18
ATOM     18  C   UNL     1     -19.427  -9.378   2.588  1.00  0.00     0.021 C 
ATOM     19  C   UNL     1     -19.947  -7.973   2.257  1.00  0.00     0.011 C 
ATOM     20  C   UNL     1     -20.011 -10.406   1.611  1.00  0.00     0.011 C 
ENDBRANCH  17  18
ENDBRANCH  16  17
ENDBRANCH  14  16
ENDBRANCH   6  14
TORSDOF 8
ENDMDL
MODEL 9
REMARK VINA RESULT:    -4.756      2.587      5.341
REMARK INTER + INTRA:          -8.385
REMARK INTER:                  -6.781
REMARK INTRA:                  -1.604
REMARK UNBOUND:                -1.405
REMARK SMILES CC(C)COC(=O)c1ccccc1C(=O)OCC(C)C
REMARK SMILES IDX 8 1 9 2 10 3 11 4 12 5 13 6 6 7 7 8 5 9 4 10 2 11 1 12 3 13
REMARK SMILES IDX 14 14 15 15 16 16 17 17 18 18 19 19 20 20
REMARK H PARENT
REMARK Flexibility Score: inf
ROOT
ATOM      1  C   UNL     1     -16.201 -10.177   1.852  1.00  0.00     0.074 A 
ATOM      2  C   UNL     1     -15.245  -9.282   2.364  1.00  0.00     0.016 A 
ATOM      3  C   UNL     1     -14.804  -9.387   3.684  1.00  0.00     0.001 A 
ATOM      4  C   UNL     1     -15.310 -10.386   4.512  1.00  0.00     0.001 A 
ATOM      5  C   UNL     1     -16.277 -11.271   4.032  1.00  0.00     0.016 A 
ATOM      6  C   UNL     1     -16.751 -11.169   2.711  1.00  0.00     0.074 A 
ENDROOT
BRANCH   1   7
ATOM      7  C   UNL     1     -16.541 -10.079   0.416  1.00  0.00     0.339 C 
ATOM      8  O   UNL     1     -15.701 -10.420  -0.460  1.00  0.00    -0.246 OA
BRANCH   7   9
ATOM      9  O   UNL     1     -17.782  -9.553   0.038  1.00  0.00    -0.462 OA
BRANCH   9  10
ATOM     10  C   UNL     1     -18.247  -8.265   0.441  1.00  0.00     0.236 C 
BRANCH  10  11
ATOM     11  C   UNL     1     -19.600  -8.366   1.170  1.00  0.00     0.021 C 
ATOM     12  C   UNL     1     -19.385  -8.448   2.685  1.00  0.00     0.011 C 
ATOM     13  C   UNL     1     -20.402  -9.578   0.679  1.00  0.00     0.011 C 
ENDBRANCH  10  11
ENDBRANCH   9  10
ENDBRANCH   7   9
ENDBRANCH   1   7
BRANCH   6  14
ATOM     14  C   UNL     1     -17.858 -12.064   2.302  1.00  0.00     0.339 C 
ATOM     15  O   UNL     1     -19.024 -11.886   2.751  1.00  0.00    -0.246 OA
BRANCH  14  16
ATOM     16  O   UNL     1     -17.588 -13.149   1.460  1.00  0.00    -0.462 OA
BRANCH  16  17
ATOM     17  C   UNL     1     -18.554 -13.684   0.559  1.00  0.00     0.236 C 
BRANCH  17  18
ATOM     18  C   UNL     1     -18.487 -12.941  -0.783  1.00  0.00     0.021 C 
ATOM     19  C   UNL     1     -17.271 -13.394  -1.603  1.00  0.00     0.011 C 
ATOM     20  C   UNL     1     -19.778 -13.158  -1.580  1.00  0.00     0.011 C 
ENDBRANCH  17  18
ENDBRANCH  16  17
ENDBRANCH  14  16
ENDBRANCH   6  14
TORSDOF 8
ENDMDL
