MODEL 1
REMARK VINA RESULT:    -4.169      0.000      0.000
REMARK INTER + INTRA:          -6.845
REMARK INTER:                  -6.362
REMARK INTRA:                  -0.483
REMARK UNBOUND:                -0.483
REMARK SMILES CCCCCCCCCCC(=O)[O-]
REMARK SMILES IDX 7 1 8 2 9 3 10 4 11 5 12 6 13 7 6 8 5 9 4 10 3 11 2 12 1 13
REMARK H PARENT
REMARK Flexibility Score: inf
ROOT
ATOM      1  C   UNL     1      44.803  26.077   2.737  1.00  0.00     0.000 C 
ENDROOT
BRANCH   1   2
ATOM      2  C   UNL     1      44.642  27.602   2.680  1.00  0.00     0.000 C 
BRANCH   2   3
ATOM      3  C   UNL     1      43.442  27.997   1.809  1.00  0.00     0.006 C 
BRANCH   3   4
ATOM      4  C   UNL     1      43.079  26.875   0.834  1.00  0.00     0.053 C 
BRANCH   4   5
ATOM      5  C   UNL     1      43.516  27.224  -0.553  1.00  0.00     0.041 C 
ATOM      6  O   UNL     1      43.290  28.371  -1.019  1.00  0.00    -0.550 OA
ATOM      7  O   UNL     1      44.218  26.298  -1.315  1.00  0.00    -0.550 OA
ENDBRANCH   4   5
ENDBRANCH   3   4
ENDBRANCH   2   3
ENDBRANCH   1   2
BRANCH   1   8
ATOM      8  C   UNL     1      45.274  25.576   4.114  1.00  0.00     0.000 C 
BRANCH   8   9
ATOM      9  C   UNL     1      46.250  26.514   4.853  1.00  0.00    -0.000 C 
BRANCH   9  10
ATOM     10  C   UNL     1      46.063  26.587   6.380  1.00  0.00    -0.000 C 
BRANCH  10  11
ATOM     11  C   UNL     1      45.760  28.010   6.877  1.00  0.00    -0.000 C 
BRANCH  11  12
ATOM     12  C   UNL     1      45.249  28.031   8.325  1.00  0.00    -0.003 C 
ATOM     13  C   UNL     1      45.203  26.639   8.957  1.00  0.00     0.004 C 
ENDBRANCH  11  12
ENDBRANCH  10  11
ENDBRANCH   9  10
ENDBRANCH   8   9
ENDBRANCH   1   8
TORSDOF 9
ENDMDL
MODEL 2
REMARK VINA RESULT:    -4.118      1.172      1.786
REMARK INTER + INTRA:          -6.767
REMARK INTER:                  -6.147
REMARK INTRA:                  -0.620
REMARK UNBOUND:                -0.483
REMARK SMILES CCCCCCCCCCC(=O)[O-]
REMARK SMILES IDX 7 1 8 2 9 3 10 4 11 5 12 6 13 7 6 8 5 9 4 10 3 11 2 12 1 13
REMARK H PARENT
REMARK Flexibility Score: inf
ROOT
ATOM      1  C   UNL     1      44.706  27.803   2.658  1.00  0.00     0.000 C 
ENDROOT
BRANCH   1   2
ATOM      2  C   UNL     1      43.646  28.574   1.857  1.00  0.00     0.000 C 
BRANCH   2   3
ATOM      3  C   UNL     1      42.793  27.619   1.013  1.00  0.00     0.006 C 
BRANCH   3   4
ATOM      4  C   UNL     1      43.003  27.870  -0.482  1.00  0.00     0.053 C 
BRANCH   4   5
ATOM      5  C   UNL     1      44.074  26.974  -1.019  1.00  0.00     0.041 C 
ATOM      6  O   UNL     1      45.281  27.327  -0.964  1.00  0.00    -0.550 OA
ATOM      7  O   UNL     1      43.744  25.728  -1.536  1.00  0.00    -0.550 OA
ENDBRANCH   4   5
ENDBRANCH   3   4
ENDBRANCH   2   3
ENDBRANCH   1   2
BRANCH   1   8
ATOM      8  C   UNL     1      44.475  26.282   2.646  1.00  0.00     0.000 C 
BRANCH   8   9
ATOM      9  C   UNL     1      45.222  25.497   3.743  1.00  0.00    -0.000 C 
BRANCH   9  10
ATOM     10  C   UNL     1      46.236  26.317   4.563  1.00  0.00    -0.000 C 
BRANCH  10  11
ATOM     11  C   UNL     1      45.918  26.328   6.068  1.00  0.00    -0.000 C 
BRANCH  11  12
ATOM     12  C   UNL     1      46.558  27.519   6.795  1.00  0.00    -0.003 C 
ATOM     13  C   UNL     1      45.571  28.660   7.049  1.00  0.00     0.004 C 
ENDBRANCH  11  12
ENDBRANCH  10  11
ENDBRANCH   9  10
ENDBRANCH   8   9
ENDBRANCH   1   8
TORSDOF 9
ENDMDL
MODEL 3
REMARK VINA RESULT:    -4.100      1.460      2.730
REMARK INTER + INTRA:          -6.740
REMARK INTER:                  -6.294
REMARK INTRA:                  -0.446
REMARK UNBOUND:                -0.483
REMARK SMILES CCCCCCCCCCC(=O)[O-]
REMARK SMILES IDX 7 1 8 2 9 3 10 4 11 5 12 6 13 7 6 8 5 9 4 10 3 11 2 12 1 13
REMARK H PARENT
REMARK Flexibility Score: inf
ROOT
ATOM      1  C   UNL     1      42.971  27.485   1.941  1.00  0.00     0.000 C 
ENDROOT
BRANCH   1   2
ATOM      2  C   UNL     1      42.427  27.395   0.508  1.00  0.00     0.000 C 
BRANCH   2   3
ATOM      3  C   UNL     1      42.938  28.561  -0.348  1.00  0.00     0.006 C 
BRANCH   3   4
ATOM      4  C   UNL     1      43.301  28.090  -1.758  1.00  0.00     0.053 C 
BRANCH   4   5
ATOM      5  C   UNL     1      44.274  26.955  -1.697  1.00  0.00     0.041 C 
ATOM      6  O   UNL     1      43.880  25.772  -1.869  1.00  0.00    -0.550 OA
ATOM      7  O   UNL     1      45.626  27.208  -1.499  1.00  0.00    -0.550 OA
ENDBRANCH   4   5
ENDBRANCH   3   4
ENDBRANCH   2   3
ENDBRANCH   1   2
BRANCH   1   8
ATOM      8  C   UNL     1      44.460  27.107   2.041  1.00  0.00     0.000 C 
BRANCH   8   9
ATOM      9  C   UNL     1      44.785  25.992   3.055  1.00  0.00    -0.000 C 
BRANCH   9  10
ATOM     10  C   UNL     1      46.255  25.533   3.079  1.00  0.00    -0.000 C 
BRANCH  10  11
ATOM     11  C   UNL     1      46.890  25.636   4.476  1.00  0.00    -0.000 C 
BRANCH  11  12
ATOM     12  C   UNL     1      46.325  26.808   5.293  1.00  0.00    -0.003 C 
ATOM     13  C   UNL     1      45.930  26.404   6.714  1.00  0.00     0.004 C 
ENDBRANCH  11  12
ENDBRANCH  10  11
ENDBRANCH   9  10
ENDBRANCH   8   9
ENDBRANCH   1   8
TORSDOF 9
ENDMDL
MODEL 4
REMARK VINA RESULT:    -4.001      1.931      3.386
REMARK INTER + INTRA:          -6.589
REMARK INTER:                  -5.509
REMARK INTRA:                  -1.080
REMARK UNBOUND:                -0.483
REMARK SMILES CCCCCCCCCCC(=O)[O-]
REMARK SMILES IDX 7 1 8 2 9 3 10 4 11 5 12 6 13 7 6 8 5 9 4 10 3 11 2 12 1 13
REMARK H PARENT
REMARK Flexibility Score: inf
ROOT
ATOM      1  C   UNL     1      43.669  29.396   1.390  1.00  0.00     0.000 C 
ENDROOT
BRANCH   1   2
ATOM      2  C   UNL     1      42.451  28.464   1.453  1.00  0.00     0.000 C 
BRANCH   2   3
ATOM      3  C   UNL     1      42.502  27.414   0.337  1.00  0.00     0.006 C 
BRANCH   3   4
ATOM      4  C   UNL     1      43.290  27.932  -0.869  1.00  0.00     0.053 C 
BRANCH   4   5
ATOM      5  C   UNL     1      44.164  26.853  -1.427  1.00  0.00     0.041 C 
ATOM      6  O   UNL     1      43.752  25.664  -1.472  1.00  0.00    -0.550 OA
ATOM      7  O   UNL     1      45.415  27.168  -1.943  1.00  0.00    -0.550 OA
ENDBRANCH   4   5
ENDBRANCH   3   4
ENDBRANCH   2   3
ENDBRANCH   1   2
BRANCH   1   8
ATOM      8  C   UNL     1      44.804  28.962   2.335  1.00  0.00     0.000 C 
BRANCH   8   9
ATOM      9  C   UNL     1      45.979  28.230   1.655  1.00  0.00    -0.000 C 
BRANCH   9  10
ATOM     10  C   UNL     1      46.033  26.709   1.893  1.00  0.00    -0.000 C 
BRANCH  10  11
ATOM     11  C   UNL     1      44.941  26.217   2.859  1.00  0.00    -0.000 C 
BRANCH  11  12
ATOM     12  C   UNL     1      45.507  25.343   3.988  1.00  0.00    -0.003 C 
ATOM     13  C   UNL     1      45.851  26.146   5.243  1.00  0.00     0.004 C 
ENDBRANCH  11  12
ENDBRANCH  10  11
ENDBRANCH   9  10
ENDBRANCH   8   9
ENDBRANCH   1   8
TORSDOF 9
ENDMDL
MODEL 5
REMARK VINA RESULT:    -3.926      3.191      4.794
REMARK INTER + INTRA:          -6.475
REMARK INTER:                  -5.865
REMARK INTRA:                  -0.611
REMARK UNBOUND:                -0.483
REMARK SMILES CCCCCCCCCCC(=O)[O-]
REMARK SMILES IDX 7 1 8 2 9 3 10 4 11 5 12 6 13 7 6 8 5 9 4 10 3 11 2 12 1 13
REMARK H PARENT
REMARK Flexibility Score: inf
ROOT
ATOM      1  C   UNL     1      43.368  26.988  -0.597  1.00  0.00     0.000 C 
ENDROOT
BRANCH   1   2
ATOM      2  C   UNL     1      43.911  28.043  -1.571  1.00  0.00     0.000 C 
BRANCH   2   3
ATOM      3  C   UNL     1      42.796  28.578  -2.479  1.00  0.00     0.006 C 
BRANCH   3   4
ATOM      4  C   UNL     1      43.291  28.745  -3.917  1.00  0.00     0.053 C 
BRANCH   4   5
ATOM      5  C   UNL     1      42.677  27.710  -4.806  1.00  0.00     0.041 C 
ATOM      6  O   UNL     1      43.074  26.517  -4.758  1.00  0.00    -0.550 OA
ATOM      7  O   UNL     1      41.630  28.054  -5.653  1.00  0.00    -0.550 OA
ENDBRANCH   4   5
ENDBRANCH   3   4
ENDBRANCH   2   3
ENDBRANCH   1   2
BRANCH   1   8
ATOM      8  C   UNL     1      42.378  27.572   0.426  1.00  0.00     0.000 C 
BRANCH   8   9
ATOM      9  C   UNL     1      42.836  27.499   1.897  1.00  0.00    -0.000 C 
BRANCH   9  10
ATOM     10  C   UNL     1      44.113  28.294   2.228  1.00  0.00    -0.000 C 
BRANCH  10  11
ATOM     11  C   UNL     1      45.284  27.392   2.653  1.00  0.00    -0.000 C 
BRANCH  11  12
ATOM     12  C   UNL     1      44.834  25.959   2.976  1.00  0.00    -0.003 C 
ATOM     13  C   UNL     1      45.973  25.084   3.502  1.00  0.00     0.004 C 
ENDBRANCH  11  12
ENDBRANCH  10  11
ENDBRANCH   9  10
ENDBRANCH   8   9
ENDBRANCH   1   8
TORSDOF 9
ENDMDL
MODEL 6
REMARK VINA RESULT:    -3.851      3.997      7.054
REMARK INTER + INTRA:          -6.360
REMARK INTER:                  -5.837
REMARK INTRA:                  -0.523
REMARK UNBOUND:                -0.483
REMARK SMILES CCCCCCCCCCC(=O)[O-]
REMARK SMILES IDX 7 1 8 2 9 3 10 4 11 5 12 6 13 7 6 8 5 9 4 10 3 11 2 12 1 13
REMARK H PARENT
REMARK Flexibility Score: inf
ROOT
ATOM      1  C   UNL     1      45.681  25.869   4.219  1.00  0.00     0.000 C 
ENDROOT
BRANCH   1   2
ATOM      2  C   UNL     1      46.164  27.308   4.447  1.00  0.00     0.000 C 
BRANCH   2   3
ATOM      3  C   UNL     1      45.946  27.737   5.903  1.00  0.00     0.006 C 
BRANCH   3   4
ATOM      4  C   UNL     1      46.038  26.538   6.850  1.00  0.00     0.053 C 
BRANCH   4   5
ATOM      5  C   UNL     1      45.398  26.858   8.164  1.00  0.00     0.041 C 
ATOM      6  O   UNL     1      45.165  25.941   8.994  1.00  0.00    -0.550 OA
ATOM      7  O   UNL     1      45.103  28.175   8.492  1.00  0.00    -0.550 OA
ENDBRANCH   4   5
ENDBRANCH   3   4
ENDBRANCH   2   3
ENDBRANCH   1   2
BRANCH   1   8
ATOM      8  C   UNL     1      44.640  25.759   3.091  1.00  0.00     0.000 C 
BRANCH   8   9
ATOM      9  C   UNL     1      44.528  26.999   2.181  1.00  0.00    -0.000 C 
BRANCH   9  10
ATOM     10  C   UNL     1      43.114  27.595   2.054  1.00  0.00    -0.000 C 
BRANCH  10  11
ATOM     11  C   UNL     1      42.568  27.538   0.617  1.00  0.00    -0.000 C 
BRANCH  11  12
ATOM     12  C   UNL     1      43.407  26.627  -0.293  1.00  0.00    -0.003 C 
ATOM     13  C   UNL     1      44.017  27.375  -1.480  1.00  0.00     0.004 C 
ENDBRANCH  11  12
ENDBRANCH  10  11
ENDBRANCH   9  10
ENDBRANCH   8   9
ENDBRANCH   1   8
TORSDOF 9
ENDMDL
MODEL 7
REMARK VINA RESULT:    -3.792      2.090      4.046
REMARK INTER + INTRA:          -6.270
REMARK INTER:                  -5.645
REMARK INTRA:                  -0.625
REMARK UNBOUND:                -0.483
REMARK SMILES CCCCCCCCCCC(=O)[O-]
REMARK SMILES IDX 7 1 8 2 9 3 10 4 11 5 12 6 13 7 6 8 5 9 4 10 3 11 2 12 1 13
REMARK H PARENT
REMARK Flexibility Score: inf
ROOT
ATOM      1  C   UNL     1      42.292  29.588   0.661  1.00  0.00     0.000 C 
ENDROOT
BRANCH   1   2
ATOM      2  C   UNL     1      42.904  29.851  -0.722  1.00  0.00     0.000 C 
BRANCH   2   3
ATOM      3  C   UNL     1      42.672  28.661  -1.661  1.00  0.00     0.006 C 
BRANCH   3   4
ATOM      4  C   UNL     1      43.918  28.375  -2.503  1.00  0.00     0.053 C 
BRANCH   4   5
ATOM      5  C   UNL     1      44.641  27.175  -1.978  1.00  0.00     0.041 C 
ATOM      6  O   UNL     1      45.898  27.123  -2.021  1.00  0.00    -0.550 OA
ATOM      7  O   UNL     1      43.928  26.133  -1.396  1.00  0.00    -0.550 OA
ENDBRANCH   4   5
ENDBRANCH   3   4
ENDBRANCH   2   3
ENDBRANCH   1   2
BRANCH   1   8
ATOM      8  C   UNL     1      42.456  28.128   1.119  1.00  0.00     0.000 C 
BRANCH   8   9
ATOM      9  C   UNL     1      43.588  27.885   2.139  1.00  0.00    -0.000 C 
BRANCH   9  10
ATOM     10  C   UNL     1      44.164  26.457   2.153  1.00  0.00    -0.000 C 
BRANCH  10  11
ATOM     11  C   UNL     1      45.676  26.426   2.430  1.00  0.00    -0.000 C 
BRANCH  11  12
ATOM     12  C   UNL     1      46.045  25.462   3.568  1.00  0.00    -0.003 C 
ATOM     13  C   UNL     1      45.913  26.098   4.952  1.00  0.00     0.004 C 
ENDBRANCH  11  12
ENDBRANCH  10  11
ENDBRANCH   9  10
ENDBRANCH   8   9
ENDBRANCH   1   8
TORSDOF 9
ENDMDL
MODEL 8
REMARK VINA RESULT:    -3.698      3.271      7.859
REMARK INTER + INTRA:          -6.126
REMARK INTER:                  -5.623
REMARK INTRA:                  -0.503
REMARK UNBOUND:                -0.483
REMARK SMILES CCCCCCCCCCC(=O)[O-]
REMARK SMILES IDX 7 1 8 2 9 3 10 4 11 5 12 6 13 7 6 8 5 9 4 10 3 11 2 12 1 13
REMARK H PARENT
REMARK Flexibility Score: inf
ROOT
ATOM      1  C   UNL     1      42.474  27.458   0.414  1.00  0.00     0.000 C 
ENDROOT
BRANCH   1   2
ATOM      2  C   UNL     1      43.140  27.508   1.796  1.00  0.00     0.000 C 
BRANCH   2   3
ATOM      3  C   UNL     1      44.603  27.054   1.719  1.00  0.00     0.006 C 
BRANCH   3   4
ATOM      4  C   UNL     1      45.310  27.246   3.063  1.00  0.00     0.053 C 
BRANCH   4   5
ATOM      5  C   UNL     1      45.447  25.937   3.775  1.00  0.00     0.041 C 
ATOM      6  O   UNL     1      45.336  24.856   3.139  1.00  0.00    -0.550 OA
ATOM      7  O   UNL     1      45.745  25.911   5.131  1.00  0.00    -0.550 OA
ENDBRANCH   4   5
ENDBRANCH   3   4
ENDBRANCH   2   3
ENDBRANCH   1   2
BRANCH   1   8
ATOM      8  C   UNL     1      42.700  28.741  -0.405  1.00  0.00     0.000 C 
BRANCH   8   9
ATOM      9  C   UNL     1      43.071  28.515  -1.886  1.00  0.00    -0.000 C 
BRANCH   9  10
ATOM     10  C   UNL     1      44.030  27.340  -2.151  1.00  0.00    -0.000 C 
BRANCH  10  11
ATOM     11  C   UNL     1      44.482  27.258  -3.619  1.00  0.00    -0.000 C 
BRANCH  11  12
ATOM     12  C   UNL     1      43.436  26.585  -4.519  1.00  0.00    -0.003 C 
ATOM     13  C   UNL     1      42.798  27.554  -5.515  1.00  0.00     0.004 C 
ENDBRANCH  11  12
ENDBRANCH  10  11
ENDBRANCH   9  10
ENDBRANCH   8   9
ENDBRANCH   1   8
TORSDOF 9
ENDMDL
MODEL 9
REMARK VINA RESULT:    -3.635      3.336      5.727
REMARK INTER + INTRA:          -6.031
REMARK INTER:                  -5.200
REMARK INTRA:                  -0.831
REMARK UNBOUND:                -0.483
REMARK SMILES CCCCCCCCCCC(=O)[O-]
REMARK SMILES IDX 7 1 8 2 9 3 10 4 11 5 12 6 13 7 6 8 5 9 4 10 3 11 2 12 1 13
REMARK H PARENT
REMARK Flexibility Score: inf
ROOT
ATOM      1  C   UNL     1      45.557  28.556  -1.965  1.00  0.00     0.000 C 
ENDROOT
BRANCH   1   2
ATOM      2  C   UNL     1      45.533  27.384  -2.955  1.00  0.00     0.000 C 
BRANCH   2   3
ATOM      3  C   UNL     1      44.938  27.814  -4.302  1.00  0.00     0.006 C 
BRANCH   3   4
ATOM      4  C   UNL     1      43.651  27.044  -4.606  1.00  0.00     0.053 C 
BRANCH   4   5
ATOM      5  C   UNL     1      42.481  27.975  -4.649  1.00  0.00     0.041 C 
ATOM      6  O   UNL     1      42.220  28.711  -3.662  1.00  0.00    -0.550 OA
ATOM      7  O   UNL     1      41.707  28.066  -5.799  1.00  0.00    -0.550 OA
ENDBRANCH   4   5
ENDBRANCH   3   4
ENDBRANCH   2   3
ENDBRANCH   1   2
BRANCH   1   8
ATOM      8  C   UNL     1      44.357  28.549  -1.001  1.00  0.00     0.000 C 
BRANCH   8   9
ATOM      9  C   UNL     1      43.729  27.163  -0.748  1.00  0.00    -0.000 C 
BRANCH   9  10
ATOM     10  C   UNL     1      42.556  27.146   0.250  1.00  0.00    -0.000 C 
BRANCH  10  11
ATOM     11  C   UNL     1      42.961  27.621   1.656  1.00  0.00    -0.000 C 
BRANCH  11  12
ATOM     12  C   UNL     1      44.041  26.730   2.288  1.00  0.00    -0.003 C 
ATOM     13  C   UNL     1      45.301  27.507   2.672  1.00  0.00     0.004 C 
ENDBRANCH  11  12
ENDBRANCH  10  11
ENDBRANCH   9  10
ENDBRANCH   8   9
ENDBRANCH   1   8
TORSDOF 9
ENDMDL
