MODEL 1
REMARK VINA RESULT:    -5.820      0.000      0.000
REMARK INTER + INTRA:         -10.396
REMARK INTER:                  -9.053
REMARK INTRA:                  -1.343
REMARK UNBOUND:                -1.343
REMARK SMILES C[C@@]12C[C@@]3(O)O[C@@H](O1)[C@]1(COC(=O)c4ccccc4)[C@H]3C[C@@]12O[C@@H]1O[C@@H](CO)[C@@H](O)[C@@H](O)[C@H]1O
REMARK SMILES IDX 1 1 2 2 3 3 4 4 20 5 21 6 22 7 9 8 7 9 8 10 6 11 23 12 24 13
REMARK SMILES IDX 33 14 25 15 31 16 26 17 29 18 34 19 32 21 27 23 28 24 30 26
REMARK SMILES IDX 5 28 10 30 11 31 12 32 13 33 14 34 15 35 19 36 16 37 18 38
REMARK SMILES IDX 17 39
REMARK H PARENT 34 20 32 22 28 25 30 27 5 29
REMARK Flexibility Score: inf
ROOT
ATOM      1  C   UNL     1     -26.769 -63.895  56.565  1.00  0.00     0.046 C 
ATOM      2  C   UNL     1     -25.405 -64.580  56.649  1.00  0.00     0.104 C 
ATOM      3  C   UNL     1     -24.326 -63.722  55.885  1.00  0.00     0.104 C 
ATOM      4  C   UNL     1     -23.008 -64.554  56.037  1.00  0.00     0.175 C 
ATOM      5  C   UNL     1     -23.250 -66.054  55.658  1.00  0.00     0.070 C 
ATOM      6  C   UNL     1     -24.518 -66.263  54.828  1.00  0.00     0.050 C 
ATOM      7  C   UNL     1     -25.319 -66.080  56.134  1.00  0.00     0.115 C 
ATOM      8  C   UNL     1     -24.036 -66.463  56.891  1.00  0.00     0.096 C 
ATOM      9  C   UNL     1     -23.781 -65.390  57.936  1.00  0.00     0.267 C 
ATOM     10  O   UNL     1     -24.971 -64.629  57.996  1.00  0.00    -0.342 OA
ATOM     11  O   UNL     1     -22.735 -64.581  57.421  1.00  0.00    -0.320 OA
ENDROOT
BRANCH   7  12
ATOM     12  O   UNL     1     -26.366 -67.009  56.417  1.00  0.00    -0.339 OA
BRANCH  12  13
ATOM     13  C   UNL     1     -27.688 -66.563  56.118  1.00  0.00     0.282 C 
ATOM     14  C   UNL     1     -28.170 -67.024  54.696  1.00  0.00     0.202 C 
ATOM     15  O   UNL     1     -28.505 -66.971  57.207  1.00  0.00    -0.341 OA
ATOM     16  C   UNL     1     -29.686 -67.367  54.590  1.00  0.00     0.179 C 
ATOM     17  C   UNL     1     -29.259 -68.130  56.929  1.00  0.00     0.178 C 
ATOM     18  C   UNL     1     -30.353 -67.742  55.927  1.00  0.00     0.177 C 
BRANCH  14  19
ATOM     19  O   UNL     1     -27.861 -66.036  53.743  1.00  0.00    -0.385 OA
ATOM     20  H   UNL     1     -26.882 -66.037  53.623  1.00  0.00     0.211 HD
ENDBRANCH  14  19
BRANCH  16  21
ATOM     21  O   UNL     1     -30.416 -66.336  53.960  1.00  0.00    -0.387 OA
ATOM     22  H   UNL     1     -29.793 -65.911  53.312  1.00  0.00     0.211 HD
ENDBRANCH  16  21
BRANCH  17  23
ATOM     23  C   UNL     1     -29.818 -68.684  58.245  1.00  0.00     0.191 C 
BRANCH  23  24
ATOM     24  O   UNL     1     -28.898 -68.492  59.284  1.00  0.00    -0.394 OA
ATOM     25  H   UNL     1     -28.855 -69.350  59.780  1.00  0.00     0.210 HD
ENDBRANCH  23  24
ENDBRANCH  17  23
BRANCH  18  26
ATOM     26  O   UNL     1     -31.084 -66.641  56.414  1.00  0.00    -0.387 OA
ATOM     27  H   UNL     1     -31.906 -66.568  55.863  1.00  0.00     0.211 HD
ENDBRANCH  18  26
ENDBRANCH  12  13
ENDBRANCH   7  12
BRANCH   4  28
ATOM     28  O   UNL     1     -21.953 -63.983  55.312  1.00  0.00    -0.365 OA
ATOM     29  H   UNL     1     -22.203 -64.053  54.352  1.00  0.00     0.214 HD
ENDBRANCH   4  28
BRANCH   8  30
ATOM     30  C   UNL     1     -23.864 -67.937  57.330  1.00  0.00     0.249 C 
BRANCH  30  31
ATOM     31  O   UNL     1     -22.967 -68.019  58.439  1.00  0.00    -0.461 OA
BRANCH  31  32
ATOM     32  C   UNL     1     -21.639 -68.438  58.348  1.00  0.00     0.338 C 
ATOM     33  O   UNL     1     -21.128 -69.124  59.272  1.00  0.00    -0.246 OA
BRANCH  32  34
ATOM     34  C   UNL     1     -20.841 -68.094  57.156  1.00  0.00     0.060 A 
ATOM     35  C   UNL     1     -20.858 -68.917  56.013  1.00  0.00     0.015 A 
ATOM     36  C   UNL     1     -20.074 -66.915  57.144  1.00  0.00     0.015 A 
ATOM     37  C   UNL     1     -20.117 -68.564  54.881  1.00  0.00     0.001 A 
ATOM     38  C   UNL     1     -19.318 -66.576  56.017  1.00  0.00     0.001 A 
ATOM     39  C   UNL     1     -19.341 -67.401  54.886  1.00  0.00     0.000 A 
ENDBRANCH  32  34
ENDBRANCH  31  32
ENDBRANCH  30  31
ENDBRANCH   8  30
TORSDOF 12
ENDMDL
MODEL 2
REMARK VINA RESULT:    -5.648      3.692      7.953
REMARK INTER + INTRA:         -10.129
REMARK INTER:                  -9.001
REMARK INTRA:                  -1.128
REMARK UNBOUND:                -1.343
REMARK SMILES C[C@@]12C[C@@]3(O)O[C@@H](O1)[C@]1(COC(=O)c4ccccc4)[C@H]3C[C@@]12O[C@@H]1O[C@@H](CO)[C@@H](O)[C@@H](O)[C@H]1O
REMARK SMILES IDX 1 1 2 2 3 3 4 4 20 5 21 6 22 7 9 8 7 9 8 10 6 11 23 12 24 13
REMARK SMILES IDX 33 14 25 15 31 16 26 17 29 18 34 19 32 21 27 23 28 24 30 26
REMARK SMILES IDX 5 28 10 30 11 31 12 32 13 33 14 34 15 35 19 36 16 37 18 38
REMARK SMILES IDX 17 39
REMARK H PARENT 34 20 32 22 28 25 30 27 5 29
REMARK Flexibility Score: inf
ROOT
ATOM      1  C   UNL     1     -24.031 -60.603  55.031  1.00  0.00     0.046 C 
ATOM      2  C   UNL     1     -24.400 -61.733  55.992  1.00  0.00     0.104 C 
ATOM      3  C   UNL     1     -25.692 -61.343  56.807  1.00  0.00     0.104 C 
ATOM      4  C   UNL     1     -25.924 -62.570  57.751  1.00  0.00     0.175 C 
ATOM      5  C   UNL     1     -24.601 -62.963  58.491  1.00  0.00     0.070 C 
ATOM      6  C   UNL     1     -23.560 -61.842  58.486  1.00  0.00     0.050 C 
ATOM      7  C   UNL     1     -23.278 -62.206  57.013  1.00  0.00     0.115 C 
ATOM      8  C   UNL     1     -23.875 -63.591  57.316  1.00  0.00     0.096 C 
ATOM      9  C   UNL     1     -24.933 -63.876  56.262  1.00  0.00     0.267 C 
ATOM     10  O   UNL     1     -24.745 -62.895  55.261  1.00  0.00    -0.342 OA
ATOM     11  O   UNL     1     -26.185 -63.662  56.896  1.00  0.00    -0.320 OA
ENDROOT
BRANCH   7  12
ATOM     12  O   UNL     1     -21.917 -62.324  56.597  1.00  0.00    -0.339 OA
BRANCH  12  13
ATOM     13  C   UNL     1     -20.978 -61.528  57.316  1.00  0.00     0.282 C 
ATOM     14  C   UNL     1     -19.756 -62.365  57.839  1.00  0.00     0.202 C 
ATOM     15  O   UNL     1     -20.656 -60.428  56.475  1.00  0.00    -0.341 OA
ATOM     16  C   UNL     1     -18.391 -61.614  57.842  1.00  0.00     0.179 C 
ATOM     17  C   UNL     1     -19.419 -60.582  55.813  1.00  0.00     0.178 C 
ATOM     18  C   UNL     1     -18.311 -60.428  56.861  1.00  0.00     0.177 C 
BRANCH  14  19
ATOM     19  O   UNL     1     -20.019 -62.832  59.141  1.00  0.00    -0.385 OA
ATOM     20  H   UNL     1     -19.386 -62.383  59.749  1.00  0.00     0.211 HD
ENDBRANCH  14  19
BRANCH  16  21
ATOM     21  O   UNL     1     -18.024 -61.192  59.138  1.00  0.00    -0.387 OA
ATOM     22  H   UNL     1     -17.456 -61.916  59.515  1.00  0.00     0.211 HD
ENDBRANCH  16  21
BRANCH  17  23
ATOM     23  C   UNL     1     -19.330 -59.548  54.685  1.00  0.00     0.191 C 
BRANCH  23  24
ATOM     24  O   UNL     1     -17.996 -59.172  54.474  1.00  0.00    -0.394 OA
ATOM     25  H   UNL     1     -17.441 -59.938  54.772  1.00  0.00     0.210 HD
ENDBRANCH  23  24
ENDBRANCH  17  23
BRANCH  18  26
ATOM     26  O   UNL     1     -18.479 -59.221  57.566  1.00  0.00    -0.387 OA
ATOM     27  H   UNL     1     -19.441 -58.982  57.513  1.00  0.00     0.211 HD
ENDBRANCH  18  26
ENDBRANCH  12  13
ENDBRANCH   7  12
BRANCH   4  28
ATOM     28  O   UNL     1     -26.986 -62.343  58.638  1.00  0.00    -0.365 OA
ATOM     29  H   UNL     1     -27.348 -61.444  58.414  1.00  0.00     0.214 HD
ENDBRANCH   4  28
BRANCH   8  30
ATOM     30  C   UNL     1     -22.901 -64.739  57.672  1.00  0.00     0.249 C 
BRANCH  30  31
ATOM     31  O   UNL     1     -22.684 -65.573  56.532  1.00  0.00    -0.461 OA
BRANCH  31  32
ATOM     32  C   UNL     1     -21.680 -66.536  56.440  1.00  0.00     0.338 C 
ATOM     33  O   UNL     1     -21.082 -66.724  55.348  1.00  0.00    -0.246 OA
BRANCH  32  34
ATOM     34  C   UNL     1     -21.303 -67.318  57.633  1.00  0.00     0.060 A 
ATOM     35  C   UNL     1     -20.145 -67.000  58.370  1.00  0.00     0.015 A 
ATOM     36  C   UNL     1     -22.120 -68.380  58.060  1.00  0.00     0.015 A 
ATOM     37  C   UNL     1     -19.815 -67.735  59.513  1.00  0.00     0.001 A 
ATOM     38  C   UNL     1     -21.776 -69.125  59.192  1.00  0.00     0.001 A 
ATOM     39  C   UNL     1     -20.623 -68.801  59.918  1.00  0.00     0.000 A 
ENDBRANCH  32  34
ENDBRANCH  31  32
ENDBRANCH  30  31
ENDBRANCH   8  30
TORSDOF 12
ENDMDL
MODEL 3
REMARK VINA RESULT:    -5.637      3.798      7.271
REMARK INTER + INTRA:         -10.111
REMARK INTER:                  -8.273
REMARK INTRA:                  -1.838
REMARK UNBOUND:                -1.343
REMARK SMILES C[C@@]12C[C@@]3(O)O[C@@H](O1)[C@]1(COC(=O)c4ccccc4)[C@H]3C[C@@]12O[C@@H]1O[C@@H](CO)[C@@H](O)[C@@H](O)[C@H]1O
REMARK SMILES IDX 1 1 2 2 3 3 4 4 20 5 21 6 22 7 9 8 7 9 8 10 6 11 23 12 24 13
REMARK SMILES IDX 33 14 25 15 31 16 26 17 29 18 34 19 32 21 27 23 28 24 30 26
REMARK SMILES IDX 5 28 10 30 11 31 12 32 13 33 14 34 15 35 19 36 16 37 18 38
REMARK SMILES IDX 17 39
REMARK H PARENT 34 20 32 22 28 25 30 27 5 29
REMARK Flexibility Score: inf
ROOT
ATOM      1  C   UNL     1     -23.733 -64.813  57.025  1.00  0.00     0.046 C 
ATOM      2  C   UNL     1     -23.207 -66.242  57.165  1.00  0.00     0.104 C 
ATOM      3  C   UNL     1     -23.915 -66.957  58.378  1.00  0.00     0.104 C 
ATOM      4  C   UNL     1     -23.261 -68.380  58.408  1.00  0.00     0.175 C 
ATOM      5  C   UNL     1     -21.701 -68.278  58.342  1.00  0.00     0.070 C 
ATOM      6  C   UNL     1     -21.177 -66.890  58.714  1.00  0.00     0.050 C 
ATOM      7  C   UNL     1     -21.635 -66.420  57.317  1.00  0.00     0.115 C 
ATOM      8  C   UNL     1     -21.572 -67.893  56.879  1.00  0.00     0.096 C 
ATOM      9  C   UNL     1     -22.902 -68.237  56.228  1.00  0.00     0.267 C 
ATOM     10  O   UNL     1     -23.553 -66.998  56.020  1.00  0.00    -0.342 OA
ATOM     11  O   UNL     1     -23.626 -68.989  57.189  1.00  0.00    -0.320 OA
ENDROOT
BRANCH   7  12
ATOM     12  O   UNL     1     -20.734 -65.626  56.544  1.00  0.00    -0.339 OA
BRANCH  12  13
ATOM     13  C   UNL     1     -19.896 -64.741  57.285  1.00  0.00     0.282 C 
ATOM     14  C   UNL     1     -18.662 -64.243  56.451  1.00  0.00     0.202 C 
ATOM     15  O   UNL     1     -20.743 -63.722  57.799  1.00  0.00    -0.341 OA
ATOM     16  C   UNL     1     -18.216 -62.778  56.738  1.00  0.00     0.179 C 
ATOM     17  C   UNL     1     -20.680 -62.524  57.057  1.00  0.00     0.178 C 
ATOM     18  C   UNL     1     -19.317 -61.879  57.334  1.00  0.00     0.177 C 
BRANCH  14  19
ATOM     19  O   UNL     1     -17.565 -65.100  56.662  1.00  0.00    -0.385 OA
ATOM     20  H   UNL     1     -17.293 -65.005  57.605  1.00  0.00     0.211 HD
ENDBRANCH  14  19
BRANCH  16  21
ATOM     21  O   UNL     1     -17.062 -62.728  57.550  1.00  0.00    -0.387 OA
ATOM     22  H   UNL     1     -16.771 -61.776  57.559  1.00  0.00     0.211 HD
ENDBRANCH  16  21
BRANCH  17  23
ATOM     23  C   UNL     1     -21.860 -61.631  57.458  1.00  0.00     0.191 C 
BRANCH  23  24
ATOM     24  O   UNL     1     -22.119 -61.752  58.830  1.00  0.00    -0.394 OA
ATOM     25  H   UNL     1     -21.682 -60.975  59.265  1.00  0.00     0.210 HD
ENDBRANCH  23  24
ENDBRANCH  17  23
BRANCH  18  26
ATOM     26  O   UNL     1     -19.118 -61.748  58.722  1.00  0.00    -0.387 OA
ATOM     27  H   UNL     1     -18.433 -62.416  58.984  1.00  0.00     0.211 HD
ENDBRANCH  18  26
ENDBRANCH  12  13
ENDBRANCH   7  12
BRANCH   4  28
ATOM     28  O   UNL     1     -23.703 -69.125  59.511  1.00  0.00    -0.365 OA
ATOM     29  H   UNL     1     -22.891 -69.351  60.038  1.00  0.00     0.214 HD
ENDBRANCH   4  28
BRANCH   8  30
ATOM     30  C   UNL     1     -20.287 -68.386  56.171  1.00  0.00     0.249 C 
BRANCH  30  31
ATOM     31  O   UNL     1     -20.605 -68.902  54.878  1.00  0.00    -0.461 OA
BRANCH  31  32
ATOM     32  C   UNL     1     -20.118 -68.379  53.680  1.00  0.00     0.338 C 
ATOM     33  O   UNL     1     -19.481 -69.114  52.881  1.00  0.00    -0.246 OA
BRANCH  32  34
ATOM     34  C   UNL     1     -20.371 -66.965  53.340  1.00  0.00     0.060 A 
ATOM     35  C   UNL     1     -21.687 -66.474  53.229  1.00  0.00     0.015 A 
ATOM     36  C   UNL     1     -19.290 -66.086  53.152  1.00  0.00     0.015 A 
ATOM     37  C   UNL     1     -21.911 -65.126  52.932  1.00  0.00     0.001 A 
ATOM     38  C   UNL     1     -19.518 -64.744  52.835  1.00  0.00     0.001 A 
ATOM     39  C   UNL     1     -20.829 -64.264  52.726  1.00  0.00     0.000 A 
ENDBRANCH  32  34
ENDBRANCH  31  32
ENDBRANCH  30  31
ENDBRANCH   8  30
TORSDOF 12
ENDMDL
MODEL 4
REMARK VINA RESULT:    -5.584      3.935      6.531
REMARK INTER + INTRA:         -10.028
REMARK INTER:                  -8.271
REMARK INTRA:                  -1.757
REMARK UNBOUND:                -1.343
REMARK SMILES C[C@@]12C[C@@]3(O)O[C@@H](O1)[C@]1(COC(=O)c4ccccc4)[C@H]3C[C@@]12O[C@@H]1O[C@@H](CO)[C@@H](O)[C@@H](O)[C@H]1O
REMARK SMILES IDX 1 1 2 2 3 3 4 4 20 5 21 6 22 7 9 8 7 9 8 10 6 11 23 12 24 13
REMARK SMILES IDX 33 14 25 15 31 16 26 17 29 18 34 19 32 21 27 23 28 24 30 26
REMARK SMILES IDX 5 28 10 30 11 31 12 32 13 33 14 34 15 35 19 36 16 37 18 38
REMARK SMILES IDX 17 39
REMARK H PARENT 34 20 32 22 28 25 30 27 5 29
REMARK Flexibility Score: inf
ROOT
ATOM      1  C   UNL     1     -18.448 -65.459  55.617  1.00  0.00     0.046 C 
ATOM      2  C   UNL     1     -19.339 -66.534  54.993  1.00  0.00     0.104 C 
ATOM      3  C   UNL     1     -18.738 -66.990  53.609  1.00  0.00     0.104 C 
ATOM      4  C   UNL     1     -19.761 -68.057  53.090  1.00  0.00     0.175 C 
ATOM      5  C   UNL     1     -21.227 -67.517  53.185  1.00  0.00     0.070 C 
ATOM      6  C   UNL     1     -21.294 -65.994  53.313  1.00  0.00     0.050 C 
ATOM      7  C   UNL     1     -20.871 -66.169  54.787  1.00  0.00     0.115 C 
ATOM      8  C   UNL     1     -21.394 -67.613  54.691  1.00  0.00     0.096 C 
ATOM      9  C   UNL     1     -20.292 -68.535  55.186  1.00  0.00     0.267 C 
ATOM     10  O   UNL     1     -19.343 -67.691  55.808  1.00  0.00    -0.342 OA
ATOM     11  O   UNL     1     -19.713 -69.112  54.025  1.00  0.00    -0.320 OA
ENDROOT
BRANCH   7  12
ATOM     12  O   UNL     1     -21.588 -65.440  55.785  1.00  0.00    -0.339 OA
BRANCH  12  13
ATOM     13  C   UNL     1     -21.713 -64.038  55.557  1.00  0.00     0.282 C 
ATOM     14  C   UNL     1     -23.204 -63.548  55.630  1.00  0.00     0.202 C 
ATOM     15  O   UNL     1     -20.812 -63.403  56.454  1.00  0.00    -0.341 OA
ATOM     16  C   UNL     1     -23.405 -62.126  56.233  1.00  0.00     0.179 C 
ATOM     17  C   UNL     1     -21.449 -62.873  57.595  1.00  0.00     0.178 C 
ATOM     18  C   UNL     1     -22.259 -61.651  57.148  1.00  0.00     0.177 C 
BRANCH  14  19
ATOM     19  O   UNL     1     -23.781 -63.582  54.347  1.00  0.00    -0.385 OA
ATOM     20  H   UNL     1     -24.569 -64.173  54.393  1.00  0.00     0.211 HD
ENDBRANCH  14  19
BRANCH  16  21
ATOM     21  O   UNL     1     -23.655 -61.160  55.234  1.00  0.00    -0.387 OA
ATOM     22  H   UNL     1     -24.644 -61.062  55.185  1.00  0.00     0.211 HD
ENDBRANCH  16  21
BRANCH  17  23
ATOM     23  C   UNL     1     -20.384 -62.538  58.646  1.00  0.00     0.191 C 
BRANCH  23  24
ATOM     24  O   UNL     1     -19.132 -62.382  58.038  1.00  0.00    -0.394 OA
ATOM     25  H   UNL     1     -18.587 -63.162  58.319  1.00  0.00     0.210 HD
ENDBRANCH  23  24
ENDBRANCH  17  23
BRANCH  18  26
ATOM     26  O   UNL     1     -21.432 -60.757  56.441  1.00  0.00    -0.387 OA
ATOM     27  H   UNL     1     -22.001 -59.998  56.150  1.00  0.00     0.211 HD
ENDBRANCH  18  26
ENDBRANCH  12  13
ENDBRANCH   7  12
BRANCH   4  28
ATOM     28  O   UNL     1     -19.434 -68.496  51.799  1.00  0.00    -0.365 OA
ATOM     29  H   UNL     1     -18.661 -69.112  51.901  1.00  0.00     0.214 HD
ENDBRANCH   4  28
BRANCH   8  30
ATOM     30  C   UNL     1     -22.833 -67.899  55.184  1.00  0.00     0.249 C 
BRANCH  30  31
ATOM     31  O   UNL     1     -22.798 -68.658  56.393  1.00  0.00    -0.461 OA
BRANCH  31  32
ATOM     32  C   UNL     1     -22.958 -68.116  57.669  1.00  0.00     0.338 C 
ATOM     33  O   UNL     1     -24.093 -67.730  58.053  1.00  0.00    -0.246 OA
BRANCH  32  34
ATOM     34  C   UNL     1     -21.798 -68.016  58.575  1.00  0.00     0.060 A 
ATOM     35  C   UNL     1     -21.439 -69.093  59.409  1.00  0.00     0.015 A 
ATOM     36  C   UNL     1     -21.021 -66.844  58.590  1.00  0.00     0.015 A 
ATOM     37  C   UNL     1     -20.321 -68.993  60.244  1.00  0.00     0.001 A 
ATOM     38  C   UNL     1     -19.916 -66.741  59.441  1.00  0.00     0.001 A 
ATOM     39  C   UNL     1     -19.567 -67.817  60.266  1.00  0.00     0.000 A 
ENDBRANCH  32  34
ENDBRANCH  31  32
ENDBRANCH  30  31
ENDBRANCH   8  30
TORSDOF 12
ENDMDL
MODEL 5
REMARK VINA RESULT:    -5.557      3.191      6.842
REMARK INTER + INTRA:          -9.986
REMARK INTER:                  -8.520
REMARK INTRA:                  -1.466
REMARK UNBOUND:                -1.343
REMARK SMILES C[C@@]12C[C@@]3(O)O[C@@H](O1)[C@]1(COC(=O)c4ccccc4)[C@H]3C[C@@]12O[C@@H]1O[C@@H](CO)[C@@H](O)[C@@H](O)[C@H]1O
REMARK SMILES IDX 1 1 2 2 3 3 4 4 20 5 21 6 22 7 9 8 7 9 8 10 6 11 23 12 24 13
REMARK SMILES IDX 33 14 25 15 31 16 26 17 29 18 34 19 32 21 27 23 28 24 30 26
REMARK SMILES IDX 5 28 10 30 11 31 12 32 13 33 14 34 15 35 19 36 16 37 18 38
REMARK SMILES IDX 17 39
REMARK H PARENT 34 20 32 22 28 25 30 27 5 29
REMARK Flexibility Score: inf
ROOT
ATOM      1  C   UNL     1     -19.416 -64.326  55.161  1.00  0.00     0.046 C 
ATOM      2  C   UNL     1     -19.885 -63.276  56.168  1.00  0.00     0.104 C 
ATOM      3  C   UNL     1     -18.657 -62.748  57.004  1.00  0.00     0.104 C 
ATOM      4  C   UNL     1     -19.293 -61.715  57.993  1.00  0.00     0.175 C 
ATOM      5  C   UNL     1     -20.544 -62.325  58.710  1.00  0.00     0.070 C 
ATOM      6  C   UNL     1     -20.584 -63.853  58.640  1.00  0.00     0.050 C 
ATOM      7  C   UNL     1     -21.038 -63.704  57.173  1.00  0.00     0.115 C 
ATOM      8  C   UNL     1     -21.505 -62.285  57.536  1.00  0.00     0.096 C 
ATOM      9  C   UNL     1     -20.901 -61.328  56.521  1.00  0.00     0.267 C 
ATOM     10  O   UNL     1     -20.395 -62.146  55.484  1.00  0.00    -0.342 OA
ATOM     11  O   UNL     1     -19.820 -60.688  57.181  1.00  0.00    -0.320 OA
ENDROOT
BRANCH   7  12
ATOM     12  O   UNL     1     -22.138 -64.497  56.725  1.00  0.00    -0.339 OA
BRANCH  12  13
ATOM     13  C   UNL     1     -22.448 -65.636  57.525  1.00  0.00     0.282 C 
ATOM     14  C   UNL     1     -23.980 -65.981  57.513  1.00  0.00     0.202 C 
ATOM     15  O   UNL     1     -21.579 -66.676  57.096  1.00  0.00    -0.341 OA
ATOM     16  C   UNL     1     -24.318 -67.500  57.571  1.00  0.00     0.179 C 
ATOM     17  C   UNL     1     -22.208 -67.603  56.238  1.00  0.00     0.178 C 
ATOM     18  C   UNL     1     -23.187 -68.426  57.083  1.00  0.00     0.177 C 
BRANCH  14  19
ATOM     19  O   UNL     1     -24.624 -65.332  58.583  1.00  0.00    -0.385 OA
ATOM     20  H   UNL     1     -24.073 -65.472  59.388  1.00  0.00     0.211 HD
ENDBRANCH  14  19
BRANCH  16  21
ATOM     21  O   UNL     1     -24.743 -67.897  58.857  1.00  0.00    -0.387 OA
ATOM     22  H   UNL     1     -25.731 -67.781  58.870  1.00  0.00     0.211 HD
ENDBRANCH  16  21
BRANCH  17  23
ATOM     23  C   UNL     1     -21.132 -68.458  55.559  1.00  0.00     0.191 C 
BRANCH  23  24
ATOM     24  O   UNL     1     -20.321 -69.075  56.521  1.00  0.00    -0.394 OA
ATOM     25  H   UNL     1     -20.490 -68.598  57.374  1.00  0.00     0.210 HD
ENDBRANCH  23  24
ENDBRANCH  17  23
BRANCH  18  26
ATOM     26  O   UNL     1     -22.519 -68.979  58.193  1.00  0.00    -0.387 OA
ATOM     27  H   UNL     1     -22.702 -69.954  58.189  1.00  0.00     0.211 HD
ENDBRANCH  18  26
ENDBRANCH  12  13
ENDBRANCH   7  12
BRANCH   4  28
ATOM     28  O   UNL     1     -18.345 -61.221  58.900  1.00  0.00    -0.365 OA
ATOM     29  H   UNL     1     -17.582 -60.892  58.354  1.00  0.00     0.214 HD
ENDBRANCH   4  28
BRANCH   8  30
ATOM     30  C   UNL     1     -22.995 -62.082  57.903  1.00  0.00     0.249 C 
BRANCH  30  31
ATOM     31  O   UNL     1     -23.570 -61.062  57.083  1.00  0.00    -0.461 OA
BRANCH  31  32
ATOM     32  C   UNL     1     -24.873 -61.091  56.588  1.00  0.00     0.338 C 
ATOM     33  O   UNL     1     -25.555 -60.034  56.539  1.00  0.00    -0.246 OA
BRANCH  32  34
ATOM     34  C   UNL     1     -25.444 -62.361  56.099  1.00  0.00     0.060 A 
ATOM     35  C   UNL     1     -24.898 -63.013  54.976  1.00  0.00     0.015 A 
ATOM     36  C   UNL     1     -26.529 -62.947  56.775  1.00  0.00     0.015 A 
ATOM     37  C   UNL     1     -25.434 -64.229  54.540  1.00  0.00     0.001 A 
ATOM     38  C   UNL     1     -27.074 -64.153  56.324  1.00  0.00     0.001 A 
ATOM     39  C   UNL     1     -26.525 -64.794  55.206  1.00  0.00     0.000 A 
ENDBRANCH  32  34
ENDBRANCH  31  32
ENDBRANCH  30  31
ENDBRANCH   8  30
TORSDOF 12
ENDMDL
MODEL 6
REMARK VINA RESULT:    -5.537      2.767      5.177
REMARK INTER + INTRA:          -9.955
REMARK INTER:                  -8.995
REMARK INTRA:                  -0.960
REMARK UNBOUND:                -1.343
REMARK SMILES C[C@@]12C[C@@]3(O)O[C@@H](O1)[C@]1(COC(=O)c4ccccc4)[C@H]3C[C@@]12O[C@@H]1O[C@@H](CO)[C@@H](O)[C@@H](O)[C@H]1O
REMARK SMILES IDX 1 1 2 2 3 3 4 4 20 5 21 6 22 7 9 8 7 9 8 10 6 11 23 12 24 13
REMARK SMILES IDX 33 14 25 15 31 16 26 17 29 18 34 19 32 21 27 23 28 24 30 26
REMARK SMILES IDX 5 28 10 30 11 31 12 32 13 33 14 34 15 35 19 36 16 37 18 38
REMARK SMILES IDX 17 39
REMARK H PARENT 34 20 32 22 28 25 30 27 5 29
REMARK Flexibility Score: inf
ROOT
ATOM      1  C   UNL     1     -22.591 -68.313  54.596  1.00  0.00     0.046 C 
ATOM      2  C   UNL     1     -22.759 -67.752  56.008  1.00  0.00     0.104 C 
ATOM      3  C   UNL     1     -22.726 -68.926  57.059  1.00  0.00     0.104 C 
ATOM      4  C   UNL     1     -22.933 -68.204  58.434  1.00  0.00     0.175 C 
ATOM      5  C   UNL     1     -24.150 -67.222  58.371  1.00  0.00     0.070 C 
ATOM      6  C   UNL     1     -25.094 -67.517  57.203  1.00  0.00     0.050 C 
ATOM      7  C   UNL     1     -24.044 -66.860  56.281  1.00  0.00     0.115 C 
ATOM      8  C   UNL     1     -23.507 -66.136  57.528  1.00  0.00     0.096 C 
ATOM      9  C   UNL     1     -22.008 -66.378  57.589  1.00  0.00     0.267 C 
ATOM     10  O   UNL     1     -21.660 -66.920  56.330  1.00  0.00    -0.342 OA
ATOM     11  O   UNL     1     -21.811 -67.363  58.592  1.00  0.00    -0.320 OA
ENDROOT
BRANCH   7  12
ATOM     12  O   UNL     1     -24.498 -65.917  55.309  1.00  0.00    -0.339 OA
BRANCH  12  13
ATOM     13  C   UNL     1     -25.871 -66.022  54.938  1.00  0.00     0.282 C 
ATOM     14  C   UNL     1     -26.673 -64.702  55.223  1.00  0.00     0.202 C 
ATOM     15  O   UNL     1     -25.889 -66.475  53.590  1.00  0.00    -0.341 OA
ATOM     16  C   UNL     1     -27.790 -64.369  54.189  1.00  0.00     0.179 C 
ATOM     17  C   UNL     1     -26.128 -65.439  52.662  1.00  0.00     0.178 C 
ATOM     18  C   UNL     1     -27.595 -65.018  52.805  1.00  0.00     0.177 C 
BRANCH  14  19
ATOM     19  O   UNL     1     -27.247 -64.760  56.507  1.00  0.00    -0.385 OA
ATOM     20  H   UNL     1     -27.510 -65.696  56.671  1.00  0.00     0.211 HD
ENDBRANCH  14  19
BRANCH  16  21
ATOM     21  O   UNL     1     -29.076 -64.673  54.686  1.00  0.00    -0.387 OA
ATOM     22  H   UNL     1     -29.095 -64.345  55.625  1.00  0.00     0.211 HD
ENDBRANCH  16  21
BRANCH  17  23
ATOM     23  C   UNL     1     -25.780 -65.944  51.257  1.00  0.00     0.191 C 
BRANCH  23  24
ATOM     24  O   UNL     1     -26.217 -67.265  51.092  1.00  0.00    -0.394 OA
ATOM     25  H   UNL     1     -26.964 -67.393  51.731  1.00  0.00     0.210 HD
ENDBRANCH  23  24
ENDBRANCH  17  23
BRANCH  18  26
ATOM     26  O   UNL     1     -28.433 -66.144  52.690  1.00  0.00    -0.387 OA
ATOM     27  H   UNL     1     -28.053 -66.853  53.271  1.00  0.00     0.211 HD
ENDBRANCH  18  26
ENDBRANCH  12  13
ENDBRANCH   7  12
BRANCH   4  28
ATOM     28  O   UNL     1     -23.041 -69.125  59.486  1.00  0.00    -0.365 OA
ATOM     29  H   UNL     1     -22.241 -69.712  59.426  1.00  0.00     0.214 HD
ENDBRANCH   4  28
BRANCH   8  30
ATOM     30  C   UNL     1     -24.006 -64.697  57.804  1.00  0.00     0.249 C 
BRANCH  30  31
ATOM     31  O   UNL     1     -23.057 -63.746  57.318  1.00  0.00    -0.461 OA
BRANCH  31  32
ATOM     32  C   UNL     1     -22.769 -62.532  57.942  1.00  0.00     0.338 C 
ATOM     33  O   UNL     1     -23.600 -62.015  58.734  1.00  0.00    -0.246 OA
BRANCH  32  34
ATOM     34  C   UNL     1     -21.477 -61.866  57.688  1.00  0.00     0.060 A 
ATOM     35  C   UNL     1     -20.490 -61.796  58.691  1.00  0.00     0.015 A 
ATOM     36  C   UNL     1     -21.211 -61.315  56.421  1.00  0.00     0.015 A 
ATOM     37  C   UNL     1     -19.261 -61.184  58.426  1.00  0.00     0.001 A 
ATOM     38  C   UNL     1     -19.988 -60.686  56.167  1.00  0.00     0.001 A 
ATOM     39  C   UNL     1     -19.014 -60.622  57.171  1.00  0.00     0.000 A 
ENDBRANCH  32  34
ENDBRANCH  31  32
ENDBRANCH  30  31
ENDBRANCH   8  30
TORSDOF 12
ENDMDL
MODEL 7
REMARK VINA RESULT:    -5.536      2.337      5.708
REMARK INTER + INTRA:          -9.954
REMARK INTER:                  -8.855
REMARK INTRA:                  -1.099
REMARK UNBOUND:                -1.343
REMARK SMILES C[C@@]12C[C@@]3(O)O[C@@H](O1)[C@]1(COC(=O)c4ccccc4)[C@H]3C[C@@]12O[C@@H]1O[C@@H](CO)[C@@H](O)[C@@H](O)[C@H]1O
REMARK SMILES IDX 1 1 2 2 3 3 4 4 20 5 21 6 22 7 9 8 7 9 8 10 6 11 23 12 24 13
REMARK SMILES IDX 33 14 25 15 31 16 26 17 29 18 34 19 32 21 27 23 28 24 30 26
REMARK SMILES IDX 5 28 10 30 11 31 12 32 13 33 14 34 15 35 19 36 16 37 18 38
REMARK SMILES IDX 17 39
REMARK H PARENT 34 20 32 22 28 25 30 27 5 29
REMARK Flexibility Score: inf
ROOT
ATOM      1  C   UNL     1     -21.632 -68.311  54.040  1.00  0.00     0.046 C 
ATOM      2  C   UNL     1     -21.415 -67.754  55.448  1.00  0.00     0.104 C 
ATOM      3  C   UNL     1     -20.994 -68.917  56.425  1.00  0.00     0.104 C 
ATOM      4  C   UNL     1     -20.837 -68.205  57.810  1.00  0.00     0.175 C 
ATOM      5  C   UNL     1     -22.084 -67.311  58.123  1.00  0.00     0.070 C 
ATOM      6  C   UNL     1     -23.306 -67.678  57.279  1.00  0.00     0.050 C 
ATOM      7  C   UNL     1     -22.622 -66.954  56.100  1.00  0.00     0.115 C 
ATOM      8  C   UNL     1     -21.794 -66.187  57.145  1.00  0.00     0.096 C 
ATOM      9  C   UNL     1     -20.330 -66.322  56.760  1.00  0.00     0.267 C 
ATOM     10  O   UNL     1     -20.330 -66.845  55.446  1.00  0.00    -0.342 OA
ATOM     11  O   UNL     1     -19.779 -67.286  57.645  1.00  0.00    -0.320 OA
ENDROOT
BRANCH   7  12
ATOM     12  O   UNL     1     -23.406 -66.052  55.318  1.00  0.00    -0.339 OA
BRANCH  12  13
ATOM     13  C   UNL     1     -24.711 -66.508  54.968  1.00  0.00     0.282 C 
ATOM     14  C   UNL     1     -25.844 -65.724  55.722  1.00  0.00     0.202 C 
ATOM     15  O   UNL     1     -24.780 -66.475  53.549  1.00  0.00    -0.341 OA
ATOM     16  C   UNL     1     -27.147 -65.490  54.902  1.00  0.00     0.179 C 
ATOM     17  C   UNL     1     -25.472 -65.349  53.054  1.00  0.00     0.178 C 
ATOM     18  C   UNL     1     -26.959 -65.543  53.373  1.00  0.00     0.177 C 
BRANCH  14  19
ATOM     19  O   UNL     1     -26.174 -66.393  56.916  1.00  0.00    -0.385 OA
ATOM     20  H   UNL     1     -25.405 -66.303  57.527  1.00  0.00     0.211 HD
ENDBRANCH  14  19
BRANCH  16  21
ATOM     21  O   UNL     1     -28.180 -66.371  55.290  1.00  0.00    -0.387 OA
ATOM     22  H   UNL     1     -28.705 -66.563  54.467  1.00  0.00     0.211 HD
ENDBRANCH  16  21
BRANCH  17  23
ATOM     23  C   UNL     1     -25.191 -65.215  51.553  1.00  0.00     0.191 C 
BRANCH  23  24
ATOM     24  O   UNL     1     -25.217 -66.474  50.938  1.00  0.00    -0.394 OA
ATOM     25  H   UNL     1     -24.272 -66.717  50.761  1.00  0.00     0.210 HD
ENDBRANCH  23  24
ENDBRANCH  17  23
BRANCH  18  26
ATOM     26  O   UNL     1     -27.398 -66.791  52.887  1.00  0.00    -0.387 OA
ATOM     27  H   UNL     1     -26.914 -67.490  53.397  1.00  0.00     0.211 HD
ENDBRANCH  18  26
ENDBRANCH  12  13
ENDBRANCH   7  12
BRANCH   4  28
ATOM     28  O   UNL     1     -20.567 -69.125  58.833  1.00  0.00    -0.365 OA
ATOM     29  H   UNL     1     -20.654 -68.624  59.688  1.00  0.00     0.214 HD
ENDBRANCH   4  28
BRANCH   8  30
ATOM     30  C   UNL     1     -22.287 -64.786  57.577  1.00  0.00     0.249 C 
BRANCH  30  31
ATOM     31  O   UNL     1     -21.198 -63.862  57.590  1.00  0.00    -0.461 OA
BRANCH  31  32
ATOM     32  C   UNL     1     -21.327 -62.494  57.826  1.00  0.00     0.338 C 
ATOM     33  O   UNL     1     -20.387 -61.853  58.365  1.00  0.00    -0.246 OA
BRANCH  32  34
ATOM     34  C   UNL     1     -22.562 -61.794  57.422  1.00  0.00     0.060 A 
ATOM     35  C   UNL     1     -22.697 -61.258  56.126  1.00  0.00     0.015 A 
ATOM     36  C   UNL     1     -23.630 -61.680  58.329  1.00  0.00     0.015 A 
ATOM     37  C   UNL     1     -23.883 -60.620  55.749  1.00  0.00     0.001 A 
ATOM     38  C   UNL     1     -24.807 -61.023  57.955  1.00  0.00     0.001 A 
ATOM     39  C   UNL     1     -24.933 -60.495  56.664  1.00  0.00     0.000 A 
ENDBRANCH  32  34
ENDBRANCH  31  32
ENDBRANCH  30  31
ENDBRANCH   8  30
TORSDOF 12
ENDMDL
MODEL 8
REMARK VINA RESULT:    -5.512      2.331      7.746
REMARK INTER + INTRA:          -9.917
REMARK INTER:                  -9.012
REMARK INTRA:                  -0.905
REMARK UNBOUND:                -1.343
REMARK SMILES C[C@@]12C[C@@]3(O)O[C@@H](O1)[C@]1(COC(=O)c4ccccc4)[C@H]3C[C@@]12O[C@@H]1O[C@@H](CO)[C@@H](O)[C@@H](O)[C@H]1O
REMARK SMILES IDX 1 1 2 2 3 3 4 4 20 5 21 6 22 7 9 8 7 9 8 10 6 11 23 12 24 13
REMARK SMILES IDX 33 14 25 15 31 16 26 17 29 18 34 19 32 21 27 23 28 24 30 26
REMARK SMILES IDX 5 28 10 30 11 31 12 32 13 33 14 34 15 35 19 36 16 37 18 38
REMARK SMILES IDX 17 39
REMARK H PARENT 34 20 32 22 28 25 30 27 5 29
REMARK Flexibility Score: inf
ROOT
ATOM      1  C   UNL     1     -22.045 -61.831  58.213  1.00  0.00     0.046 C 
ATOM      2  C   UNL     1     -23.431 -62.227  57.704  1.00  0.00     0.104 C 
ATOM      3  C   UNL     1     -24.528 -61.808  58.755  1.00  0.00     0.104 C 
ATOM      4  C   UNL     1     -25.870 -62.296  58.113  1.00  0.00     0.175 C 
ATOM      5  C   UNL     1     -25.750 -63.781  57.633  1.00  0.00     0.070 C 
ATOM      6  C   UNL     1     -24.581 -64.525  58.282  1.00  0.00     0.050 C 
ATOM      7  C   UNL     1     -23.649 -63.754  57.323  1.00  0.00     0.115 C 
ATOM      8  C   UNL     1     -24.874 -63.545  56.416  1.00  0.00     0.096 C 
ATOM      9  C   UNL     1     -24.968 -62.060  56.104  1.00  0.00     0.267 C 
ATOM     10  O   UNL     1     -23.736 -61.507  56.525  1.00  0.00    -0.342 OA
ATOM     11  O   UNL     1     -26.011 -61.553  56.921  1.00  0.00    -0.320 OA
ENDROOT
BRANCH   7  12
ATOM     12  O   UNL     1     -22.634 -64.486  56.636  1.00  0.00    -0.339 OA
BRANCH  12  13
ATOM     13  C   UNL     1     -21.743 -65.233  57.462  1.00  0.00     0.282 C 
ATOM     14  C   UNL     1     -21.662 -66.746  57.045  1.00  0.00     0.202 C 
ATOM     15  O   UNL     1     -20.509 -64.528  57.462  1.00  0.00    -0.341 OA
ATOM     16  C   UNL     1     -20.262 -67.406  57.215  1.00  0.00     0.179 C 
ATOM     17  C   UNL     1     -19.549 -65.094  56.596  1.00  0.00     0.178 C 
ATOM     18  C   UNL     1     -19.083 -66.414  57.221  1.00  0.00     0.177 C 
BRANCH  14  19
ATOM     19  O   UNL     1     -22.608 -67.493  57.773  1.00  0.00    -0.385 OA
ATOM     20  H   UNL     1     -22.110 -68.065  58.403  1.00  0.00     0.211 HD
ENDBRANCH  14  19
BRANCH  16  21
ATOM     21  O   UNL     1     -20.203 -68.230  58.360  1.00  0.00    -0.387 OA
ATOM     22  H   UNL     1     -20.036 -67.622  59.130  1.00  0.00     0.211 HD
ENDBRANCH  16  21
BRANCH  17  23
ATOM     23  C   UNL     1     -18.410 -64.088  56.395  1.00  0.00     0.191 C 
BRANCH  23  24
ATOM     24  O   UNL     1     -18.291 -63.256  57.517  1.00  0.00    -0.394 OA
ATOM     25  H   UNL     1     -18.241 -63.857  58.305  1.00  0.00     0.210 HD
ENDBRANCH  23  24
ENDBRANCH  17  23
BRANCH  18  26
ATOM     26  O   UNL     1     -18.657 -66.196  58.546  1.00  0.00    -0.387 OA
ATOM     27  H   UNL     1     -18.782 -65.232  58.739  1.00  0.00     0.211 HD
ENDBRANCH  18  26
ENDBRANCH  12  13
ENDBRANCH   7  12
BRANCH   4  28
ATOM     28  O   UNL     1     -26.956 -62.099  58.977  1.00  0.00    -0.365 OA
ATOM     29  H   UNL     1     -27.765 -62.389  58.479  1.00  0.00     0.214 HD
ENDBRANCH   4  28
BRANCH   8  30
ATOM     30  C   UNL     1     -25.086 -64.531  55.242  1.00  0.00     0.249 C 
BRANCH  30  31
ATOM     31  O   UNL     1     -26.461 -64.550  54.856  1.00  0.00    -0.461 OA
BRANCH  31  32
ATOM     32  C   UNL     1     -27.081 -65.614  54.202  1.00  0.00     0.338 C 
ATOM     33  O   UNL     1     -26.881 -65.804  52.973  1.00  0.00    -0.246 OA
BRANCH  32  34
ATOM     34  C   UNL     1     -27.955 -66.531  54.958  1.00  0.00     0.060 A 
ATOM     35  C   UNL     1     -27.757 -66.745  56.337  1.00  0.00     0.015 A 
ATOM     36  C   UNL     1     -29.017 -67.183  54.306  1.00  0.00     0.015 A 
ATOM     37  C   UNL     1     -28.610 -67.598  57.045  1.00  0.00     0.001 A 
ATOM     38  C   UNL     1     -29.855 -68.050  55.014  1.00  0.00     0.001 A 
ATOM     39  C   UNL     1     -29.650 -68.256  56.384  1.00  0.00     0.000 A 
ENDBRANCH  32  34
ENDBRANCH  31  32
ENDBRANCH  30  31
ENDBRANCH   8  30
TORSDOF 12
ENDMDL
MODEL 9
REMARK VINA RESULT:    -5.489      2.418      7.102
REMARK INTER + INTRA:          -9.880
REMARK INTER:                  -8.743
REMARK INTRA:                  -1.137
REMARK UNBOUND:                -1.343
REMARK SMILES C[C@@]12C[C@@]3(O)O[C@@H](O1)[C@]1(COC(=O)c4ccccc4)[C@H]3C[C@@]12O[C@@H]1O[C@@H](CO)[C@@H](O)[C@@H](O)[C@H]1O
REMARK SMILES IDX 1 1 2 2 3 3 4 4 20 5 21 6 22 7 9 8 7 9 8 10 6 11 23 12 24 13
REMARK SMILES IDX 33 14 25 15 31 16 26 17 29 18 34 19 32 21 27 23 28 24 30 26
REMARK SMILES IDX 5 28 10 30 11 31 12 32 13 33 14 34 15 35 19 36 16 37 18 38
REMARK SMILES IDX 17 39
REMARK H PARENT 34 20 32 22 28 25 30 27 5 29
REMARK Flexibility Score: inf
ROOT
ATOM      1  C   UNL     1     -21.265 -63.867  55.138  1.00  0.00     0.046 C 
ATOM      2  C   UNL     1     -22.610 -63.222  55.474  1.00  0.00     0.104 C 
ATOM      3  C   UNL     1     -22.565 -61.683  55.137  1.00  0.00     0.104 C 
ATOM      4  C   UNL     1     -23.984 -61.166  55.554  1.00  0.00     0.175 C 
ATOM      5  C   UNL     1     -24.356 -61.659  56.992  1.00  0.00     0.070 C 
ATOM      6  C   UNL     1     -23.139 -62.110  57.802  1.00  0.00     0.050 C 
ATOM      7  C   UNL     1     -23.146 -63.403  56.958  1.00  0.00     0.115 C 
ATOM      8  C   UNL     1     -24.626 -63.115  56.658  1.00  0.00     0.096 C 
ATOM      9  C   UNL     1     -24.811 -63.180  55.151  1.00  0.00     0.267 C 
ATOM     10  O   UNL     1     -23.625 -63.764  54.649  1.00  0.00    -0.342 OA
ATOM     11  O   UNL     1     -24.893 -61.835  54.707  1.00  0.00    -0.320 OA
ENDROOT
BRANCH   7  12
ATOM     12  O   UNL     1     -23.003 -64.651  57.638  1.00  0.00    -0.339 OA
BRANCH  12  13
ATOM     13  C   UNL     1     -21.768 -65.332  57.429  1.00  0.00     0.282 C 
ATOM     14  C   UNL     1     -20.766 -65.141  58.624  1.00  0.00     0.202 C 
ATOM     15  O   UNL     1     -22.100 -66.678  57.115  1.00  0.00    -0.341 OA
ATOM     16  C   UNL     1     -19.870 -66.374  58.942  1.00  0.00     0.179 C 
ATOM     17  C   UNL     1     -21.944 -67.556  58.208  1.00  0.00     0.178 C 
ATOM     18  C   UNL     1     -20.441 -67.721  58.459  1.00  0.00     0.177 C 
BRANCH  14  19
ATOM     19  O   UNL     1     -19.938 -64.029  58.379  1.00  0.00    -0.385 OA
ATOM     20  H   UNL     1     -19.980 -63.448  59.175  1.00  0.00     0.211 HD
ENDBRANCH  14  19
BRANCH  16  21
ATOM     21  O   UNL     1     -18.554 -66.208  58.459  1.00  0.00    -0.387 OA
ATOM     22  H   UNL     1     -18.611 -66.284  57.468  1.00  0.00     0.211 HD
ENDBRANCH  16  21
BRANCH  17  23
ATOM     23  C   UNL     1     -22.650 -68.879  57.886  1.00  0.00     0.191 C 
BRANCH  23  24
ATOM     24  O   UNL     1     -24.033 -68.751  58.073  1.00  0.00    -0.394 OA
ATOM     25  H   UNL     1     -24.430 -69.623  57.816  1.00  0.00     0.210 HD
ENDBRANCH  23  24
ENDBRANCH  17  23
BRANCH  18  26
ATOM     26  O   UNL     1     -19.794 -68.108  57.269  1.00  0.00    -0.387 OA
ATOM     27  H   UNL     1     -20.400 -67.881  56.518  1.00  0.00     0.211 HD
ENDBRANCH  18  26
ENDBRANCH  12  13
ENDBRANCH   7  12
BRANCH   4  28
ATOM     28  O   UNL     1     -24.083 -59.774  55.422  1.00  0.00    -0.365 OA
ATOM     29  H   UNL     1     -24.782 -59.482  56.066  1.00  0.00     0.214 HD
ENDBRANCH   4  28
BRANCH   8  30
ATOM     30  C   UNL     1     -25.694 -63.811  57.535  1.00  0.00     0.249 C 
BRANCH  30  31
ATOM     31  O   UNL     1     -26.582 -64.574  56.716  1.00  0.00    -0.461 OA
BRANCH  31  32
ATOM     32  C   UNL     1     -26.534 -65.962  56.582  1.00  0.00     0.338 C 
ATOM     33  O   UNL     1     -25.490 -66.591  56.893  1.00  0.00    -0.246 OA
BRANCH  32  34
ATOM     34  C   UNL     1     -27.720 -66.693  56.097  1.00  0.00     0.060 A 
ATOM     35  C   UNL     1     -28.389 -67.616  56.924  1.00  0.00     0.015 A 
ATOM     36  C   UNL     1     -28.211 -66.448  54.801  1.00  0.00     0.015 A 
ATOM     37  C   UNL     1     -29.527 -68.283  56.458  1.00  0.00     0.001 A 
ATOM     38  C   UNL     1     -29.337 -67.132  54.332  1.00  0.00     0.001 A 
ATOM     39  C   UNL     1     -29.995 -68.048  55.162  1.00  0.00     0.000 A 
ENDBRANCH  32  34
ENDBRANCH  31  32
ENDBRANCH  30  31
ENDBRANCH   8  30
TORSDOF 12
ENDMDL
