MODEL 1
REMARK VINA RESULT:    -4.277      0.000      0.000
REMARK INTER + INTRA:          -9.389
REMARK INTER:                  -7.778
REMARK INTRA:                  -1.612
REMARK UNBOUND:                -1.612
REMARK SMILES CCCCCCCCCCCCCCCC(=O)[O-]
REMARK SMILES IDX 9 1 10 2 11 3 12 4 13 5 14 6 15 7 16 8 17 9 18 10 8 11 7 12
REMARK SMILES IDX 6 13 5 14 4 15 3 16 2 17 1 18
REMARK H PARENT
REMARK Flexibility Score: inf
ROOT
ATOM      1  C   UNL     1       7.132  -3.869  -4.012  1.00  0.00     0.000 C 
ENDROOT
BRANCH   1   2
ATOM      2  C   UNL     1       7.812  -2.898  -3.035  1.00  0.00     0.000 C 
BRANCH   2   3
ATOM      3  C   UNL     1       7.833  -3.426  -1.592  1.00  0.00     0.000 C 
BRANCH   3   4
ATOM      4  C   UNL     1       7.296  -2.402  -0.577  1.00  0.00     0.000 C 
BRANCH   4   5
ATOM      5  C   UNL     1       6.490  -1.276  -1.260  1.00  0.00     0.000 C 
BRANCH   5   6
ATOM      6  C   UNL     1       5.766  -0.350  -0.269  1.00  0.00     0.006 C 
BRANCH   6   7
ATOM      7  C   UNL     1       6.723   0.354   0.700  1.00  0.00     0.053 C 
BRANCH   7   8
ATOM      8  C   UNL     1       6.074   0.536   2.036  1.00  0.00     0.041 C 
ATOM      9  O   UNL     1       5.293  -0.343   2.487  1.00  0.00    -0.550 OA
ATOM     10  O   UNL     1       6.369   1.653   2.806  1.00  0.00    -0.550 OA
ENDBRANCH   7   8
ENDBRANCH   6   7
ENDBRANCH   5   6
ENDBRANCH   4   5
ENDBRANCH   3   4
ENDBRANCH   2   3
ENDBRANCH   1   2
BRANCH   1  11
ATOM     11  C   UNL     1       5.883  -3.236  -4.636  1.00  0.00     0.000 C 
BRANCH  11  12
ATOM     12  C   UNL     1       6.138  -1.767  -5.006  1.00  0.00    -0.000 C 
BRANCH  12  13
ATOM     13  C   UNL     1       4.915  -0.871  -4.753  1.00  0.00    -0.000 C 
BRANCH  13  14
ATOM     14  C   UNL     1       3.922  -1.495  -3.757  1.00  0.00    -0.000 C 
BRANCH  14  15
ATOM     15  C   UNL     1       2.485  -1.547  -4.307  1.00  0.00    -0.000 C 
BRANCH  15  16
ATOM     16  C   UNL     1       2.336  -2.529  -5.482  1.00  0.00    -0.000 C 
BRANCH  16  17
ATOM     17  C   UNL     1       2.027  -3.960  -5.017  1.00  0.00    -0.003 C 
ATOM     18  C   UNL     1       1.374  -4.007  -3.636  1.00  0.00     0.004 C 
ENDBRANCH  16  17
ENDBRANCH  15  16
ENDBRANCH  14  15
ENDBRANCH  13  14
ENDBRANCH  12  13
ENDBRANCH  11  12
ENDBRANCH   1  11
TORSDOF 14
ENDMDL
MODEL 2
REMARK VINA RESULT:    -4.240      1.732      3.197
REMARK INTER + INTRA:          -9.322
REMARK INTER:                  -8.447
REMARK INTRA:                  -0.875
REMARK UNBOUND:                -1.612
REMARK SMILES CCCCCCCCCCCCCCCC(=O)[O-]
REMARK SMILES IDX 9 1 10 2 11 3 12 4 13 5 14 6 15 7 16 8 17 9 18 10 8 11 7 12
REMARK SMILES IDX 6 13 5 14 4 15 3 16 2 17 1 18
REMARK H PARENT
REMARK Flexibility Score: inf
ROOT
ATOM      1  C   UNL     1       4.324  -1.732  -5.278  1.00  0.00     0.000 C 
ENDROOT
BRANCH   1   2
ATOM      2  C   UNL     1       5.314  -2.300  -4.250  1.00  0.00     0.000 C 
BRANCH   2   3
ATOM      3  C   UNL     1       5.649  -1.300  -3.132  1.00  0.00     0.000 C 
BRANCH   3   4
ATOM      4  C   UNL     1       6.695  -1.843  -2.143  1.00  0.00     0.000 C 
BRANCH   4   5
ATOM      5  C   UNL     1       6.524  -1.243  -0.730  1.00  0.00     0.000 C 
BRANCH   5   6
ATOM      6  C   UNL     1       5.365  -0.238  -0.625  1.00  0.00     0.006 C 
BRANCH   6   7
ATOM      7  C   UNL     1       5.653   0.906   0.353  1.00  0.00     0.053 C 
BRANCH   7   8
ATOM      8  C   UNL     1       6.041   0.363   1.693  1.00  0.00     0.041 C 
ATOM      9  O   UNL     1       5.187  -0.226   2.409  1.00  0.00    -0.550 OA
ATOM     10  O   UNL     1       7.355   0.460   2.129  1.00  0.00    -0.550 OA
ENDBRANCH   7   8
ENDBRANCH   6   7
ENDBRANCH   5   6
ENDBRANCH   4   5
ENDBRANCH   3   4
ENDBRANCH   2   3
ENDBRANCH   1   2
BRANCH   1  11
ATOM     11  C   UNL     1       3.079  -1.164  -4.588  1.00  0.00     0.000 C 
BRANCH  11  12
ATOM     12  C   UNL     1       2.328  -2.263  -3.819  1.00  0.00    -0.000 C 
BRANCH  12  13
ATOM     13  C   UNL     1       1.884  -3.423  -4.724  1.00  0.00    -0.000 C 
BRANCH  13  14
ATOM     14  C   UNL     1       1.635  -4.722  -3.937  1.00  0.00    -0.000 C 
BRANCH  14  15
ATOM     15  C   UNL     1       0.539  -4.566  -2.869  1.00  0.00    -0.000 C 
BRANCH  15  16
ATOM     16  C   UNL     1       0.163  -5.903  -2.206  1.00  0.00    -0.000 C 
BRANCH  16  17
ATOM     17  C   UNL     1       1.135  -6.296  -1.082  1.00  0.00    -0.003 C 
ATOM     18  C   UNL     1       1.826  -7.634  -1.338  1.00  0.00     0.004 C 
ENDBRANCH  16  17
ENDBRANCH  15  16
ENDBRANCH  14  15
ENDBRANCH  13  14
ENDBRANCH  12  13
ENDBRANCH  11  12
ENDBRANCH   1  11
TORSDOF 14
ENDMDL
MODEL 3
REMARK VINA RESULT:    -4.133      1.264      2.294
REMARK INTER + INTRA:          -9.127
REMARK INTER:                  -8.342
REMARK INTRA:                  -0.784
REMARK UNBOUND:                -1.612
REMARK SMILES CCCCCCCCCCCCCCCC(=O)[O-]
REMARK SMILES IDX 9 1 10 2 11 3 12 4 13 5 14 6 15 7 16 8 17 9 18 10 8 11 7 12
REMARK SMILES IDX 6 13 5 14 4 15 3 16 2 17 1 18
REMARK H PARENT
REMARK Flexibility Score: inf
ROOT
ATOM      1  C   UNL     1       5.422  -2.280  -4.139  1.00  0.00     0.000 C 
ENDROOT
BRANCH   1   2
ATOM      2  C   UNL     1       6.542  -1.819  -3.196  1.00  0.00     0.000 C 
BRANCH   2   3
ATOM      3  C   UNL     1       7.411  -2.983  -2.691  1.00  0.00     0.000 C 
BRANCH   3   4
ATOM      4  C   UNL     1       7.546  -3.003  -1.159  1.00  0.00     0.000 C 
BRANCH   4   5
ATOM      5  C   UNL     1       7.630  -1.580  -0.565  1.00  0.00     0.000 C 
BRANCH   5   6
ATOM      6  C   UNL     1       6.382  -1.174   0.237  1.00  0.00     0.006 C 
BRANCH   6   7
ATOM      7  C   UNL     1       6.223   0.344   0.366  1.00  0.00     0.053 C 
BRANCH   7   8
ATOM      8  C   UNL     1       5.552   0.692   1.658  1.00  0.00     0.041 C 
ATOM      9  O   UNL     1       5.300  -0.208   2.503  1.00  0.00    -0.550 OA
ATOM     10  O   UNL     1       5.250   2.015   1.951  1.00  0.00    -0.550 OA
ENDBRANCH   7   8
ENDBRANCH   6   7
ENDBRANCH   5   6
ENDBRANCH   4   5
ENDBRANCH   3   4
ENDBRANCH   2   3
ENDBRANCH   1   2
BRANCH   1  11
ATOM     11  C   UNL     1       4.581  -1.091  -4.618  1.00  0.00     0.000 C 
BRANCH  11  12
ATOM     12  C   UNL     1       3.082  -1.365  -4.424  1.00  0.00    -0.000 C 
BRANCH  12  13
ATOM     13  C   UNL     1       2.482  -2.214  -5.556  1.00  0.00    -0.000 C 
BRANCH  13  14
ATOM     14  C   UNL     1       2.053  -3.614  -5.079  1.00  0.00    -0.000 C 
BRANCH  14  15
ATOM     15  C   UNL     1       1.542  -3.614  -3.628  1.00  0.00    -0.000 C 
BRANCH  15  16
ATOM     16  C   UNL     1       0.746  -4.883  -3.281  1.00  0.00    -0.000 C 
BRANCH  16  17
ATOM     17  C   UNL     1       0.486  -5.021  -1.772  1.00  0.00    -0.003 C 
ATOM     18  C   UNL     1       1.154  -6.253  -1.165  1.00  0.00     0.004 C 
ENDBRANCH  16  17
ENDBRANCH  15  16
ENDBRANCH  14  15
ENDBRANCH  13  14
ENDBRANCH  12  13
ENDBRANCH  11  12
ENDBRANCH   1  11
TORSDOF 14
ENDMDL
MODEL 4
REMARK VINA RESULT:    -4.071      1.162      2.597
REMARK INTER + INTRA:          -9.015
REMARK INTER:                  -6.962
REMARK INTRA:                  -2.053
REMARK UNBOUND:                -1.612
REMARK SMILES CCCCCCCCCCCCCCCC(=O)[O-]
REMARK SMILES IDX 9 1 10 2 11 3 12 4 13 5 14 6 15 7 16 8 17 9 18 10 8 11 7 12
REMARK SMILES IDX 6 13 5 14 4 15 3 16 2 17 1 18
REMARK H PARENT
REMARK Flexibility Score: inf
ROOT
ATOM      1  C   UNL     1       5.138  -0.980  -4.189  1.00  0.00     0.000 C 
ENDROOT
BRANCH   1   2
ATOM      2  C   UNL     1       6.591  -1.129  -3.714  1.00  0.00     0.000 C 
BRANCH   2   3
ATOM      3  C   UNL     1       6.845  -2.461  -2.990  1.00  0.00     0.000 C 
BRANCH   3   4
ATOM      4  C   UNL     1       7.747  -2.303  -1.754  1.00  0.00     0.000 C 
BRANCH   4   5
ATOM      5  C   UNL     1       6.934  -1.999  -0.477  1.00  0.00     0.000 C 
BRANCH   5   6
ATOM      6  C   UNL     1       7.075  -0.547   0.010  1.00  0.00     0.006 C 
BRANCH   6   7
ATOM      7  C   UNL     1       5.728   0.172   0.141  1.00  0.00     0.053 C 
BRANCH   7   8
ATOM      8  C   UNL     1       5.490   0.582   1.560  1.00  0.00     0.041 C 
ATOM      9  O   UNL     1       5.303   1.794   1.847  1.00  0.00    -0.550 OA
ATOM     10  O   UNL     1       5.424  -0.380   2.560  1.00  0.00    -0.550 OA
ENDBRANCH   7   8
ENDBRANCH   6   7
ENDBRANCH   5   6
ENDBRANCH   4   5
ENDBRANCH   3   4
ENDBRANCH   2   3
ENDBRANCH   1   2
BRANCH   1  11
ATOM     11  C   UNL     1       4.155  -1.435  -3.104  1.00  0.00     0.000 C 
BRANCH  11  12
ATOM     12  C   UNL     1       2.779  -1.757  -3.710  1.00  0.00    -0.000 C 
BRANCH  12  13
ATOM     13  C   UNL     1       2.603  -1.178  -5.123  1.00  0.00    -0.000 C 
BRANCH  13  14
ATOM     14  C   UNL     1       2.275  -2.260  -6.167  1.00  0.00    -0.000 C 
BRANCH  14  15
ATOM     15  C   UNL     1       2.301  -3.680  -5.575  1.00  0.00    -0.000 C 
BRANCH  15  16
ATOM     16  C   UNL     1       3.400  -4.561  -6.195  1.00  0.00    -0.000 C 
BRANCH  16  17
ATOM     17  C   UNL     1       4.733  -4.458  -5.438  1.00  0.00    -0.003 C 
ATOM     18  C   UNL     1       5.875  -3.948  -6.316  1.00  0.00     0.004 C 
ENDBRANCH  16  17
ENDBRANCH  15  16
ENDBRANCH  14  15
ENDBRANCH  13  14
ENDBRANCH  12  13
ENDBRANCH  11  12
ENDBRANCH   1  11
TORSDOF 14
ENDMDL
MODEL 5
REMARK VINA RESULT:    -4.047      1.629      2.986
REMARK INTER + INTRA:          -8.972
REMARK INTER:                  -7.587
REMARK INTRA:                  -1.385
REMARK UNBOUND:                -1.612
REMARK SMILES CCCCCCCCCCCCCCCC(=O)[O-]
REMARK SMILES IDX 9 1 10 2 11 3 12 4 13 5 14 6 15 7 16 8 17 9 18 10 8 11 7 12
REMARK SMILES IDX 6 13 5 14 4 15 3 16 2 17 1 18
REMARK H PARENT
REMARK Flexibility Score: inf
ROOT
ATOM      1  C   UNL     1       4.634  -1.392  -5.185  1.00  0.00     0.000 C 
ENDROOT
BRANCH   1   2
ATOM      2  C   UNL     1       5.414  -2.477  -4.429  1.00  0.00     0.000 C 
BRANCH   2   3
ATOM      3  C   UNL     1       6.152  -1.929  -3.197  1.00  0.00     0.000 C 
BRANCH   3   4
ATOM      4  C   UNL     1       6.476  -0.430  -3.317  1.00  0.00     0.000 C 
BRANCH   4   5
ATOM      5  C   UNL     1       6.469   0.278  -1.944  1.00  0.00     0.000 C 
BRANCH   5   6
ATOM      6  C   UNL     1       5.470  -0.330  -0.945  1.00  0.00     0.006 C 
BRANCH   6   7
ATOM      7  C   UNL     1       6.121  -0.721   0.386  1.00  0.00     0.053 C 
BRANCH   7   8
ATOM      8  C   UNL     1       5.635   0.168   1.487  1.00  0.00     0.041 C 
ATOM      9  O   UNL     1       5.436  -0.301   2.640  1.00  0.00    -0.550 OA
ATOM     10  O   UNL     1       5.449   1.524   1.255  1.00  0.00    -0.550 OA
ENDBRANCH   7   8
ENDBRANCH   6   7
ENDBRANCH   5   6
ENDBRANCH   4   5
ENDBRANCH   3   4
ENDBRANCH   2   3
ENDBRANCH   1   2
BRANCH   1  11
ATOM     11  C   UNL     1       3.152  -1.766  -5.310  1.00  0.00     0.000 C 
BRANCH  11  12
ATOM     12  C   UNL     1       2.470  -1.775  -3.933  1.00  0.00    -0.000 C 
BRANCH  12  13
ATOM     13  C   UNL     1       1.780  -3.113  -3.622  1.00  0.00    -0.000 C 
BRANCH  13  14
ATOM     14  C   UNL     1       1.779  -4.071  -4.827  1.00  0.00    -0.000 C 
BRANCH  14  15
ATOM     15  C   UNL     1       2.465  -5.412  -4.517  1.00  0.00    -0.000 C 
BRANCH  15  16
ATOM     16  C   UNL     1       1.464  -6.517  -4.138  1.00  0.00    -0.000 C 
BRANCH  16  17
ATOM     17  C   UNL     1       1.668  -7.031  -2.705  1.00  0.00    -0.003 C 
ATOM     18  C   UNL     1       1.009  -6.137  -1.655  1.00  0.00     0.004 C 
ENDBRANCH  16  17
ENDBRANCH  15  16
ENDBRANCH  14  15
ENDBRANCH  13  14
ENDBRANCH  12  13
ENDBRANCH  11  12
ENDBRANCH   1  11
TORSDOF 14
ENDMDL
MODEL 6
REMARK VINA RESULT:    -3.915      1.481      2.551
REMARK INTER + INTRA:          -8.731
REMARK INTER:                  -6.974
REMARK INTRA:                  -1.757
REMARK UNBOUND:                -1.612
REMARK SMILES CCCCCCCCCCCCCCCC(=O)[O-]
REMARK SMILES IDX 9 1 10 2 11 3 12 4 13 5 14 6 15 7 16 8 17 9 18 10 8 11 7 12
REMARK SMILES IDX 6 13 5 14 4 15 3 16 2 17 1 18
REMARK H PARENT
REMARK Flexibility Score: inf
ROOT
ATOM      1  C   UNL     1       7.094  -1.977  -0.509  1.00  0.00     0.000 C 
ENDROOT
BRANCH   1   2
ATOM      2  C   UNL     1       8.344  -1.222  -0.034  1.00  0.00     0.000 C 
BRANCH   2   3
ATOM      3  C   UNL     1       8.825  -0.173  -1.049  1.00  0.00     0.000 C 
BRANCH   3   4
ATOM      4  C   UNL     1       8.606   1.270  -0.561  1.00  0.00     0.000 C 
BRANCH   4   5
ATOM      5  C   UNL     1       7.330   1.898  -1.161  1.00  0.00     0.000 C 
BRANCH   5   6
ATOM      6  C   UNL     1       6.291   2.308  -0.104  1.00  0.00     0.006 C 
BRANCH   6   7
ATOM      7  C   UNL     1       5.461   1.125   0.406  1.00  0.00     0.053 C 
BRANCH   7   8
ATOM      8  C   UNL     1       5.698   0.912   1.868  1.00  0.00     0.041 C 
ATOM      9  O   UNL     1       6.150   1.848   2.580  1.00  0.00    -0.550 OA
ATOM     10  O   UNL     1       5.374  -0.304   2.456  1.00  0.00    -0.550 OA
ENDBRANCH   7   8
ENDBRANCH   6   7
ENDBRANCH   5   6
ENDBRANCH   4   5
ENDBRANCH   3   4
ENDBRANCH   2   3
ENDBRANCH   1   2
BRANCH   1  11
ATOM     11  C   UNL     1       6.934  -1.877  -2.030  1.00  0.00     0.000 C 
BRANCH  11  12
ATOM     12  C   UNL     1       5.633  -1.149  -2.399  1.00  0.00    -0.000 C 
BRANCH  12  13
ATOM     13  C   UNL     1       5.521  -0.858  -3.904  1.00  0.00    -0.000 C 
BRANCH  13  14
ATOM     14  C   UNL     1       5.105  -2.097  -4.716  1.00  0.00    -0.000 C 
BRANCH  14  15
ATOM     15  C   UNL     1       3.880  -1.835  -5.610  1.00  0.00    -0.000 C 
BRANCH  15  16
ATOM     16  C   UNL     1       2.633  -1.432  -4.803  1.00  0.00    -0.000 C 
BRANCH  16  17
ATOM     17  C   UNL     1       2.199  -2.520  -3.809  1.00  0.00    -0.003 C 
ATOM     18  C   UNL     1       1.785  -3.821  -4.495  1.00  0.00     0.004 C 
ENDBRANCH  16  17
ENDBRANCH  15  16
ENDBRANCH  14  15
ENDBRANCH  13  14
ENDBRANCH  12  13
ENDBRANCH  11  12
ENDBRANCH   1  11
TORSDOF 14
ENDMDL
MODEL 7
REMARK VINA RESULT:    -3.912      3.608      7.001
REMARK INTER + INTRA:          -8.725
REMARK INTER:                  -7.493
REMARK INTRA:                  -1.232
REMARK UNBOUND:                -1.612
REMARK SMILES CCCCCCCCCCCCCCCC(=O)[O-]
REMARK SMILES IDX 9 1 10 2 11 3 12 4 13 5 14 6 15 7 16 8 17 9 18 10 8 11 7 12
REMARK SMILES IDX 6 13 5 14 4 15 3 16 2 17 1 18
REMARK H PARENT
REMARK Flexibility Score: inf
ROOT
ATOM      1  C   UNL     1       2.572  -1.420  -4.888  1.00  0.00     0.000 C 
ENDROOT
BRANCH   1   2
ATOM      2  C   UNL     1       2.368  -2.774  -5.583  1.00  0.00     0.000 C 
BRANCH   2   3
ATOM      3  C   UNL     1       2.441  -3.959  -4.607  1.00  0.00     0.000 C 
BRANCH   3   4
ATOM      4  C   UNL     1       1.053  -4.509  -4.235  1.00  0.00     0.000 C 
BRANCH   4   5
ATOM      5  C   UNL     1       0.803  -4.472  -2.711  1.00  0.00     0.000 C 
BRANCH   5   6
ATOM      6  C   UNL     1       0.294  -5.805  -2.139  1.00  0.00     0.006 C 
BRANCH   6   7
ATOM      7  C   UNL     1       1.214  -6.380  -1.056  1.00  0.00     0.053 C 
BRANCH   7   8
ATOM      8  C   UNL     1       1.752  -7.711  -1.479  1.00  0.00     0.041 C 
ATOM      9  O   UNL     1       1.415  -8.207  -2.587  1.00  0.00    -0.550 OA
ATOM     10  O   UNL     1       2.665  -8.380  -0.675  1.00  0.00    -0.550 OA
ENDBRANCH   7   8
ENDBRANCH   6   7
ENDBRANCH   5   6
ENDBRANCH   4   5
ENDBRANCH   3   4
ENDBRANCH   2   3
ENDBRANCH   1   2
BRANCH   1  11
ATOM     11  C   UNL     1       3.536  -1.549  -3.703  1.00  0.00     0.000 C 
BRANCH  11  12
ATOM     12  C   UNL     1       4.967  -1.175  -4.115  1.00  0.00    -0.000 C 
BRANCH  12  13
ATOM     13  C   UNL     1       6.006  -2.215  -3.666  1.00  0.00    -0.000 C 
BRANCH  13  14
ATOM     14  C   UNL     1       7.057  -1.625  -2.710  1.00  0.00    -0.000 C 
BRANCH  14  15
ATOM     15  C   UNL     1       7.029  -2.284  -1.320  1.00  0.00    -0.000 C 
BRANCH  15  16
ATOM     16  C   UNL     1       6.723  -1.282  -0.194  1.00  0.00    -0.000 C 
BRANCH  16  17
ATOM     17  C   UNL     1       5.564  -0.336  -0.548  1.00  0.00    -0.003 C 
ATOM     18  C   UNL     1       5.978   1.135  -0.545  1.00  0.00     0.004 C 
ENDBRANCH  16  17
ENDBRANCH  15  16
ENDBRANCH  14  15
ENDBRANCH  13  14
ENDBRANCH  12  13
ENDBRANCH  11  12
ENDBRANCH   1  11
TORSDOF 14
ENDMDL
MODEL 8
REMARK VINA RESULT:    -3.864      1.669      3.618
REMARK INTER + INTRA:          -8.638
REMARK INTER:                  -6.905
REMARK INTRA:                  -1.734
REMARK UNBOUND:                -1.612
REMARK SMILES CCCCCCCCCCCCCCCC(=O)[O-]
REMARK SMILES IDX 9 1 10 2 11 3 12 4 13 5 14 6 15 7 16 8 17 9 18 10 8 11 7 12
REMARK SMILES IDX 6 13 5 14 4 15 3 16 2 17 1 18
REMARK H PARENT
REMARK Flexibility Score: inf
ROOT
ATOM      1  C   UNL     1       2.651  -1.507  -4.988  1.00  0.00     0.000 C 
ENDROOT
BRANCH   1   2
ATOM      2  C   UNL     1       4.044  -0.865  -4.918  1.00  0.00     0.000 C 
BRANCH   2   3
ATOM      3  C   UNL     1       4.976  -1.576  -3.924  1.00  0.00     0.000 C 
BRANCH   3   4
ATOM      4  C   UNL     1       6.017  -0.629  -3.303  1.00  0.00     0.000 C 
BRANCH   4   5
ATOM      5  C   UNL     1       6.473  -1.103  -1.906  1.00  0.00     0.000 C 
BRANCH   5   6
ATOM      6  C   UNL     1       5.691  -0.456  -0.751  1.00  0.00     0.006 C 
BRANCH   6   7
ATOM      7  C   UNL     1       6.404  -0.585   0.600  1.00  0.00     0.053 C 
BRANCH   7   8
ATOM      8  C   UNL     1       5.673   0.187   1.653  1.00  0.00     0.041 C 
ATOM      9  O   UNL     1       5.330  -0.375   2.727  1.00  0.00    -0.550 OA
ATOM     10  O   UNL     1       5.415   1.539   1.471  1.00  0.00    -0.550 OA
ENDBRANCH   7   8
ENDBRANCH   6   7
ENDBRANCH   5   6
ENDBRANCH   4   5
ENDBRANCH   3   4
ENDBRANCH   2   3
ENDBRANCH   1   2
BRANCH   1  11
ATOM     11  C   UNL     1       2.354  -2.318  -3.722  1.00  0.00     0.000 C 
BRANCH  11  12
ATOM     12  C   UNL     1       1.604  -3.615  -4.064  1.00  0.00    -0.000 C 
BRANCH  12  13
ATOM     13  C   UNL     1       2.118  -4.275  -5.353  1.00  0.00    -0.000 C 
BRANCH  13  14
ATOM     14  C   UNL     1       3.538  -4.848  -5.197  1.00  0.00    -0.000 C 
BRANCH  14  15
ATOM     15  C   UNL     1       4.367  -4.736  -6.488  1.00  0.00    -0.000 C 
BRANCH  15  16
ATOM     16  C   UNL     1       3.661  -3.906  -7.575  1.00  0.00    -0.000 C 
BRANCH  16  17
ATOM     17  C   UNL     1       4.535  -2.756  -8.098  1.00  0.00    -0.003 C 
ATOM     18  C   UNL     1       5.927  -2.735  -7.467  1.00  0.00     0.004 C 
ENDBRANCH  16  17
ENDBRANCH  15  16
ENDBRANCH  14  15
ENDBRANCH  13  14
ENDBRANCH  12  13
ENDBRANCH  11  12
ENDBRANCH   1  11
TORSDOF 14
ENDMDL
MODEL 9
REMARK VINA RESULT:    -3.770      1.621      2.367
REMARK INTER + INTRA:          -8.467
REMARK INTER:                  -7.403
REMARK INTRA:                  -1.064
REMARK UNBOUND:                -1.612
REMARK SMILES CCCCCCCCCCCCCCCC(=O)[O-]
REMARK SMILES IDX 9 1 10 2 11 3 12 4 13 5 14 6 15 7 16 8 17 9 18 10 8 11 7 12
REMARK SMILES IDX 6 13 5 14 4 15 3 16 2 17 1 18
REMARK H PARENT
REMARK Flexibility Score: inf
ROOT
ATOM      1  C   UNL     1       6.042  -0.391  -3.605  1.00  0.00     0.000 C 
ENDROOT
BRANCH   1   2
ATOM      2  C   UNL     1       6.514   0.124  -2.237  1.00  0.00     0.000 C 
BRANCH   2   3
ATOM      3  C   UNL     1       5.612  -0.342  -1.083  1.00  0.00     0.000 C 
BRANCH   3   4
ATOM      4  C   UNL     1       6.382  -1.129  -0.008  1.00  0.00     0.000 C 
BRANCH   4   5
ATOM      5  C   UNL     1       7.796  -0.556   0.229  1.00  0.00     0.000 C 
BRANCH   5   6
ATOM      6  C   UNL     1       7.847   0.524   1.323  1.00  0.00     0.006 C 
BRANCH   6   7
ATOM      7  C   UNL     1       6.684   0.423   2.316  1.00  0.00     0.053 C 
BRANCH   7   8
ATOM      8  C   UNL     1       7.196   0.423   3.722  1.00  0.00     0.041 C 
ATOM      9  O   UNL     1       6.391   0.374   4.690  1.00  0.00    -0.550 OA
ATOM     10  O   UNL     1       8.564   0.426   3.964  1.00  0.00    -0.550 OA
ENDBRANCH   7   8
ENDBRANCH   6   7
ENDBRANCH   5   6
ENDBRANCH   4   5
ENDBRANCH   3   4
ENDBRANCH   2   3
ENDBRANCH   1   2
BRANCH   1  11
ATOM     11  C   UNL     1       6.107  -1.921  -3.670  1.00  0.00     0.000 C 
BRANCH  11  12
ATOM     12  C   UNL     1       4.980  -2.483  -4.550  1.00  0.00    -0.000 C 
BRANCH  12  13
ATOM     13  C   UNL     1       4.119  -1.380  -5.187  1.00  0.00    -0.000 C 
BRANCH  13  14
ATOM     14  C   UNL     1       2.612  -1.624  -4.995  1.00  0.00    -0.000 C 
BRANCH  14  15
ATOM     15  C   UNL     1       2.301  -2.432  -3.724  1.00  0.00    -0.000 C 
BRANCH  15  16
ATOM     16  C   UNL     1       1.539  -3.735  -4.022  1.00  0.00    -0.000 C 
BRANCH  16  17
ATOM     17  C   UNL     1       0.747  -4.244  -2.807  1.00  0.00    -0.003 C 
ATOM     18  C   UNL     1       1.005  -5.720  -2.507  1.00  0.00     0.004 C 
ENDBRANCH  16  17
ENDBRANCH  15  16
ENDBRANCH  14  15
ENDBRANCH  13  14
ENDBRANCH  12  13
ENDBRANCH  11  12
ENDBRANCH   1  11
TORSDOF 14
ENDMDL
