MODEL 1
REMARK VINA RESULT:    -3.598      0.000      0.000
REMARK INTER + INTRA:          -6.314
REMARK INTER:                  -5.490
REMARK INTRA:                  -0.824
REMARK UNBOUND:                -0.824
REMARK SMILES CCCCCCCCCCC(=O)[O-]
REMARK SMILES IDX 7 1 8 2 9 3 10 4 11 5 12 6 13 7 6 8 5 9 4 10 3 11 2 12 1 13
REMARK H PARENT
REMARK Flexibility Score: inf
ROOT
ATOM      1  C   UNL     1      -0.603   8.552   4.380  1.00  0.00     0.000 C 
ENDROOT
BRANCH   1   2
ATOM      2  C   UNL     1       0.845   8.591   3.867  1.00  0.00     0.000 C 
BRANCH   2   3
ATOM      3  C   UNL     1       1.664   9.729   4.495  1.00  0.00     0.006 C 
BRANCH   3   4
ATOM      4  C   UNL     1       2.960   9.234   5.148  1.00  0.00     0.053 C 
BRANCH   4   5
ATOM      5  C   UNL     1       2.845   9.282   6.639  1.00  0.00     0.041 C 
ATOM      6  O   UNL     1       3.768   9.787   7.331  1.00  0.00    -0.550 OA
ATOM      7  O   UNL     1       1.738   8.726   7.269  1.00  0.00    -0.550 OA
ENDBRANCH   4   5
ENDBRANCH   3   4
ENDBRANCH   2   3
ENDBRANCH   1   2
BRANCH   1   8
ATOM      8  C   UNL     1      -0.905   9.767   5.265  1.00  0.00     0.000 C 
BRANCH   8   9
ATOM      9  C   UNL     1      -2.396  10.125   5.222  1.00  0.00    -0.000 C 
BRANCH   9  10
ATOM     10  C   UNL     1      -2.982   9.874   3.829  1.00  0.00    -0.000 C 
BRANCH  10  11
ATOM     11  C   UNL     1      -4.343   9.168   3.924  1.00  0.00    -0.000 C 
BRANCH  11  12
ATOM     12  C   UNL     1      -4.217   7.698   4.354  1.00  0.00    -0.003 C 
ATOM     13  C   UNL     1      -3.848   6.772   3.195  1.00  0.00     0.004 C 
ENDBRANCH  11  12
ENDBRANCH  10  11
ENDBRANCH   9  10
ENDBRANCH   8   9
ENDBRANCH   1   8
TORSDOF 9
ENDMDL
MODEL 2
REMARK VINA RESULT:    -3.477      1.724      2.620
REMARK INTER + INTRA:          -6.130
REMARK INTER:                  -5.596
REMARK INTRA:                  -0.533
REMARK UNBOUND:                -0.824
REMARK SMILES CCCCCCCCCCC(=O)[O-]
REMARK SMILES IDX 7 1 8 2 9 3 10 4 11 5 12 6 13 7 6 8 5 9 4 10 3 11 2 12 1 13
REMARK H PARENT
REMARK Flexibility Score: inf
ROOT
ATOM      1  C   UNL     1      -2.188   9.847   4.980  1.00  0.00     0.000 C 
ENDROOT
BRANCH   1   2
ATOM      2  C   UNL     1      -1.383   8.869   4.111  1.00  0.00     0.000 C 
BRANCH   2   3
ATOM      3  C   UNL     1       0.055   8.674   4.617  1.00  0.00     0.006 C 
BRANCH   3   4
ATOM      4  C   UNL     1       0.494   9.777   5.588  1.00  0.00     0.053 C 
BRANCH   4   5
ATOM      5  C   UNL     1       1.752   9.381   6.294  1.00  0.00     0.041 C 
ATOM      6  O   UNL     1       1.718   8.534   7.225  1.00  0.00    -0.550 OA
ATOM      7  O   UNL     1       2.958   9.983   5.955  1.00  0.00    -0.550 OA
ENDBRANCH   4   5
ENDBRANCH   3   4
ENDBRANCH   2   3
ENDBRANCH   1   2
BRANCH   1   8
ATOM      8  C   UNL     1      -3.680   9.791   4.630  1.00  0.00     0.000 C 
BRANCH   8   9
ATOM      9  C   UNL     1      -4.113   8.360   4.287  1.00  0.00    -0.000 C 
BRANCH   9  10
ATOM     10  C   UNL     1      -4.920   8.326   2.984  1.00  0.00    -0.000 C 
BRANCH  10  11
ATOM     11  C   UNL     1      -5.621   9.670   2.737  1.00  0.00    -0.000 C 
BRANCH  11  12
ATOM     12  C   UNL     1      -7.153   9.544   2.726  1.00  0.00    -0.003 C 
ATOM     13  C   UNL     1      -7.632   8.213   2.146  1.00  0.00     0.004 C 
ENDBRANCH  11  12
ENDBRANCH  10  11
ENDBRANCH   9  10
ENDBRANCH   8   9
ENDBRANCH   1   8
TORSDOF 9
ENDMDL
MODEL 3
REMARK VINA RESULT:    -3.398      1.318      2.256
REMARK INTER + INTRA:          -6.010
REMARK INTER:                  -5.165
REMARK INTRA:                  -0.845
REMARK UNBOUND:                -0.824
REMARK SMILES CCCCCCCCCCC(=O)[O-]
REMARK SMILES IDX 7 1 8 2 9 3 10 4 11 5 12 6 13 7 6 8 5 9 4 10 3 11 2 12 1 13
REMARK H PARENT
REMARK Flexibility Score: inf
ROOT
ATOM      1  C   UNL     1       0.302   6.945   3.882  1.00  0.00     0.000 C 
ENDROOT
BRANCH   1   2
ATOM      2  C   UNL     1       1.476   6.270   4.607  1.00  0.00     0.000 C 
BRANCH   2   3
ATOM      3  C   UNL     1       2.533   7.278   5.087  1.00  0.00     0.006 C 
BRANCH   3   4
ATOM      4  C   UNL     1       2.580   7.402   6.616  1.00  0.00     0.053 C 
BRANCH   4   5
ATOM      5  C   UNL     1       2.402   8.828   7.029  1.00  0.00     0.041 C 
ATOM      6  O   UNL     1       1.277   9.383   6.925  1.00  0.00    -0.550 OA
ATOM      7  O   UNL     1       3.492   9.561   7.484  1.00  0.00    -0.550 OA
ENDBRANCH   4   5
ENDBRANCH   3   4
ENDBRANCH   2   3
ENDBRANCH   1   2
BRANCH   1   8
ATOM      8  C   UNL     1       0.749   8.247   3.206  1.00  0.00     0.000 C 
BRANCH   8   9
ATOM      9  C   UNL     1      -0.207   9.399   3.542  1.00  0.00    -0.000 C 
BRANCH   9  10
ATOM     10  C   UNL     1      -1.283   8.950   4.536  1.00  0.00    -0.000 C 
BRANCH  10  11
ATOM     11  C   UNL     1      -2.373  10.022   4.688  1.00  0.00    -0.000 C 
BRANCH  11  12
ATOM     12  C   UNL     1      -3.791   9.443   4.568  1.00  0.00    -0.003 C 
ATOM     13  C   UNL     1      -3.797   7.973   4.149  1.00  0.00     0.004 C 
ENDBRANCH  11  12
ENDBRANCH  10  11
ENDBRANCH   9  10
ENDBRANCH   8   9
ENDBRANCH   1   8
TORSDOF 9
ENDMDL
MODEL 4
REMARK VINA RESULT:    -3.315      3.722      6.489
REMARK INTER + INTRA:          -5.883
REMARK INTER:                  -5.394
REMARK INTRA:                  -0.490
REMARK UNBOUND:                -0.824
REMARK SMILES CCCCCCCCCCC(=O)[O-]
REMARK SMILES IDX 7 1 8 2 9 3 10 4 11 5 12 6 13 7 6 8 5 9 4 10 3 11 2 12 1 13
REMARK H PARENT
REMARK Flexibility Score: inf
ROOT
ATOM      1  C   UNL     1      -1.336   9.123   4.346  1.00  0.00     0.000 C 
ENDROOT
BRANCH   1   2
ATOM      2  C   UNL     1      -2.254  10.125   5.062  1.00  0.00     0.000 C 
BRANCH   2   3
ATOM      3  C   UNL     1      -3.720  10.007   4.617  1.00  0.00     0.006 C 
BRANCH   3   4
ATOM      4  C   UNL     1      -4.100   8.578   4.208  1.00  0.00     0.053 C 
BRANCH   4   5
ATOM      5  C   UNL     1      -4.811   8.584   2.892  1.00  0.00     0.041 C 
ATOM      6  O   UNL     1      -4.297   8.022   1.890  1.00  0.00    -0.550 OA
ATOM      7  O   UNL     1      -6.021   9.254   2.759  1.00  0.00    -0.550 OA
ENDBRANCH   4   5
ENDBRANCH   3   4
ENDBRANCH   2   3
ENDBRANCH   1   2
BRANCH   1   8
ATOM      8  C   UNL     1       0.140   9.439   4.617  1.00  0.00     0.000 C 
BRANCH   8   9
ATOM      9  C   UNL     1       0.345   9.924   6.058  1.00  0.00    -0.000 C 
BRANCH   9  10
ATOM     10  C   UNL     1       1.835  10.071   6.383  1.00  0.00    -0.000 C 
BRANCH  10  11
ATOM     11  C   UNL     1       2.391   8.781   7.007  1.00  0.00    -0.000 C 
BRANCH  11  12
ATOM     12  C   UNL     1       3.041   7.855   5.967  1.00  0.00    -0.003 C 
ATOM     13  C   UNL     1       2.658   6.388   6.160  1.00  0.00     0.004 C 
ENDBRANCH  11  12
ENDBRANCH  10  11
ENDBRANCH   9  10
ENDBRANCH   8   9
ENDBRANCH   1   8
TORSDOF 9
ENDMDL
MODEL 5
REMARK VINA RESULT:    -3.205      3.420      6.205
REMARK INTER + INTRA:          -5.716
REMARK INTER:                  -5.005
REMARK INTRA:                  -0.711
REMARK UNBOUND:                -0.824
REMARK SMILES CCCCCCCCCCC(=O)[O-]
REMARK SMILES IDX 7 1 8 2 9 3 10 4 11 5 12 6 13 7 6 8 5 9 4 10 3 11 2 12 1 13
REMARK H PARENT
REMARK Flexibility Score: inf
ROOT
ATOM      1  C   UNL     1      -1.045   8.837   2.940  1.00  0.00     0.000 C 
ENDROOT
BRANCH   1   2
ATOM      2  C   UNL     1      -2.171   9.872   2.801  1.00  0.00     0.000 C 
BRANCH   2   3
ATOM      3  C   UNL     1      -2.970  10.055   4.101  1.00  0.00     0.006 C 
BRANCH   3   4
ATOM      4  C   UNL     1      -4.480   9.875   3.897  1.00  0.00     0.053 C 
BRANCH   4   5
ATOM      5  C   UNL     1      -4.788   8.465   3.504  1.00  0.00     0.041 C 
ATOM      6  O   UNL     1      -4.477   7.512   4.265  1.00  0.00    -0.550 OA
ATOM      7  O   UNL     1      -5.377   8.200   2.273  1.00  0.00    -0.550 OA
ENDBRANCH   4   5
ENDBRANCH   3   4
ENDBRANCH   2   3
ENDBRANCH   1   2
BRANCH   1   8
ATOM      8  C   UNL     1       0.287   9.403   2.432  1.00  0.00     0.000 C 
BRANCH   8   9
ATOM      9  C   UNL     1       1.279   9.598   3.585  1.00  0.00    -0.000 C 
BRANCH   9  10
ATOM     10  C   UNL     1       0.717   9.038   4.896  1.00  0.00    -0.000 C 
BRANCH  10  11
ATOM     11  C   UNL     1       0.669  10.125   5.981  1.00  0.00    -0.000 C 
BRANCH  11  12
ATOM     12  C   UNL     1       1.896  10.092   6.905  1.00  0.00    -0.003 C 
ATOM     13  C   UNL     1       2.455   8.682   7.096  1.00  0.00     0.004 C 
ENDBRANCH  11  12
ENDBRANCH  10  11
ENDBRANCH   9  10
ENDBRANCH   8   9
ENDBRANCH   1   8
TORSDOF 9
ENDMDL
MODEL 6
REMARK VINA RESULT:    -3.169      4.630      5.694
REMARK INTER + INTRA:          -5.660
REMARK INTER:                  -5.156
REMARK INTRA:                  -0.504
REMARK UNBOUND:                -0.824
REMARK SMILES CCCCCCCCCCC(=O)[O-]
REMARK SMILES IDX 7 1 8 2 9 3 10 4 11 5 12 6 13 7 6 8 5 9 4 10 3 11 2 12 1 13
REMARK H PARENT
REMARK Flexibility Score: inf
ROOT
ATOM      1  C   UNL     1       1.694   5.294   4.166  1.00  0.00     0.000 C 
ENDROOT
BRANCH   1   2
ATOM      2  C   UNL     1       0.779   6.520   4.295  1.00  0.00     0.000 C 
BRANCH   2   3
ATOM      3  C   UNL     1       1.537   7.781   4.739  1.00  0.00     0.006 C 
BRANCH   3   4
ATOM      4  C   UNL     1       2.262   7.593   6.077  1.00  0.00     0.053 C 
BRANCH   4   5
ATOM      5  C   UNL     1       2.145   8.829   6.912  1.00  0.00     0.041 C 
ATOM      6  O   UNL     1       1.100   9.529   6.865  1.00  0.00    -0.550 OA
ATOM      7  O   UNL     1       3.211   9.235   7.706  1.00  0.00    -0.550 OA
ENDBRANCH   4   5
ENDBRANCH   3   4
ENDBRANCH   2   3
ENDBRANCH   1   2
BRANCH   1   8
ATOM      8  C   UNL     1       1.291   4.200   5.163  1.00  0.00     0.000 C 
BRANCH   8   9
ATOM      9  C   UNL     1       2.398   3.960   6.197  1.00  0.00    -0.000 C 
BRANCH   9  10
ATOM     10  C   UNL     1       1.933   2.987   7.286  1.00  0.00    -0.000 C 
BRANCH  10  11
ATOM     11  C   UNL     1       0.403   2.847   7.281  1.00  0.00    -0.000 C 
BRANCH  11  12
ATOM     12  C   UNL     1      -0.060   1.422   7.620  1.00  0.00    -0.003 C 
ATOM     13  C   UNL     1      -1.463   1.384   8.226  1.00  0.00     0.004 C 
ENDBRANCH  11  12
ENDBRANCH  10  11
ENDBRANCH   9  10
ENDBRANCH   8   9
ENDBRANCH   1   8
TORSDOF 9
ENDMDL
MODEL 7
REMARK VINA RESULT:    -3.154     11.230     13.244
REMARK INTER + INTRA:          -5.638
REMARK INTER:                  -4.352
REMARK INTRA:                  -1.286
REMARK UNBOUND:                -0.824
REMARK SMILES CCCCCCCCCCC(=O)[O-]
REMARK SMILES IDX 7 1 8 2 9 3 10 4 11 5 12 6 13 7 6 8 5 9 4 10 3 11 2 12 1 13
REMARK H PARENT
REMARK Flexibility Score: inf
ROOT
ATOM      1  C   UNL     1      -8.768  -1.304  11.061  1.00  0.00     0.000 C 
ENDROOT
BRANCH   1   2
ATOM      2  C   UNL     1      -9.063  -2.034   9.741  1.00  0.00     0.000 C 
BRANCH   2   3
ATOM      3  C   UNL     1      -8.939  -1.114   8.516  1.00  0.00     0.006 C 
BRANCH   3   4
ATOM      4  C   UNL     1      -7.547  -1.171   7.873  1.00  0.00     0.053 C 
BRANCH   4   5
ATOM      5  C   UNL     1      -7.071   0.206   7.536  1.00  0.00     0.041 C 
ATOM      6  O   UNL     1      -7.864   1.182   7.591  1.00  0.00    -0.550 OA
ATOM      7  O   UNL     1      -5.763   0.405   7.111  1.00  0.00    -0.550 OA
ENDBRANCH   4   5
ENDBRANCH   3   4
ENDBRANCH   2   3
ENDBRANCH   1   2
BRANCH   1   8
ATOM      8  C   UNL     1      -9.230   0.156  10.996  1.00  0.00     0.000 C 
BRANCH   8   9
ATOM      9  C   UNL     1      -8.567   0.994  12.097  1.00  0.00    -0.000 C 
BRANCH   9  10
ATOM     10  C   UNL     1      -7.048   0.794  12.102  1.00  0.00    -0.000 C 
BRANCH  10  11
ATOM     11  C   UNL     1      -6.396   1.501  10.904  1.00  0.00    -0.000 C 
BRANCH  11  12
ATOM     12  C   UNL     1      -5.008   0.935  10.568  1.00  0.00    -0.003 C 
ATOM     13  C   UNL     1      -4.972  -0.593  10.584  1.00  0.00     0.004 C 
ENDBRANCH  11  12
ENDBRANCH  10  11
ENDBRANCH   9  10
ENDBRANCH   8   9
ENDBRANCH   1   8
TORSDOF 9
ENDMDL
MODEL 8
REMARK VINA RESULT:    -3.149      3.309      6.036
REMARK INTER + INTRA:          -5.630
REMARK INTER:                  -4.710
REMARK INTRA:                  -0.920
REMARK UNBOUND:                -0.824
REMARK SMILES CCCCCCCCCCC(=O)[O-]
REMARK SMILES IDX 7 1 8 2 9 3 10 4 11 5 12 6 13 7 6 8 5 9 4 10 3 11 2 12 1 13
REMARK H PARENT
REMARK Flexibility Score: inf
ROOT
ATOM      1  C   UNL     1       0.527   7.361   3.217  1.00  0.00     0.000 C 
ENDROOT
BRANCH   1   2
ATOM      2  C   UNL     1      -0.649   7.733   4.132  1.00  0.00     0.000 C 
BRANCH   2   3
ATOM      3  C   UNL     1      -1.407   8.978   3.645  1.00  0.00     0.006 C 
BRANCH   3   4
ATOM      4  C   UNL     1      -2.403   9.507   4.685  1.00  0.00     0.053 C 
BRANCH   4   5
ATOM      5  C   UNL     1      -3.802   9.146   4.298  1.00  0.00     0.041 C 
ATOM      6  O   UNL     1      -4.245   7.990   4.527  1.00  0.00    -0.550 OA
ATOM      7  O   UNL     1      -4.602  10.072   3.639  1.00  0.00    -0.550 OA
ENDBRANCH   4   5
ENDBRANCH   3   4
ENDBRANCH   2   3
ENDBRANCH   1   2
BRANCH   1   8
ATOM      8  C   UNL     1       1.606   6.597   3.994  1.00  0.00     0.000 C 
BRANCH   8   9
ATOM      9  C   UNL     1       2.679   7.551   4.533  1.00  0.00    -0.000 C 
BRANCH   9  10
ATOM     10  C   UNL     1       3.037   7.214   5.985  1.00  0.00    -0.000 C 
BRANCH  10  11
ATOM     11  C   UNL     1       2.408   8.225   6.955  1.00  0.00    -0.000 C 
BRANCH  11  12
ATOM     12  C   UNL     1       2.222   9.613   6.322  1.00  0.00    -0.003 C 
ATOM     13  C   UNL     1       0.785  10.124   6.427  1.00  0.00     0.004 C 
ENDBRANCH  11  12
ENDBRANCH  10  11
ENDBRANCH   9  10
ENDBRANCH   8   9
ENDBRANCH   1   8
TORSDOF 9
ENDMDL
