MODEL 1
REMARK VINA RESULT:    -4.388      0.000      0.000
REMARK INTER + INTRA:          -4.805
REMARK INTER:                  -4.644
REMARK INTRA:                  -0.160
REMARK UNBOUND:                -0.160
REMARK SMILES C=C(C)[C@H]1CC=C(C)CC1
REMARK SMILES IDX 8 1 7 2 6 3 5 4 4 5 10 6 9 7 2 8 1 9 3 10
REMARK H PARENT
REMARK Flexibility Score: inf
ROOT
ATOM      1  C   UNL     1      -9.384   5.139  -3.350  1.00  0.00     0.039 C 
ATOM      2  C   UNL     1      -8.989   3.755  -3.781  1.00  0.00    -0.077 C 
ATOM      3  C   UNL     1      -7.697   3.386  -3.772  1.00  0.00    -0.027 C 
ATOM      4  C   UNL     1      -7.327   1.981  -4.159  1.00  0.00     0.035 C 
ATOM      5  C   UNL     1      -8.265   0.969  -3.456  1.00  0.00     0.018 C 
ATOM      6  C   UNL     1      -9.771   1.389  -3.485  1.00  0.00     0.013 C 
ATOM      7  C   UNL     1     -10.027   2.735  -4.191  1.00  0.00     0.031 C 
ENDROOT
BRANCH   5   8
ATOM      8  C   UNL     1      -8.056  -0.434  -4.010  1.00  0.00    -0.077 C 
ATOM      9  C   UNL     1      -8.261  -1.516  -3.241  1.00  0.00     0.008 C 
ATOM     10  C   UNL     1      -7.613  -0.633  -5.436  1.00  0.00     0.039 C 
ENDBRANCH   5   8
TORSDOF 1
ENDMDL
MODEL 2
REMARK VINA RESULT:    -4.336      0.702      1.677
REMARK INTER + INTRA:          -4.749
REMARK INTER:                  -4.589
REMARK INTRA:                  -0.160
REMARK UNBOUND:                -0.160
REMARK SMILES C=C(C)[C@H]1CC=C(C)CC1
REMARK SMILES IDX 8 1 7 2 6 3 5 4 4 5 10 6 9 7 2 8 1 9 3 10
REMARK H PARENT
REMARK Flexibility Score: inf
ROOT
ATOM      1  C   UNL     1      -9.375   4.908  -3.379  1.00  0.00     0.039 C 
ATOM      2  C   UNL     1      -9.050   3.442  -3.321  1.00  0.00    -0.077 C 
ATOM      3  C   UNL     1     -10.003   2.550  -3.006  1.00  0.00    -0.027 C 
ATOM      4  C   UNL     1      -9.671   1.083  -3.004  1.00  0.00     0.035 C 
ATOM      5  C   UNL     1      -8.875   0.714  -4.280  1.00  0.00     0.018 C 
ATOM      6  C   UNL     1      -7.752   1.743  -4.635  1.00  0.00     0.013 C 
ATOM      7  C   UNL     1      -7.667   2.932  -3.658  1.00  0.00     0.031 C 
ENDROOT
BRANCH   5   8
ATOM      8  C   UNL     1      -8.335  -0.706  -4.186  1.00  0.00    -0.077 C 
ATOM      9  C   UNL     1      -8.250  -1.334  -3.000  1.00  0.00     0.008 C 
ATOM     10  C   UNL     1      -7.884  -1.435  -5.425  1.00  0.00     0.039 C 
ENDBRANCH   5   8
TORSDOF 1
ENDMDL
MODEL 3
REMARK VINA RESULT:    -4.140      1.147      4.551
REMARK INTER + INTRA:          -4.543
REMARK INTER:                  -4.384
REMARK INTRA:                  -0.159
REMARK UNBOUND:                -0.160
REMARK SMILES C=C(C)[C@H]1CC=C(C)CC1
REMARK SMILES IDX 8 1 7 2 6 3 5 4 4 5 10 6 9 7 2 8 1 9 3 10
REMARK H PARENT
REMARK Flexibility Score: inf
ROOT
ATOM      1  C   UNL     1      -8.915  -2.498  -3.700  1.00  0.00     0.039 C 
ATOM      2  C   UNL     1      -8.896  -1.006  -3.877  1.00  0.00    -0.077 C 
ATOM      3  C   UNL     1     -10.024  -0.348  -4.194  1.00  0.00    -0.027 C 
ATOM      4  C   UNL     1      -9.994   1.151  -4.316  1.00  0.00     0.035 C 
ATOM      5  C   UNL     1      -9.232   1.770  -3.119  1.00  0.00     0.018 C 
ATOM      6  C   UNL     1      -7.909   1.014  -2.763  1.00  0.00     0.013 C 
ATOM      7  C   UNL     1      -7.631  -0.207  -3.661  1.00  0.00     0.031 C 
ENDROOT
BRANCH   5   8
ATOM      8  C   UNL     1      -8.994   3.257  -3.343  1.00  0.00    -0.077 C 
ATOM      9  C   UNL     1      -7.777   3.717  -3.680  1.00  0.00     0.008 C 
ATOM     10  C   UNL     1     -10.123   4.242  -3.189  1.00  0.00     0.039 C 
ENDBRANCH   5   8
TORSDOF 1
ENDMDL
MODEL 4
REMARK VINA RESULT:    -4.135      1.481      4.544
REMARK INTER + INTRA:          -4.537
REMARK INTER:                  -4.378
REMARK INTRA:                  -0.159
REMARK UNBOUND:                -0.160
REMARK SMILES C=C(C)[C@H]1CC=C(C)CC1
REMARK SMILES IDX 8 1 7 2 6 3 5 4 4 5 10 6 9 7 2 8 1 9 3 10
REMARK H PARENT
REMARK Flexibility Score: inf
ROOT
ATOM      1  C   UNL     1      -9.075  -3.512  -4.331  1.00  0.00     0.039 C 
ATOM      2  C   UNL     1      -8.991  -2.019  -4.175  1.00  0.00    -0.077 C 
ATOM      3  C   UNL     1      -8.192  -1.481  -3.238  1.00  0.00    -0.027 C 
ATOM      4  C   UNL     1      -8.083   0.015  -3.132  1.00  0.00     0.035 C 
ATOM      5  C   UNL     1      -7.898   0.639  -4.537  1.00  0.00     0.018 C 
ATOM      6  C   UNL     1      -8.844   0.025  -5.622  1.00  0.00     0.013 C 
ATOM      7  C   UNL     1      -9.761  -1.091  -5.086  1.00  0.00     0.031 C 
ENDROOT
BRANCH   5   8
ATOM      8  C   UNL     1      -8.017   2.155  -4.473  1.00  0.00    -0.077 C 
ATOM      9  C   UNL     1      -7.052   2.898  -3.903  1.00  0.00     0.008 C 
ATOM     10  C   UNL     1      -9.221   2.852  -5.049  1.00  0.00     0.039 C 
ENDBRANCH   5   8
TORSDOF 1
ENDMDL
MODEL 5
REMARK VINA RESULT:    -3.942      1.347      2.209
REMARK INTER + INTRA:          -4.333
REMARK INTER:                  -4.176
REMARK INTRA:                  -0.157
REMARK UNBOUND:                -0.160
REMARK SMILES C=C(C)[C@H]1CC=C(C)CC1
REMARK SMILES IDX 8 1 7 2 6 3 5 4 4 5 10 6 9 7 2 8 1 9 3 10
REMARK H PARENT
REMARK Flexibility Score: inf
ROOT
ATOM      1  C   UNL     1      -7.928   3.590  -3.810  1.00  0.00     0.039 C 
ATOM      2  C   UNL     1      -8.339   2.156  -3.992  1.00  0.00    -0.077 C 
ATOM      3  C   UNL     1      -8.549   1.663  -5.224  1.00  0.00    -0.027 C 
ATOM      4  C   UNL     1      -8.910   0.213  -5.388  1.00  0.00     0.035 C 
ATOM      5  C   UNL     1      -7.983  -0.671  -4.518  1.00  0.00     0.018 C 
ATOM      6  C   UNL     1      -7.756  -0.106  -3.076  1.00  0.00     0.013 C 
ATOM      7  C   UNL     1      -8.484   1.225  -2.809  1.00  0.00     0.031 C 
ENDROOT
BRANCH   5   8
ATOM      8  C   UNL     1      -8.478  -2.110  -4.493  1.00  0.00    -0.077 C 
ATOM      9  C   UNL     1      -8.818  -2.702  -3.334  1.00  0.00     0.008 C 
ATOM     10  C   UNL     1      -8.596  -2.899  -5.770  1.00  0.00     0.039 C 
ENDBRANCH   5   8
TORSDOF 1
ENDMDL
MODEL 6
REMARK VINA RESULT:    -3.621      2.328      3.418
REMARK INTER + INTRA:          -3.993
REMARK INTER:                  -3.839
REMARK INTRA:                  -0.154
REMARK UNBOUND:                -0.160
REMARK SMILES C=C(C)[C@H]1CC=C(C)CC1
REMARK SMILES IDX 8 1 7 2 6 3 5 4 4 5 10 6 9 7 2 8 1 9 3 10
REMARK H PARENT
REMARK Flexibility Score: inf
ROOT
ATOM      1  C   UNL     1      -7.479   1.343  -2.352  1.00  0.00     0.039 C 
ATOM      2  C   UNL     1      -7.890   0.498  -3.525  1.00  0.00    -0.077 C 
ATOM      3  C   UNL     1      -7.180   0.532  -4.665  1.00  0.00    -0.027 C 
ATOM      4  C   UNL     1      -7.577  -0.359  -5.809  1.00  0.00     0.035 C 
ATOM      5  C   UNL     1      -7.857  -1.793  -5.298  1.00  0.00     0.018 C 
ATOM      6  C   UNL     1      -8.701  -1.833  -3.981  1.00  0.00     0.013 C 
ATOM      7  C   UNL     1      -9.074  -0.439  -3.440  1.00  0.00     0.031 C 
ENDROOT
BRANCH   5   8
ATOM      8  C   UNL     1      -8.479  -2.645  -6.396  1.00  0.00    -0.077 C 
ATOM      9  C   UNL     1      -8.918  -3.889  -6.138  1.00  0.00     0.008 C 
ATOM     10  C   UNL     1      -8.611  -2.107  -7.797  1.00  0.00     0.039 C 
ENDBRANCH   5   8
TORSDOF 1
ENDMDL
MODEL 7
REMARK VINA RESULT:    -3.517     10.950     12.565
REMARK INTER + INTRA:          -3.882
REMARK INTER:                  -3.720
REMARK INTRA:                  -0.163
REMARK UNBOUND:                -0.160
REMARK SMILES C=C(C)[C@H]1CC=C(C)CC1
REMARK SMILES IDX 8 1 7 2 6 3 5 4 4 5 10 6 9 7 2 8 1 9 3 10
REMARK H PARENT
REMARK Flexibility Score: inf
ROOT
ATOM      1  C   UNL     1      -2.157   9.842  -5.637  1.00  0.00     0.039 C 
ATOM      2  C   UNL     1      -0.791   9.218  -5.664  1.00  0.00    -0.077 C 
ATOM      3  C   UNL     1      -0.473   8.327  -6.619  1.00  0.00    -0.027 C 
ATOM      4  C   UNL     1       0.916   7.751  -6.659  1.00  0.00     0.035 C 
ATOM      5  C   UNL     1       1.966   8.876  -6.488  1.00  0.00     0.018 C 
ATOM      6  C   UNL     1       1.605   9.902  -5.363  1.00  0.00     0.013 C 
ATOM      7  C   UNL     1       0.268   9.603  -4.656  1.00  0.00     0.031 C 
ENDROOT
BRANCH   5   8
ATOM      8  C   UNL     1       3.357   8.290  -6.296  1.00  0.00    -0.077 C 
ATOM      9  C   UNL     1       3.767   7.867  -5.088  1.00  0.00     0.008 C 
ATOM     10  C   UNL     1       4.304   8.172  -7.463  1.00  0.00     0.039 C 
ENDBRANCH   5   8
TORSDOF 1
ENDMDL
MODEL 8
REMARK VINA RESULT:    -3.416     13.077     14.379
REMARK INTER + INTRA:          -3.776
REMARK INTER:                  -3.616
REMARK INTRA:                  -0.159
REMARK UNBOUND:                -0.160
REMARK SMILES C=C(C)[C@H]1CC=C(C)CC1
REMARK SMILES IDX 8 1 7 2 6 3 5 4 4 5 10 6 9 7 2 8 1 9 3 10
REMARK H PARENT
REMARK Flexibility Score: inf
ROOT
ATOM      1  C   UNL     1       2.172   4.463   8.670  1.00  0.00     0.039 C 
ATOM      2  C   UNL     1       0.945   4.954   7.954  1.00  0.00    -0.077 C 
ATOM      3  C   UNL     1       0.434   6.163   8.240  1.00  0.00    -0.027 C 
ATOM      4  C   UNL     1      -0.764   6.657   7.477  1.00  0.00     0.035 C 
ATOM      5  C   UNL     1      -0.572   6.408   5.961  1.00  0.00     0.018 C 
ATOM      6  C   UNL     1       0.005   4.993   5.628  1.00  0.00     0.013 C 
ATOM      7  C   UNL     1       0.286   4.129   6.873  1.00  0.00     0.031 C 
ENDROOT
BRANCH   5   8
ATOM      8  C   UNL     1      -1.861   6.689   5.201  1.00  0.00    -0.077 C 
ATOM      9  C   UNL     1      -2.680   5.687   4.840  1.00  0.00     0.008 C 
ATOM     10  C   UNL     1      -2.242   8.101   4.839  1.00  0.00     0.039 C 
ENDBRANCH   5   8
TORSDOF 1
ENDMDL
MODEL 9
REMARK VINA RESULT:    -3.388     10.635     12.348
REMARK INTER + INTRA:          -3.746
REMARK INTER:                  -3.591
REMARK INTRA:                  -0.155
REMARK UNBOUND:                -0.160
REMARK SMILES C=C(C)[C@H]1CC=C(C)CC1
REMARK SMILES IDX 8 1 7 2 6 3 5 4 4 5 10 6 9 7 2 8 1 9 3 10
REMARK H PARENT
REMARK Flexibility Score: inf
ROOT
ATOM      1  C   UNL     1      -5.625   5.281   4.976  1.00  0.00     0.039 C 
ATOM      2  C   UNL     1      -4.525   6.214   4.553  1.00  0.00    -0.077 C 
ATOM      3  C   UNL     1      -4.809   7.477   4.194  1.00  0.00    -0.027 C 
ATOM      4  C   UNL     1      -3.689   8.409   3.824  1.00  0.00     0.035 C 
ATOM      5  C   UNL     1      -2.542   8.304   4.858  1.00  0.00     0.018 C 
ATOM      6  C   UNL     1      -2.198   6.832   5.261  1.00  0.00     0.013 C 
ATOM      7  C   UNL     1      -3.078   5.776   4.565  1.00  0.00     0.031 C 
ENDROOT
BRANCH   5   8
ATOM      8  C   UNL     1      -1.313   9.064   4.378  1.00  0.00    -0.077 C 
ATOM      9  C   UNL     1      -1.405   9.970   3.390  1.00  0.00     0.008 C 
ATOM     10  C   UNL     1       0.034   8.811   5.005  1.00  0.00     0.039 C 
ENDBRANCH   5   8
TORSDOF 1
ENDMDL
