MODEL 1
REMARK VINA RESULT:    -4.048      0.000      0.000
REMARK INTER + INTRA:          -5.148
REMARK INTER:                  -4.995
REMARK INTRA:                  -0.153
REMARK UNBOUND:                -0.153
REMARK SMILES CCCCC=CC(C)=O
REMARK SMILES IDX 4 1 3 2 2 3 1 4 5 5 6 6 7 7 9 8 8 9
REMARK H PARENT
REMARK Flexibility Score: inf
ROOT
ATOM      1  C   UNL     1      17.505  25.787  54.297  1.00  0.00     0.027 C 
ENDROOT
BRANCH   1   2
ATOM      2  C   UNL     1      17.604  24.637  55.311  1.00  0.00     0.004 C 
BRANCH   2   3
ATOM      3  C   UNL     1      19.050  24.356  55.744  1.00  0.00    -0.003 C 
ATOM      4  C   UNL     1      19.271  24.569  57.241  1.00  0.00     0.004 C 
ENDBRANCH   2   3
ENDBRANCH   1   2
BRANCH   1   5
ATOM      5  C   UNL     1      16.146  25.833  53.660  1.00  0.00    -0.023 C 
ATOM      6  C   UNL     1      15.182  24.972  54.005  1.00  0.00     0.042 C 
BRANCH   6   7
ATOM      7  C   UNL     1      13.846  24.992  53.381  1.00  0.00     0.152 C 
ATOM      8  O   UNL     1      12.906  25.659  53.890  1.00  0.00    -0.295 OA
ATOM      9  C   UNL     1      13.602  24.208  52.132  1.00  0.00     0.093 C 
ENDBRANCH   6   7
ENDBRANCH   1   5
TORSDOF 4
ENDMDL
MODEL 2
REMARK VINA RESULT:    -4.035     14.362     15.031
REMARK INTER + INTRA:          -5.131
REMARK INTER:                  -4.859
REMARK INTRA:                  -0.273
REMARK UNBOUND:                -0.153
REMARK SMILES CCCCC=CC(C)=O
REMARK SMILES IDX 4 1 3 2 2 3 1 4 5 5 6 6 7 7 9 8 8 9
REMARK H PARENT
REMARK Flexibility Score: inf
ROOT
ATOM      1  C   UNL     1      19.188  12.189  52.812  1.00  0.00     0.027 C 
ENDROOT
BRANCH   1   2
ATOM      2  C   UNL     1      20.410  12.786  53.526  1.00  0.00     0.004 C 
BRANCH   2   3
ATOM      3  C   UNL     1      21.738  12.325  52.905  1.00  0.00    -0.003 C 
ATOM      4  C   UNL     1      22.543  11.419  53.836  1.00  0.00     0.004 C 
ENDBRANCH   2   3
ENDBRANCH   1   2
BRANCH   1   5
ATOM      5  C   UNL     1      18.492  11.181  53.681  1.00  0.00    -0.023 C 
ATOM      6  C   UNL     1      19.030   9.981  53.930  1.00  0.00     0.042 C 
BRANCH   6   7
ATOM      7  C   UNL     1      18.356   8.973  54.768  1.00  0.00     0.152 C 
ATOM      8  O   UNL     1      19.019   8.078  55.359  1.00  0.00    -0.295 OA
ATOM      9  C   UNL     1      16.869   9.008  54.916  1.00  0.00     0.093 C 
ENDBRANCH   6   7
ENDBRANCH   1   5
TORSDOF 4
ENDMDL
MODEL 3
REMARK VINA RESULT:    -3.947      9.145      9.571
REMARK INTER + INTRA:          -5.023
REMARK INTER:                  -4.767
REMARK INTRA:                  -0.256
REMARK UNBOUND:                -0.153
REMARK SMILES CCCCC=CC(C)=O
REMARK SMILES IDX 4 1 3 2 2 3 1 4 5 5 6 6 7 7 9 8 8 9
REMARK H PARENT
REMARK Flexibility Score: inf
ROOT
ATOM      1  C   UNL     1      14.106  17.996  59.592  1.00  0.00     0.027 C 
ENDROOT
BRANCH   1   2
ATOM      2  C   UNL     1      14.221  18.761  58.266  1.00  0.00     0.004 C 
BRANCH   2   3
ATOM      3  C   UNL     1      15.344  18.219  57.369  1.00  0.00    -0.003 C 
ATOM      4  C   UNL     1      14.848  17.188  56.356  1.00  0.00     0.004 C 
ENDBRANCH   2   3
ENDBRANCH   1   2
BRANCH   1   5
ATOM      5  C   UNL     1      12.670  17.837  60.004  1.00  0.00    -0.023 C 
ATOM      6  C   UNL     1      11.677  17.876  59.109  1.00  0.00     0.042 C 
BRANCH   6   7
ATOM      7  C   UNL     1      10.261  17.737  59.495  1.00  0.00     0.152 C 
ATOM      8  O   UNL     1       9.363  17.607  58.619  1.00  0.00    -0.295 OA
ATOM      9  C   UNL     1       9.884  17.754  60.941  1.00  0.00     0.093 C 
ENDBRANCH   6   7
ENDBRANCH   1   5
TORSDOF 4
ENDMDL
MODEL 4
REMARK VINA RESULT:    -3.942      9.873     10.585
REMARK INTER + INTRA:          -5.016
REMARK INTER:                  -4.832
REMARK INTRA:                  -0.184
REMARK UNBOUND:                -0.153
REMARK SMILES CCCCC=CC(C)=O
REMARK SMILES IDX 4 1 3 2 2 3 1 4 5 5 6 6 7 7 9 8 8 9
REMARK H PARENT
REMARK Flexibility Score: inf
ROOT
ATOM      1  C   UNL     1      10.324  17.685  59.807  1.00  0.00     0.027 C 
ENDROOT
BRANCH   1   2
ATOM      2  C   UNL     1       9.693  17.863  61.196  1.00  0.00     0.004 C 
BRANCH   2   3
ATOM      3  C   UNL     1       9.799  19.306  61.711  1.00  0.00    -0.003 C 
ATOM      4  C   UNL     1      10.480  19.399  63.076  1.00  0.00     0.004 C 
ENDBRANCH   2   3
ENDBRANCH   1   2
BRANCH   1   5
ATOM      5  C   UNL     1      11.806  17.920  59.850  1.00  0.00    -0.023 C 
ATOM      6  C   UNL     1      12.545  17.937  58.735  1.00  0.00     0.042 C 
BRANCH   6   7
ATOM      7  C   UNL     1      14.003  18.152  58.757  1.00  0.00     0.152 C 
ATOM      8  O   UNL     1      14.591  18.478  59.824  1.00  0.00    -0.295 OA
ATOM      9  C   UNL     1      14.794  17.986  57.500  1.00  0.00     0.093 C 
ENDBRANCH   6   7
ENDBRANCH   1   5
TORSDOF 4
ENDMDL
MODEL 5
REMARK VINA RESULT:    -3.919      9.239      9.976
REMARK INTER + INTRA:          -4.989
REMARK INTER:                  -4.859
REMARK INTRA:                  -0.130
REMARK UNBOUND:                -0.153
REMARK SMILES CCCCC=CC(C)=O
REMARK SMILES IDX 4 1 3 2 2 3 1 4 5 5 6 6 7 7 9 8 8 9
REMARK H PARENT
REMARK Flexibility Score: inf
ROOT
ATOM      1  C   UNL     1      12.286  18.021  59.945  1.00  0.00     0.027 C 
ENDROOT
BRANCH   1   2
ATOM      2  C   UNL     1      10.787  17.922  59.626  1.00  0.00     0.004 C 
BRANCH   2   3
ATOM      3  C   UNL     1       9.925  17.774  60.889  1.00  0.00    -0.003 C 
ATOM      4  C   UNL     1      10.002  18.994  61.805  1.00  0.00     0.004 C 
ENDBRANCH   2   3
ENDBRANCH   1   2
BRANCH   1   5
ATOM      5  C   UNL     1      13.117  17.847  58.707  1.00  0.00    -0.023 C 
ATOM      6  C   UNL     1      14.409  18.193  58.677  1.00  0.00     0.042 C 
BRANCH   6   7
ATOM      7  C   UNL     1      15.238  18.044  57.467  1.00  0.00     0.152 C 
ATOM      8  O   UNL     1      16.392  18.549  57.408  1.00  0.00    -0.295 OA
ATOM      9  C   UNL     1      14.704  17.287  56.293  1.00  0.00     0.093 C 
ENDBRANCH   6   7
ENDBRANCH   1   5
TORSDOF 4
ENDMDL
MODEL 6
REMARK VINA RESULT:    -3.802     15.286     16.136
REMARK INTER + INTRA:          -4.844
REMARK INTER:                  -4.592
REMARK INTRA:                  -0.252
REMARK UNBOUND:                -0.153
REMARK SMILES CCCCC=CC(C)=O
REMARK SMILES IDX 4 1 3 2 2 3 1 4 5 5 6 6 7 7 9 8 8 9
REMARK H PARENT
REMARK Flexibility Score: inf
ROOT
ATOM      1  C   UNL     1      22.003   9.319  53.978  1.00  0.00     0.027 C 
ENDROOT
BRANCH   1   2
ATOM      2  C   UNL     1      22.382  10.766  54.325  1.00  0.00     0.004 C 
BRANCH   2   3
ATOM      3  C   UNL     1      22.112  11.740  53.168  1.00  0.00    -0.003 C 
ATOM      4  C   UNL     1      20.882  12.615  53.406  1.00  0.00     0.004 C 
ENDBRANCH   2   3
ENDBRANCH   1   2
BRANCH   1   5
ATOM      5  C   UNL     1      20.765   8.891  54.712  1.00  0.00    -0.023 C 
ATOM      6  C   UNL     1      19.584   8.788  54.091  1.00  0.00     0.042 C 
BRANCH   6   7
ATOM      7  C   UNL     1      18.354   8.384  54.797  1.00  0.00     0.152 C 
ATOM      8  O   UNL     1      18.288   7.278  55.398  1.00  0.00    -0.295 OA
ATOM      9  C   UNL     1      17.169   9.295  54.798  1.00  0.00     0.093 C 
ENDBRANCH   6   7
ENDBRANCH   1   5
TORSDOF 4
ENDMDL
MODEL 7
REMARK VINA RESULT:    -3.699      8.635     10.210
REMARK INTER + INTRA:          -4.717
REMARK INTER:                  -4.618
REMARK INTRA:                  -0.099
REMARK UNBOUND:                -0.153
REMARK SMILES CCCCC=CC(C)=O
REMARK SMILES IDX 4 1 3 2 2 3 1 4 5 5 6 6 7 7 9 8 8 9
REMARK H PARENT
REMARK Flexibility Score: inf
ROOT
ATOM      1  C   UNL     1       9.987  21.417  57.897  1.00  0.00     0.027 C 
ENDROOT
BRANCH   1   2
ATOM      2  C   UNL     1       8.763  22.324  57.705  1.00  0.00     0.004 C 
BRANCH   2   3
ATOM      3  C   UNL     1       8.883  23.220  56.463  1.00  0.00    -0.003 C 
ATOM      4  C   UNL     1       8.121  24.537  56.607  1.00  0.00     0.004 C 
ENDBRANCH   2   3
ENDBRANCH   1   2
BRANCH   1   5
ATOM      5  C   UNL     1       9.695  20.311  58.870  1.00  0.00    -0.023 C 
ATOM      6  C   UNL     1      10.373  20.192  60.018  1.00  0.00     0.042 C 
BRANCH   6   7
ATOM      7  C   UNL     1      10.111  19.105  60.979  1.00  0.00     0.152 C 
ATOM      8  O   UNL     1       9.894  19.357  62.195  1.00  0.00    -0.295 OA
ATOM      9  C   UNL     1      10.107  17.686  60.508  1.00  0.00     0.093 C 
ENDBRANCH   6   7
ENDBRANCH   1   5
TORSDOF 4
ENDMDL
MODEL 8
REMARK VINA RESULT:    -3.694      8.126      8.541
REMARK INTER + INTRA:          -4.711
REMARK INTER:                  -4.591
REMARK INTRA:                  -0.120
REMARK UNBOUND:                -0.153
REMARK SMILES CCCCC=CC(C)=O
REMARK SMILES IDX 4 1 3 2 2 3 1 4 5 5 6 6 7 7 9 8 8 9
REMARK H PARENT
REMARK Flexibility Score: inf
ROOT
ATOM      1  C   UNL     1      15.199  17.969  55.786  1.00  0.00     0.027 C 
ENDROOT
BRANCH   1   2
ATOM      2  C   UNL     1      15.792  18.269  57.171  1.00  0.00     0.004 C 
BRANCH   2   3
ATOM      3  C   UNL     1      17.212  18.850  57.091  1.00  0.00    -0.003 C 
ATOM      4  C   UNL     1      17.397  19.797  55.906  1.00  0.00     0.004 C 
ENDBRANCH   2   3
ENDBRANCH   1   2
BRANCH   1   5
ATOM      5  C   UNL     1      14.120  16.928  55.873  1.00  0.00    -0.023 C 
ATOM      6  C   UNL     1      13.627  16.339  54.777  1.00  0.00     0.042 C 
BRANCH   6   7
ATOM      7  C   UNL     1      12.557  15.327  54.839  1.00  0.00     0.152 C 
ATOM      8  O   UNL     1      11.822  15.225  55.859  1.00  0.00    -0.295 OA
ATOM      9  C   UNL     1      12.343  14.405  53.681  1.00  0.00     0.093 C 
ENDBRANCH   6   7
ENDBRANCH   1   5
TORSDOF 4
ENDMDL
MODEL 9
REMARK VINA RESULT:    -3.613      8.046      9.306
REMARK INTER + INTRA:          -4.611
REMARK INTER:                  -4.473
REMARK INTRA:                  -0.137
REMARK UNBOUND:                -0.153
REMARK SMILES CCCCC=CC(C)=O
REMARK SMILES IDX 4 1 3 2 2 3 1 4 5 5 6 6 7 7 9 8 8 9
REMARK H PARENT
REMARK Flexibility Score: inf
ROOT
ATOM      1  C   UNL     1       8.530  23.016  57.429  1.00  0.00     0.027 C 
ENDROOT
BRANCH   1   2
ATOM      2  C   UNL     1       8.511  23.824  56.123  1.00  0.00     0.004 C 
BRANCH   2   3
ATOM      3  C   UNL     1       7.652  25.093  56.229  1.00  0.00    -0.003 C 
ATOM      4  C   UNL     1       7.196  25.382  57.659  1.00  0.00     0.004 C 
ENDBRANCH   2   3
ENDBRANCH   1   2
BRANCH   1   5
ATOM      5  C   UNL     1       9.487  21.862  57.339  1.00  0.00    -0.023 C 
ATOM      6  C   UNL     1      10.016  21.305  58.434  1.00  0.00     0.042 C 
BRANCH   6   7
ATOM      7  C   UNL     1      10.968  20.181  58.366  1.00  0.00     0.152 C 
ATOM      8  O   UNL     1      11.893  20.169  57.509  1.00  0.00    -0.295 OA
ATOM      9  C   UNL     1      10.835  19.039  59.323  1.00  0.00     0.093 C 
ENDBRANCH   6   7
ENDBRANCH   1   5
TORSDOF 4
ENDMDL
