MODEL 1
REMARK VINA RESULT:    -2.602      0.000      0.000
REMARK INTER + INTRA:          -7.050
REMARK INTER:                  -4.883
REMARK INTRA:                  -2.167
REMARK UNBOUND:                -2.167
REMARK SMILES O=C([O-])CCCCCCCCCCCCCCC(=O)[O-]
REMARK SMILES IDX 10 1 9 2 8 3 7 4 6 5 5 6 4 7 2 8 1 9 3 10 11 11 12 12 13 13
REMARK SMILES IDX 14 14 15 15 16 16 17 17 18 18 19 19 20 20
REMARK H PARENT
REMARK Flexibility Score: inf
ROOT
ATOM      1  C   UNL     1      56.726 -35.985  22.368  1.00  0.00     0.000 C 
ENDROOT
BRANCH   1   2
ATOM      2  C   UNL     1      57.082 -37.008  23.469  1.00  0.00     0.000 C 
BRANCH   2   3
ATOM      3  C   UNL     1      57.132 -36.401  24.884  1.00  0.00     0.000 C 
BRANCH   3   4
ATOM      4  C   UNL     1      57.570 -34.926  24.939  1.00  0.00     0.000 C 
BRANCH   4   5
ATOM      5  C   UNL     1      56.822 -34.061  25.974  1.00  0.00     0.000 C 
BRANCH   5   6
ATOM      6  C   UNL     1      56.313 -32.703  25.451  1.00  0.00     0.006 C 
BRANCH   6   7
ATOM      7  C   UNL     1      56.679 -32.407  23.988  1.00  0.00     0.053 C 
BRANCH   7   8
ATOM      8  C   UNL     1      57.034 -30.967  23.781  1.00  0.00     0.041 C 
ATOM      9  O   UNL     1      58.081 -30.654  23.156  1.00  0.00    -0.550 OA
ATOM     10  O   UNL     1      56.224 -29.970  24.311  1.00  0.00    -0.550 OA
ENDBRANCH   7   8
ENDBRANCH   6   7
ENDBRANCH   5   6
ENDBRANCH   4   5
ENDBRANCH   3   4
ENDBRANCH   2   3
ENDBRANCH   1   2
BRANCH   1  11
ATOM     11  C   UNL     1      55.231 -36.010  22.007  1.00  0.00     0.000 C 
BRANCH  11  12
ATOM     12  C   UNL     1      54.427 -34.917  22.729  1.00  0.00     0.000 C 
BRANCH  12  13
ATOM     13  C   UNL     1      53.635 -35.457  23.929  1.00  0.00     0.000 C 
BRANCH  13  14
ATOM     14  C   UNL     1      53.075 -34.310  24.778  1.00  0.00     0.000 C 
BRANCH  14  15
ATOM     15  C   UNL     1      52.846 -33.054  23.925  1.00  0.00     0.000 C 
BRANCH  15  16
ATOM     16  C   UNL     1      51.382 -32.895  23.476  1.00  0.00     0.006 C 
BRANCH  16  17
ATOM     17  C   UNL     1      51.048 -31.516  22.882  1.00  0.00     0.053 C 
BRANCH  17  18
ATOM     18  C   UNL     1      51.291 -30.410  23.860  1.00  0.00     0.041 C 
ATOM     19  O   UNL     1      50.697 -30.401  24.970  1.00  0.00    -0.550 OA
ATOM     20  O   UNL     1      52.151 -29.367  23.532  1.00  0.00    -0.550 OA
ENDBRANCH  17  18
ENDBRANCH  16  17
ENDBRANCH  15  16
ENDBRANCH  14  15
ENDBRANCH  13  14
ENDBRANCH  12  13
ENDBRANCH  11  12
ENDBRANCH   1  11
TORSDOF 15
ENDMDL
MODEL 2
REMARK VINA RESULT:    -2.571      2.178      5.514
REMARK INTER + INTRA:          -6.993
REMARK INTER:                  -4.808
REMARK INTRA:                  -2.185
REMARK UNBOUND:                -2.167
REMARK SMILES O=C([O-])CCCCCCCCCCCCCCC(=O)[O-]
REMARK SMILES IDX 10 1 9 2 8 3 7 4 6 5 5 6 4 7 2 8 1 9 3 10 11 11 12 12 13 13
REMARK SMILES IDX 14 14 15 15 16 16 17 17 18 18 19 19 20 20
REMARK H PARENT
REMARK Flexibility Score: inf
ROOT
ATOM      1  C   UNL     1      50.875 -32.181  22.845  1.00  0.00     0.000 C 
ENDROOT
BRANCH   1   2
ATOM      2  C   UNL     1      51.622 -30.892  23.250  1.00  0.00     0.000 C 
BRANCH   2   3
ATOM      3  C   UNL     1      52.258 -30.961  24.652  1.00  0.00     0.000 C 
BRANCH   3   4
ATOM      4  C   UNL     1      53.798 -30.999  24.661  1.00  0.00     0.000 C 
BRANCH   4   5
ATOM      5  C   UNL     1      54.420 -32.013  25.643  1.00  0.00     0.000 C 
BRANCH   5   6
ATOM      6  C   UNL     1      55.647 -32.778  25.109  1.00  0.00     0.006 C 
BRANCH   6   7
ATOM      7  C   UNL     1      56.233 -32.212  23.806  1.00  0.00     0.053 C 
BRANCH   7   8
ATOM      8  C   UNL     1      57.361 -31.263  24.067  1.00  0.00     0.041 C 
ATOM      9  O   UNL     1      57.200 -30.025  23.907  1.00  0.00    -0.550 OA
ATOM     10  O   UNL     1      58.603 -31.751  24.454  1.00  0.00    -0.550 OA
ENDBRANCH   7   8
ENDBRANCH   6   7
ENDBRANCH   5   6
ENDBRANCH   4   5
ENDBRANCH   3   4
ENDBRANCH   2   3
ENDBRANCH   1   2
BRANCH   1  11
ATOM     11  C   UNL     1      51.000 -33.288  23.907  1.00  0.00     0.000 C 
BRANCH  11  12
ATOM     12  C   UNL     1      51.808 -34.498  23.410  1.00  0.00     0.000 C 
BRANCH  12  13
ATOM     13  C   UNL     1      52.597 -35.186  24.534  1.00  0.00     0.000 C 
BRANCH  13  14
ATOM     14  C   UNL     1      53.968 -35.657  24.033  1.00  0.00     0.000 C 
BRANCH  14  15
ATOM     15  C   UNL     1      54.198 -35.230  22.576  1.00  0.00     0.000 C 
BRANCH  15  16
ATOM     16  C   UNL     1      55.572 -35.666  22.036  1.00  0.00     0.006 C 
BRANCH  16  17
ATOM     17  C   UNL     1      56.494 -36.301  23.089  1.00  0.00     0.053 C 
BRANCH  17  18
ATOM     18  C   UNL     1      57.931 -35.944  22.867  1.00  0.00     0.041 C 
ATOM     19  O   UNL     1      58.440 -34.961  23.467  1.00  0.00    -0.550 OA
ATOM     20  O   UNL     1      58.700 -36.678  21.971  1.00  0.00    -0.550 OA
ENDBRANCH  17  18
ENDBRANCH  16  17
ENDBRANCH  15  16
ENDBRANCH  14  15
ENDBRANCH  13  14
ENDBRANCH  12  13
ENDBRANCH  11  12
ENDBRANCH   1  11
TORSDOF 15
ENDMDL
MODEL 3
REMARK VINA RESULT:    -2.550      2.134      3.449
REMARK INTER + INTRA:          -6.953
REMARK INTER:                  -5.222
REMARK INTRA:                  -1.731
REMARK UNBOUND:                -2.167
REMARK SMILES O=C([O-])CCCCCCCCCCCCCCC(=O)[O-]
REMARK SMILES IDX 10 1 9 2 8 3 7 4 6 5 5 6 4 7 2 8 1 9 3 10 11 11 12 12 13 13
REMARK SMILES IDX 14 14 15 15 16 16 17 17 18 18 19 19 20 20
REMARK H PARENT
REMARK Flexibility Score: inf
ROOT
ATOM      1  C   UNL     1      51.763 -35.161  24.518  1.00  0.00     0.000 C 
ENDROOT
BRANCH   1   2
ATOM      2  C   UNL     1      53.178 -35.780  24.482  1.00  0.00     0.000 C 
BRANCH   2   3
ATOM      3  C   UNL     1      54.032 -35.302  23.292  1.00  0.00     0.000 C 
BRANCH   3   4
ATOM      4  C   UNL     1      55.163 -34.324  23.661  1.00  0.00     0.000 C 
BRANCH   4   5
ATOM      5  C   UNL     1      54.834 -32.833  23.443  1.00  0.00     0.000 C 
BRANCH   5   6
ATOM      6  C   UNL     1      54.724 -31.990  24.729  1.00  0.00     0.006 C 
BRANCH   6   7
ATOM      7  C   UNL     1      56.051 -31.376  25.204  1.00  0.00     0.053 C 
BRANCH   7   8
ATOM      8  C   UNL     1      56.494 -30.252  24.320  1.00  0.00     0.041 C 
ATOM      9  O   UNL     1      57.452 -30.413  23.519  1.00  0.00    -0.550 OA
ATOM     10  O   UNL     1      55.871 -29.014  24.407  1.00  0.00    -0.550 OA
ENDBRANCH   7   8
ENDBRANCH   6   7
ENDBRANCH   5   6
ENDBRANCH   4   5
ENDBRANCH   3   4
ENDBRANCH   2   3
ENDBRANCH   1   2
BRANCH   1  11
ATOM     11  C   UNL     1      51.231 -34.837  23.111  1.00  0.00     0.000 C 
BRANCH  11  12
ATOM     12  C   UNL     1      50.427 -33.527  23.068  1.00  0.00     0.000 C 
BRANCH  12  13
ATOM     13  C   UNL     1      51.068 -32.410  23.905  1.00  0.00     0.000 C 
BRANCH  13  14
ATOM     14  C   UNL     1      51.556 -31.265  23.009  1.00  0.00     0.000 C 
BRANCH  14  15
ATOM     15  C   UNL     1      50.414 -30.288  22.694  1.00  0.00     0.000 C 
BRANCH  15  16
ATOM     16  C   UNL     1      50.634 -28.893  23.307  1.00  0.00     0.006 C 
BRANCH  16  17
ATOM     17  C   UNL     1      52.079 -28.621  23.758  1.00  0.00     0.053 C 
BRANCH  17  18
ATOM     18  C   UNL     1      52.391 -27.157  23.792  1.00  0.00     0.041 C 
ATOM     19  O   UNL     1      51.553 -26.340  24.257  1.00  0.00    -0.550 OA
ATOM     20  O   UNL     1      53.595 -26.690  23.278  1.00  0.00    -0.550 OA
ENDBRANCH  17  18
ENDBRANCH  16  17
ENDBRANCH  15  16
ENDBRANCH  14  15
ENDBRANCH  13  14
ENDBRANCH  12  13
ENDBRANCH  11  12
ENDBRANCH   1  11
TORSDOF 15
ENDMDL
MODEL 4
REMARK VINA RESULT:    -2.534      1.368      4.896
REMARK INTER + INTRA:          -6.923
REMARK INTER:                  -4.925
REMARK INTRA:                  -1.998
REMARK UNBOUND:                -2.167
REMARK SMILES O=C([O-])CCCCCCCCCCCCCCC(=O)[O-]
REMARK SMILES IDX 10 1 9 2 8 3 7 4 6 5 5 6 4 7 2 8 1 9 3 10 11 11 12 12 13 13
REMARK SMILES IDX 14 14 15 15 16 16 17 17 18 18 19 19 20 20
REMARK H PARENT
REMARK Flexibility Score: inf
ROOT
ATOM      1  C   UNL     1      54.670 -34.881  22.819  1.00  0.00     0.000 C 
ENDROOT
BRANCH   1   2
ATOM      2  C   UNL     1      54.141 -35.631  24.061  1.00  0.00     0.000 C 
BRANCH   2   3
ATOM      3  C   UNL     1      52.658 -35.347  24.370  1.00  0.00     0.000 C 
BRANCH   3   4
ATOM      4  C   UNL     1      51.839 -34.824  23.175  1.00  0.00     0.000 C 
BRANCH   4   5
ATOM      5  C   UNL     1      51.178 -33.447  23.390  1.00  0.00     0.000 C 
BRANCH   5   6
ATOM      6  C   UNL     1      52.149 -32.251  23.435  1.00  0.00     0.006 C 
BRANCH   6   7
ATOM      7  C   UNL     1      51.508 -30.896  23.092  1.00  0.00     0.053 C 
BRANCH   7   8
ATOM      8  C   UNL     1      52.010 -29.800  23.980  1.00  0.00     0.041 C 
ATOM      9  O   UNL     1      52.280 -28.668  23.501  1.00  0.00    -0.550 OA
ATOM     10  O   UNL     1      52.210 -30.041  25.333  1.00  0.00    -0.550 OA
ENDBRANCH   7   8
ENDBRANCH   6   7
ENDBRANCH   5   6
ENDBRANCH   4   5
ENDBRANCH   3   4
ENDBRANCH   2   3
ENDBRANCH   1   2
BRANCH   1  11
ATOM     11  C   UNL     1      55.515 -35.785  21.905  1.00  0.00     0.000 C 
BRANCH  11  12
ATOM     12  C   UNL     1      56.527 -36.639  22.686  1.00  0.00     0.000 C 
BRANCH  12  13
ATOM     13  C   UNL     1      57.906 -35.972  22.797  1.00  0.00     0.000 C 
BRANCH  13  14
ATOM     14  C   UNL     1      58.143 -35.434  24.213  1.00  0.00     0.000 C 
BRANCH  14  15
ATOM     15  C   UNL     1      58.616 -33.973  24.175  1.00  0.00     0.000 C 
BRANCH  15  16
ATOM     16  C   UNL     1      57.455 -32.967  24.282  1.00  0.00     0.006 C 
BRANCH  16  17
ATOM     17  C   UNL     1      56.582 -33.139  25.536  1.00  0.00     0.053 C 
BRANCH  17  18
ATOM     18  C   UNL     1      55.343 -32.301  25.477  1.00  0.00     0.041 C 
ATOM     19  O   UNL     1      55.318 -31.253  24.779  1.00  0.00    -0.550 OA
ATOM     20  O   UNL     1      54.224 -32.660  26.219  1.00  0.00    -0.550 OA
ENDBRANCH  17  18
ENDBRANCH  16  17
ENDBRANCH  15  16
ENDBRANCH  14  15
ENDBRANCH  13  14
ENDBRANCH  12  13
ENDBRANCH  11  12
ENDBRANCH   1  11
TORSDOF 15
ENDMDL
MODEL 5
REMARK VINA RESULT:    -2.530      2.305      5.189
REMARK INTER + INTRA:          -6.915
REMARK INTER:                  -4.881
REMARK INTRA:                  -2.035
REMARK UNBOUND:                -2.167
REMARK SMILES O=C([O-])CCCCCCCCCCCCCCC(=O)[O-]
REMARK SMILES IDX 10 1 9 2 8 3 7 4 6 5 5 6 4 7 2 8 1 9 3 10 11 11 12 12 13 13
REMARK SMILES IDX 14 14 15 15 16 16 17 17 18 18 19 19 20 20
REMARK H PARENT
REMARK Flexibility Score: inf
ROOT
ATOM      1  C   UNL     1      51.283 -33.126  24.115  1.00  0.00     0.000 C 
ENDROOT
BRANCH   1   2
ATOM      2  C   UNL     1      52.135 -34.280  23.543  1.00  0.00     0.000 C 
BRANCH   2   3
ATOM      3  C   UNL     1      52.898 -35.077  24.619  1.00  0.00     0.000 C 
BRANCH   3   4
ATOM      4  C   UNL     1      54.237 -35.675  24.150  1.00  0.00     0.000 C 
BRANCH   4   5
ATOM      5  C   UNL     1      54.562 -35.459  22.658  1.00  0.00     0.000 C 
BRANCH   5   6
ATOM      6  C   UNL     1      55.974 -35.898  22.222  1.00  0.00     0.006 C 
BRANCH   6   7
ATOM      7  C   UNL     1      56.852 -36.442  23.360  1.00  0.00     0.053 C 
BRANCH   7   8
ATOM      8  C   UNL     1      58.311 -36.288  23.062  1.00  0.00     0.041 C 
ATOM      9  O   UNL     1      59.067 -35.697  23.878  1.00  0.00    -0.550 OA
ATOM     10  O   UNL     1      58.830 -36.768  21.867  1.00  0.00    -0.550 OA
ENDBRANCH   7   8
ENDBRANCH   6   7
ENDBRANCH   5   6
ENDBRANCH   4   5
ENDBRANCH   3   4
ENDBRANCH   2   3
ENDBRANCH   1   2
BRANCH   1  11
ATOM     11  C   UNL     1      50.805 -32.154  23.022  1.00  0.00     0.000 C 
BRANCH  11  12
ATOM     12  C   UNL     1      51.519 -30.794  23.084  1.00  0.00     0.000 C 
BRANCH  12  13
ATOM     13  C   UNL     1      51.850 -30.362  24.520  1.00  0.00     0.000 C 
BRANCH  13  14
ATOM     14  C   UNL     1      53.283 -29.822  24.614  1.00  0.00     0.000 C 
BRANCH  14  15
ATOM     15  C   UNL     1      54.035 -30.458  25.793  1.00  0.00     0.000 C 
BRANCH  15  16
ATOM     16  C   UNL     1      54.553 -31.872  25.477  1.00  0.00     0.006 C 
BRANCH  16  17
ATOM     17  C   UNL     1      55.032 -32.062  24.028  1.00  0.00     0.053 C 
BRANCH  17  18
ATOM     18  C   UNL     1      56.524 -31.999  23.916  1.00  0.00     0.041 C 
ATOM     19  O   UNL     1      57.229 -32.981  24.268  1.00  0.00    -0.550 OA
ATOM     20  O   UNL     1      57.139 -30.841  23.454  1.00  0.00    -0.550 OA
ENDBRANCH  17  18
ENDBRANCH  16  17
ENDBRANCH  15  16
ENDBRANCH  14  15
ENDBRANCH  13  14
ENDBRANCH  12  13
ENDBRANCH  11  12
ENDBRANCH   1  11
TORSDOF 15
ENDMDL
MODEL 6
REMARK VINA RESULT:    -2.512      2.233      5.958
REMARK INTER + INTRA:          -6.882
REMARK INTER:                  -4.728
REMARK INTRA:                  -2.153
REMARK UNBOUND:                -2.167
REMARK SMILES O=C([O-])CCCCCCCCCCCCCCC(=O)[O-]
REMARK SMILES IDX 10 1 9 2 8 3 7 4 6 5 5 6 4 7 2 8 1 9 3 10 11 11 12 12 13 13
REMARK SMILES IDX 14 14 15 15 16 16 17 17 18 18 19 19 20 20
REMARK H PARENT
REMARK Flexibility Score: inf
ROOT
ATOM      1  C   UNL     1      51.848 -35.203  23.477  1.00  0.00     0.000 C 
ENDROOT
BRANCH   1   2
ATOM      2  C   UNL     1      50.704 -34.297  23.983  1.00  0.00     0.000 C 
BRANCH   2   3
ATOM      3  C   UNL     1      50.083 -33.414  22.883  1.00  0.00     0.000 C 
BRANCH   3   4
ATOM      4  C   UNL     1      50.320 -31.903  23.059  1.00  0.00     0.000 C 
BRANCH   4   5
ATOM      5  C   UNL     1      51.797 -31.462  22.998  1.00  0.00     0.000 C 
BRANCH   5   6
ATOM      6  C   UNL     1      52.381 -30.935  24.324  1.00  0.00     0.006 C 
BRANCH   6   7
ATOM      7  C   UNL     1      53.807 -31.420  24.630  1.00  0.00     0.053 C 
BRANCH   7   8
ATOM      8  C   UNL     1      53.848 -32.312  25.832  1.00  0.00     0.041 C 
ATOM      9  O   UNL     1      52.789 -32.589  26.454  1.00  0.00    -0.550 OA
ATOM     10  O   UNL     1      55.063 -32.809  26.286  1.00  0.00    -0.550 OA
ENDBRANCH   7   8
ENDBRANCH   6   7
ENDBRANCH   5   6
ENDBRANCH   4   5
ENDBRANCH   3   4
ENDBRANCH   2   3
ENDBRANCH   1   2
BRANCH   1  11
ATOM     11  C   UNL     1      52.780 -35.658  24.613  1.00  0.00     0.000 C 
BRANCH  11  12
ATOM     12  C   UNL     1      54.266 -35.596  24.222  1.00  0.00     0.000 C 
BRANCH  12  13
ATOM     13  C   UNL     1      54.517 -34.727  22.981  1.00  0.00     0.000 C 
BRANCH  13  14
ATOM     14  C   UNL     1      55.207 -35.536  21.876  1.00  0.00     0.000 C 
BRANCH  14  15
ATOM     15  C   UNL     1      56.141 -36.599  22.473  1.00  0.00     0.000 C 
BRANCH  15  16
ATOM     16  C   UNL     1      57.600 -36.120  22.581  1.00  0.00     0.006 C 
BRANCH  16  17
ATOM     17  C   UNL     1      58.176 -36.161  24.006  1.00  0.00     0.053 C 
BRANCH  17  18
ATOM     18  C   UNL     1      57.827 -34.934  24.789  1.00  0.00     0.041 C 
ATOM     19  O   UNL     1      57.617 -35.010  26.029  1.00  0.00    -0.550 OA
ATOM     20  O   UNL     1      57.699 -33.709  24.144  1.00  0.00    -0.550 OA
ENDBRANCH  17  18
ENDBRANCH  16  17
ENDBRANCH  15  16
ENDBRANCH  14  15
ENDBRANCH  13  14
ENDBRANCH  12  13
ENDBRANCH  11  12
ENDBRANCH   1  11
TORSDOF 15
ENDMDL
MODEL 7
REMARK VINA RESULT:    -2.481      1.944      3.004
REMARK INTER + INTRA:          -6.823
REMARK INTER:                  -4.694
REMARK INTRA:                  -2.130
REMARK UNBOUND:                -2.167
REMARK SMILES O=C([O-])CCCCCCCCCCCCCCC(=O)[O-]
REMARK SMILES IDX 10 1 9 2 8 3 7 4 6 5 5 6 4 7 2 8 1 9 3 10 11 11 12 12 13 13
REMARK SMILES IDX 14 14 15 15 16 16 17 17 18 18 19 19 20 20
REMARK H PARENT
REMARK Flexibility Score: inf
ROOT
ATOM      1  C   UNL     1      54.683 -34.801  22.838  1.00  0.00     0.000 C 
ENDROOT
BRANCH   1   2
ATOM      2  C   UNL     1      55.488 -35.700  21.874  1.00  0.00     0.000 C 
BRANCH   2   3
ATOM      3  C   UNL     1      56.491 -36.628  22.587  1.00  0.00     0.000 C 
BRANCH   3   4
ATOM      4  C   UNL     1      57.972 -36.275  22.357  1.00  0.00     0.000 C 
BRANCH   4   5
ATOM      5  C   UNL     1      58.766 -35.927  23.633  1.00  0.00     0.000 C 
BRANCH   5   6
ATOM      6  C   UNL     1      58.006 -35.075  24.669  1.00  0.00     0.006 C 
BRANCH   6   7
ATOM      7  C   UNL     1      57.889 -33.586  24.306  1.00  0.00     0.053 C 
BRANCH   7   8
ATOM      8  C   UNL     1      59.225 -32.909  24.288  1.00  0.00     0.041 C 
ATOM      9  O   UNL     1      59.543 -32.156  23.330  1.00  0.00    -0.550 OA
ATOM     10  O   UNL     1      60.133 -33.138  25.314  1.00  0.00    -0.550 OA
ENDBRANCH   7   8
ENDBRANCH   6   7
ENDBRANCH   5   6
ENDBRANCH   4   5
ENDBRANCH   3   4
ENDBRANCH   2   3
ENDBRANCH   1   2
BRANCH   1  11
ATOM     11  C   UNL     1      54.362 -35.508  24.167  1.00  0.00     0.000 C 
BRANCH  11  12
ATOM     12  C   UNL     1      52.852 -35.587  24.446  1.00  0.00     0.000 C 
BRANCH  12  13
ATOM     13  C   UNL     1      52.007 -34.971  23.321  1.00  0.00     0.000 C 
BRANCH  13  14
ATOM     14  C   UNL     1      50.963 -34.001  23.887  1.00  0.00     0.000 C 
BRANCH  14  15
ATOM     15  C   UNL     1      51.016 -32.650  23.158  1.00  0.00     0.000 C 
BRANCH  15  16
ATOM     16  C   UNL     1      52.319 -31.876  23.428  1.00  0.00     0.006 C 
BRANCH  16  17
ATOM     17  C   UNL     1      52.659 -31.709  24.919  1.00  0.00     0.053 C 
BRANCH  17  18
ATOM     18  C   UNL     1      54.113 -31.941  25.192  1.00  0.00     0.041 C 
ATOM     19  O   UNL     1      54.985 -31.526  24.383  1.00  0.00    -0.550 OA
ATOM     20  O   UNL     1      54.505 -32.646  26.325  1.00  0.00    -0.550 OA
ENDBRANCH  17  18
ENDBRANCH  16  17
ENDBRANCH  15  16
ENDBRANCH  14  15
ENDBRANCH  13  14
ENDBRANCH  12  13
ENDBRANCH  11  12
ENDBRANCH   1  11
TORSDOF 15
ENDMDL
MODEL 8
REMARK VINA RESULT:    -2.471      1.451      4.980
REMARK INTER + INTRA:          -6.804
REMARK INTER:                  -4.820
REMARK INTRA:                  -1.984
REMARK UNBOUND:                -2.167
REMARK SMILES O=C([O-])CCCCCCCCCCCCCCC(=O)[O-]
REMARK SMILES IDX 10 1 9 2 8 3 7 4 6 5 5 6 4 7 2 8 1 9 3 10 11 11 12 12 13 13
REMARK SMILES IDX 14 14 15 15 16 16 17 17 18 18 19 19 20 20
REMARK H PARENT
REMARK Flexibility Score: inf
ROOT
ATOM      1  C   UNL     1      56.632 -36.754  22.699  1.00  0.00     0.000 C 
ENDROOT
BRANCH   1   2
ATOM      2  C   UNL     1      55.577 -35.884  21.983  1.00  0.00     0.000 C 
BRANCH   2   3
ATOM      3  C   UNL     1      55.010 -34.751  22.861  1.00  0.00     0.000 C 
BRANCH   3   4
ATOM      4  C   UNL     1      54.452 -35.207  24.222  1.00  0.00     0.000 C 
BRANCH   4   5
ATOM      5  C   UNL     1      52.961 -35.604  24.216  1.00  0.00     0.000 C 
BRANCH   5   6
ATOM      6  C   UNL     1      52.091 -34.876  23.172  1.00  0.00     0.006 C 
BRANCH   6   7
ATOM      7  C   UNL     1      51.215 -33.750  23.745  1.00  0.00     0.053 C 
BRANCH   7   8
ATOM      8  C   UNL     1      51.737 -32.395  23.379  1.00  0.00     0.041 C 
ATOM      9  O   UNL     1      52.914 -32.065  23.678  1.00  0.00    -0.550 OA
ATOM     10  O   UNL     1      50.909 -31.484  22.736  1.00  0.00    -0.550 OA
ENDBRANCH   7   8
ENDBRANCH   6   7
ENDBRANCH   5   6
ENDBRANCH   4   5
ENDBRANCH   3   4
ENDBRANCH   2   3
ENDBRANCH   1   2
BRANCH   1  11
ATOM     11  C   UNL     1      58.052 -36.177  22.569  1.00  0.00     0.000 C 
BRANCH  11  12
ATOM     12  C   UNL     1      58.701 -35.885  23.932  1.00  0.00     0.000 C 
BRANCH  12  13
ATOM     13  C   UNL     1      59.585 -34.628  23.912  1.00  0.00     0.000 C 
BRANCH  13  14
ATOM     14  C   UNL     1      58.735 -33.358  24.040  1.00  0.00     0.000 C 
BRANCH  14  15
ATOM     15  C   UNL     1      57.670 -33.516  25.135  1.00  0.00     0.000 C 
BRANCH  15  16
ATOM     16  C   UNL     1      56.664 -32.351  25.163  1.00  0.00     0.006 C 
BRANCH  16  17
ATOM     17  C   UNL     1      56.672 -31.478  23.897  1.00  0.00     0.053 C 
BRANCH  17  18
ATOM     18  C   UNL     1      57.027 -30.055  24.198  1.00  0.00     0.041 C 
ATOM     19  O   UNL     1      58.053 -29.535  23.686  1.00  0.00    -0.550 OA
ATOM     20  O   UNL     1      56.241 -29.311  25.071  1.00  0.00    -0.550 OA
ENDBRANCH  17  18
ENDBRANCH  16  17
ENDBRANCH  15  16
ENDBRANCH  14  15
ENDBRANCH  13  14
ENDBRANCH  12  13
ENDBRANCH  11  12
ENDBRANCH   1  11
TORSDOF 15
ENDMDL
MODEL 9
REMARK VINA RESULT:    -2.437      2.486      5.744
REMARK INTER + INTRA:          -6.742
REMARK INTER:                  -5.046
REMARK INTRA:                  -1.696
REMARK UNBOUND:                -2.167
REMARK SMILES O=C([O-])CCCCCCCCCCCCCCC(=O)[O-]
REMARK SMILES IDX 10 1 9 2 8 3 7 4 6 5 5 6 4 7 2 8 1 9 3 10 11 11 12 12 13 13
REMARK SMILES IDX 14 14 15 15 16 16 17 17 18 18 19 19 20 20
REMARK H PARENT
REMARK Flexibility Score: inf
ROOT
ATOM      1  C   UNL     1      51.118 -32.549  23.126  1.00  0.00     0.000 C 
ENDROOT
BRANCH   1   2
ATOM      2  C   UNL     1      51.787 -31.706  24.233  1.00  0.00     0.000 C 
BRANCH   2   3
ATOM      3  C   UNL     1      53.326 -31.795  24.234  1.00  0.00     0.000 C 
BRANCH   3   4
ATOM      4  C   UNL     1      53.971 -31.809  25.632  1.00  0.00     0.000 C 
BRANCH   4   5
ATOM      5  C   UNL     1      54.987 -30.679  25.894  1.00  0.00     0.000 C 
BRANCH   5   6
ATOM      6  C   UNL     1      55.566 -30.009  24.632  1.00  0.00     0.006 C 
BRANCH   6   7
ATOM      7  C   UNL     1      55.403 -28.482  24.589  1.00  0.00     0.053 C 
BRANCH   7   8
ATOM      8  C   UNL     1      53.979 -28.066  24.795  1.00  0.00     0.041 C 
ATOM      9  O   UNL     1      53.632 -27.491  25.860  1.00  0.00    -0.550 OA
ATOM     10  O   UNL     1      53.027 -28.346  23.822  1.00  0.00    -0.550 OA
ENDBRANCH   7   8
ENDBRANCH   6   7
ENDBRANCH   5   6
ENDBRANCH   4   5
ENDBRANCH   3   4
ENDBRANCH   2   3
ENDBRANCH   1   2
BRANCH   1  11
ATOM     11  C   UNL     1      50.867 -34.001  23.568  1.00  0.00     0.000 C 
BRANCH  11  12
ATOM     12  C   UNL     1      52.008 -34.950  23.165  1.00  0.00     0.000 C 
BRANCH  12  13
ATOM     13  C   UNL     1      52.796 -35.477  24.373  1.00  0.00     0.000 C 
BRANCH  13  14
ATOM     14  C   UNL     1      54.294 -35.561  24.056  1.00  0.00     0.000 C 
BRANCH  14  15
ATOM     15  C   UNL     1      54.602 -34.945  22.683  1.00  0.00     0.000 C 
BRANCH  15  16
ATOM     16  C   UNL     1      55.545 -35.817  21.834  1.00  0.00     0.006 C 
BRANCH  16  17
ATOM     17  C   UNL     1      56.514 -36.685  22.654  1.00  0.00     0.053 C 
BRANCH  17  18
ATOM     18  C   UNL     1      57.904 -36.128  22.654  1.00  0.00     0.041 C 
ATOM     19  O   UNL     1      58.180 -35.110  23.342  1.00  0.00    -0.550 OA
ATOM     20  O   UNL     1      58.888 -36.714  21.867  1.00  0.00    -0.550 OA
ENDBRANCH  17  18
ENDBRANCH  16  17
ENDBRANCH  15  16
ENDBRANCH  14  15
ENDBRANCH  13  14
ENDBRANCH  12  13
ENDBRANCH  11  12
ENDBRANCH   1  11
TORSDOF 15
ENDMDL
