MODEL 1
REMARK VINA RESULT:    -3.303      0.000      0.000
REMARK INTER + INTRA:          -4.123
REMARK INTER:                  -4.075
REMARK INTRA:                  -0.047
REMARK UNBOUND:                -0.047
REMARK SMILES CCCCCC(=O)[O-]
REMARK SMILES IDX 4 1 5 2 6 3 7 4 8 5 3 6 2 7 1 8
REMARK H PARENT
REMARK Flexibility Score: inf
ROOT
ATOM      1  C   UNL     1       3.727  -3.783  -6.725  1.00  0.00     0.006 C 
ENDROOT
BRANCH   1   2
ATOM      2  C   UNL     1       4.949  -3.168  -7.413  1.00  0.00     0.053 C 
BRANCH   2   3
ATOM      3  C   UNL     1       4.622  -2.794  -8.825  1.00  0.00     0.041 C 
ATOM      4  O   UNL     1       4.716  -3.648  -9.744  1.00  0.00    -0.550 OA
ATOM      5  O   UNL     1       4.263  -1.488  -9.132  1.00  0.00    -0.550 OA
ENDBRANCH   2   3
ENDBRANCH   1   2
BRANCH   1   6
ATOM      6  C   UNL     1       3.758  -3.524  -5.214  1.00  0.00     0.000 C 
BRANCH   6   7
ATOM      7  C   UNL     1       2.520  -2.739  -4.765  1.00  0.00    -0.003 C 
ATOM      8  C   UNL     1       2.353  -2.792  -3.249  1.00  0.00     0.004 C 
ENDBRANCH   6   7
ENDBRANCH   1   6
TORSDOF 4
ENDMDL
MODEL 2
REMARK VINA RESULT:    -3.266      1.979      2.349
REMARK INTER + INTRA:          -4.077
REMARK INTER:                  -4.021
REMARK INTRA:                  -0.056
REMARK UNBOUND:                -0.047
REMARK SMILES CCCCCC(=O)[O-]
REMARK SMILES IDX 4 1 5 2 6 3 7 4 8 5 3 6 2 7 1 8
REMARK H PARENT
REMARK Flexibility Score: inf
ROOT
ATOM      1  C   UNL     1       2.667  -3.484  -5.715  1.00  0.00     0.006 C 
ENDROOT
BRANCH   1   2
ATOM      2  C   UNL     1       4.003  -3.506  -6.462  1.00  0.00     0.053 C 
BRANCH   2   3
ATOM      3  C   UNL     1       4.124  -4.750  -7.286  1.00  0.00     0.041 C 
ATOM      4  O   UNL     1       3.159  -5.555  -7.362  1.00  0.00    -0.550 OA
ATOM      5  O   UNL     1       5.319  -5.044  -7.928  1.00  0.00    -0.550 OA
ENDBRANCH   2   3
ENDBRANCH   1   2
BRANCH   1   6
ATOM      6  C   UNL     1       2.708  -2.500  -4.541  1.00  0.00     0.000 C 
BRANCH   6   7
ATOM      7  C   UNL     1       1.827  -2.985  -3.384  1.00  0.00    -0.003 C 
ATOM      8  C   UNL     1       2.367  -2.504  -2.041  1.00  0.00     0.004 C 
ENDBRANCH   6   7
ENDBRANCH   1   6
TORSDOF 4
ENDMDL
MODEL 3
REMARK VINA RESULT:    -3.208      2.707      4.327
REMARK INTER + INTRA:          -4.005
REMARK INTER:                  -3.779
REMARK INTRA:                  -0.226
REMARK UNBOUND:                -0.047
REMARK SMILES CCCCCC(=O)[O-]
REMARK SMILES IDX 4 1 5 2 6 3 7 4 8 5 3 6 2 7 1 8
REMARK H PARENT
REMARK Flexibility Score: inf
ROOT
ATOM      1  C   UNL     1       5.856  -3.607  -8.317  1.00  0.00     0.006 C 
ENDROOT
BRANCH   1   2
ATOM      2  C   UNL     1       4.680  -3.026  -7.528  1.00  0.00     0.053 C 
BRANCH   2   3
ATOM      3  C   UNL     1       4.118  -4.051  -6.593  1.00  0.00     0.041 C 
ATOM      4  O   UNL     1       4.797  -4.456  -5.614  1.00  0.00    -0.550 OA
ATOM      5  O   UNL     1       2.863  -4.596  -6.834  1.00  0.00    -0.550 OA
ENDBRANCH   2   3
ENDBRANCH   1   2
BRANCH   1   6
ATOM      6  C   UNL     1       7.035  -2.627  -8.348  1.00  0.00     0.000 C 
BRANCH   6   7
ATOM      7  C   UNL     1       7.796  -2.639  -7.017  1.00  0.00    -0.003 C 
ATOM      8  C   UNL     1       8.178  -4.060  -6.613  1.00  0.00     0.004 C 
ENDBRANCH   6   7
ENDBRANCH   1   6
TORSDOF 4
ENDMDL
MODEL 4
REMARK VINA RESULT:    -3.194      2.779      3.985
REMARK INTER + INTRA:          -3.989
REMARK INTER:                  -3.728
REMARK INTRA:                  -0.260
REMARK UNBOUND:                -0.047
REMARK SMILES CCCCCC(=O)[O-]
REMARK SMILES IDX 4 1 5 2 6 3 7 4 8 5 3 6 2 7 1 8
REMARK H PARENT
REMARK Flexibility Score: inf
ROOT
ATOM      1  C   UNL     1       6.191  -3.534  -7.641  1.00  0.00     0.006 C 
ENDROOT
BRANCH   1   2
ATOM      2  C   UNL     1       4.774  -2.992  -7.435  1.00  0.00     0.053 C 
BRANCH   2   3
ATOM      3  C   UNL     1       3.932  -3.991  -6.703  1.00  0.00     0.041 C 
ATOM      4  O   UNL     1       3.462  -3.712  -5.569  1.00  0.00    -0.550 OA
ATOM      5  O   UNL     1       3.711  -5.247  -7.251  1.00  0.00    -0.550 OA
ENDBRANCH   2   3
ENDBRANCH   1   2
BRANCH   1   6
ATOM      6  C   UNL     1       6.873  -3.816  -6.297  1.00  0.00     0.000 C 
BRANCH   6   7
ATOM      7  C   UNL     1       7.414  -5.249  -6.245  1.00  0.00    -0.003 C 
ATOM      8  C   UNL     1       6.581  -6.120  -5.311  1.00  0.00     0.004 C 
ENDBRANCH   6   7
ENDBRANCH   1   6
TORSDOF 4
ENDMDL
MODEL 5
REMARK VINA RESULT:    -3.143      3.406      4.181
REMARK INTER + INTRA:          -3.925
REMARK INTER:                  -3.812
REMARK INTRA:                  -0.113
REMARK UNBOUND:                -0.047
REMARK SMILES CCCCCC(=O)[O-]
REMARK SMILES IDX 4 1 5 2 6 3 7 4 8 5 3 6 2 7 1 8
REMARK H PARENT
REMARK Flexibility Score: inf
ROOT
ATOM      1  C   UNL     1       6.735  -2.956  -7.660  1.00  0.00     0.006 C 
ENDROOT
BRANCH   1   2
ATOM      2  C   UNL     1       7.878  -3.103  -8.669  1.00  0.00     0.053 C 
BRANCH   2   3
ATOM      3  C   UNL     1       8.773  -1.904  -8.625  1.00  0.00     0.041 C 
ATOM      4  O   UNL     1       8.332  -0.772  -8.954  1.00  0.00    -0.550 OA
ATOM      5  O   UNL     1      10.108  -2.047  -8.270  1.00  0.00    -0.550 OA
ENDBRANCH   2   3
ENDBRANCH   1   2
BRANCH   1   6
ATOM      6  C   UNL     1       6.996  -3.800  -6.407  1.00  0.00     0.000 C 
BRANCH   6   7
ATOM      7  C   UNL     1       5.724  -4.532  -5.962  1.00  0.00    -0.003 C 
ATOM      8  C   UNL     1       4.481  -3.909  -6.590  1.00  0.00     0.004 C 
ENDBRANCH   6   7
ENDBRANCH   1   6
TORSDOF 4
ENDMDL
MODEL 6
REMARK VINA RESULT:    -3.054      3.726      4.908
REMARK INTER + INTRA:          -3.816
REMARK INTER:                  -3.685
REMARK INTRA:                  -0.131
REMARK UNBOUND:                -0.047
REMARK SMILES CCCCCC(=O)[O-]
REMARK SMILES IDX 4 1 5 2 6 3 7 4 8 5 3 6 2 7 1 8
REMARK H PARENT
REMARK Flexibility Score: inf
ROOT
ATOM      1  C   UNL     1       6.054  -4.860  -5.789  1.00  0.00     0.006 C 
ENDROOT
BRANCH   1   2
ATOM      2  C   UNL     1       6.704  -6.187  -5.387  1.00  0.00     0.053 C 
BRANCH   2   3
ATOM      3  C   UNL     1       5.985  -7.336  -6.023  1.00  0.00     0.041 C 
ATOM      4  O   UNL     1       6.420  -8.509  -5.887  1.00  0.00    -0.550 OA
ATOM      5  O   UNL     1       4.862  -7.104  -6.807  1.00  0.00    -0.550 OA
ENDBRANCH   2   3
ENDBRANCH   1   2
BRANCH   1   6
ATOM      6  C   UNL     1       7.081  -3.914  -6.422  1.00  0.00     0.000 C 
BRANCH   6   7
ATOM      7  C   UNL     1       6.432  -3.037  -7.499  1.00  0.00    -0.003 C 
ATOM      8  C   UNL     1       4.911  -3.152  -7.461  1.00  0.00     0.004 C 
ENDBRANCH   6   7
ENDBRANCH   1   6
TORSDOF 4
ENDMDL
MODEL 7
REMARK VINA RESULT:    -3.052      3.460      5.337
REMARK INTER + INTRA:          -3.813
REMARK INTER:                  -3.700
REMARK INTRA:                  -0.113
REMARK UNBOUND:                -0.047
REMARK SMILES CCCCCC(=O)[O-]
REMARK SMILES IDX 4 1 5 2 6 3 7 4 8 5 3 6 2 7 1 8
REMARK H PARENT
REMARK Flexibility Score: inf
ROOT
ATOM      1  C   UNL     1       6.008  -3.041  -7.701  1.00  0.00     0.006 C 
ENDROOT
BRANCH   1   2
ATOM      2  C   UNL     1       6.585  -3.806  -6.507  1.00  0.00     0.053 C 
BRANCH   2   3
ATOM      3  C   UNL     1       5.513  -4.593  -5.821  1.00  0.00     0.041 C 
ATOM      4  O   UNL     1       4.325  -4.177  -5.818  1.00  0.00    -0.550 OA
ATOM      5  O   UNL     1       5.835  -5.761  -5.142  1.00  0.00    -0.550 OA
ENDBRANCH   2   3
ENDBRANCH   1   2
BRANCH   1   6
ATOM      6  C   UNL     1       7.120  -2.592  -8.656  1.00  0.00     0.000 C 
BRANCH   6   7
ATOM      7  C   UNL     1       8.409  -2.274  -7.889  1.00  0.00    -0.003 C 
ATOM      8  C   UNL     1       9.643  -2.630  -8.712  1.00  0.00     0.004 C 
ENDBRANCH   6   7
ENDBRANCH   1   6
TORSDOF 4
ENDMDL
MODEL 8
REMARK VINA RESULT:    -2.997      2.837      3.915
REMARK INTER + INTRA:          -3.745
REMARK INTER:                  -3.508
REMARK INTRA:                  -0.237
REMARK UNBOUND:                -0.047
REMARK SMILES CCCCCC(=O)[O-]
REMARK SMILES IDX 4 1 5 2 6 3 7 4 8 5 3 6 2 7 1 8
REMARK H PARENT
REMARK Flexibility Score: inf
ROOT
ATOM      1  C   UNL     1       4.189  -3.888  -6.916  1.00  0.00     0.006 C 
ENDROOT
BRANCH   1   2
ATOM      2  C   UNL     1       3.329  -4.752  -7.842  1.00  0.00     0.053 C 
BRANCH   2   3
ATOM      3  C   UNL     1       3.909  -6.126  -7.967  1.00  0.00     0.041 C 
ATOM      4  O   UNL     1       3.429  -7.079  -7.301  1.00  0.00    -0.550 OA
ATOM      5  O   UNL     1       5.014  -6.341  -8.781  1.00  0.00    -0.550 OA
ENDBRANCH   2   3
ENDBRANCH   1   2
BRANCH   1   6
ATOM      6  C   UNL     1       5.131  -2.987  -7.722  1.00  0.00     0.000 C 
BRANCH   6   7
ATOM      7  C   UNL     1       6.586  -3.171  -7.274  1.00  0.00    -0.003 C 
ATOM      8  C   UNL     1       6.698  -4.236  -6.187  1.00  0.00     0.004 C 
ENDBRANCH   6   7
ENDBRANCH   1   6
TORSDOF 4
ENDMDL
