MODEL 1
REMARK VINA RESULT:    -1.197      0.000      0.000
REMARK INTER + INTRA:          -2.513
REMARK INTER:                  -2.037
REMARK INTRA:                  -0.476
REMARK UNBOUND:                -0.476
REMARK SMILES CCCCCCCCCCCCCC(=O)[O-]
REMARK SMILES IDX 8 1 9 2 10 3 11 4 12 5 13 6 14 7 15 8 16 9 7 10 6 11 5 12
REMARK SMILES IDX 4 13 3 14 2 15 1 16
REMARK H PARENT
REMARK Flexibility Score: inf
ROOT
ATOM      1  C   UNL     1      24.346  35.691  17.061  1.00  0.00     0.000 C 
ENDROOT
BRANCH   1   2
ATOM      2  C   UNL     1      23.122  35.100  16.344  1.00  0.00     0.000 C 
BRANCH   2   3
ATOM      3  C   UNL     1      22.077  36.177  15.982  1.00  0.00     0.000 C 
BRANCH   3   4
ATOM      4  C   UNL     1      20.619  35.693  16.104  1.00  0.00     0.000 C 
BRANCH   4   5
ATOM      5  C   UNL     1      19.916  36.082  17.415  1.00  0.00     0.006 C 
BRANCH   5   6
ATOM      6  C   UNL     1      20.069  35.018  18.510  1.00  0.00     0.053 C 
BRANCH   6   7
ATOM      7  C   UNL     1      20.230  35.666  19.848  1.00  0.00     0.041 C 
ATOM      8  O   UNL     1      20.092  34.989  20.901  1.00  0.00    -0.550 OA
ATOM      9  O   UNL     1      20.483  37.030  19.935  1.00  0.00    -0.550 OA
ENDBRANCH   6   7
ENDBRANCH   5   6
ENDBRANCH   4   5
ENDBRANCH   3   4
ENDBRANCH   2   3
ENDBRANCH   1   2
BRANCH   1  10
ATOM     10  C   UNL     1      25.645  35.064  16.541  1.00  0.00     0.000 C 
BRANCH  10  11
ATOM     11  C   UNL     1      26.869  35.698  17.213  1.00  0.00    -0.000 C 
BRANCH  11  12
ATOM     12  C   UNL     1      27.316  34.875  18.430  1.00  0.00    -0.000 C 
BRANCH  12  13
ATOM     13  C   UNL     1      26.383  35.050  19.639  1.00  0.00    -0.000 C 
BRANCH  13  14
ATOM     14  C   UNL     1      26.994  35.932  20.737  1.00  0.00    -0.000 C 
BRANCH  14  15
ATOM     15  C   UNL     1      26.325  35.666  22.090  1.00  0.00    -0.003 C 
ATOM     16  C   UNL     1      27.362  35.525  23.200  1.00  0.00     0.004 C 
ENDBRANCH  14  15
ENDBRANCH  13  14
ENDBRANCH  12  13
ENDBRANCH  11  12
ENDBRANCH  10  11
ENDBRANCH   1  10
TORSDOF 12
ENDMDL
MODEL 2
REMARK VINA RESULT:    -0.603     21.035     23.346
REMARK INTER + INTRA:          -1.502
REMARK INTER:                  -0.381
REMARK INTRA:                  -1.121
REMARK UNBOUND:                -0.476
REMARK SMILES CCCCCCCCCCCCCC(=O)[O-]
REMARK SMILES IDX 8 1 9 2 10 3 11 4 12 5 13 6 14 7 15 8 16 9 7 10 6 11 5 12
REMARK SMILES IDX 4 13 3 14 2 15 1 16
REMARK H PARENT
REMARK Flexibility Score: inf
ROOT
ATOM      1  C   UNL     1      24.704  54.526  33.831  1.00  0.00     0.000 C 
ENDROOT
BRANCH   1   2
ATOM      2  C   UNL     1      24.071  55.122  32.564  1.00  0.00     0.000 C 
BRANCH   2   3
ATOM      3  C   UNL     1      25.041  55.115  31.364  1.00  0.00     0.000 C 
BRANCH   3   4
ATOM      4  C   UNL     1      25.136  53.753  30.649  1.00  0.00     0.000 C 
BRANCH   4   5
ATOM      5  C   UNL     1      23.789  53.164  30.198  1.00  0.00     0.006 C 
BRANCH   5   6
ATOM      6  C   UNL     1      23.951  52.002  29.208  1.00  0.00     0.053 C 
BRANCH   6   7
ATOM      7  C   UNL     1      22.943  52.111  28.109  1.00  0.00     0.041 C 
ATOM      8  O   UNL     1      21.833  52.668  28.319  1.00  0.00    -0.550 OA
ATOM      9  O   UNL     1      23.208  51.553  26.864  1.00  0.00    -0.550 OA
ENDBRANCH   6   7
ENDBRANCH   5   6
ENDBRANCH   4   5
ENDBRANCH   3   4
ENDBRANCH   2   3
ENDBRANCH   1   2
BRANCH   1  10
ATOM     10  C   UNL     1      24.032  55.075  35.094  1.00  0.00     0.000 C 
BRANCH  10  11
ATOM     11  C   UNL     1      23.411  53.945  35.924  1.00  0.00    -0.000 C 
BRANCH  11  12
ATOM     12  C   UNL     1      21.906  54.172  36.125  1.00  0.00    -0.000 C 
BRANCH  12  13
ATOM     13  C   UNL     1      21.300  55.103  35.063  1.00  0.00    -0.000 C 
BRANCH  13  14
ATOM     14  C   UNL     1      20.036  54.519  34.414  1.00  0.00    -0.000 C 
BRANCH  14  15
ATOM     15  C   UNL     1      20.372  53.817  33.093  1.00  0.00    -0.003 C 
ATOM     16  C   UNL     1      20.490  54.821  31.950  1.00  0.00     0.004 C 
ENDBRANCH  14  15
ENDBRANCH  13  14
ENDBRANCH  12  13
ENDBRANCH  11  12
ENDBRANCH  10  11
ENDBRANCH   1  10
TORSDOF 12
ENDMDL
MODEL 3
REMARK VINA RESULT:    -0.471     21.203     23.084
REMARK INTER + INTRA:          -1.278
REMARK INTER:                  -0.314
REMARK INTRA:                  -0.963
REMARK UNBOUND:                -0.476
REMARK SMILES CCCCCCCCCCCCCC(=O)[O-]
REMARK SMILES IDX 8 1 9 2 10 3 11 4 12 5 13 6 14 7 15 8 16 9 7 10 6 11 5 12
REMARK SMILES IDX 4 13 3 14 2 15 1 16
REMARK H PARENT
REMARK Flexibility Score: inf
ROOT
ATOM      1  C   UNL     1      23.222  54.838  31.628  1.00  0.00     0.000 C 
ENDROOT
BRANCH   1   2
ATOM      2  C   UNL     1      21.950  54.142  32.138  1.00  0.00     0.000 C 
BRANCH   2   3
ATOM      3  C   UNL     1      20.666  54.752  31.537  1.00  0.00     0.000 C 
BRANCH   3   4
ATOM      4  C   UNL     1      20.423  54.361  30.066  1.00  0.00     0.000 C 
BRANCH   4   5
ATOM      5  C   UNL     1      21.343  53.251  29.531  1.00  0.00     0.006 C 
BRANCH   5   6
ATOM      6  C   UNL     1      21.328  53.155  27.999  1.00  0.00     0.053 C 
BRANCH   6   7
ATOM      7  C   UNL     1      22.543  52.431  27.511  1.00  0.00     0.041 C 
ATOM      8  O   UNL     1      22.948  51.399  28.108  1.00  0.00    -0.550 OA
ATOM      9  O   UNL     1      23.256  52.924  26.425  1.00  0.00    -0.550 OA
ENDBRANCH   6   7
ENDBRANCH   5   6
ENDBRANCH   4   5
ENDBRANCH   3   4
ENDBRANCH   2   3
ENDBRANCH   1   2
BRANCH   1  10
ATOM     10  C   UNL     1      24.193  55.125  32.779  1.00  0.00     0.000 C 
BRANCH  10  11
ATOM     11  C   UNL     1      23.916  54.205  33.974  1.00  0.00    -0.000 C 
BRANCH  11  12
ATOM     12  C   UNL     1      23.889  55.002  35.287  1.00  0.00    -0.000 C 
BRANCH  12  13
ATOM     13  C   UNL     1      22.569  54.831  36.056  1.00  0.00    -0.000 C 
BRANCH  13  14
ATOM     14  C   UNL     1      21.891  53.481  35.777  1.00  0.00    -0.000 C 
BRANCH  14  15
ATOM     15  C   UNL     1      20.366  53.606  35.861  1.00  0.00    -0.003 C 
ATOM     16  C   UNL     1      19.879  54.888  35.191  1.00  0.00     0.004 C 
ENDBRANCH  14  15
ENDBRANCH  13  14
ENDBRANCH  12  13
ENDBRANCH  11  12
ENDBRANCH  10  11
ENDBRANCH   1  10
TORSDOF 12
ENDMDL
MODEL 4
REMARK VINA RESULT:    -0.136      2.002      2.542
REMARK INTER + INTRA:          -0.707
REMARK INTER:                  -2.585
REMARK INTRA:                   1.878
REMARK UNBOUND:                -0.476
REMARK SMILES CCCCCCCCCCCCCC(=O)[O-]
REMARK SMILES IDX 8 1 9 2 10 3 11 4 12 5 13 6 14 7 15 8 16 9 7 10 6 11 5 12
REMARK SMILES IDX 4 13 3 14 2 15 1 16
REMARK H PARENT
REMARK Flexibility Score: inf
ROOT
ATOM      1  C   UNL     1      25.358  35.783  18.342  1.00  0.00     0.000 C 
ENDROOT
BRANCH   1   2
ATOM      2  C   UNL     1      24.215  34.925  18.906  1.00  0.00     0.000 C 
BRANCH   2   3
ATOM      3  C   UNL     1      22.861  35.234  18.232  1.00  0.00     0.000 C 
BRANCH   3   4
ATOM      4  C   UNL     1      21.672  35.267  19.212  1.00  0.00     0.000 C 
BRANCH   4   5
ATOM      5  C   UNL     1      20.920  36.606  19.273  1.00  0.00     0.006 C 
BRANCH   5   6
ATOM      6  C   UNL     1      20.070  36.868  18.022  1.00  0.00     0.053 C 
BRANCH   6   7
ATOM      7  C   UNL     1      20.598  36.086  16.861  1.00  0.00     0.041 C 
ATOM      8  O   UNL     1      20.216  34.902  16.669  1.00  0.00    -0.550 OA
ATOM      9  O   UNL     1      21.548  36.648  16.018  1.00  0.00    -0.550 OA
ENDBRANCH   6   7
ENDBRANCH   5   6
ENDBRANCH   4   5
ENDBRANCH   3   4
ENDBRANCH   2   3
ENDBRANCH   1   2
BRANCH   1  10
ATOM     10  C   UNL     1      26.387  34.917  17.607  1.00  0.00     0.000 C 
BRANCH  10  11
ATOM     11  C   UNL     1      27.636  35.730  17.248  1.00  0.00    -0.000 C 
BRANCH  11  12
ATOM     12  C   UNL     1      28.914  34.920  17.511  1.00  0.00    -0.000 C 
BRANCH  12  13
ATOM     13  C   UNL     1      29.307  34.898  18.997  1.00  0.00    -0.000 C 
BRANCH  13  14
ATOM     14  C   UNL     1      28.178  35.388  19.915  1.00  0.00    -0.000 C 
BRANCH  14  15
ATOM     15  C   UNL     1      28.379  34.883  21.348  1.00  0.00    -0.003 C 
ATOM     16  C   UNL     1      27.526  35.673  22.337  1.00  0.00     0.004 C 
ENDBRANCH  14  15
ENDBRANCH  13  14
ENDBRANCH  12  13
ENDBRANCH  11  12
ENDBRANCH  10  11
ENDBRANCH   1  10
TORSDOF 12
ENDMDL
MODEL 5
REMARK VINA RESULT:     1.768     15.164     17.266
REMARK INTER + INTRA:           2.532
REMARK INTER:                   3.002
REMARK INTRA:                  -0.471
REMARK UNBOUND:                -0.476
REMARK SMILES CCCCCCCCCCCCCC(=O)[O-]
REMARK SMILES IDX 8 1 9 2 10 3 11 4 12 5 13 6 14 7 15 8 16 9 7 10 6 11 5 12
REMARK SMILES IDX 4 13 3 14 2 15 1 16
REMARK H PARENT
REMARK Flexibility Score: inf
ROOT
ATOM      1  C   UNL     1      35.396  47.331  22.273  1.00  0.00     0.000 C 
ENDROOT
BRANCH   1   2
ATOM      2  C   UNL     1      34.284  47.264  23.332  1.00  0.00     0.000 C 
BRANCH   2   3
ATOM      3  C   UNL     1      33.284  46.119  23.062  1.00  0.00     0.000 C 
BRANCH   3   4
ATOM      4  C   UNL     1      32.336  45.831  24.242  1.00  0.00     0.000 C 
BRANCH   4   5
ATOM      5  C   UNL     1      33.030  45.361  25.530  1.00  0.00     0.006 C 
BRANCH   5   6
ATOM      6  C   UNL     1      33.526  46.526  26.397  1.00  0.00     0.053 C 
BRANCH   6   7
ATOM      7  C   UNL     1      32.554  47.662  26.349  1.00  0.00     0.041 C 
ATOM      8  O   UNL     1      31.365  47.495  26.726  1.00  0.00    -0.550 OA
ATOM      9  O   UNL     1      32.949  48.894  25.842  1.00  0.00    -0.550 OA
ENDBRANCH   6   7
ENDBRANCH   5   6
ENDBRANCH   4   5
ENDBRANCH   3   4
ENDBRANCH   2   3
ENDBRANCH   1   2
BRANCH   1  10
ATOM     10  C   UNL     1      36.616  46.509  22.703  1.00  0.00     0.000 C 
BRANCH  10  11
ATOM     11  C   UNL     1      36.442  45.967  24.127  1.00  0.00    -0.000 C 
BRANCH  11  12
ATOM     12  C   UNL     1      37.797  45.851  24.841  1.00  0.00    -0.000 C 
BRANCH  12  13
ATOM     13  C   UNL     1      38.640  44.675  24.323  1.00  0.00    -0.000 C 
BRANCH  13  14
ATOM     14  C   UNL     1      40.023  45.114  23.820  1.00  0.00    -0.000 C 
BRANCH  14  15
ATOM     15  C   UNL     1      40.093  45.057  22.290  1.00  0.00    -0.003 C 
ATOM     16  C   UNL     1      40.125  46.459  21.687  1.00  0.00     0.004 C 
ENDBRANCH  14  15
ENDBRANCH  13  14
ENDBRANCH  12  13
ENDBRANCH  11  12
ENDBRANCH  10  11
ENDBRANCH   1  10
TORSDOF 12
ENDMDL
