MODEL 1
REMARK VINA RESULT:    24.149      0.000      0.000
REMARK INTER + INTRA:          42.019
REMARK INTER:                  41.797
REMARK INTRA:                   0.222
REMARK UNBOUND:                 0.222
REMARK SMILES OC[C@H]1O[C@@H](O[C@H]2[C@H](O)[C@@H](O)[C@@H](O[C@@H]3[C@H](O)[C@H](O)[C@H](O)O[C@@H]3CO)O[C@@H]2CO)[C@H](O)[C@H](O)[C@@H]1O
REMARK SMILES IDX 7 1 26 2 25 3 12 4 10 5 8 6 6 7 5 8 3 9 33 10 4 11 31 12
REMARK SMILES IDX 29 13 2 14 1 15 34 17 32 19 30 21 27 23 28 24 9 26 11 28
REMARK SMILES IDX 13 30 14 31 22 32 15 33 21 34 17 35 19 36 23 37 24 38 16 40
REMARK SMILES IDX 18 42 20 44
REMARK H PARENT 1 16 34 18 32 20 30 22 28 25 9 27 11 29 24 39 16 41 18 43
REMARK H PARENT 20 45
REMARK Flexibility Score: inf
ROOT
ATOM      1  C   UNL     1      23.712   1.081  41.720  1.00  0.00     0.184 C 
ATOM      2  C   UNL     1      24.888   1.597  40.854  1.00  0.00     0.178 C 
ATOM      3  O   UNL     1      26.020   1.836  41.669  1.00  0.00    -0.341 OA
ATOM      4  C   UNL     1      26.511   0.684  42.351  1.00  0.00     0.282 C 
ATOM      5  C   UNL     1      25.596  -0.568  42.329  1.00  0.00     0.202 C 
ATOM      6  C   UNL     1      24.130  -0.161  42.561  1.00  0.00     0.180 C 
ENDROOT
BRANCH   1   7
ATOM      7  O   UNL     1      22.614   0.753  40.877  1.00  0.00    -0.341 OA
BRANCH   7   8
ATOM      8  C   UNL     1      21.369   0.907  41.550  1.00  0.00     0.282 C 
ATOM      9  C   UNL     1      19.647  -0.283  42.607  1.00  0.00     0.178 C 
ATOM     10  C   UNL     1      18.533   0.456  41.819  1.00  0.00     0.177 C 
ATOM     11  O   UNL     1      20.824  -0.375  41.823  1.00  0.00    -0.341 OA
ATOM     12  C   UNL     1      19.039   1.832  41.312  1.00  0.00     0.179 C 
ATOM     13  C   UNL     1      20.406   1.676  40.629  1.00  0.00     0.202 C 
BRANCH   9  14
ATOM     14  C   UNL     1      19.226  -1.715  42.967  1.00  0.00     0.191 C 
BRANCH  14  15
ATOM     15  O   UNL     1      17.828  -1.846  42.975  1.00  0.00    -0.394 OA
ATOM     16  H   UNL     1      17.602  -2.407  43.765  1.00  0.00     0.210 HD
ENDBRANCH  14  15
ENDBRANCH   9  14
BRANCH  10  17
ATOM     17  O   UNL     1      17.393   0.643  42.622  1.00  0.00    -0.387 OA
ATOM     18  H   UNL     1      16.689   1.041  42.044  1.00  0.00     0.211 HD
ENDBRANCH  10  17
BRANCH  12  19
ATOM     19  O   UNL     1      19.111   2.822  42.322  1.00  0.00    -0.387 OA
ATOM     20  H   UNL     1      19.972   3.310  42.248  1.00  0.00     0.211 HD
ENDBRANCH  12  19
BRANCH  13  21
ATOM     21  O   UNL     1      20.918   2.946  40.326  1.00  0.00    -0.385 OA
ATOM     22  H   UNL     1      21.001   2.988  39.336  1.00  0.00     0.211 HD
ENDBRANCH  13  21
ENDBRANCH   7   8
ENDBRANCH   1   7
BRANCH   2  23
ATOM     23  C   UNL     1      24.525   2.902  40.136  1.00  0.00     0.191 C 
BRANCH  23  24
ATOM     24  O   UNL     1      23.432   3.516  40.762  1.00  0.00    -0.394 OA
ATOM     25  H   UNL     1      22.625   3.013  40.474  1.00  0.00     0.210 HD
ENDBRANCH  23  24
ENDBRANCH   2  23
BRANCH   6  26
ATOM     26  O   UNL     1      23.946   0.124  43.925  1.00  0.00    -0.387 OA
ATOM     27  H   UNL     1      23.794   1.099  44.015  1.00  0.00     0.211 HD
ENDBRANCH   6  26
BRANCH   5  28
ATOM     28  O   UNL     1      25.740  -1.265  41.113  1.00  0.00    -0.385 OA
ATOM     29  H   UNL     1      26.703  -1.498  41.034  1.00  0.00     0.211 HD
ENDBRANCH   5  28
BRANCH   4  30
ATOM     30  O   UNL     1      27.789   0.334  41.846  1.00  0.00    -0.341 OA
BRANCH  30  31
ATOM     31  C   UNL     1      27.960  -1.078  41.750  1.00  0.00     0.184 C 
ATOM     32  C   UNL     1      28.803  -1.466  40.493  1.00  0.00     0.178 C 
ATOM     33  C   UNL     1      28.684  -1.592  43.001  1.00  0.00     0.180 C 
ATOM     34  O   UNL     1      30.220  -1.410  40.642  1.00  0.00    -0.342 OA
ATOM     35  C   UNL     1      30.137  -1.042  43.082  1.00  0.00     0.201 C 
ATOM     36  C   UNL     1      30.682  -0.584  41.707  1.00  0.00     0.279 C 
BRANCH  32  37
ATOM     37  C   UNL     1      28.339  -0.771  39.187  1.00  0.00     0.191 C 
BRANCH  37  38
ATOM     38  O   UNL     1      28.796   0.560  39.118  1.00  0.00    -0.394 OA
ATOM     39  H   UNL     1      29.230   0.677  38.235  1.00  0.00     0.210 HD
ENDBRANCH  37  38
ENDBRANCH  32  37
BRANCH  33  40
ATOM     40  O   UNL     1      27.943  -1.283  44.155  1.00  0.00    -0.387 OA
ATOM     41  H   UNL     1      27.373  -2.080  44.338  1.00  0.00     0.211 HD
ENDBRANCH  33  40
BRANCH  35  42
ATOM     42  O   UNL     1      30.296  -0.020  44.037  1.00  0.00    -0.385 OA
ATOM     43  H   UNL     1      29.458   0.052  44.560  1.00  0.00     0.211 HD
ENDBRANCH  35  42
BRANCH  36  44
ATOM     44  O   UNL     1      30.394   0.773  41.471  1.00  0.00    -0.366 OA
ATOM     45  H   UNL     1      31.237   1.278  41.640  1.00  0.00     0.213 HD
ENDBRANCH  36  44
ENDBRANCH  30  31
ENDBRANCH   4  30
TORSDOF 18
ENDMDL
MODEL 2
REMARK VINA RESULT:    25.125      1.554      8.971
REMARK INTER + INTRA:          43.707
REMARK INTER:                  42.012
REMARK INTRA:                   1.695
REMARK UNBOUND:                 0.222
REMARK SMILES OC[C@H]1O[C@@H](O[C@H]2[C@H](O)[C@@H](O)[C@@H](O[C@@H]3[C@H](O)[C@H](O)[C@H](O)O[C@@H]3CO)O[C@@H]2CO)[C@H](O)[C@H](O)[C@@H]1O
REMARK SMILES IDX 7 1 26 2 25 3 12 4 10 5 8 6 6 7 5 8 3 9 33 10 4 11 31 12
REMARK SMILES IDX 29 13 2 14 1 15 34 17 32 19 30 21 27 23 28 24 9 26 11 28
REMARK SMILES IDX 13 30 14 31 22 32 15 33 21 34 17 35 19 36 23 37 24 38 16 40
REMARK SMILES IDX 18 42 20 44
REMARK H PARENT 1 16 34 18 32 20 30 22 28 25 9 27 11 29 24 39 16 41 18 43
REMARK H PARENT 20 45
REMARK Flexibility Score: inf
ROOT
ATOM      1  C   UNL     1      25.334   1.173  41.426  1.00  0.00     0.184 C 
ATOM      2  C   UNL     1      24.269   0.996  42.537  1.00  0.00     0.178 C 
ATOM      3  O   UNL     1      23.451   2.150  42.610  1.00  0.00    -0.341 OA
ATOM      4  C   UNL     1      22.729   2.438  41.415  1.00  0.00     0.282 C 
ATOM      5  C   UNL     1      23.144   1.639  40.152  1.00  0.00     0.202 C 
ATOM      6  C   UNL     1      24.678   1.540  40.064  1.00  0.00     0.180 C 
ENDROOT
BRANCH   1   7
ATOM      7  O   UNL     1      26.084  -0.030  41.298  1.00  0.00    -0.341 OA
BRANCH   7   8
ATOM      8  C   UNL     1      27.480   0.230  41.185  1.00  0.00     0.282 C 
ATOM      9  C   UNL     1      29.187   0.676  39.640  1.00  0.00     0.178 C 
ATOM     10  C   UNL     1      30.131  -0.399  40.240  1.00  0.00     0.177 C 
ATOM     11  O   UNL     1      27.833   0.291  39.812  1.00  0.00    -0.341 OA
ATOM     12  C   UNL     1      29.762  -0.692  41.718  1.00  0.00     0.179 C 
ATOM     13  C   UNL     1      28.249  -0.924  41.851  1.00  0.00     0.202 C 
BRANCH   9  14
ATOM     14  C   UNL     1      29.422   0.855  38.133  1.00  0.00     0.191 C 
BRANCH  14  15
ATOM     15  O   UNL     1      30.744   1.250  37.870  1.00  0.00    -0.394 OA
ATOM     16  H   UNL     1      31.331   0.589  38.325  1.00  0.00     0.210 HD
ENDBRANCH  14  15
ENDBRANCH   9  14
BRANCH  10  17
ATOM     17  O   UNL     1      31.473   0.017  40.168  1.00  0.00    -0.387 OA
ATOM     18  H   UNL     1      31.777   0.190  41.098  1.00  0.00     0.211 HD
ENDBRANCH  10  17
BRANCH  12  19
ATOM     19  O   UNL     1      30.179   0.314  42.622  1.00  0.00    -0.387 OA
ATOM     20  H   UNL     1      30.960  -0.010  43.143  1.00  0.00     0.211 HD
ENDBRANCH  12  19
BRANCH  13  21
ATOM     21  O   UNL     1      27.914  -1.024  43.209  1.00  0.00    -0.385 OA
ATOM     22  H   UNL     1      27.660  -0.109  43.505  1.00  0.00     0.211 HD
ENDBRANCH  13  21
ENDBRANCH   7   8
ENDBRANCH   1   7
BRANCH   2  23
ATOM     23  C   UNL     1      24.918   0.776  43.908  1.00  0.00     0.191 C 
BRANCH  23  24
ATOM     24  O   UNL     1      26.307   0.935  43.821  1.00  0.00    -0.394 OA
ATOM     25  H   UNL     1      26.686   0.550  44.655  1.00  0.00     0.210 HD
ENDBRANCH  23  24
ENDBRANCH   2  23
BRANCH   6  26
ATOM     26  O   UNL     1      25.189   2.774  39.625  1.00  0.00    -0.387 OA
ATOM     27  H   UNL     1      26.116   2.623  39.307  1.00  0.00     0.211 HD
ENDBRANCH   6  26
BRANCH   5  28
ATOM     28  O   UNL     1      22.556   0.359  40.160  1.00  0.00    -0.385 OA
ATOM     29  H   UNL     1      23.148  -0.227  39.619  1.00  0.00     0.211 HD
ENDBRANCH   5  28
BRANCH   4  30
ATOM     30  O   UNL     1      21.340   2.264  41.638  1.00  0.00    -0.341 OA
BRANCH  30  31
ATOM     31  C   UNL     1      20.812   1.161  40.906  1.00  0.00     0.184 C 
ATOM     32  C   UNL     1      19.891   0.272  41.801  1.00  0.00     0.178 C 
ATOM     33  C   UNL     1      19.988   1.680  39.721  1.00  0.00     0.180 C 
ATOM     34  O   UNL     1      18.536   0.698  41.931  1.00  0.00    -0.342 OA
ATOM     35  C   UNL     1      18.724   2.450  40.202  1.00  0.00     0.201 C 
ATOM     36  C   UNL     1      18.307   2.074  41.644  1.00  0.00     0.279 C 
BRANCH  32  37
ATOM     37  C   UNL     1      20.509  -0.089  43.176  1.00  0.00     0.191 C 
BRANCH  37  38
ATOM     38  O   UNL     1      19.591   0.112  44.226  1.00  0.00    -0.394 OA
ATOM     39  H   UNL     1      18.848   0.660  43.866  1.00  0.00     0.210 HD
ENDBRANCH  37  38
ENDBRANCH  32  37
BRANCH  33  40
ATOM     40  O   UNL     1      20.790   2.467  38.876  1.00  0.00    -0.387 OA
ATOM     41  H   UNL     1      21.667   1.998  38.814  1.00  0.00     0.211 HD
ENDBRANCH  33  40
BRANCH  35  42
ATOM     42  O   UNL     1      18.838   3.847  40.072  1.00  0.00    -0.385 OA
ATOM     43  H   UNL     1      19.765   4.108  40.301  1.00  0.00     0.211 HD
ENDBRANCH  35  42
BRANCH  36  44
ATOM     44  O   UNL     1      18.932   2.910  42.589  1.00  0.00    -0.366 OA
ATOM     45  H   UNL     1      18.277   3.045  43.328  1.00  0.00     0.213 HD
ENDBRANCH  36  44
ENDBRANCH  30  31
ENDBRANCH   4  30
TORSDOF 18
ENDMDL
MODEL 3
REMARK VINA RESULT:    25.496      4.331      7.455
REMARK INTER + INTRA:          44.350
REMARK INTER:                  41.975
REMARK INTRA:                   2.374
REMARK UNBOUND:                 0.222
REMARK SMILES OC[C@H]1O[C@@H](O[C@H]2[C@H](O)[C@@H](O)[C@@H](O[C@@H]3[C@H](O)[C@H](O)[C@H](O)O[C@@H]3CO)O[C@@H]2CO)[C@H](O)[C@H](O)[C@@H]1O
REMARK SMILES IDX 7 1 26 2 25 3 12 4 10 5 8 6 6 7 5 8 3 9 33 10 4 11 31 12
REMARK SMILES IDX 29 13 2 14 1 15 34 17 32 19 30 21 27 23 28 24 9 26 11 28
REMARK SMILES IDX 13 30 14 31 22 32 15 33 21 34 17 35 19 36 23 37 24 38 16 40
REMARK SMILES IDX 18 42 20 44
REMARK H PARENT 1 16 34 18 32 20 30 22 28 25 9 27 11 29 24 39 16 41 18 43
REMARK H PARENT 20 45
REMARK Flexibility Score: inf
ROOT
ATOM      1  C   UNL     1      17.275  -0.344  43.170  1.00  0.00     0.184 C 
ATOM      2  C   UNL     1      17.635   0.422  41.873  1.00  0.00     0.178 C 
ATOM      3  O   UNL     1      18.433   1.550  42.184  1.00  0.00    -0.341 OA
ATOM      4  C   UNL     1      19.674   1.240  42.814  1.00  0.00     0.282 C 
ATOM      5  C   UNL     1      19.845  -0.219  43.312  1.00  0.00     0.202 C 
ATOM      6  C   UNL     1      18.550  -0.707  43.986  1.00  0.00     0.180 C 
ENDROOT
BRANCH   1   7
ATOM      7  O   UNL     1      16.557  -1.527  42.834  1.00  0.00    -0.341 OA
BRANCH   7   8
ATOM      8  C   UNL     1      15.426  -1.241  42.018  1.00  0.00     0.282 C 
ATOM      9  C   UNL     1      13.082  -1.163  42.019  1.00  0.00     0.178 C 
ATOM     10  C   UNL     1      12.966  -1.980  40.706  1.00  0.00     0.177 C 
ATOM     11  O   UNL     1      14.242  -1.549  42.737  1.00  0.00    -0.341 OA
ATOM     12  C   UNL     1      14.269  -1.865  39.870  1.00  0.00     0.179 C 
ATOM     13  C   UNL     1      15.494  -2.125  40.760  1.00  0.00     0.202 C 
BRANCH   9  14
ATOM     14  C   UNL     1      11.876  -1.401  42.940  1.00  0.00     0.191 C 
BRANCH  14  15
ATOM     15  O   UNL     1      12.248  -2.125  44.084  1.00  0.00    -0.394 OA
ATOM     16  H   UNL     1      12.999  -1.626  44.502  1.00  0.00     0.210 HD
ENDBRANCH  14  15
ENDBRANCH   9  14
BRANCH  10  17
ATOM     17  O   UNL     1      11.876  -1.536  39.935  1.00  0.00    -0.387 OA
ATOM     18  H   UNL     1      12.050  -0.586  39.702  1.00  0.00     0.211 HD
ENDBRANCH  10  17
BRANCH  12  19
ATOM     19  O   UNL     1      14.410  -0.628  39.198  1.00  0.00    -0.387 OA
ATOM     20  H   UNL     1      14.636   0.083  39.854  1.00  0.00     0.211 HD
ENDBRANCH  12  19
BRANCH  13  21
ATOM     21  O   UNL     1      16.660  -1.856  40.029  1.00  0.00    -0.385 OA
ATOM     22  H   UNL     1      16.383  -1.765  39.079  1.00  0.00     0.211 HD
ENDBRANCH  13  21
ENDBRANCH   7   8
ENDBRANCH   1   7
BRANCH   2  23
ATOM     23  C   UNL     1      16.379   0.906  41.140  1.00  0.00     0.191 C 
BRANCH  23  24
ATOM     24  O   UNL     1      16.731   1.659  40.012  1.00  0.00    -0.394 OA
ATOM     25  H   UNL     1      16.401   2.582  40.177  1.00  0.00     0.210 HD
ENDBRANCH  23  24
ENDBRANCH   2  23
BRANCH   6  26
ATOM     26  O   UNL     1      18.457  -0.131  45.265  1.00  0.00    -0.387 OA
ATOM     27  H   UNL     1      19.133  -0.566  45.845  1.00  0.00     0.211 HD
ENDBRANCH   6  26
BRANCH   5  28
ATOM     28  O   UNL     1      20.210  -1.066  42.248  1.00  0.00    -0.385 OA
ATOM     29  H   UNL     1      20.547  -0.477  41.521  1.00  0.00     0.211 HD
ENDBRANCH   5  28
BRANCH   4  30
ATOM     30  O   UNL     1      20.748   1.563  41.947  1.00  0.00    -0.341 OA
BRANCH  30  31
ATOM     31  C   UNL     1      20.406   1.376  40.576  1.00  0.00     0.184 C 
ATOM     32  C   UNL     1      20.237   2.744  39.839  1.00  0.00     0.178 C 
ATOM     33  C   UNL     1      21.514   0.578  39.876  1.00  0.00     0.180 C 
ATOM     34  O   UNL     1      21.431   3.348  39.350  1.00  0.00    -0.342 OA
ATOM     35  C   UNL     1      22.846   1.381  39.825  1.00  0.00     0.201 C 
ATOM     36  C   UNL     1      22.632   2.907  39.977  1.00  0.00     0.279 C 
BRANCH  32  37
ATOM     37  C   UNL     1      19.352   3.763  40.603  1.00  0.00     0.191 C 
BRANCH  37  38
ATOM     38  O   UNL     1      18.054   3.830  40.060  1.00  0.00    -0.394 OA
ATOM     39  H   UNL     1      17.434   4.037  40.804  1.00  0.00     0.210 HD
ENDBRANCH  37  38
ENDBRANCH  32  37
BRANCH  33  40
ATOM     40  O   UNL     1      21.681  -0.672  40.496  1.00  0.00    -0.387 OA
ATOM     41  H   UNL     1      21.276  -0.587  41.403  1.00  0.00     0.211 HD
ENDBRANCH  33  40
BRANCH  35  42
ATOM     42  O   UNL     1      23.809   0.927  40.745  1.00  0.00    -0.385 OA
ATOM     43  H   UNL     1      23.714  -0.055  40.838  1.00  0.00     0.211 HD
ENDBRANCH  35  42
BRANCH  36  44
ATOM     44  O   UNL     1      22.681   3.295  41.329  1.00  0.00    -0.366 OA
ATOM     45  H   UNL     1      23.166   4.165  41.359  1.00  0.00     0.213 HD
ENDBRANCH  36  44
ENDBRANCH  30  31
ENDBRANCH   4  30
TORSDOF 18
ENDMDL
MODEL 4
REMARK VINA RESULT:    26.334      1.839      8.803
REMARK INTER + INTRA:          45.800
REMARK INTER:                  42.726
REMARK INTRA:                   3.074
REMARK UNBOUND:                 0.222
REMARK SMILES OC[C@H]1O[C@@H](O[C@H]2[C@H](O)[C@@H](O)[C@@H](O[C@@H]3[C@H](O)[C@H](O)[C@H](O)O[C@@H]3CO)O[C@@H]2CO)[C@H](O)[C@H](O)[C@@H]1O
REMARK SMILES IDX 7 1 26 2 25 3 12 4 10 5 8 6 6 7 5 8 3 9 33 10 4 11 31 12
REMARK SMILES IDX 29 13 2 14 1 15 34 17 32 19 30 21 27 23 28 24 9 26 11 28
REMARK SMILES IDX 13 30 14 31 22 32 15 33 21 34 17 35 19 36 23 37 24 38 16 40
REMARK SMILES IDX 18 42 20 44
REMARK H PARENT 1 16 34 18 32 20 30 22 28 25 9 27 11 29 24 39 16 41 18 43
REMARK H PARENT 20 45
REMARK Flexibility Score: inf
ROOT
ATOM      1  C   UNL     1      25.799   2.115  40.101  1.00  0.00     0.184 C 
ATOM      2  C   UNL     1      25.118   1.169  41.122  1.00  0.00     0.178 C 
ATOM      3  O   UNL     1      24.209   1.900  41.925  1.00  0.00    -0.341 OA
ATOM      4  C   UNL     1      23.152   2.524  41.201  1.00  0.00     0.282 C 
ATOM      5  C   UNL     1      23.298   2.552  39.658  1.00  0.00     0.202 C 
ATOM      6  C   UNL     1      24.746   2.902  39.267  1.00  0.00     0.180 C 
ENDROOT
BRANCH   1   7
ATOM      7  O   UNL     1      26.635   1.352  39.237  1.00  0.00    -0.341 OA
BRANCH   7   8
ATOM      8  C   UNL     1      27.897   1.078  39.835  1.00  0.00     0.282 C 
ATOM      9  C   UNL     1      30.143   1.754  39.874  1.00  0.00     0.178 C 
ATOM     10  C   UNL     1      30.674   0.306  39.710  1.00  0.00     0.177 C 
ATOM     11  O   UNL     1      28.888   1.893  39.229  1.00  0.00    -0.341 OA
ATOM     12  C   UNL     1      29.619  -0.724  40.194  1.00  0.00     0.179 C 
ATOM     13  C   UNL     1      28.245  -0.401  39.589  1.00  0.00     0.202 C 
BRANCH   9  14
ATOM     14  C   UNL     1      31.096   2.779  39.243  1.00  0.00     0.191 C 
BRANCH  14  15
ATOM     15  O   UNL     1      31.905   2.182  38.264  1.00  0.00    -0.394 OA
ATOM     16  H   UNL     1      32.409   2.919  37.827  1.00  0.00     0.210 HD
ENDBRANCH  14  15
ENDBRANCH   9  14
BRANCH  10  17
ATOM     17  O   UNL     1      31.868   0.126  40.431  1.00  0.00    -0.387 OA
ATOM     18  H   UNL     1      31.863   0.784  41.175  1.00  0.00     0.211 HD
ENDBRANCH  10  17
BRANCH  12  19
ATOM     19  O   UNL     1      29.520  -0.821  41.602  1.00  0.00    -0.387 OA
ATOM     20  H   UNL     1      29.201   0.042  41.973  1.00  0.00     0.211 HD
ENDBRANCH  12  19
BRANCH  13  21
ATOM     21  O   UNL     1      27.279  -1.239  40.164  1.00  0.00    -0.385 OA
ATOM     22  H   UNL     1      27.310  -2.095  39.658  1.00  0.00     0.211 HD
ENDBRANCH  13  21
ENDBRANCH   7   8
ENDBRANCH   1   7
BRANCH   2  23
ATOM     23  C   UNL     1      26.147   0.501  42.040  1.00  0.00     0.191 C 
BRANCH  23  24
ATOM     24  O   UNL     1      25.855   0.777  43.383  1.00  0.00    -0.394 OA
ATOM     25  H   UNL     1      25.604  -0.090  43.798  1.00  0.00     0.210 HD
ENDBRANCH  23  24
ENDBRANCH   2  23
BRANCH   6  26
ATOM     26  O   UNL     1      24.948   4.280  39.454  1.00  0.00    -0.387 OA
ATOM     27  H   UNL     1      24.205   4.760  39.007  1.00  0.00     0.211 HD
ENDBRANCH   6  26
BRANCH   5  28
ATOM     28  O   UNL     1      22.909   1.319  39.101  1.00  0.00    -0.385 OA
ATOM     29  H   UNL     1      22.586   1.514  38.181  1.00  0.00     0.211 HD
ENDBRANCH   5  28
BRANCH   4  30
ATOM     30  O   UNL     1      21.915   1.917  41.539  1.00  0.00    -0.341 OA
BRANCH  30  31
ATOM     31  C   UNL     1      21.155   1.570  40.384  1.00  0.00     0.184 C 
ATOM     32  C   UNL     1      20.927   0.026  40.296  1.00  0.00     0.178 C 
ATOM     33  C   UNL     1      19.788   2.263  40.442  1.00  0.00     0.180 C 
ATOM     34  O   UNL     1      19.830  -0.493  41.044  1.00  0.00    -0.342 OA
ATOM     35  C   UNL     1      18.932   1.732  41.629  1.00  0.00     0.201 C 
ATOM     36  C   UNL     1      19.386   0.334  42.116  1.00  0.00     0.279 C 
BRANCH  32  37
ATOM     37  C   UNL     1      22.213  -0.812  40.512  1.00  0.00     0.191 C 
BRANCH  37  38
ATOM     38  O   UNL     1      22.101  -2.090  39.929  1.00  0.00    -0.394 OA
ATOM     39  H   UNL     1      21.180  -2.413  40.100  1.00  0.00     0.210 HD
ENDBRANCH  37  38
ENDBRANCH  32  37
BRANCH  33  40
ATOM     40  O   UNL     1      19.950   3.658  40.498  1.00  0.00    -0.387 OA
ATOM     41  H   UNL     1      20.883   3.839  40.198  1.00  0.00     0.211 HD
ENDBRANCH  33  40
BRANCH  35  42
ATOM     42  O   UNL     1      18.859   2.629  42.711  1.00  0.00    -0.385 OA
ATOM     43  H   UNL     1      19.719   3.118  42.770  1.00  0.00     0.211 HD
ENDBRANCH  35  42
BRANCH  36  44
ATOM     44  O   UNL     1      20.361   0.439  43.126  1.00  0.00    -0.366 OA
ATOM     45  H   UNL     1      20.116   1.231  43.679  1.00  0.00     0.213 HD
ENDBRANCH  36  44
ENDBRANCH  30  31
ENDBRANCH   4  30
TORSDOF 18
ENDMDL
MODEL 5
REMARK VINA RESULT:    26.421      2.056      4.666
REMARK INTER + INTRA:          45.949
REMARK INTER:                  44.220
REMARK INTRA:                   1.730
REMARK UNBOUND:                 0.222
REMARK SMILES OC[C@H]1O[C@@H](O[C@H]2[C@H](O)[C@@H](O)[C@@H](O[C@@H]3[C@H](O)[C@H](O)[C@H](O)O[C@@H]3CO)O[C@@H]2CO)[C@H](O)[C@H](O)[C@@H]1O
REMARK SMILES IDX 7 1 26 2 25 3 12 4 10 5 8 6 6 7 5 8 3 9 33 10 4 11 31 12
REMARK SMILES IDX 29 13 2 14 1 15 34 17 32 19 30 21 27 23 28 24 9 26 11 28
REMARK SMILES IDX 13 30 14 31 22 32 15 33 21 34 17 35 19 36 23 37 24 38 16 40
REMARK SMILES IDX 18 42 20 44
REMARK H PARENT 1 16 34 18 32 20 30 22 28 25 9 27 11 29 24 39 16 41 18 43
REMARK H PARENT 20 45
REMARK Flexibility Score: inf
ROOT
ATOM      1  C   UNL     1      25.962  -0.627  42.274  1.00  0.00     0.184 C 
ATOM      2  C   UNL     1      27.427  -0.234  42.593  1.00  0.00     0.178 C 
ATOM      3  O   UNL     1      28.315  -1.177  42.020  1.00  0.00    -0.341 OA
ATOM      4  C   UNL     1      28.234  -1.277  40.600  1.00  0.00     0.282 C 
ATOM      5  C   UNL     1      27.028  -0.570  39.929  1.00  0.00     0.202 C 
ATOM      6  C   UNL     1      25.746  -0.815  40.744  1.00  0.00     0.180 C 
ENDROOT
BRANCH   1   7
ATOM      7  O   UNL     1      25.087   0.379  42.771  1.00  0.00    -0.341 OA
BRANCH   7   8
ATOM      8  C   UNL     1      24.102   0.741  41.809  1.00  0.00     0.282 C 
ATOM      9  C   UNL     1      23.420   2.470  40.378  1.00  0.00     0.178 C 
ATOM     10  C   UNL     1      21.945   2.403  40.855  1.00  0.00     0.177 C 
ATOM     11  O   UNL     1      24.294   2.095  41.430  1.00  0.00    -0.341 OA
ATOM     12  C   UNL     1      21.623   1.006  41.449  1.00  0.00     0.179 C 
ATOM     13  C   UNL     1      22.712   0.592  42.451  1.00  0.00     0.202 C 
BRANCH   9  14
ATOM     14  C   UNL     1      23.809   3.892  39.947  1.00  0.00     0.191 C 
BRANCH  14  15
ATOM     15  O   UNL     1      24.693   3.867  38.857  1.00  0.00    -0.394 OA
ATOM     16  H   UNL     1      24.796   4.809  38.556  1.00  0.00     0.210 HD
ENDBRANCH  14  15
ENDBRANCH   9  14
BRANCH  10  17
ATOM     17  O   UNL     1      21.064   2.674  39.792  1.00  0.00    -0.387 OA
ATOM     18  H   UNL     1      20.169   2.844  40.190  1.00  0.00     0.211 HD
ENDBRANCH  10  17
BRANCH  12  19
ATOM     19  O   UNL     1      21.452  -0.005  40.473  1.00  0.00    -0.387 OA
ATOM     20  H   UNL     1      20.500  -0.037  40.192  1.00  0.00     0.211 HD
ENDBRANCH  12  19
BRANCH  13  21
ATOM     21  O   UNL     1      22.490  -0.734  42.851  1.00  0.00    -0.385 OA
ATOM     22  H   UNL     1      23.072  -1.302  42.278  1.00  0.00     0.211 HD
ENDBRANCH  13  21
ENDBRANCH   7   8
ENDBRANCH   1   7
BRANCH   2  23
ATOM     23  C   UNL     1      27.679  -0.188  44.104  1.00  0.00     0.191 C 
BRANCH  23  24
ATOM     24  O   UNL     1      29.004  -0.545  44.389  1.00  0.00    -0.394 OA
ATOM     25  H   UNL     1      29.297  -1.144  43.652  1.00  0.00     0.210 HD
ENDBRANCH  23  24
ENDBRANCH   2  23
BRANCH   6  26
ATOM     26  O   UNL     1      25.295  -2.125  40.501  1.00  0.00    -0.387 OA
ATOM     27  H   UNL     1      25.026  -2.520  41.370  1.00  0.00     0.211 HD
ENDBRANCH   6  26
BRANCH   5  28
ATOM     28  O   UNL     1      27.279   0.809  39.786  1.00  0.00    -0.385 OA
ATOM     29  H   UNL     1      28.151   0.890  39.316  1.00  0.00     0.211 HD
ENDBRANCH   5  28
BRANCH   4  30
ATOM     30  O   UNL     1      29.435  -0.800  40.016  1.00  0.00    -0.341 OA
BRANCH  30  31
ATOM     31  C   UNL     1      29.614   0.599  40.221  1.00  0.00     0.184 C 
ATOM     32  C   UNL     1      30.891   0.891  41.073  1.00  0.00     0.178 C 
ATOM     33  C   UNL     1      29.760   1.301  38.865  1.00  0.00     0.180 C 
ATOM     34  O   UNL     1      32.125   0.946  40.361  1.00  0.00    -0.342 OA
ATOM     35  C   UNL     1      31.061   0.860  38.135  1.00  0.00     0.201 C 
ATOM     36  C   UNL     1      32.124   0.281  39.101  1.00  0.00     0.279 C 
BRANCH  32  37
ATOM     37  C   UNL     1      31.007   0.021  42.351  1.00  0.00     0.191 C 
BRANCH  37  38
ATOM     38  O   UNL     1      31.193  -1.340  42.035  1.00  0.00    -0.394 OA
ATOM     39  H   UNL     1      30.299  -1.726  41.855  1.00  0.00     0.210 HD
ENDBRANCH  37  38
ENDBRANCH  32  37
BRANCH  33  40
ATOM     40  O   UNL     1      28.618   1.082  38.076  1.00  0.00    -0.387 OA
ATOM     41  H   UNL     1      27.957   1.778  38.348  1.00  0.00     0.211 HD
ENDBRANCH  33  40
BRANCH  35  42
ATOM     42  O   UNL     1      30.830  -0.030  37.070  1.00  0.00    -0.385 OA
ATOM     43  H   UNL     1      31.076   0.423  36.224  1.00  0.00     0.211 HD
ENDBRANCH  35  42
BRANCH  36  44
ATOM     44  O   UNL     1      31.972  -1.110  39.250  1.00  0.00    -0.366 OA
ATOM     45  H   UNL     1      32.238  -1.521  38.382  1.00  0.00     0.213 HD
ENDBRANCH  36  44
ENDBRANCH  30  31
ENDBRANCH   4  30
TORSDOF 18
ENDMDL
MODEL 6
REMARK VINA RESULT:    26.798      4.855      7.514
REMARK INTER + INTRA:          46.602
REMARK INTER:                  43.635
REMARK INTRA:                   2.967
REMARK UNBOUND:                 0.222
REMARK SMILES OC[C@H]1O[C@@H](O[C@H]2[C@H](O)[C@@H](O)[C@@H](O[C@@H]3[C@H](O)[C@H](O)[C@H](O)O[C@@H]3CO)O[C@@H]2CO)[C@H](O)[C@H](O)[C@@H]1O
REMARK SMILES IDX 7 1 26 2 25 3 12 4 10 5 8 6 6 7 5 8 3 9 33 10 4 11 31 12
REMARK SMILES IDX 29 13 2 14 1 15 34 17 32 19 30 21 27 23 28 24 9 26 11 28
REMARK SMILES IDX 13 30 14 31 22 32 15 33 21 34 17 35 19 36 23 37 24 38 16 40
REMARK SMILES IDX 18 42 20 44
REMARK H PARENT 1 16 34 18 32 20 30 22 28 25 9 27 11 29 24 39 16 41 18 43
REMARK H PARENT 20 45
REMARK Flexibility Score: inf
ROOT
ATOM      1  C   UNL     1      29.928   0.145  38.700  1.00  0.00     0.184 C 
ATOM      2  C   UNL     1      28.885   0.037  39.841  1.00  0.00     0.178 C 
ATOM      3  O   UNL     1      29.206  -1.052  40.687  1.00  0.00    -0.341 OA
ATOM      4  C   UNL     1      30.477  -0.949  41.324  1.00  0.00     0.282 C 
ATOM      5  C   UNL     1      31.421   0.165  40.800  1.00  0.00     0.202 C 
ATOM      6  C   UNL     1      31.377   0.218  39.262  1.00  0.00     0.180 C 
ENDROOT
BRANCH   1   7
ATOM      7  O   UNL     1      29.649   1.300  37.915  1.00  0.00    -0.341 OA
BRANCH   7   8
ATOM      8  C   UNL     1      29.270   2.407  38.725  1.00  0.00     0.282 C 
ATOM      9  C   UNL     1      27.621   4.052  39.004  1.00  0.00     0.178 C 
ATOM     10  C   UNL     1      28.660   5.199  39.120  1.00  0.00     0.177 C 
ATOM     11  O   UNL     1      28.119   3.022  38.167  1.00  0.00    -0.341 OA
ATOM     12  C   UNL     1      30.036   4.649  39.579  1.00  0.00     0.179 C 
ATOM     13  C   UNL     1      30.425   3.423  38.738  1.00  0.00     0.202 C 
BRANCH   9  14
ATOM     14  C   UNL     1      26.305   4.545  38.387  1.00  0.00     0.191 C 
BRANCH  14  15
ATOM     15  O   UNL     1      25.292   4.634  39.356  1.00  0.00    -0.394 OA
ATOM     16  H   UNL     1      24.911   3.721  39.449  1.00  0.00     0.210 HD
ENDBRANCH  14  15
ENDBRANCH   9  14
BRANCH  10  17
ATOM     17  O   UNL     1      28.222   6.180  40.028  1.00  0.00    -0.387 OA
ATOM     18  H   UNL     1      29.018   6.482  40.541  1.00  0.00     0.211 HD
ENDBRANCH  10  17
BRANCH  12  19
ATOM     19  O   UNL     1      30.094   4.331  40.958  1.00  0.00    -0.387 OA
ATOM     20  H   UNL     1      29.286   3.816  41.214  1.00  0.00     0.211 HD
ENDBRANCH  12  19
BRANCH  13  21
ATOM     21  O   UNL     1      31.586   2.846  39.274  1.00  0.00    -0.385 OA
ATOM     22  H   UNL     1      31.472   2.846  40.261  1.00  0.00     0.211 HD
ENDBRANCH  13  21
ENDBRANCH   7   8
ENDBRANCH   1   7
BRANCH   2  23
ATOM     23  C   UNL     1      27.471  -0.179  39.290  1.00  0.00     0.191 C 
BRANCH  23  24
ATOM     24  O   UNL     1      27.359  -1.453  38.718  1.00  0.00    -0.394 OA
ATOM     25  H   UNL     1      27.630  -1.358  37.767  1.00  0.00     0.210 HD
ENDBRANCH  23  24
ENDBRANCH   2  23
BRANCH   6  26
ATOM     26  O   UNL     1      32.125  -0.855  38.747  1.00  0.00    -0.387 OA
ATOM     27  H   UNL     1      31.614  -1.248  37.993  1.00  0.00     0.211 HD
ENDBRANCH   6  26
BRANCH   5  28
ATOM     28  O   UNL     1      31.075   1.411  41.358  1.00  0.00    -0.385 OA
ATOM     29  H   UNL     1      31.007   1.271  42.340  1.00  0.00     0.211 HD
ENDBRANCH   5  28
BRANCH   4  30
ATOM     30  O   UNL     1      30.303  -0.788  42.722  1.00  0.00    -0.341 OA
BRANCH  30  31
ATOM     31  C   UNL     1      29.732  -1.944  43.329  1.00  0.00     0.184 C 
ATOM     32  C   UNL     1      29.843  -1.884  44.887  1.00  0.00     0.178 C 
ATOM     33  C   UNL     1      28.249  -2.044  42.949  1.00  0.00     0.180 C 
ATOM     34  O   UNL     1      28.822  -1.154  45.564  1.00  0.00    -0.342 OA
ATOM     35  C   UNL     1      27.430  -0.863  43.546  1.00  0.00     0.201 C 
ATOM     36  C   UNL     1      28.127  -0.205  44.761  1.00  0.00     0.279 C 
BRANCH  32  37
ATOM     37  C   UNL     1      31.255  -1.502  45.402  1.00  0.00     0.191 C 
BRANCH  37  38
ATOM     38  O   UNL     1      31.190  -0.826  46.637  1.00  0.00    -0.394 OA
ATOM     39  H   UNL     1      30.796   0.067  46.463  1.00  0.00     0.210 HD
ENDBRANCH  37  38
ENDBRANCH  32  37
BRANCH  33  40
ATOM     40  O   UNL     1      28.108  -2.125  41.553  1.00  0.00    -0.387 OA
ATOM     41  H   UNL     1      27.780  -3.047  41.362  1.00  0.00     0.211 HD
ENDBRANCH  33  40
BRANCH  35  42
ATOM     42  O   UNL     1      27.079   0.112  42.594  1.00  0.00    -0.385 OA
ATOM     43  H   UNL     1      27.772   0.121  41.886  1.00  0.00     0.211 HD
ENDBRANCH  35  42
BRANCH  36  44
ATOM     44  O   UNL     1      28.970   0.847  44.357  1.00  0.00    -0.366 OA
ATOM     45  H   UNL     1      29.872   0.450  44.211  1.00  0.00     0.213 HD
ENDBRANCH  36  44
ENDBRANCH  30  31
ENDBRANCH   4  30
TORSDOF 18
ENDMDL
