MODEL 1
REMARK VINA RESULT:    -5.283      0.000      0.000
REMARK INTER + INTRA:         -10.885
REMARK INTER:                  -9.298
REMARK INTRA:                  -1.588
REMARK UNBOUND:                -1.588
REMARK SMILES CCCCCCC=CCCCCCCCC(=O)[O-]
REMARK SMILES IDX 10 1 11 2 12 3 13 4 14 5 15 6 16 7 17 8 18 9 9 10 8 11 7 12
REMARK SMILES IDX 6 13 5 14 4 15 3 16 2 17 1 18
REMARK H PARENT
REMARK Flexibility Score: inf
ROOT
ATOM      1  C   UNL     1      15.427  -2.878 -16.659  1.00  0.00     0.004 C 
ENDROOT
BRANCH   1   2
ATOM      2  C   UNL     1      15.421  -1.489 -17.325  1.00  0.00     0.000 C 
BRANCH   2   3
ATOM      3  C   UNL     1      15.774  -1.547 -18.822  1.00  0.00     0.000 C 
BRANCH   3   4
ATOM      4  C   UNL     1      14.626  -1.054 -19.720  1.00  0.00     0.000 C 
BRANCH   4   5
ATOM      5  C   UNL     1      13.269  -1.667 -19.342  1.00  0.00     0.006 C 
BRANCH   5   6
ATOM      6  C   UNL     1      12.118  -0.868 -19.961  1.00  0.00     0.053 C 
BRANCH   6   7
ATOM      7  C   UNL     1      11.307  -0.202 -18.896  1.00  0.00     0.041 C 
ATOM      8  O   UNL     1      11.864   0.553 -18.053  1.00  0.00    -0.550 OA
ATOM      9  O   UNL     1       9.942  -0.447 -18.806  1.00  0.00    -0.550 OA
ENDBRANCH   6   7
ENDBRANCH   5   6
ENDBRANCH   4   5
ENDBRANCH   3   4
ENDBRANCH   2   3
ENDBRANCH   1   2
BRANCH   1  10
ATOM     10  C   UNL     1      16.589  -3.789 -17.092  1.00  0.00     0.027 C 
BRANCH  10  11
ATOM     11  C   UNL     1      17.818  -3.619 -16.233  1.00  0.00    -0.031 C 
ATOM     12  C   UNL     1      18.578  -4.623 -15.757  1.00  0.00    -0.031 C 
BRANCH  12  13
ATOM     13  C   UNL     1      18.294  -6.096 -15.947  1.00  0.00     0.027 C 
BRANCH  13  14
ATOM     14  C   UNL     1      18.614  -6.896 -14.676  1.00  0.00     0.004 C 
BRANCH  14  15
ATOM     15  C   UNL     1      17.583  -6.650 -13.560  1.00  0.00     0.000 C 
BRANCH  15  16
ATOM     16  C   UNL     1      16.133  -6.688 -14.089  1.00  0.00    -0.000 C 
BRANCH  16  17
ATOM     17  C   UNL     1      15.299  -5.460 -13.683  1.00  0.00    -0.003 C 
ATOM     18  C   UNL     1      16.124  -4.379 -12.988  1.00  0.00     0.004 C 
ENDBRANCH  16  17
ENDBRANCH  15  16
ENDBRANCH  14  15
ENDBRANCH  13  14
ENDBRANCH  12  13
ENDBRANCH  10  11
ENDBRANCH   1  10
TORSDOF 13
ENDMDL
MODEL 2
REMARK VINA RESULT:    -5.204      4.143      5.635
REMARK INTER + INTRA:         -10.746
REMARK INTER:                  -8.368
REMARK INTRA:                  -2.378
REMARK UNBOUND:                -1.588
REMARK SMILES CCCCCCC=CCCCCCCCC(=O)[O-]
REMARK SMILES IDX 10 1 11 2 12 3 13 4 14 5 15 6 16 7 17 8 18 9 9 10 8 11 7 12
REMARK SMILES IDX 6 13 5 14 4 15 3 16 2 17 1 18
REMARK H PARENT
REMARK Flexibility Score: inf
ROOT
ATOM      1  C   UNL     1      18.699  -3.018 -15.952  1.00  0.00     0.004 C 
ENDROOT
BRANCH   1   2
ATOM      2  C   UNL     1      18.106  -3.870 -17.090  1.00  0.00     0.000 C 
BRANCH   2   3
ATOM      3  C   UNL     1      16.569  -3.950 -17.033  1.00  0.00     0.000 C 
BRANCH   3   4
ATOM      4  C   UNL     1      15.999  -3.427 -15.704  1.00  0.00     0.000 C 
BRANCH   4   5
ATOM      5  C   UNL     1      15.558  -4.556 -14.760  1.00  0.00     0.006 C 
BRANCH   5   6
ATOM      6  C   UNL     1      16.215  -4.406 -13.384  1.00  0.00     0.053 C 
BRANCH   6   7
ATOM      7  C   UNL     1      15.486  -5.217 -12.361  1.00  0.00     0.041 C 
ATOM      8  O   UNL     1      14.227  -5.188 -12.308  1.00  0.00    -0.550 OA
ATOM      9  O   UNL     1      16.197  -5.974 -11.438  1.00  0.00    -0.550 OA
ENDBRANCH   6   7
ENDBRANCH   5   6
ENDBRANCH   4   5
ENDBRANCH   3   4
ENDBRANCH   2   3
ENDBRANCH   1   2
BRANCH   1  10
ATOM     10  C   UNL     1      20.229  -2.861 -16.002  1.00  0.00     0.027 C 
BRANCH  10  11
ATOM     11  C   UNL     1      20.913  -4.006 -16.707  1.00  0.00    -0.031 C 
ATOM     12  C   UNL     1      21.383  -5.117 -16.109  1.00  0.00    -0.031 C 
BRANCH  12  13
ATOM     13  C   UNL     1      21.364  -5.378 -14.620  1.00  0.00     0.027 C 
BRANCH  13  14
ATOM     14  C   UNL     1      20.622  -6.682 -14.291  1.00  0.00     0.004 C 
BRANCH  14  15
ATOM     15  C   UNL     1      19.112  -6.457 -14.096  1.00  0.00     0.000 C 
BRANCH  15  16
ATOM     16  C   UNL     1      18.287  -6.983 -15.291  1.00  0.00    -0.000 C 
BRANCH  16  17
ATOM     17  C   UNL     1      19.015  -8.063 -16.111  1.00  0.00    -0.003 C 
ATOM     18  C   UNL     1      19.118  -7.720 -17.595  1.00  0.00     0.004 C 
ENDBRANCH  16  17
ENDBRANCH  15  16
ENDBRANCH  14  15
ENDBRANCH  13  14
ENDBRANCH  12  13
ENDBRANCH  10  11
ENDBRANCH   1  10
TORSDOF 13
ENDMDL
MODEL 3
REMARK VINA RESULT:    -5.161      2.229      3.821
REMARK INTER + INTRA:         -10.671
REMARK INTER:                  -8.696
REMARK INTRA:                  -1.975
REMARK UNBOUND:                -1.588
REMARK SMILES CCCCCCC=CCCCCCCCC(=O)[O-]
REMARK SMILES IDX 10 1 11 2 12 3 13 4 14 5 15 6 16 7 17 8 18 9 9 10 8 11 7 12
REMARK SMILES IDX 6 13 5 14 4 15 3 16 2 17 1 18
REMARK H PARENT
REMARK Flexibility Score: inf
ROOT
ATOM      1  C   UNL     1      19.544  -5.553 -16.709  1.00  0.00     0.004 C 
ENDROOT
BRANCH   1   2
ATOM      2  C   UNL     1      19.626  -4.406 -15.684  1.00  0.00     0.000 C 
BRANCH   2   3
ATOM      3  C   UNL     1      18.249  -3.796 -15.365  1.00  0.00     0.000 C 
BRANCH   3   4
ATOM      4  C   UNL     1      17.624  -3.080 -16.574  1.00  0.00     0.000 C 
BRANCH   4   5
ATOM      5  C   UNL     1      16.223  -3.608 -16.920  1.00  0.00     0.006 C 
BRANCH   5   6
ATOM      6  C   UNL     1      15.989  -3.583 -18.434  1.00  0.00     0.053 C 
BRANCH   6   7
ATOM      7  C   UNL     1      15.000  -2.521 -18.796  1.00  0.00     0.041 C 
ATOM      8  O   UNL     1      15.329  -1.306 -18.750  1.00  0.00    -0.550 OA
ATOM      9  O   UNL     1      13.701  -2.871 -19.143  1.00  0.00    -0.550 OA
ENDBRANCH   6   7
ENDBRANCH   5   6
ENDBRANCH   4   5
ENDBRANCH   3   4
ENDBRANCH   2   3
ENDBRANCH   1   2
BRANCH   1  10
ATOM     10  C   UNL     1      18.473  -6.614 -16.397  1.00  0.00     0.027 C 
BRANCH  10  11
ATOM     11  C   UNL     1      19.063  -7.933 -15.966  1.00  0.00    -0.031 C 
ATOM     12  C   UNL     1      19.454  -8.236 -14.713  1.00  0.00    -0.031 C 
BRANCH  12  13
ATOM     13  C   UNL     1      19.428  -7.285 -13.539  1.00  0.00     0.027 C 
BRANCH  13  14
ATOM     14  C   UNL     1      18.177  -7.497 -12.675  1.00  0.00     0.004 C 
BRANCH  14  15
ATOM     15  C   UNL     1      17.183  -6.328 -12.795  1.00  0.00     0.000 C 
BRANCH  15  16
ATOM     16  C   UNL     1      16.028  -6.644 -13.769  1.00  0.00    -0.000 C 
BRANCH  16  17
ATOM     17  C   UNL     1      15.093  -5.448 -14.022  1.00  0.00    -0.003 C 
ATOM     18  C   UNL     1      14.207  -5.117 -12.823  1.00  0.00     0.004 C 
ENDBRANCH  16  17
ENDBRANCH  15  16
ENDBRANCH  14  15
ENDBRANCH  13  14
ENDBRANCH  12  13
ENDBRANCH  10  11
ENDBRANCH   1  10
TORSDOF 13
ENDMDL
MODEL 4
REMARK VINA RESULT:    -5.157      5.939      8.053
REMARK INTER + INTRA:         -10.665
REMARK INTER:                  -8.605
REMARK INTRA:                  -2.060
REMARK UNBOUND:                -1.588
REMARK SMILES CCCCCCC=CCCCCCCCC(=O)[O-]
REMARK SMILES IDX 10 1 11 2 12 3 13 4 14 5 15 6 16 7 17 8 18 9 9 10 8 11 7 12
REMARK SMILES IDX 6 13 5 14 4 15 3 16 2 17 1 18
REMARK H PARENT
REMARK Flexibility Score: inf
ROOT
ATOM      1  C   UNL     1      19.911  -6.685 -17.457  1.00  0.00     0.004 C 
ENDROOT
BRANCH   1   2
ATOM      2  C   UNL     1      19.004  -7.929 -17.409  1.00  0.00     0.000 C 
BRANCH   2   3
ATOM      3  C   UNL     1      18.798  -8.458 -15.978  1.00  0.00     0.000 C 
BRANCH   3   4
ATOM      4  C   UNL     1      18.240  -7.388 -15.025  1.00  0.00     0.000 C 
BRANCH   4   5
ATOM      5  C   UNL     1      19.237  -6.991 -13.926  1.00  0.00     0.006 C 
BRANCH   5   6
ATOM      6  C   UNL     1      19.054  -7.867 -12.682  1.00  0.00     0.053 C 
BRANCH   6   7
ATOM      7  C   UNL     1      20.371  -8.402 -12.218  1.00  0.00     0.041 C 
ATOM      8  O   UNL     1      20.885  -7.982 -11.146  1.00  0.00    -0.550 OA
ATOM      9  O   UNL     1      21.054  -9.335 -12.990  1.00  0.00    -0.550 OA
ENDBRANCH   6   7
ENDBRANCH   5   6
ENDBRANCH   4   5
ENDBRANCH   3   4
ENDBRANCH   2   3
ENDBRANCH   1   2
BRANCH   1  10
ATOM     10  C   UNL     1      19.493  -5.629 -18.496  1.00  0.00     0.027 C 
BRANCH  10  11
ATOM     11  C   UNL     1      18.033  -5.260 -18.402  1.00  0.00    -0.031 C 
ATOM     12  C   UNL     1      17.494  -4.455 -17.467  1.00  0.00    -0.031 C 
BRANCH  12  13
ATOM     13  C   UNL     1      18.248  -3.837 -16.311  1.00  0.00     0.027 C 
BRANCH  13  14
ATOM     14  C   UNL     1      17.462  -3.965 -14.999  1.00  0.00     0.004 C 
BRANCH  14  15
ATOM     15  C   UNL     1      15.979  -4.298 -15.240  1.00  0.00     0.000 C 
BRANCH  15  16
ATOM     16  C   UNL     1      15.286  -4.825 -13.965  1.00  0.00    -0.000 C 
BRANCH  16  17
ATOM     17  C   UNL     1      16.159  -4.717 -12.703  1.00  0.00    -0.003 C 
ATOM     18  C   UNL     1      16.074  -5.951 -11.808  1.00  0.00     0.004 C 
ENDBRANCH  16  17
ENDBRANCH  15  16
ENDBRANCH  14  15
ENDBRANCH  13  14
ENDBRANCH  12  13
ENDBRANCH  10  11
ENDBRANCH   1  10
TORSDOF 13
ENDMDL
MODEL 5
REMARK VINA RESULT:    -5.147      1.805      4.176
REMARK INTER + INTRA:         -10.646
REMARK INTER:                  -8.938
REMARK INTRA:                  -1.707
REMARK UNBOUND:                -1.588
REMARK SMILES CCCCCCC=CCCCCCCCC(=O)[O-]
REMARK SMILES IDX 10 1 11 2 12 3 13 4 14 5 15 6 16 7 17 8 18 9 9 10 8 11 7 12
REMARK SMILES IDX 6 13 5 14 4 15 3 16 2 17 1 18
REMARK H PARENT
REMARK Flexibility Score: inf
ROOT
ATOM      1  C   UNL     1      15.378  -5.660 -13.996  1.00  0.00     0.004 C 
ENDROOT
BRANCH   1   2
ATOM      2  C   UNL     1      15.720  -4.336 -14.706  1.00  0.00     0.000 C 
BRANCH   2   3
ATOM      3  C   UNL     1      16.912  -4.471 -15.670  1.00  0.00     0.000 C 
BRANCH   3   4
ATOM      4  C   UNL     1      17.000  -3.303 -16.668  1.00  0.00     0.000 C 
BRANCH   4   5
ATOM      5  C   UNL     1      15.646  -2.964 -17.308  1.00  0.00     0.006 C 
BRANCH   5   6
ATOM      6  C   UNL     1      15.304  -1.483 -17.109  1.00  0.00     0.053 C 
BRANCH   6   7
ATOM      7  C   UNL     1      14.537  -0.959 -18.281  1.00  0.00     0.041 C 
ATOM      8  O   UNL     1      13.669  -0.059 -18.121  1.00  0.00    -0.550 OA
ATOM      9  O   UNL     1      14.749  -1.494 -19.546  1.00  0.00    -0.550 OA
ENDBRANCH   6   7
ENDBRANCH   5   6
ENDBRANCH   4   5
ENDBRANCH   3   4
ENDBRANCH   2   3
ENDBRANCH   1   2
BRANCH   1  10
ATOM     10  C   UNL     1      16.445  -6.760 -14.145  1.00  0.00     0.027 C 
BRANCH  10  11
ATOM     11  C   UNL     1      17.345  -6.870 -12.939  1.00  0.00    -0.031 C 
ATOM     12  C   UNL     1      18.646  -7.214 -12.970  1.00  0.00    -0.031 C 
BRANCH  12  13
ATOM     13  C   UNL     1      19.412  -7.611 -14.212  1.00  0.00     0.027 C 
BRANCH  13  14
ATOM     14  C   UNL     1      20.190  -6.422 -14.793  1.00  0.00     0.004 C 
BRANCH  14  15
ATOM     15  C   UNL     1      19.930  -6.239 -16.300  1.00  0.00     0.000 C 
BRANCH  15  16
ATOM     16  C   UNL     1      19.092  -7.394 -16.890  1.00  0.00    -0.000 C 
BRANCH  16  17
ATOM     17  C   UNL     1      18.913  -7.304 -18.416  1.00  0.00    -0.003 C 
ATOM     18  C   UNL     1      18.382  -5.950 -18.878  1.00  0.00     0.004 C 
ENDBRANCH  16  17
ENDBRANCH  15  16
ENDBRANCH  14  15
ENDBRANCH  13  14
ENDBRANCH  12  13
ENDBRANCH  10  11
ENDBRANCH   1  10
TORSDOF 13
ENDMDL
MODEL 6
REMARK VINA RESULT:    -5.121      3.190      6.525
REMARK INTER + INTRA:         -10.601
REMARK INTER:                  -8.337
REMARK INTRA:                  -2.265
REMARK UNBOUND:                -1.588
REMARK SMILES CCCCCCC=CCCCCCCCC(=O)[O-]
REMARK SMILES IDX 10 1 11 2 12 3 13 4 14 5 15 6 16 7 17 8 18 9 9 10 8 11 7 12
REMARK SMILES IDX 6 13 5 14 4 15 3 16 2 17 1 18
REMARK H PARENT
REMARK Flexibility Score: inf
ROOT
ATOM      1  C   UNL     1      18.889  -6.500 -17.699  1.00  0.00     0.004 C 
ENDROOT
BRANCH   1   2
ATOM      2  C   UNL     1      19.318  -7.356 -16.492  1.00  0.00     0.000 C 
BRANCH   2   3
ATOM      3  C   UNL     1      18.201  -7.504 -15.443  1.00  0.00     0.000 C 
BRANCH   3   4
ATOM      4  C   UNL     1      18.646  -7.064 -14.039  1.00  0.00     0.000 C 
BRANCH   4   5
ATOM      5  C   UNL     1      17.527  -6.364 -13.252  1.00  0.00     0.006 C 
BRANCH   5   6
ATOM      6  C   UNL     1      16.157  -6.664 -13.868  1.00  0.00     0.053 C 
BRANCH   6   7
ATOM      7  C   UNL     1      15.095  -5.839 -13.214  1.00  0.00     0.041 C 
ATOM      8  O   UNL     1      14.428  -5.011 -13.891  1.00  0.00    -0.550 OA
ATOM      9  O   UNL     1      14.868  -5.952 -11.848  1.00  0.00    -0.550 OA
ENDBRANCH   6   7
ENDBRANCH   5   6
ENDBRANCH   4   5
ENDBRANCH   3   4
ENDBRANCH   2   3
ENDBRANCH   1   2
BRANCH   1  10
ATOM     10  C   UNL     1      19.803  -5.296 -17.986  1.00  0.00     0.027 C 
BRANCH  10  11
ATOM     11  C   UNL     1      20.543  -4.816 -16.762  1.00  0.00    -0.031 C 
ATOM     12  C   UNL     1      20.136  -3.824 -15.948  1.00  0.00    -0.031 C 
BRANCH  12  13
ATOM     13  C   UNL     1      18.902  -2.976 -16.158  1.00  0.00     0.027 C 
BRANCH  13  14
ATOM     14  C   UNL     1      17.677  -3.591 -15.465  1.00  0.00     0.004 C 
BRANCH  14  15
ATOM     15  C   UNL     1      16.601  -4.033 -16.474  1.00  0.00     0.000 C 
BRANCH  15  16
ATOM     16  C   UNL     1      15.524  -2.948 -16.688  1.00  0.00    -0.000 C 
BRANCH  16  17
ATOM     17  C   UNL     1      15.249  -2.640 -18.171  1.00  0.00    -0.003 C 
ATOM     18  C   UNL     1      15.771  -3.721 -19.113  1.00  0.00     0.004 C 
ENDBRANCH  16  17
ENDBRANCH  15  16
ENDBRANCH  14  15
ENDBRANCH  13  14
ENDBRANCH  12  13
ENDBRANCH  10  11
ENDBRANCH   1  10
TORSDOF 13
ENDMDL
MODEL 7
REMARK VINA RESULT:    -5.118      1.368      2.420
REMARK INTER + INTRA:         -10.595
REMARK INTER:                  -8.854
REMARK INTRA:                  -1.741
REMARK UNBOUND:                -1.588
REMARK SMILES CCCCCCC=CCCCCCCCC(=O)[O-]
REMARK SMILES IDX 10 1 11 2 12 3 13 4 14 5 15 6 16 7 17 8 18 9 9 10 8 11 7 12
REMARK SMILES IDX 6 13 5 14 4 15 3 16 2 17 1 18
REMARK H PARENT
REMARK Flexibility Score: inf
ROOT
ATOM      1  C   UNL     1      18.211  -3.107 -16.355  1.00  0.00     0.004 C 
ENDROOT
BRANCH   1   2
ATOM      2  C   UNL     1      17.395  -4.113 -17.189  1.00  0.00     0.000 C 
BRANCH   2   3
ATOM      3  C   UNL     1      16.084  -3.513 -17.726  1.00  0.00     0.000 C 
BRANCH   3   4
ATOM      4  C   UNL     1      15.355  -2.653 -16.680  1.00  0.00     0.000 C 
BRANCH   4   5
ATOM      5  C   UNL     1      15.247  -1.177 -17.094  1.00  0.00     0.006 C 
BRANCH   5   6
ATOM      6  C   UNL     1      14.954  -1.050 -18.592  1.00  0.00     0.053 C 
BRANCH   6   7
ATOM      7  C   UNL     1      13.501  -0.779 -18.822  1.00  0.00     0.041 C 
ATOM      8  O   UNL     1      12.994   0.315 -18.457  1.00  0.00    -0.550 OA
ATOM      9  O   UNL     1      12.696  -1.753 -19.400  1.00  0.00    -0.550 OA
ENDBRANCH   6   7
ENDBRANCH   5   6
ENDBRANCH   4   5
ENDBRANCH   3   4
ENDBRANCH   2   3
ENDBRANCH   1   2
BRANCH   1  10
ATOM     10  C   UNL     1      19.641  -3.567 -16.019  1.00  0.00     0.027 C 
BRANCH  10  11
ATOM     11  C   UNL     1      19.994  -4.892 -16.647  1.00  0.00    -0.031 C 
ATOM     12  C   UNL     1      20.241  -6.031 -15.972  1.00  0.00    -0.031 C 
BRANCH  12  13
ATOM     13  C   UNL     1      20.271  -6.161 -14.466  1.00  0.00     0.027 C 
BRANCH  13  14
ATOM     14  C   UNL     1      19.104  -7.018 -13.955  1.00  0.00     0.004 C 
BRANCH  14  15
ATOM     15  C   UNL     1      17.895  -6.979 -14.907  1.00  0.00     0.000 C 
BRANCH  15  16
ATOM     16  C   UNL     1      16.564  -6.788 -14.149  1.00  0.00    -0.000 C 
BRANCH  16  17
ATOM     17  C   UNL     1      16.666  -5.809 -12.966  1.00  0.00    -0.003 C 
ATOM     18  C   UNL     1      16.510  -4.348 -13.381  1.00  0.00     0.004 C 
ENDBRANCH  16  17
ENDBRANCH  15  16
ENDBRANCH  14  15
ENDBRANCH  13  14
ENDBRANCH  12  13
ENDBRANCH  10  11
ENDBRANCH   1  10
TORSDOF 13
ENDMDL
MODEL 8
REMARK VINA RESULT:    -5.116      5.866      8.696
REMARK INTER + INTRA:         -10.592
REMARK INTER:                  -8.625
REMARK INTRA:                  -1.967
REMARK UNBOUND:                -1.588
REMARK SMILES CCCCCCC=CCCCCCCCC(=O)[O-]
REMARK SMILES IDX 10 1 11 2 12 3 13 4 14 5 15 6 16 7 17 8 18 9 9 10 8 11 7 12
REMARK SMILES IDX 6 13 5 14 4 15 3 16 2 17 1 18
REMARK H PARENT
REMARK Flexibility Score: inf
ROOT
ATOM      1  C   UNL     1      16.706  -5.630 -13.073  1.00  0.00     0.004 C 
ENDROOT
BRANCH   1   2
ATOM      2  C   UNL     1      16.470  -6.742 -14.113  1.00  0.00     0.000 C 
BRANCH   2   3
ATOM      3  C   UNL     1      17.762  -7.161 -14.837  1.00  0.00     0.000 C 
BRANCH   3   4
ATOM      4  C   UNL     1      19.022  -6.550 -14.200  1.00  0.00     0.000 C 
BRANCH   4   5
ATOM      5  C   UNL     1      20.111  -7.595 -13.914  1.00  0.00     0.006 C 
BRANCH   5   6
ATOM      6  C   UNL     1      20.083  -8.025 -12.444  1.00  0.00     0.053 C 
BRANCH   6   7
ATOM      7  C   UNL     1      20.474  -9.462 -12.308  1.00  0.00     0.041 C 
ATOM      8  O   UNL     1      19.696 -10.281 -11.749  1.00  0.00    -0.550 OA
ATOM      9  O   UNL     1      21.716  -9.890 -12.760  1.00  0.00    -0.550 OA
ENDBRANCH   6   7
ENDBRANCH   5   6
ENDBRANCH   4   5
ENDBRANCH   3   4
ENDBRANCH   2   3
ENDBRANCH   1   2
BRANCH   1  10
ATOM     10  C   UNL     1      16.478  -4.202 -13.601  1.00  0.00     0.027 C 
BRANCH  10  11
ATOM     11  C   UNL     1      15.656  -4.169 -14.865  1.00  0.00    -0.031 C 
ATOM     12  C   UNL     1      16.087  -3.726 -16.061  1.00  0.00    -0.031 C 
BRANCH  12  13
ATOM     13  C   UNL     1      17.449  -3.125 -16.327  1.00  0.00     0.027 C 
BRANCH  13  14
ATOM     14  C   UNL     1      18.409  -4.161 -16.928  1.00  0.00     0.004 C 
BRANCH  14  15
ATOM     15  C   UNL     1      17.735  -5.015 -18.017  1.00  0.00     0.000 C 
BRANCH  15  16
ATOM     16  C   UNL     1      18.758  -5.845 -18.822  1.00  0.00    -0.000 C 
BRANCH  16  17
ATOM     17  C   UNL     1      19.582  -6.812 -17.954  1.00  0.00    -0.003 C 
ATOM     18  C   UNL     1      19.163  -8.271 -18.120  1.00  0.00     0.004 C 
ENDBRANCH  16  17
ENDBRANCH  15  16
ENDBRANCH  14  15
ENDBRANCH  13  14
ENDBRANCH  12  13
ENDBRANCH  10  11
ENDBRANCH   1  10
TORSDOF 13
ENDMDL
MODEL 9
REMARK VINA RESULT:    -5.100      4.949      7.559
REMARK INTER + INTRA:         -10.564
REMARK INTER:                  -8.683
REMARK INTRA:                  -1.882
REMARK UNBOUND:                -1.588
REMARK SMILES CCCCCCC=CCCCCCCCC(=O)[O-]
REMARK SMILES IDX 10 1 11 2 12 3 13 4 14 5 15 6 16 7 17 8 18 9 9 10 8 11 7 12
REMARK SMILES IDX 6 13 5 14 4 15 3 16 2 17 1 18
REMARK H PARENT
REMARK Flexibility Score: inf
ROOT
ATOM      1  C   UNL     1      16.985  -6.702 -12.803  1.00  0.00     0.004 C 
ENDROOT
BRANCH   1   2
ATOM      2  C   UNL     1      18.436  -7.186 -12.987  1.00  0.00     0.000 C 
BRANCH   2   3
ATOM      3  C   UNL     1      18.941  -7.014 -14.430  1.00  0.00     0.000 C 
BRANCH   3   4
ATOM      4  C   UNL     1      19.321  -8.351 -15.088  1.00  0.00     0.000 C 
BRANCH   4   5
ATOM      5  C   UNL     1      18.739  -8.506 -16.501  1.00  0.00     0.006 C 
BRANCH   5   6
ATOM      6  C   UNL     1      19.019  -7.259 -17.347  1.00  0.00     0.053 C 
BRANCH   6   7
ATOM      7  C   UNL     1      19.323  -7.640 -18.761  1.00  0.00     0.041 C 
ATOM      8  O   UNL     1      19.154  -6.809 -19.693  1.00  0.00    -0.550 OA
ATOM      9  O   UNL     1      19.754  -8.928 -19.056  1.00  0.00    -0.550 OA
ENDBRANCH   6   7
ENDBRANCH   5   6
ENDBRANCH   4   5
ENDBRANCH   3   4
ENDBRANCH   2   3
ENDBRANCH   1   2
BRANCH   1  10
ATOM     10  C   UNL     1      16.200  -6.522 -14.115  1.00  0.00     0.027 C 
BRANCH  10  11
ATOM     11  C   UNL     1      15.503  -5.187 -14.202  1.00  0.00    -0.031 C 
ATOM     12  C   UNL     1      15.830  -4.194 -15.051  1.00  0.00    -0.031 C 
BRANCH  12  13
ATOM     13  C   UNL     1      16.993  -4.222 -16.016  1.00  0.00     0.027 C 
BRANCH  13  14
ATOM     14  C   UNL     1      18.255  -3.615 -15.388  1.00  0.00     0.004 C 
BRANCH  14  15
ATOM     15  C   UNL     1      19.511  -3.878 -16.239  1.00  0.00     0.000 C 
BRANCH  15  16
ATOM     16  C   UNL     1      20.596  -2.802 -16.022  1.00  0.00    -0.000 C 
BRANCH  16  17
ATOM     17  C   UNL     1      21.923  -3.367 -15.484  1.00  0.00    -0.003 C 
ATOM     18  C   UNL     1      21.944  -4.892 -15.426  1.00  0.00     0.004 C 
ENDBRANCH  16  17
ENDBRANCH  15  16
ENDBRANCH  14  15
ENDBRANCH  13  14
ENDBRANCH  12  13
ENDBRANCH  10  11
ENDBRANCH   1  10
TORSDOF 13
ENDMDL
