MODEL 1
REMARK VINA RESULT:    -5.389      0.000      0.000
REMARK INTER + INTRA:          -9.385
REMARK INTER:                  -8.381
REMARK INTRA:                  -1.003
REMARK UNBOUND:                -1.003
REMARK SMILES COc1cc(CNC(=O)CCCCC=CC(C)C)ccc1O
REMARK SMILES IDX 11 1 12 2 13 3 14 4 15 5 16 6 17 7 18 8 10 9 8 10 9 11 7 12
REMARK SMILES IDX 6 14 5 15 4 16 19 17 3 18 20 19 21 20 2 21 1 22 22 23
REMARK H PARENT 7 13 22 24
REMARK Flexibility Score: inf
ROOT
ATOM      1  C   UNL     1      -8.264  -0.885  -3.865  1.00  0.00     0.010 C 
ENDROOT
BRANCH   1   2
ATOM      2  C   UNL     1      -7.236   0.251  -4.007  1.00  0.00     0.005 C 
BRANCH   2   3
ATOM      3  C   UNL     1      -7.427   1.353  -2.951  1.00  0.00     0.027 C 
BRANCH   3   4
ATOM      4  C   UNL     1      -6.993   2.717  -3.436  1.00  0.00    -0.031 C 
ATOM      5  C   UNL     1      -7.819   3.697  -3.851  1.00  0.00    -0.028 C 
BRANCH   5   6
ATOM      6  C   UNL     1      -9.330   3.615  -3.887  1.00  0.00     0.005 C 
ATOM      7  C   UNL     1      -9.790   3.193  -5.286  1.00  0.00     0.012 C 
ATOM      8  C   UNL     1      -9.930   4.974  -3.515  1.00  0.00     0.012 C 
ENDBRANCH   5   6
ENDBRANCH   3   4
ENDBRANCH   2   3
ENDBRANCH   1   2
BRANCH   1   9
ATOM      9  C   UNL     1      -9.439  -0.724  -4.838  1.00  0.00     0.100 C 
BRANCH   9  10
ATOM     10  C   UNL     1      -9.000  -0.884  -6.265  1.00  0.00     0.220 C 
ATOM     11  O   UNL     1      -9.078   0.099  -7.051  1.00  0.00    -0.275 OA
ATOM     12  N   UNL     1      -8.451  -2.131  -6.716  1.00  0.00    -0.352 N 
ATOM     13  H   UNL     1      -8.382  -2.930  -6.045  1.00  0.00     0.163 HD
BRANCH  12  14
ATOM     14  C   UNL     1      -7.937  -2.318  -8.070  1.00  0.00     0.151 C 
BRANCH  14  15
ATOM     15  C   UNL     1      -6.800  -3.304  -8.067  1.00  0.00    -0.025 A 
ATOM     16  C   UNL     1      -5.473  -2.847  -8.087  1.00  0.00     0.056 A 
ATOM     17  C   UNL     1      -7.054  -4.683  -8.021  1.00  0.00     0.009 A 
ATOM     18  C   UNL     1      -4.400  -3.760  -8.069  1.00  0.00     0.160 A 
ATOM     19  C   UNL     1      -5.996  -5.593  -8.000  1.00  0.00     0.050 A 
ATOM     20  C   UNL     1      -4.672  -5.140  -8.024  1.00  0.00     0.157 A 
BRANCH  18  21
ATOM     21  O   UNL     1      -3.061  -3.333  -8.094  1.00  0.00    -0.493 OA
ATOM     22  C   UNL     1      -2.286  -3.170  -9.278  1.00  0.00     0.278 C 
ENDBRANCH  18  21
BRANCH  20  23
ATOM     23  O   UNL     1      -3.640  -6.079  -8.001  1.00  0.00    -0.504 OA
ATOM     24  H   UNL     1      -3.452  -6.651  -7.188  1.00  0.00     0.293 HD
ENDBRANCH  20  23
ENDBRANCH  14  15
ENDBRANCH  12  14
ENDBRANCH   9  10
ENDBRANCH   1   9
TORSDOF 10
ENDMDL
MODEL 2
REMARK VINA RESULT:    -5.255      2.303      7.678
REMARK INTER + INTRA:          -9.177
REMARK INTER:                  -7.898
REMARK INTRA:                  -1.279
REMARK UNBOUND:                -1.003
REMARK SMILES COc1cc(CNC(=O)CCCCC=CC(C)C)ccc1O
REMARK SMILES IDX 11 1 12 2 13 3 14 4 15 5 16 6 17 7 18 8 10 9 8 10 9 11 7 12
REMARK SMILES IDX 6 14 5 15 4 16 19 17 3 18 20 19 21 20 2 21 1 22 22 23
REMARK H PARENT 7 13 22 24
REMARK Flexibility Score: inf
ROOT
ATOM      1  C   UNL     1      -4.533  -4.969  -8.033  1.00  0.00     0.010 C 
ENDROOT
BRANCH   1   2
ATOM      2  C   UNL     1      -5.033  -5.954  -9.103  1.00  0.00     0.005 C 
BRANCH   2   3
ATOM      3  C   UNL     1      -6.300  -6.706  -8.665  1.00  0.00     0.027 C 
BRANCH   3   4
ATOM      4  C   UNL     1      -7.563  -5.900  -8.860  1.00  0.00    -0.031 C 
ATOM      5  C   UNL     1      -8.536  -5.739  -7.941  1.00  0.00    -0.028 C 
BRANCH   5   6
ATOM      6  C   UNL     1      -8.528  -6.320  -6.544  1.00  0.00     0.005 C 
ATOM      7  C   UNL     1      -9.199  -7.696  -6.553  1.00  0.00     0.012 C 
ATOM      8  C   UNL     1      -9.263  -5.374  -5.588  1.00  0.00     0.012 C 
ENDBRANCH   5   6
ENDBRANCH   3   4
ENDBRANCH   2   3
ENDBRANCH   1   2
BRANCH   1   9
ATOM      9  C   UNL     1      -4.437  -3.534  -8.568  1.00  0.00     0.100 C 
BRANCH   9  10
ATOM     10  C   UNL     1      -5.728  -2.790  -8.384  1.00  0.00     0.220 C 
ATOM     11  O   UNL     1      -6.216  -2.147  -9.353  1.00  0.00    -0.275 OA
ATOM     12  N   UNL     1      -6.424  -2.849  -7.130  1.00  0.00    -0.352 N 
ATOM     13  H   UNL     1      -6.009  -3.399  -6.343  1.00  0.00     0.163 HD
BRANCH  12  14
ATOM     14  C   UNL     1      -7.720  -2.210  -6.921  1.00  0.00     0.151 C 
BRANCH  14  15
ATOM     15  C   UNL     1      -7.736  -1.474  -5.608  1.00  0.00    -0.025 A 
ATOM     16  C   UNL     1      -7.259  -0.155  -5.537  1.00  0.00     0.056 A 
ATOM     17  C   UNL     1      -8.247  -2.086  -4.455  1.00  0.00     0.009 A 
ATOM     18  C   UNL     1      -7.282   0.551  -4.317  1.00  0.00     0.160 A 
ATOM     19  C   UNL     1      -8.275  -1.392  -3.244  1.00  0.00     0.050 A 
ATOM     20  C   UNL     1      -7.796  -0.079  -3.169  1.00  0.00     0.157 A 
BRANCH  18  21
ATOM     21  O   UNL     1      -6.807   1.869  -4.213  1.00  0.00    -0.493 OA
ATOM     22  C   UNL     1      -7.635   3.027  -4.185  1.00  0.00     0.278 C 
ENDBRANCH  18  21
BRANCH  20  23
ATOM     23  O   UNL     1      -7.842   0.583  -1.942  1.00  0.00    -0.504 OA
ATOM     24  H   UNL     1      -8.339   0.207  -1.145  1.00  0.00     0.293 HD
ENDBRANCH  20  23
ENDBRANCH  14  15
ENDBRANCH  12  14
ENDBRANCH   9  10
ENDBRANCH   1   9
TORSDOF 10
ENDMDL
MODEL 3
REMARK VINA RESULT:    -5.232      1.422      2.402
REMARK INTER + INTRA:          -9.142
REMARK INTER:                  -8.252
REMARK INTRA:                  -0.890
REMARK UNBOUND:                -1.003
REMARK SMILES COc1cc(CNC(=O)CCCCC=CC(C)C)ccc1O
REMARK SMILES IDX 11 1 12 2 13 3 14 4 15 5 16 6 17 7 18 8 10 9 8 10 9 11 7 12
REMARK SMILES IDX 6 14 5 15 4 16 19 17 3 18 20 19 21 20 2 21 1 22 22 23
REMARK H PARENT 7 13 22 24
REMARK Flexibility Score: inf
ROOT
ATOM      1  C   UNL     1      -7.872  -0.901  -4.608  1.00  0.00     0.010 C 
ENDROOT
BRANCH   1   2
ATOM      2  C   UNL     1      -8.644  -0.106  -3.541  1.00  0.00     0.005 C 
BRANCH   2   3
ATOM      3  C   UNL     1      -7.735   0.836  -2.735  1.00  0.00     0.027 C 
BRANCH   3   4
ATOM      4  C   UNL     1      -7.080   1.897  -3.589  1.00  0.00    -0.031 C 
ATOM      5  C   UNL     1      -7.699   2.982  -4.097  1.00  0.00    -0.028 C 
BRANCH   5   6
ATOM      6  C   UNL     1      -9.155   3.340  -3.887  1.00  0.00     0.005 C 
ATOM      7  C   UNL     1      -9.915   3.205  -5.210  1.00  0.00     0.012 C 
ATOM      8  C   UNL     1      -9.261   4.772  -3.353  1.00  0.00     0.012 C 
ENDBRANCH   5   6
ENDBRANCH   3   4
ENDBRANCH   2   3
ENDBRANCH   1   2
BRANCH   1   9
ATOM      9  C   UNL     1      -8.351  -0.576  -6.029  1.00  0.00     0.100 C 
BRANCH   9  10
ATOM     10  C   UNL     1      -7.292  -0.874  -7.050  1.00  0.00     0.220 C 
ATOM     11  O   UNL     1      -6.077  -0.744  -6.739  1.00  0.00    -0.275 OA
ATOM     12  N   UNL     1      -7.659  -1.350  -8.353  1.00  0.00    -0.352 N 
ATOM     13  H   UNL     1      -8.672  -1.465  -8.587  1.00  0.00     0.163 HD
BRANCH  12  14
ATOM     14  C   UNL     1      -6.670  -1.731  -9.358  1.00  0.00     0.151 C 
BRANCH  14  15
ATOM     15  C   UNL     1      -5.956  -2.988  -8.941  1.00  0.00    -0.025 A 
ATOM     16  C   UNL     1      -6.693  -4.116  -8.547  1.00  0.00     0.056 A 
ATOM     17  C   UNL     1      -4.555  -3.053  -8.964  1.00  0.00     0.009 A 
ATOM     18  C   UNL     1      -6.037  -5.305  -8.168  1.00  0.00     0.160 A 
ATOM     19  C   UNL     1      -3.899  -4.227  -8.594  1.00  0.00     0.050 A 
ATOM     20  C   UNL     1      -4.630  -5.352  -8.196  1.00  0.00     0.157 A 
BRANCH  18  21
ATOM     21  O   UNL     1      -6.746  -6.448  -7.764  1.00  0.00    -0.493 OA
ATOM     22  C   UNL     1      -7.955  -6.425  -7.010  1.00  0.00     0.278 C 
ENDBRANCH  18  21
BRANCH  20  23
ATOM     23  O   UNL     1      -3.940  -6.509  -7.834  1.00  0.00    -0.504 OA
ATOM     24  H   UNL     1      -3.775  -6.757  -6.867  1.00  0.00     0.293 HD
ENDBRANCH  20  23
ENDBRANCH  14  15
ENDBRANCH  12  14
ENDBRANCH   9  10
ENDBRANCH   1   9
TORSDOF 10
ENDMDL
MODEL 4
REMARK VINA RESULT:    -5.144      2.642      7.690
REMARK INTER + INTRA:          -9.005
REMARK INTER:                  -7.906
REMARK INTRA:                  -1.098
REMARK UNBOUND:                -1.003
REMARK SMILES COc1cc(CNC(=O)CCCCC=CC(C)C)ccc1O
REMARK SMILES IDX 11 1 12 2 13 3 14 4 15 5 16 6 17 7 18 8 10 9 8 10 9 11 7 12
REMARK SMILES IDX 6 14 5 15 4 16 19 17 3 18 20 19 21 20 2 21 1 22 22 23
REMARK H PARENT 7 13 22 24
REMARK Flexibility Score: inf
ROOT
ATOM      1  C   UNL     1      -7.970  -5.681  -8.725  1.00  0.00     0.010 C 
ENDROOT
BRANCH   1   2
ATOM      2  C   UNL     1      -7.109  -6.889  -9.132  1.00  0.00     0.005 C 
BRANCH   2   3
ATOM      3  C   UNL     1      -5.663  -6.494  -9.471  1.00  0.00     0.027 C 
BRANCH   3   4
ATOM      4  C   UNL     1      -4.769  -6.426  -8.255  1.00  0.00    -0.031 C 
ATOM      5  C   UNL     1      -4.053  -5.349  -7.872  1.00  0.00    -0.028 C 
BRANCH   5   6
ATOM      6  C   UNL     1      -4.034  -4.012  -8.579  1.00  0.00     0.005 C 
ATOM      7  C   UNL     1      -2.633  -3.400  -8.488  1.00  0.00     0.012 C 
ATOM      8  C   UNL     1      -5.067  -3.077  -7.943  1.00  0.00     0.012 C 
ENDBRANCH   5   6
ENDBRANCH   3   4
ENDBRANCH   2   3
ENDBRANCH   1   2
BRANCH   1   9
ATOM      9  C   UNL     1      -7.923  -5.423  -7.213  1.00  0.00     0.100 C 
BRANCH   9  10
ATOM     10  C   UNL     1      -8.803  -4.271  -6.823  1.00  0.00     0.220 C 
ATOM     11  O   UNL     1      -9.905  -4.498  -6.253  1.00  0.00    -0.275 OA
ATOM     12  N   UNL     1      -8.371  -2.921  -7.053  1.00  0.00    -0.352 N 
ATOM     13  H   UNL     1      -7.448  -2.754  -7.515  1.00  0.00     0.163 HD
BRANCH  12  14
ATOM     14  C   UNL     1      -9.151  -1.763  -6.623  1.00  0.00     0.151 C 
BRANCH  14  15
ATOM     15  C   UNL     1      -8.576  -1.185  -5.359  1.00  0.00    -0.025 A 
ATOM     16  C   UNL     1      -7.963   0.078  -5.379  1.00  0.00     0.056 A 
ATOM     17  C   UNL     1      -8.667  -1.887  -4.148  1.00  0.00     0.009 A 
ATOM     18  C   UNL     1      -7.434   0.638  -4.199  1.00  0.00     0.160 A 
ATOM     19  C   UNL     1      -8.148  -1.338  -2.975  1.00  0.00     0.050 A 
ATOM     20  C   UNL     1      -7.533  -0.081  -2.993  1.00  0.00     0.157 A 
BRANCH  18  21
ATOM     21  O   UNL     1      -6.810   1.897  -4.189  1.00  0.00    -0.493 OA
ATOM     22  C   UNL     1      -7.501   3.142  -4.137  1.00  0.00     0.278 C 
ENDBRANCH  18  21
BRANCH  20  23
ATOM     23  O   UNL     1      -7.027   0.437  -1.801  1.00  0.00    -0.504 OA
ATOM     24  H   UNL     1      -7.552   1.088  -1.232  1.00  0.00     0.293 HD
ENDBRANCH  20  23
ENDBRANCH  14  15
ENDBRANCH  12  14
ENDBRANCH   9  10
ENDBRANCH   1   9
TORSDOF 10
ENDMDL
MODEL 5
REMARK VINA RESULT:    -5.090      1.859      2.555
REMARK INTER + INTRA:          -8.920
REMARK INTER:                  -7.945
REMARK INTRA:                  -0.975
REMARK UNBOUND:                -1.003
REMARK SMILES COc1cc(CNC(=O)CCCCC=CC(C)C)ccc1O
REMARK SMILES IDX 11 1 12 2 13 3 14 4 15 5 16 6 17 7 18 8 10 9 8 10 9 11 7 12
REMARK SMILES IDX 6 14 5 15 4 16 19 17 3 18 20 19 21 20 2 21 1 22 22 23
REMARK H PARENT 7 13 22 24
REMARK Flexibility Score: inf
ROOT
ATOM      1  C   UNL     1      -8.662  -1.870  -3.534  1.00  0.00     0.010 C 
ENDROOT
BRANCH   1   2
ATOM      2  C   UNL     1      -9.817  -1.014  -4.083  1.00  0.00     0.005 C 
BRANCH   2   3
ATOM      3  C   UNL     1      -9.373  -0.098  -5.235  1.00  0.00     0.027 C 
BRANCH   3   4
ATOM      4  C   UNL     1      -7.872   0.047  -5.330  1.00  0.00    -0.031 C 
ATOM      5  C   UNL     1      -7.129   0.941  -4.646  1.00  0.00    -0.028 C 
BRANCH   5   6
ATOM      6  C   UNL     1      -7.663   1.944  -3.647  1.00  0.00     0.005 C 
ATOM      7  C   UNL     1      -7.002   3.306  -3.879  1.00  0.00     0.012 C 
ATOM      8  C   UNL     1      -7.386   1.451  -2.223  1.00  0.00     0.012 C 
ENDBRANCH   5   6
ENDBRANCH   3   4
ENDBRANCH   2   3
ENDBRANCH   1   2
BRANCH   1   9
ATOM      9  C   UNL     1      -9.010  -3.365  -3.516  1.00  0.00     0.100 C 
BRANCH   9  10
ATOM     10  C   UNL     1      -9.132  -3.919  -4.906  1.00  0.00     0.220 C 
ATOM     11  O   UNL     1      -9.996  -4.806  -5.145  1.00  0.00    -0.275 OA
ATOM     12  N   UNL     1      -8.307  -3.407  -5.963  1.00  0.00    -0.352 N 
ATOM     13  H   UNL     1      -7.607  -2.661  -5.747  1.00  0.00     0.163 HD
BRANCH  12  14
ATOM     14  C   UNL     1      -8.438  -3.853  -7.348  1.00  0.00     0.151 C 
BRANCH  14  15
ATOM     15  C   UNL     1      -7.204  -4.599  -7.777  1.00  0.00    -0.025 A 
ATOM     16  C   UNL     1      -6.065  -3.892  -8.191  1.00  0.00     0.056 A 
ATOM     17  C   UNL     1      -7.172  -6.001  -7.746  1.00  0.00     0.009 A 
ATOM     18  C   UNL     1      -4.897  -4.578  -8.581  1.00  0.00     0.160 A 
ATOM     19  C   UNL     1      -6.019  -6.687  -8.128  1.00  0.00     0.050 A 
ATOM     20  C   UNL     1      -4.883  -5.985  -8.545  1.00  0.00     0.157 A 
BRANCH  18  21
ATOM     21  O   UNL     1      -3.742  -3.899  -9.006  1.00  0.00    -0.493 OA
ATOM     22  C   UNL     1      -2.721  -3.419  -8.136  1.00  0.00     0.278 C 
ENDBRANCH  18  21
BRANCH  20  23
ATOM     23  O   UNL     1      -3.748  -6.705  -8.918  1.00  0.00    -0.504 OA
ATOM     24  H   UNL     1      -3.385  -7.466  -8.359  1.00  0.00     0.293 HD
ENDBRANCH  20  23
ENDBRANCH  14  15
ENDBRANCH  12  14
ENDBRANCH   9  10
ENDBRANCH   1   9
TORSDOF 10
ENDMDL
MODEL 6
REMARK VINA RESULT:    -5.053      2.902      4.737
REMARK INTER + INTRA:          -8.863
REMARK INTER:                  -8.174
REMARK INTRA:                  -0.688
REMARK UNBOUND:                -1.003
REMARK SMILES COc1cc(CNC(=O)CCCCC=CC(C)C)ccc1O
REMARK SMILES IDX 11 1 12 2 13 3 14 4 15 5 16 6 17 7 18 8 10 9 8 10 9 11 7 12
REMARK SMILES IDX 6 14 5 15 4 16 19 17 3 18 20 19 21 20 2 21 1 22 22 23
REMARK H PARENT 7 13 22 24
REMARK Flexibility Score: inf
ROOT
ATOM      1  C   UNL     1      -9.105   3.573  -4.425  1.00  0.00     0.010 C 
ENDROOT
BRANCH   1   2
ATOM      2  C   UNL     1      -9.945   4.175  -3.286  1.00  0.00     0.005 C 
BRANCH   2   3
ATOM      3  C   UNL     1     -10.124   5.696  -3.427  1.00  0.00     0.027 C 
BRANCH   3   4
ATOM      4  C   UNL     1      -8.904   6.477  -2.997  1.00  0.00    -0.031 C 
ATOM      5  C   UNL     1      -8.897   7.774  -2.631  1.00  0.00    -0.028 C 
BRANCH   5   6
ATOM      6  C   UNL     1     -10.112   8.674  -2.566  1.00  0.00     0.005 C 
ATOM      7  C   UNL     1     -10.086   9.662  -3.736  1.00  0.00     0.012 C 
ATOM      8  C   UNL     1     -10.125   9.427  -1.232  1.00  0.00     0.012 C 
ENDBRANCH   5   6
ENDBRANCH   3   4
ENDBRANCH   2   3
ENDBRANCH   1   2
BRANCH   1   9
ATOM      9  C   UNL     1      -7.684   3.217  -3.969  1.00  0.00     0.100 C 
BRANCH   9  10
ATOM     10  C   UNL     1      -7.643   1.883  -3.281  1.00  0.00     0.220 C 
ATOM     11  O   UNL     1      -7.102   1.788  -2.146  1.00  0.00    -0.275 OA
ATOM     12  N   UNL     1      -8.257   0.738  -3.890  1.00  0.00    -0.352 N 
ATOM     13  H   UNL     1      -8.713   0.841  -4.826  1.00  0.00     0.163 HD
BRANCH  12  14
ATOM     14  C   UNL     1      -8.315  -0.565  -3.232  1.00  0.00     0.151 C 
BRANCH  14  15
ATOM     15  C   UNL     1      -8.390  -1.666  -4.254  1.00  0.00    -0.025 A 
ATOM     16  C   UNL     1      -7.841  -1.476  -5.532  1.00  0.00     0.056 A 
ATOM     17  C   UNL     1      -8.982  -2.896  -3.934  1.00  0.00     0.009 A 
ATOM     18  C   UNL     1      -7.890  -2.505  -6.494  1.00  0.00     0.160 A 
ATOM     19  C   UNL     1      -9.032  -3.921  -4.880  1.00  0.00     0.050 A 
ATOM     20  C   UNL     1      -8.490  -3.732  -6.157  1.00  0.00     0.157 A 
BRANCH  18  21
ATOM     21  O   UNL     1      -7.355  -2.342  -7.784  1.00  0.00    -0.493 OA
ATOM     22  C   UNL     1      -5.968  -2.418  -8.099  1.00  0.00     0.278 C 
ENDBRANCH  18  21
BRANCH  20  23
ATOM     23  O   UNL     1      -8.557  -4.780  -7.076  1.00  0.00    -0.504 OA
ATOM     24  H   UNL     1      -9.243  -4.801  -7.819  1.00  0.00     0.293 HD
ENDBRANCH  20  23
ENDBRANCH  14  15
ENDBRANCH  12  14
ENDBRANCH   9  10
ENDBRANCH   1   9
TORSDOF 10
ENDMDL
MODEL 7
REMARK VINA RESULT:    -4.906     14.595     15.824
REMARK INTER + INTRA:          -8.633
REMARK INTER:                  -7.136
REMARK INTRA:                  -1.498
REMARK UNBOUND:                -1.003
REMARK SMILES COc1cc(CNC(=O)CCCCC=CC(C)C)ccc1O
REMARK SMILES IDX 11 1 12 2 13 3 14 4 15 5 16 6 17 7 18 8 10 9 8 10 9 11 7 12
REMARK SMILES IDX 6 14 5 15 4 16 19 17 3 18 20 19 21 20 2 21 1 22 22 23
REMARK H PARENT 7 13 22 24
REMARK Flexibility Score: inf
ROOT
ATOM      1  C   UNL     1      -6.348   6.498   6.019  1.00  0.00     0.010 C 
ENDROOT
BRANCH   1   2
ATOM      2  C   UNL     1      -6.585   8.016   5.944  1.00  0.00     0.005 C 
BRANCH   2   3
ATOM      3  C   UNL     1      -5.686   8.702   4.902  1.00  0.00     0.027 C 
BRANCH   3   4
ATOM      4  C   UNL     1      -4.799   7.731   4.157  1.00  0.00    -0.031 C 
ATOM      5  C   UNL     1      -3.549   7.990   3.724  1.00  0.00    -0.028 C 
BRANCH   5   6
ATOM      6  C   UNL     1      -2.803   9.291   3.925  1.00  0.00     0.005 C 
ATOM      7  C   UNL     1      -1.909   9.565   2.712  1.00  0.00     0.012 C 
ATOM      8  C   UNL     1      -1.961   9.211   5.202  1.00  0.00     0.012 C 
ENDBRANCH   5   6
ENDBRANCH   3   4
ENDBRANCH   2   3
ENDBRANCH   1   2
BRANCH   1   9
ATOM      9  C   UNL     1      -6.667   5.933   7.410  1.00  0.00     0.100 C 
BRANCH   9  10
ATOM     10  C   UNL     1      -5.441   5.370   8.071  1.00  0.00     0.220 C 
ATOM     11  O   UNL     1      -5.343   4.124   8.234  1.00  0.00    -0.275 OA
ATOM     12  N   UNL     1      -4.371   6.241   8.468  1.00  0.00    -0.352 N 
ATOM     13  H   UNL     1      -4.467   7.270   8.311  1.00  0.00     0.163 HD
BRANCH  12  14
ATOM     14  C   UNL     1      -3.125   5.740   9.043  1.00  0.00     0.151 C 
BRANCH  14  15
ATOM     15  C   UNL     1      -2.131   5.436   7.954  1.00  0.00    -0.025 A 
ATOM     16  C   UNL     1      -0.943   4.753   8.260  1.00  0.00     0.056 A 
ATOM     17  C   UNL     1      -2.391   5.809   6.628  1.00  0.00     0.009 A 
ATOM     18  C   UNL     1      -0.011   4.448   7.248  1.00  0.00     0.160 A 
ATOM     19  C   UNL     1      -1.474   5.508   5.620  1.00  0.00     0.050 A 
ATOM     20  C   UNL     1      -0.287   4.831   5.921  1.00  0.00     0.157 A 
BRANCH  18  21
ATOM     21  O   UNL     1       1.189   3.770   7.522  1.00  0.00    -0.493 OA
ATOM     22  C   UNL     1       1.964   3.946   8.704  1.00  0.00     0.278 C 
ENDBRANCH  18  21
BRANCH  20  23
ATOM     23  O   UNL     1       0.605   4.546   4.888  1.00  0.00    -0.504 OA
ATOM     24  H   UNL     1       0.981   3.618   4.741  1.00  0.00     0.293 HD
ENDBRANCH  20  23
ENDBRANCH  14  15
ENDBRANCH  12  14
ENDBRANCH   9  10
ENDBRANCH   1   9
TORSDOF 10
ENDMDL
MODEL 8
REMARK VINA RESULT:    -4.867     14.072     16.132
REMARK INTER + INTRA:          -8.573
REMARK INTER:                  -6.328
REMARK INTRA:                  -2.245
REMARK UNBOUND:                -1.003
REMARK SMILES COc1cc(CNC(=O)CCCCC=CC(C)C)ccc1O
REMARK SMILES IDX 11 1 12 2 13 3 14 4 15 5 16 6 17 7 18 8 10 9 8 10 9 11 7 12
REMARK SMILES IDX 6 14 5 15 4 16 19 17 3 18 20 19 21 20 2 21 1 22 22 23
REMARK H PARENT 7 13 22 24
REMARK Flexibility Score: inf
ROOT
ATOM      1  C   UNL     1      -6.472   7.005   7.570  1.00  0.00     0.010 C 
ENDROOT
BRANCH   1   2
ATOM      2  C   UNL     1      -6.784   5.736   8.382  1.00  0.00     0.005 C 
BRANCH   2   3
ATOM      3  C   UNL     1      -5.625   5.326   9.304  1.00  0.00     0.027 C 
BRANCH   3   4
ATOM      4  C   UNL     1      -4.400   4.870   8.546  1.00  0.00    -0.031 C 
ATOM      5  C   UNL     1      -3.192   5.468   8.582  1.00  0.00    -0.028 C 
BRANCH   5   6
ATOM      6  C   UNL     1      -2.842   6.691   9.403  1.00  0.00     0.005 C 
ATOM      7  C   UNL     1      -3.112   7.956   8.584  1.00  0.00     0.012 C 
ATOM      8  C   UNL     1      -1.369   6.627   9.820  1.00  0.00     0.012 C 
ENDBRANCH   5   6
ENDBRANCH   3   4
ENDBRANCH   2   3
ENDBRANCH   1   2
BRANCH   1   9
ATOM      9  C   UNL     1      -6.742   6.813   6.072  1.00  0.00     0.100 C 
BRANCH   9  10
ATOM     10  C   UNL     1      -5.568   6.191   5.375  1.00  0.00     0.220 C 
ATOM     11  O   UNL     1      -5.560   4.947   5.164  1.00  0.00    -0.275 OA
ATOM     12  N   UNL     1      -4.486   7.012   4.908  1.00  0.00    -0.352 N 
ATOM     13  H   UNL     1      -4.519   8.043   5.081  1.00  0.00     0.163 HD
BRANCH  12  14
ATOM     14  C   UNL     1      -3.358   6.470   4.155  1.00  0.00     0.151 C 
BRANCH  14  15
ATOM     15  C   UNL     1      -2.106   6.504   4.990  1.00  0.00    -0.025 A 
ATOM     16  C   UNL     1      -1.514   5.304   5.415  1.00  0.00     0.056 A 
ATOM     17  C   UNL     1      -1.509   7.726   5.330  1.00  0.00     0.009 A 
ATOM     18  C   UNL     1      -0.333   5.321   6.185  1.00  0.00     0.160 A 
ATOM     19  C   UNL     1      -0.338   7.751   6.089  1.00  0.00     0.050 A 
ATOM     20  C   UNL     1       0.252   6.557   6.518  1.00  0.00     0.157 A 
BRANCH  18  21
ATOM     21  O   UNL     1       0.281   4.138   6.630  1.00  0.00    -0.493 OA
ATOM     22  C   UNL     1       0.177   3.622   7.953  1.00  0.00     0.278 C 
ENDBRANCH  18  21
BRANCH  20  23
ATOM     23  O   UNL     1       1.423   6.621   7.274  1.00  0.00    -0.504 OA
ATOM     24  H   UNL     1       2.007   7.446   7.294  1.00  0.00     0.293 HD
ENDBRANCH  20  23
ENDBRANCH  14  15
ENDBRANCH  12  14
ENDBRANCH   9  10
ENDBRANCH   1   9
TORSDOF 10
ENDMDL
MODEL 9
REMARK VINA RESULT:    -4.837     13.353     16.517
REMARK INTER + INTRA:          -8.527
REMARK INTER:                  -7.593
REMARK INTRA:                  -0.934
REMARK UNBOUND:                -1.003
REMARK SMILES COc1cc(CNC(=O)CCCCC=CC(C)C)ccc1O
REMARK SMILES IDX 11 1 12 2 13 3 14 4 15 5 16 6 17 7 18 8 10 9 8 10 9 11 7 12
REMARK SMILES IDX 6 14 5 15 4 16 19 17 3 18 20 19 21 20 2 21 1 22 22 23
REMARK H PARENT 7 13 22 24
REMARK Flexibility Score: inf
ROOT
ATOM      1  C   UNL     1      -1.906  -6.779   5.914  1.00  0.00     0.010 C 
ENDROOT
BRANCH   1   2
ATOM      2  C   UNL     1      -1.655  -6.104   4.555  1.00  0.00     0.005 C 
BRANCH   2   3
ATOM      3  C   UNL     1      -1.162  -7.094   3.487  1.00  0.00     0.027 C 
BRANCH   3   4
ATOM      4  C   UNL     1      -1.603  -8.515   3.751  1.00  0.00    -0.031 C 
ATOM      5  C   UNL     1      -2.740  -9.077   3.295  1.00  0.00    -0.028 C 
BRANCH   5   6
ATOM      6  C   UNL     1      -3.769  -8.392   2.422  1.00  0.00     0.005 C 
ATOM      7  C   UNL     1      -4.890  -7.822   3.295  1.00  0.00     0.012 C 
ATOM      8  C   UNL     1      -4.336  -9.393   1.411  1.00  0.00     0.012 C 
ENDBRANCH   5   6
ENDBRANCH   3   4
ENDBRANCH   2   3
ENDBRANCH   1   2
BRANCH   1   9
ATOM      9  C   UNL     1      -3.353  -6.596   6.391  1.00  0.00     0.100 C 
BRANCH   9  10
ATOM     10  C   UNL     1      -3.408  -6.048   7.787  1.00  0.00     0.220 C 
ATOM     11  O   UNL     1      -2.743  -6.609   8.700  1.00  0.00    -0.275 OA
ATOM     12  N   UNL     1      -4.172  -4.866   8.070  1.00  0.00    -0.352 N 
ATOM     13  H   UNL     1      -4.705  -4.408   7.296  1.00  0.00     0.163 HD
BRANCH  12  14
ATOM     14  C   UNL     1      -4.198  -4.245   9.391  1.00  0.00     0.151 C 
BRANCH  14  15
ATOM     15  C   UNL     1      -5.109  -3.047   9.390  1.00  0.00    -0.025 A 
ATOM     16  C   UNL     1      -6.488  -3.214   9.590  1.00  0.00     0.056 A 
ATOM     17  C   UNL     1      -4.588  -1.757   9.214  1.00  0.00     0.009 A 
ATOM     18  C   UNL     1      -7.350  -2.099   9.606  1.00  0.00     0.160 A 
ATOM     19  C   UNL     1      -5.435  -0.648   9.232  1.00  0.00     0.050 A 
ATOM     20  C   UNL     1      -6.811  -0.811   9.427  1.00  0.00     0.157 A 
BRANCH  18  21
ATOM     21  O   UNL     1      -8.736  -2.234   9.798  1.00  0.00    -0.493 OA
ATOM     22  C   UNL     1      -9.428  -3.478   9.848  1.00  0.00     0.278 C 
ENDBRANCH  18  21
BRANCH  20  23
ATOM     23  O   UNL     1      -7.627   0.320   9.440  1.00  0.00    -0.504 OA
ATOM     24  H   UNL     1      -7.814   0.839  10.288  1.00  0.00     0.293 HD
ENDBRANCH  20  23
ENDBRANCH  14  15
ENDBRANCH  12  14
ENDBRANCH   9  10
ENDBRANCH   1   9
TORSDOF 10
ENDMDL
