MODEL 1
REMARK VINA RESULT:    -3.213      0.000      0.000
REMARK INTER + INTRA:          -4.577
REMARK INTER:                  -4.340
REMARK INTRA:                  -0.237
REMARK UNBOUND:                -0.237
REMARK SMILES CCCCCCCC(=O)[O-]
REMARK SMILES IDX 5 1 6 2 7 3 8 4 9 5 10 6 4 7 3 8 2 9 1 10
REMARK H PARENT
REMARK Flexibility Score: inf
ROOT
ATOM      1  C   UNL     1      24.397   7.302  28.960  1.00  0.00     0.000 C 
ENDROOT
BRANCH   1   2
ATOM      2  C   UNL     1      23.906   7.448  30.408  1.00  0.00     0.006 C 
BRANCH   2   3
ATOM      3  C   UNL     1      22.879   6.365  30.750  1.00  0.00     0.053 C 
BRANCH   3   4
ATOM      4  C   UNL     1      22.516   6.425  32.200  1.00  0.00     0.041 C 
ATOM      5  O   UNL     1      21.971   7.456  32.674  1.00  0.00    -0.550 OA
ATOM      6  O   UNL     1      22.826   5.363  33.039  1.00  0.00    -0.550 OA
ENDBRANCH   3   4
ENDBRANCH   2   3
ENDBRANCH   1   2
BRANCH   1   7
ATOM      7  C   UNL     1      25.518   8.295  28.611  1.00  0.00     0.000 C 
BRANCH   7   8
ATOM      8  C   UNL     1      25.014   9.742  28.499  1.00  0.00    -0.000 C 
BRANCH   8   9
ATOM      9  C   UNL     1      24.204   9.941  27.212  1.00  0.00    -0.003 C 
ATOM     10  C   UNL     1      25.048   9.638  25.978  1.00  0.00     0.004 C 
ENDBRANCH   8   9
ENDBRANCH   7   8
ENDBRANCH   1   7
TORSDOF 6
ENDMDL
MODEL 2
REMARK VINA RESULT:    -3.186      3.007      4.965
REMARK INTER + INTRA:          -4.540
REMARK INTER:                  -4.127
REMARK INTRA:                  -0.413
REMARK UNBOUND:                -0.237
REMARK SMILES CCCCCCCC(=O)[O-]
REMARK SMILES IDX 5 1 6 2 7 3 8 4 9 5 10 6 4 7 3 8 2 9 1 10
REMARK H PARENT
REMARK Flexibility Score: inf
ROOT
ATOM      1  C   UNL     1      23.176   7.363  30.643  1.00  0.00     0.000 C 
ENDROOT
BRANCH   1   2
ATOM      2  C   UNL     1      24.672   7.626  30.420  1.00  0.00     0.006 C 
BRANCH   2   3
ATOM      3  C   UNL     1      24.972   7.852  28.935  1.00  0.00     0.053 C 
BRANCH   3   4
ATOM      4  C   UNL     1      25.190   9.308  28.659  1.00  0.00     0.041 C 
ATOM      5  O   UNL     1      25.280  10.125  29.612  1.00  0.00    -0.550 OA
ATOM      6  O   UNL     1      25.242   9.767  27.350  1.00  0.00    -0.550 OA
ENDBRANCH   3   4
ENDBRANCH   2   3
ENDBRANCH   1   2
BRANCH   1   7
ATOM      7  C   UNL     1      22.914   6.079  31.446  1.00  0.00     0.000 C 
BRANCH   7   8
ATOM      8  C   UNL     1      22.237   4.984  30.607  1.00  0.00    -0.000 C 
BRANCH   8   9
ATOM      9  C   UNL     1      22.239   5.354  29.119  1.00  0.00    -0.003 C 
ATOM     10  C   UNL     1      23.205   4.473  28.333  1.00  0.00     0.004 C 
ENDBRANCH   8   9
ENDBRANCH   7   8
ENDBRANCH   1   7
TORSDOF 6
ENDMDL
MODEL 3
REMARK VINA RESULT:    -3.186      2.735      5.007
REMARK INTER + INTRA:          -4.540
REMARK INTER:                  -4.056
REMARK INTRA:                  -0.484
REMARK UNBOUND:                -0.237
REMARK SMILES CCCCCCCC(=O)[O-]
REMARK SMILES IDX 5 1 6 2 7 3 8 4 9 5 10 6 4 7 3 8 2 9 1 10
REMARK H PARENT
REMARK Flexibility Score: inf
ROOT
ATOM      1  C   UNL     1      23.395   5.607  29.165  1.00  0.00     0.000 C 
ENDROOT
BRANCH   1   2
ATOM      2  C   UNL     1      24.087   6.942  28.854  1.00  0.00     0.006 C 
BRANCH   2   3
ATOM      3  C   UNL     1      24.898   7.431  30.058  1.00  0.00     0.053 C 
BRANCH   3   4
ATOM      4  C   UNL     1      24.990   8.925  30.056  1.00  0.00     0.041 C 
ATOM      5  O   UNL     1      24.679   9.579  31.085  1.00  0.00    -0.550 OA
ATOM      6  O   UNL     1      25.370   9.597  28.902  1.00  0.00    -0.550 OA
ENDBRANCH   3   4
ENDBRANCH   2   3
ENDBRANCH   1   2
BRANCH   1   7
ATOM      7  C   UNL     1      22.151   5.777  30.053  1.00  0.00     0.000 C 
BRANCH   7   8
ATOM      8  C   UNL     1      22.203   4.907  31.318  1.00  0.00    -0.000 C 
BRANCH   8   9
ATOM      9  C   UNL     1      22.750   5.704  32.509  1.00  0.00    -0.003 C 
ATOM     10  C   UNL     1      22.131   7.097  32.570  1.00  0.00     0.004 C 
ENDBRANCH   8   9
ENDBRANCH   7   8
ENDBRANCH   1   7
TORSDOF 6
ENDMDL
MODEL 4
REMARK VINA RESULT:    -3.148      3.484      5.433
REMARK INTER + INTRA:          -4.489
REMARK INTER:                  -4.131
REMARK INTRA:                  -0.358
REMARK UNBOUND:                -0.237
REMARK SMILES CCCCCCCC(=O)[O-]
REMARK SMILES IDX 5 1 6 2 7 3 8 4 9 5 10 6 4 7 3 8 2 9 1 10
REMARK H PARENT
REMARK Flexibility Score: inf
ROOT
ATOM      1  C   UNL     1      25.451   7.654  29.363  1.00  0.00     0.000 C 
ENDROOT
BRANCH   1   2
ATOM      2  C   UNL     1      25.480   9.148  29.008  1.00  0.00     0.006 C 
BRANCH   2   3
ATOM      3  C   UNL     1      24.307   9.516  28.094  1.00  0.00     0.053 C 
BRANCH   3   4
ATOM      4  C   UNL     1      24.611   9.145  26.677  1.00  0.00     0.041 C 
ATOM      5  O   UNL     1      24.030   8.165  26.141  1.00  0.00    -0.550 OA
ATOM      6  O   UNL     1      25.572   9.850  25.964  1.00  0.00    -0.550 OA
ENDBRANCH   3   4
ENDBRANCH   2   3
ENDBRANCH   1   2
BRANCH   1   7
ATOM      7  C   UNL     1      24.057   7.176  29.800  1.00  0.00     0.000 C 
BRANCH   7   8
ATOM      8  C   UNL     1      23.522   6.030  28.928  1.00  0.00    -0.000 C 
BRANCH   8   9
ATOM      9  C   UNL     1      22.537   5.157  29.715  1.00  0.00    -0.003 C 
ATOM     10  C   UNL     1      21.820   5.968  30.790  1.00  0.00     0.004 C 
ENDBRANCH   8   9
ENDBRANCH   7   8
ENDBRANCH   1   7
TORSDOF 6
ENDMDL
MODEL 5
REMARK VINA RESULT:    -3.139      2.997      3.419
REMARK INTER + INTRA:          -4.477
REMARK INTER:                  -4.016
REMARK INTRA:                  -0.461
REMARK UNBOUND:                -0.237
REMARK SMILES CCCCCCCC(=O)[O-]
REMARK SMILES IDX 5 1 6 2 7 3 8 4 9 5 10 6 4 7 3 8 2 9 1 10
REMARK H PARENT
REMARK Flexibility Score: inf
ROOT
ATOM      1  C   UNL     1      24.001   7.215  30.413  1.00  0.00     0.000 C 
ENDROOT
BRANCH   1   2
ATOM      2  C   UNL     1      22.997   6.185  29.873  1.00  0.00     0.006 C 
BRANCH   2   3
ATOM      3  C   UNL     1      23.498   5.568  28.563  1.00  0.00     0.053 C 
BRANCH   3   4
ATOM      4  C   UNL     1      22.501   5.783  27.468  1.00  0.00     0.041 C 
ATOM      5  O   UNL     1      21.326   5.346  27.587  1.00  0.00    -0.550 OA
ATOM      6  O   UNL     1      22.883   6.422  26.296  1.00  0.00    -0.550 OA
ENDBRANCH   3   4
ENDBRANCH   2   3
ENDBRANCH   1   2
BRANCH   1   7
ATOM      7  C   UNL     1      25.153   7.488  29.433  1.00  0.00     0.000 C 
BRANCH   7   8
ATOM      8  C   UNL     1      25.160   8.935  28.915  1.00  0.00    -0.000 C 
BRANCH   8   9
ATOM      9  C   UNL     1      25.192   8.966  27.382  1.00  0.00    -0.003 C 
ATOM     10  C   UNL     1      24.059   9.823  26.825  1.00  0.00     0.004 C 
ENDBRANCH   8   9
ENDBRANCH   7   8
ENDBRANCH   1   7
TORSDOF 6
ENDMDL
MODEL 6
REMARK VINA RESULT:    -3.126      3.036      5.817
REMARK INTER + INTRA:          -4.460
REMARK INTER:                  -4.270
REMARK INTRA:                  -0.190
REMARK UNBOUND:                -0.237
REMARK SMILES CCCCCCCC(=O)[O-]
REMARK SMILES IDX 5 1 6 2 7 3 8 4 9 5 10 6 4 7 3 8 2 9 1 10
REMARK H PARENT
REMARK Flexibility Score: inf
ROOT
ATOM      1  C   UNL     1      23.566   7.138  30.733  1.00  0.00     0.000 C 
ENDROOT
BRANCH   1   2
ATOM      2  C   UNL     1      24.204   7.034  29.340  1.00  0.00     0.006 C 
BRANCH   2   3
ATOM      3  C   UNL     1      25.557   7.752  29.303  1.00  0.00     0.053 C 
BRANCH   3   4
ATOM      4  C   UNL     1      25.435   9.064  28.594  1.00  0.00     0.041 C 
ATOM      5  O   UNL     1      25.241  10.121  29.249  1.00  0.00    -0.550 OA
ATOM      6  O   UNL     1      25.484   9.113  27.207  1.00  0.00    -0.550 OA
ENDBRANCH   3   4
ENDBRANCH   2   3
ENDBRANCH   1   2
BRANCH   1   7
ATOM      7  C   UNL     1      22.718   5.907  31.089  1.00  0.00     0.000 C 
BRANCH   7   8
ATOM      8  C   UNL     1      22.775   5.560  32.585  1.00  0.00    -0.000 C 
BRANCH   8   9
ATOM      9  C   UNL     1      21.882   4.355  32.902  1.00  0.00    -0.003 C 
ATOM     10  C   UNL     1      21.460   3.630  31.627  1.00  0.00     0.004 C 
ENDBRANCH   8   9
ENDBRANCH   7   8
ENDBRANCH   1   7
TORSDOF 6
ENDMDL
MODEL 7
REMARK VINA RESULT:    -3.062      8.035     11.245
REMARK INTER + INTRA:          -4.373
REMARK INTER:                  -4.115
REMARK INTRA:                  -0.259
REMARK UNBOUND:                -0.237
REMARK SMILES CCCCCCCC(=O)[O-]
REMARK SMILES IDX 5 1 6 2 7 3 8 4 9 5 10 6 4 7 3 8 2 9 1 10
REMARK H PARENT
REMARK Flexibility Score: inf
ROOT
ATOM      1  C   UNL     1      18.424   9.941  38.594  1.00  0.00     0.000 C 
ENDROOT
BRANCH   1   2
ATOM      2  C   UNL     1      19.608   9.021  38.262  1.00  0.00     0.006 C 
BRANCH   2   3
ATOM      3  C   UNL     1      20.648   9.753  37.408  1.00  0.00     0.053 C 
BRANCH   3   4
ATOM      4  C   UNL     1      20.718   9.154  36.039  1.00  0.00     0.041 C 
ATOM      5  O   UNL     1      21.833   8.960  35.489  1.00  0.00    -0.550 OA
ATOM      6  O   UNL     1      19.549   8.856  35.350  1.00  0.00    -0.550 OA
ENDBRANCH   3   4
ENDBRANCH   2   3
ENDBRANCH   1   2
BRANCH   1   7
ATOM      7  C   UNL     1      17.075   9.355  38.148  1.00  0.00     0.000 C 
BRANCH   7   8
ATOM      8  C   UNL     1      15.892   9.909  38.956  1.00  0.00    -0.000 C 
BRANCH   8   9
ATOM      9  C   UNL     1      16.082   9.648  40.454  1.00  0.00    -0.003 C 
ATOM     10  C   UNL     1      15.106   8.589  40.958  1.00  0.00     0.004 C 
ENDBRANCH   8   9
ENDBRANCH   7   8
ENDBRANCH   1   7
TORSDOF 6
ENDMDL
MODEL 8
REMARK VINA RESULT:    -3.028      2.518      3.238
REMARK INTER + INTRA:          -4.327
REMARK INTER:                  -4.065
REMARK INTRA:                  -0.262
REMARK UNBOUND:                -0.237
REMARK SMILES CCCCCCCC(=O)[O-]
REMARK SMILES IDX 5 1 6 2 7 3 8 4 9 5 10 6 4 7 3 8 2 9 1 10
REMARK H PARENT
REMARK Flexibility Score: inf
ROOT
ATOM      1  C   UNL     1      23.304   6.767  30.724  1.00  0.00     0.000 C 
ENDROOT
BRANCH   1   2
ATOM      2  C   UNL     1      22.386   5.538  30.796  1.00  0.00     0.006 C 
BRANCH   2   3
ATOM      3  C   UNL     1      21.970   5.083  29.394  1.00  0.00     0.053 C 
BRANCH   3   4
ATOM      4  C   UNL     1      20.535   5.420  29.138  1.00  0.00     0.041 C 
ATOM      5  O   UNL     1      19.770   5.701  30.097  1.00  0.00    -0.550 OA
ATOM      6  O   UNL     1      20.030   5.374  27.845  1.00  0.00    -0.550 OA
ENDBRANCH   3   4
ENDBRANCH   2   3
ENDBRANCH   1   2
BRANCH   1   7
ATOM      7  C   UNL     1      24.070   6.858  29.394  1.00  0.00     0.000 C 
BRANCH   7   8
ATOM      8  C   UNL     1      25.392   7.630  29.523  1.00  0.00    -0.000 C 
BRANCH   8   9
ATOM      9  C   UNL     1      25.423   8.825  28.564  1.00  0.00    -0.003 C 
ATOM     10  C   UNL     1      25.073  10.122  29.287  1.00  0.00     0.004 C 
ENDBRANCH   8   9
ENDBRANCH   7   8
ENDBRANCH   1   7
TORSDOF 6
ENDMDL
MODEL 9
REMARK VINA RESULT:    -3.002      1.555      2.437
REMARK INTER + INTRA:          -4.292
REMARK INTER:                  -4.050
REMARK INTRA:                  -0.242
REMARK UNBOUND:                -0.237
REMARK SMILES CCCCCCCC(=O)[O-]
REMARK SMILES IDX 5 1 6 2 7 3 8 4 9 5 10 6 4 7 3 8 2 9 1 10
REMARK H PARENT
REMARK Flexibility Score: inf
ROOT
ATOM      1  C   UNL     1      22.825   5.916  30.100  1.00  0.00     0.000 C 
ENDROOT
BRANCH   1   2
ATOM      2  C   UNL     1      22.928   6.591  31.476  1.00  0.00     0.006 C 
BRANCH   2   3
ATOM      3  C   UNL     1      22.417   5.661  32.581  1.00  0.00     0.053 C 
BRANCH   3   4
ATOM      4  C   UNL     1      21.759   6.452  33.669  1.00  0.00     0.041 C 
ATOM      5  O   UNL     1      21.356   5.877  34.713  1.00  0.00    -0.550 OA
ATOM      6  O   UNL     1      21.547   7.815  33.506  1.00  0.00    -0.550 OA
ENDBRANCH   3   4
ENDBRANCH   2   3
ENDBRANCH   1   2
BRANCH   1   7
ATOM      7  C   UNL     1      23.843   6.470  29.091  1.00  0.00     0.000 C 
BRANCH   7   8
ATOM      8  C   UNL     1      24.806   7.489  29.719  1.00  0.00    -0.000 C 
BRANCH   8   9
ATOM      9  C   UNL     1      25.238   8.541  28.690  1.00  0.00    -0.003 C 
ATOM     10  C   UNL     1      25.161   9.948  29.275  1.00  0.00     0.004 C 
ENDBRANCH   8   9
ENDBRANCH   7   8
ENDBRANCH   1   7
TORSDOF 6
ENDMDL
