MODEL 1
REMARK VINA RESULT:    -4.589      0.000      0.000
REMARK INTER + INTRA:          -5.727
REMARK INTER:                  -6.199
REMARK INTRA:                   0.472
REMARK UNBOUND:                 0.472
REMARK SMILES C=C(C)[C@@H]1CC[C@H](C)C2=C(C1)[C@@H](C)CC2
REMARK SMILES IDX 10 1 9 2 15 3 14 4 12 5 13 6 7 7 8 8 6 9 11 11 4 12 5 13
REMARK SMILES IDX 2 15 1 16 3 17
REMARK H PARENT
REMARK Flexibility Score: 80.00
ROOT
ATOM      1  C   UNL     1     147.867 143.703 163.513  1.00  0.00    -0.067 C 
ATOM      2  C   UNL     1     147.713 144.863 164.156  1.00  0.00    -0.068 C 
ATOM      3  C   UNL     1     149.025 145.505 164.459  1.00  0.00     0.032 C 
ATOM      4  C   UNL     1     150.069 144.462 164.060  1.00  0.00     0.012 C 
ATOM      5  C   UNL     1     149.310 143.394 163.258  1.00  0.00     0.012 C 
ATOM      6  C   UNL     1     149.629 143.476 161.761  1.00  0.00     0.012 C 
ENDROOT
BRANCH   2   7
ATOM      7  C   UNL     1     146.403 145.507 164.562  1.00  0.00     0.012 C 
ATOM      8  C   UNL     1     145.667 146.122 163.364  1.00  0.00     0.012 C 
BRANCH   7   9
ATOM      9  C   UNL     1     145.523 144.582 165.428  1.00  0.00     0.008 CG0
ATOM     10  G   UNL     1     144.887 143.390 164.695  1.00  0.00     0.000 G0
ENDBRANCH   7   9
ENDBRANCH   2   7
BRANCH   1  11
ATOM     11  C   UNL     1     146.756 142.773 163.090  1.00  0.00     0.039 C 
BRANCH  11  12
ATOM     12  C   UNL     1     145.900 142.300 164.282  1.00  0.00     0.018 C 
BRANCH  12  13
ATOM     13  C   UNL     1     144.879 143.368 164.726  1.00  0.00     0.009 CG0
ATOM     14  G   UNL     1     145.518 144.574 165.435  1.00  0.00     0.000 G0
ENDBRANCH  12  13
BRANCH  12  15
ATOM     15  C   UNL     1     145.173 141.009 163.925  1.00  0.00    -0.077 C 
ATOM     16  C   UNL     1     145.160 140.566 162.658  1.00  0.00     0.008 C 
ATOM     17  C   UNL     1     144.463 140.200 164.982  1.00  0.00     0.039 C 
ENDBRANCH  12  15
ENDBRANCH  11  12
ENDBRANCH   1  11
TORSDOF 1
ENDMDL
MODEL 2
REMARK VINA RESULT:    -4.493      3.725      5.615
REMARK INTER + INTRA:          -5.597
REMARK INTER:                  -6.121
REMARK INTRA:                   0.524
REMARK UNBOUND:                 0.472
REMARK SMILES C=C(C)[C@@H]1CC[C@H](C)C2=C(C1)[C@@H](C)CC2
REMARK SMILES IDX 10 1 9 2 15 3 14 4 12 5 13 6 7 7 8 8 6 9 11 11 4 12 5 13
REMARK SMILES IDX 2 15 1 16 3 17
REMARK H PARENT
REMARK Flexibility Score: 80.00
ROOT
ATOM      1  C   UNL     1     148.732 146.026 163.313  1.00  0.00    -0.067 C 
ATOM      2  C   UNL     1     149.143 145.851 162.054  1.00  0.00    -0.068 C 
ATOM      3  C   UNL     1     150.386 145.029 161.989  1.00  0.00     0.032 C 
ATOM      4  C   UNL     1     150.813 144.854 163.446  1.00  0.00     0.012 C 
ATOM      5  C   UNL     1     149.621 145.324 164.292  1.00  0.00     0.012 C 
ATOM      6  C   UNL     1     148.890 144.144 164.944  1.00  0.00     0.012 C 
ENDROOT
BRANCH   2   7
ATOM      7  C   UNL     1     148.484 146.393 160.803  1.00  0.00     0.012 C 
ATOM      8  C   UNL     1     147.195 145.635 160.456  1.00  0.00     0.012 C 
BRANCH   7   9
ATOM      9  C   UNL     1     148.320 147.927 160.826  1.00  0.00     0.008 CG0
ATOM     10  G   UNL     1     147.260 148.468 161.800  1.00  0.00     0.000 G0
ENDBRANCH   7   9
ENDBRANCH   2   7
BRANCH   1  11
ATOM     11  C   UNL     1     147.535 146.836 163.747  1.00  0.00     0.039 C 
BRANCH  11  12
ATOM     12  C   UNL     1     147.625 148.306 163.290  1.00  0.00     0.018 C 
BRANCH  12  13
ATOM     13  C   UNL     1     147.250 148.479 161.804  1.00  0.00     0.009 CG0
ATOM     14  G   UNL     1     148.317 147.946 160.834  1.00  0.00     0.000 G0
ENDBRANCH  12  13
BRANCH  12  15
ATOM     15  C   UNL     1     146.722 149.179 164.155  1.00  0.00    -0.077 C 
ATOM     16  C   UNL     1     147.240 150.186 164.875  1.00  0.00     0.008 C 
ATOM     17  C   UNL     1     145.234 148.938 164.213  1.00  0.00     0.039 C 
ENDBRANCH  12  15
ENDBRANCH  11  12
ENDBRANCH   1  11
TORSDOF 1
ENDMDL
MODEL 3
REMARK VINA RESULT:    -4.491      5.456      6.510
REMARK INTER + INTRA:          -5.595
REMARK INTER:                  -6.080
REMARK INTRA:                   0.486
REMARK UNBOUND:                 0.472
REMARK SMILES C=C(C)[C@@H]1CC[C@H](C)C2=C(C1)[C@@H](C)CC2
REMARK SMILES IDX 10 1 9 2 15 3 14 4 12 5 13 6 7 7 8 8 6 9 11 11 4 12 5 13
REMARK SMILES IDX 2 15 1 16 3 17
REMARK H PARENT
REMARK Flexibility Score: 80.00
ROOT
ATOM      1  C   UNL     1     144.616 148.673 162.871  1.00  0.00    -0.067 C 
ATOM      2  C   UNL     1     144.923 149.034 161.623  1.00  0.00    -0.068 C 
ATOM      3  C   UNL     1     145.849 150.203 161.598  1.00  0.00     0.032 C 
ATOM      4  C   UNL     1     145.945 150.653 163.056  1.00  0.00     0.012 C 
ATOM      5  C   UNL     1     145.312 149.527 163.886  1.00  0.00     0.012 C 
ATOM      6  C   UNL     1     146.370 148.718 164.645  1.00  0.00     0.012 C 
ENDROOT
BRANCH   2   7
ATOM      7  C   UNL     1     144.427 148.389 160.345  1.00  0.00     0.012 C 
ATOM      8  C   UNL     1     145.100 147.034 160.084  1.00  0.00     0.012 C 
BRANCH   7   9
ATOM      9  C   UNL     1     142.888 148.349 160.250  1.00  0.00     0.008 CG0
ATOM     10  G   UNL     1     142.186 147.370 161.205  1.00  0.00     0.000 G0
ENDBRANCH   7   9
ENDBRANCH   2   7
BRANCH   1  11
ATOM     11  C   UNL     1     143.675 147.559 163.262  1.00  0.00     0.039 C 
BRANCH  11  12
ATOM     12  C   UNL     1     142.258 147.759 162.689  1.00  0.00     0.018 C 
BRANCH  12  13
ATOM     13  C   UNL     1     142.170 147.362 161.201  1.00  0.00     0.009 CG0
ATOM     14  G   UNL     1     142.877 148.349 160.258  1.00  0.00     0.000 G0
ENDBRANCH  12  13
BRANCH  12  15
ATOM     15  C   UNL     1     141.248 146.953 163.498  1.00  0.00    -0.077 C 
ATOM     16  C   UNL     1     141.018 147.252 164.787  1.00  0.00     0.008 C 
ATOM     17  C   UNL     1     140.482 145.815 162.872  1.00  0.00     0.039 C 
ENDBRANCH  12  15
ENDBRANCH  11  12
ENDBRANCH   1  11
TORSDOF 1
ENDMDL
MODEL 4
REMARK VINA RESULT:    -4.475      2.846      4.951
REMARK INTER + INTRA:          -5.572
REMARK INTER:                  -6.068
REMARK INTRA:                   0.496
REMARK UNBOUND:                 0.472
REMARK SMILES C=C(C)[C@@H]1CC[C@H](C)C2=C(C1)[C@@H](C)CC2
REMARK SMILES IDX 10 1 9 2 15 3 14 4 12 5 13 6 7 7 8 8 6 9 11 11 4 12 5 13
REMARK SMILES IDX 2 15 1 16 3 17
REMARK H PARENT
REMARK Flexibility Score: 80.00
ROOT
ATOM      1  C   UNL     1     143.544 143.065 163.525  1.00  0.00    -0.067 C 
ATOM      2  C   UNL     1     144.724 143.268 164.115  1.00  0.00    -0.068 C 
ATOM      3  C   UNL     1     145.379 141.983 164.498  1.00  0.00     0.032 C 
ATOM      4  C   UNL     1     144.326 140.912 164.214  1.00  0.00     0.012 C 
ATOM      5  C   UNL     1     143.231 141.606 163.392  1.00  0.00     0.012 C 
ATOM      6  C   UNL     1     143.265 141.173 161.922  1.00  0.00     0.012 C 
ENDROOT
BRANCH   2   7
ATOM      7  C   UNL     1     145.377 144.605 164.399  1.00  0.00     0.012 C 
ATOM      8  C   UNL     1     145.946 145.249 163.128  1.00  0.00     0.012 C 
BRANCH   7   9
ATOM      9  C   UNL     1     144.481 145.547 165.229  1.00  0.00     0.008 CG0
ATOM     10  G   UNL     1     143.273 146.142 164.488  1.00  0.00     0.000 G0
ENDBRANCH   7   9
ENDBRANCH   2   7
BRANCH   1  11
ATOM     11  C   UNL     1     142.598 144.140 163.048  1.00  0.00     0.039 C 
BRANCH  11  12
ATOM     12  C   UNL     1     142.169 145.090 164.184  1.00  0.00     0.018 C 
BRANCH  12  13
ATOM     13  C   UNL     1     143.252 146.142 164.504  1.00  0.00     0.009 CG0
ATOM     14  G   UNL     1     144.473 145.565 165.239  1.00  0.00     0.000 G0
ENDBRANCH  12  13
BRANCH  12  15
ATOM     15  C   UNL     1     140.865 145.789 163.817  1.00  0.00    -0.077 C 
ATOM     16  C   UNL     1     140.085 146.314 164.776  1.00  0.00     0.008 C 
ATOM     17  C   UNL     1     140.427 145.912 162.379  1.00  0.00     0.039 C 
ENDBRANCH  12  15
ENDBRANCH  11  12
ENDBRANCH   1  11
TORSDOF 1
ENDMDL
MODEL 5
REMARK VINA RESULT:    -4.461      2.751      4.889
REMARK INTER + INTRA:          -5.554
REMARK INTER:                  -6.070
REMARK INTRA:                   0.516
REMARK UNBOUND:                 0.472
REMARK SMILES C=C(C)[C@@H]1CC[C@H](C)C2=C(C1)[C@@H](C)CC2
REMARK SMILES IDX 10 1 9 2 15 3 14 4 12 5 13 6 7 7 8 8 6 9 11 11 4 12 5 13
REMARK SMILES IDX 2 15 1 16 3 17
REMARK H PARENT
REMARK Flexibility Score: 80.00
ROOT
ATOM      1  C   UNL     1     146.935 148.002 163.300  1.00  0.00    -0.067 C 
ATOM      2  C   UNL     1     145.756 147.790 163.889  1.00  0.00    -0.068 C 
ATOM      3  C   UNL     1     145.042 149.070 164.169  1.00  0.00     0.032 C 
ATOM      4  C   UNL     1     146.052 150.163 163.822  1.00  0.00     0.012 C 
ATOM      5  C   UNL     1     147.188 149.459 163.065  1.00  0.00     0.012 C 
ATOM      6  C   UNL     1     147.157 149.784 161.567  1.00  0.00     0.012 C 
ENDROOT
BRANCH   2   7
ATOM      7  C   UNL     1     145.156 146.450 164.261  1.00  0.00     0.012 C 
ATOM      8  C   UNL     1     144.640 145.689 163.032  1.00  0.00     0.012 C 
BRANCH   7   9
ATOM      9  C   UNL     1     146.076 145.613 165.173  1.00  0.00     0.008 CG0
ATOM     10  G   UNL     1     147.323 145.020 164.498  1.00  0.00     0.000 G0
ENDBRANCH   7   9
ENDBRANCH   2   7
BRANCH   1  11
ATOM     11  C   UNL     1     147.933 146.937 162.913  1.00  0.00     0.039 C 
BRANCH  11  12
ATOM     12  C   UNL     1     148.385 146.091 164.120  1.00  0.00     0.018 C 
BRANCH  12  13
ATOM     13  C   UNL     1     147.335 145.033 164.517  1.00  0.00     0.009 CG0
ATOM     14  G   UNL     1     146.076 145.628 165.168  1.00  0.00     0.000 G0
ENDBRANCH  12  13
BRANCH  12  15
ATOM     15  C   UNL     1     149.714 145.409 163.813  1.00  0.00    -0.077 C 
ATOM     16  C   UNL     1     150.138 145.293 162.545  1.00  0.00     0.008 C 
ATOM     17  C   UNL     1     150.580 144.862 164.920  1.00  0.00     0.039 C 
ENDBRANCH  12  15
ENDBRANCH  11  12
ENDBRANCH   1  11
TORSDOF 1
ENDMDL
MODEL 6
REMARK VINA RESULT:    -4.432      2.181      5.116
REMARK INTER + INTRA:          -5.514
REMARK INTER:                  -6.036
REMARK INTRA:                   0.522
REMARK UNBOUND:                 0.472
REMARK SMILES C=C(C)[C@@H]1CC[C@H](C)C2=C(C1)[C@@H](C)CC2
REMARK SMILES IDX 10 1 9 2 15 3 14 4 12 5 13 6 7 7 8 8 6 9 11 11 4 12 5 13
REMARK SMILES IDX 2 15 1 16 3 17
REMARK H PARENT
REMARK Flexibility Score: 80.00
ROOT
ATOM      1  C   UNL     1     146.132 142.129 163.160  1.00  0.00    -0.067 C 
ATOM      2  C   UNL     1     145.979 141.833 161.867  1.00  0.00    -0.068 C 
ATOM      3  C   UNL     1     145.168 140.595 161.677  1.00  0.00     0.032 C 
ATOM      4  C   UNL     1     144.975 140.037 163.086  1.00  0.00     0.012 C 
ATOM      5  C   UNL     1     145.423 141.150 164.044  1.00  0.00     0.012 C 
ATOM      6  C   UNL     1     144.229 141.812 164.742  1.00  0.00     0.012 C 
ENDROOT
BRANCH   2   7
ATOM      7  C   UNL     1     146.533 142.606 160.688  1.00  0.00     0.012 C 
ATOM      8  C   UNL     1     145.776 143.920 160.453  1.00  0.00     0.012 C 
BRANCH   7   9
ATOM      9  C   UNL     1     148.066 142.771 160.745  1.00  0.00     0.008 CG0
ATOM     10  G   UNL     1     148.594 143.726 161.829  1.00  0.00     0.000 G0
ENDBRANCH   7   9
ENDBRANCH   2   7
BRANCH   1  11
ATOM     11  C   UNL     1     146.927 143.288 163.712  1.00  0.00     0.039 C 
BRANCH  11  12
ATOM     12  C   UNL     1     148.405 143.245 163.277  1.00  0.00     0.018 C 
BRANCH  12  13
ATOM     13  C   UNL     1     148.600 143.740 161.828  1.00  0.00     0.009 CG0
ATOM     14  G   UNL     1     148.067 142.763 160.768  1.00  0.00     0.000 G0
ENDBRANCH  12  13
BRANCH  12  15
ATOM     15  C   UNL     1     149.254 144.083 164.226  1.00  0.00    -0.077 C 
ATOM     16  C   UNL     1     148.915 145.353 164.497  1.00  0.00     0.008 C 
ATOM     17  C   UNL     1     150.482 143.505 164.885  1.00  0.00     0.039 C 
ENDBRANCH  12  15
ENDBRANCH  11  12
ENDBRANCH   1  11
TORSDOF 1
ENDMDL
MODEL 7
REMARK VINA RESULT:    -4.422      2.206      3.383
REMARK INTER + INTRA:          -5.501
REMARK INTER:                  -6.031
REMARK INTRA:                   0.530
REMARK UNBOUND:                 0.472
REMARK SMILES C=C(C)[C@@H]1CC[C@H](C)C2=C(C1)[C@@H](C)CC2
REMARK SMILES IDX 10 1 9 2 15 3 14 4 12 5 13 6 7 7 8 8 6 9 11 11 4 12 5 13
REMARK SMILES IDX 2 15 1 16 3 17
REMARK H PARENT
REMARK Flexibility Score: 80.00
ROOT
ATOM      1  C   UNL     1     149.060 143.567 163.456  1.00  0.00    -0.067 C 
ATOM      2  C   UNL     1     149.665 144.225 162.464  1.00  0.00    -0.068 C 
ATOM      3  C   UNL     1     150.842 145.000 162.954  1.00  0.00     0.032 C 
ATOM      4  C   UNL     1     150.784 144.874 164.476  1.00  0.00     0.012 C 
ATOM      5  C   UNL     1     149.752 143.774 164.767  1.00  0.00     0.012 C 
ATOM      6  C   UNL     1     150.423 142.479 165.240  1.00  0.00     0.012 C 
ENDROOT
BRANCH   2   7
ATOM      7  C   UNL     1     149.262 144.235 161.004  1.00  0.00     0.012 C 
ATOM      8  C   UNL     1     149.611 142.916 160.301  1.00  0.00     0.012 C 
BRANCH   7   9
ATOM      9  C   UNL     1     147.805 144.691 160.786  1.00  0.00     0.008 CG0
ATOM     10  G   UNL     1     146.721 143.695 161.231  1.00  0.00     0.000 G0
ENDBRANCH   7   9
ENDBRANCH   2   7
BRANCH   1  11
ATOM     11  C   UNL     1     147.818 142.719 163.324  1.00  0.00     0.039 C 
BRANCH  11  12
ATOM     12  C   UNL     1     146.624 143.512 162.756  1.00  0.00     0.018 C 
BRANCH  12  13
ATOM     13  C   UNL     1     146.716 143.688 161.226  1.00  0.00     0.009 CG0
ATOM     14  G   UNL     1     147.788 144.699 160.786  1.00  0.00     0.000 G0
ENDBRANCH  12  13
BRANCH  12  15
ATOM     15  C   UNL     1     145.315 142.818 163.117  1.00  0.00    -0.077 C 
ATOM     16  C   UNL     1     144.818 141.856 162.325  1.00  0.00     0.008 C 
ATOM     17  C   UNL     1     144.560 143.188 164.369  1.00  0.00     0.039 C 
ENDBRANCH  12  15
ENDBRANCH  11  12
ENDBRANCH   1  11
TORSDOF 1
ENDMDL
MODEL 8
REMARK VINA RESULT:    -4.327      4.765      7.287
REMARK INTER + INTRA:          -5.372
REMARK INTER:                  -5.881
REMARK INTRA:                   0.509
REMARK UNBOUND:                 0.472
REMARK SMILES C=C(C)[C@@H]1CC[C@H](C)C2=C(C1)[C@@H](C)CC2
REMARK SMILES IDX 10 1 9 2 15 3 14 4 12 5 13 6 7 7 8 8 6 9 11 11 4 12 5 13
REMARK SMILES IDX 2 15 1 16 3 17
REMARK H PARENT
REMARK Flexibility Score: 80.00
ROOT
ATOM      1  C   UNL     1     141.897 147.150 163.498  1.00  0.00    -0.067 C 
ATOM      2  C   UNL     1     141.361 146.560 162.427  1.00  0.00    -0.068 C 
ATOM      3  C   UNL     1     140.151 145.764 162.783  1.00  0.00     0.032 C 
ATOM      4  C   UNL     1     140.103 145.793 164.310  1.00  0.00     0.012 C 
ATOM      5  C   UNL     1     141.114 146.865 164.742  1.00  0.00     0.012 C 
ATOM      6  C   UNL     1     140.415 148.132 165.248  1.00  0.00     0.012 C 
ENDROOT
BRANCH   2   7
ATOM      7  C   UNL     1     141.866 146.639 161.000  1.00  0.00     0.012 C 
ATOM      8  C   UNL     1     141.567 148.001 160.359  1.00  0.00     0.012 C 
BRANCH   7   9
ATOM      9  C   UNL     1     143.334 146.190 160.857  1.00  0.00     0.008 CG0
ATOM     10  G   UNL     1     144.384 147.144 161.451  1.00  0.00     0.000 G0
ENDBRANCH   7   9
ENDBRANCH   2   7
BRANCH   1  11
ATOM     11  C   UNL     1     143.148 147.996 163.507  1.00  0.00     0.039 C 
BRANCH  11  12
ATOM     12  C   UNL     1     144.378 147.230 162.980  1.00  0.00     0.018 C 
BRANCH  12  13
ATOM     13  C   UNL     1     144.400 147.153 161.439  1.00  0.00     0.009 CG0
ATOM     14  G   UNL     1     143.343 146.201 160.855  1.00  0.00     0.000 G0
ENDBRANCH  12  13
BRANCH  12  15
ATOM     15  C   UNL     1     145.658 147.888 163.481  1.00  0.00    -0.077 C 
ATOM     16  C   UNL     1     146.267 147.431 164.588  1.00  0.00     0.008 C 
ATOM     17  C   UNL     1     146.272 149.053 162.747  1.00  0.00     0.039 C 
ENDBRANCH  12  15
ENDBRANCH  11  12
ENDBRANCH   1  11
TORSDOF 1
ENDMDL
MODEL 9
REMARK VINA RESULT:    -4.325      3.971      5.693
REMARK INTER + INTRA:          -5.369
REMARK INTER:                  -5.875
REMARK INTRA:                   0.505
REMARK UNBOUND:                 0.472
REMARK SMILES C=C(C)[C@@H]1CC[C@H](C)C2=C(C1)[C@@H](C)CC2
REMARK SMILES IDX 10 1 9 2 15 3 14 4 12 5 13 6 7 7 8 8 6 9 11 11 4 12 5 13
REMARK SMILES IDX 2 15 1 16 3 17
REMARK H PARENT
REMARK Flexibility Score: 80.00
ROOT
ATOM      1  C   UNL     1     143.650 141.906 163.218  1.00  0.00    -0.067 C 
ATOM      2  C   UNL     1     144.200 141.361 162.130  1.00  0.00    -0.068 C 
ATOM      3  C   UNL     1     145.004 140.150 162.465  1.00  0.00     0.032 C 
ATOM      4  C   UNL     1     145.028 140.110 163.993  1.00  0.00     0.012 C 
ATOM      5  C   UNL     1     143.976 141.128 164.456  1.00  0.00     0.012 C 
ATOM      6  C   UNL     1     142.724 140.437 165.010  1.00  0.00     0.012 C 
ENDROOT
BRANCH   2   7
ATOM      7  C   UNL     1     144.072 141.858 160.704  1.00  0.00     0.012 C 
ATOM      8  C   UNL     1     142.690 141.556 160.111  1.00  0.00     0.012 C 
BRANCH   7   9
ATOM      9  C   UNL     1     144.516 143.326 160.538  1.00  0.00     0.008 CG0
ATOM     10  G   UNL     1     143.564 144.381 161.126  1.00  0.00     0.000 G0
ENDBRANCH   7   9
ENDBRANCH   2   7
BRANCH   1  11
ATOM     11  C   UNL     1     142.810 143.159 163.250  1.00  0.00     0.039 C 
BRANCH  11  12
ATOM     12  C   UNL     1     143.558 144.382 162.681  1.00  0.00     0.018 C 
BRANCH  12  13
ATOM     13  C   UNL     1     143.584 144.384 161.139  1.00  0.00     0.009 CG0
ATOM     14  G   UNL     1     144.518 143.321 160.537  1.00  0.00     0.000 G0
ENDBRANCH  12  13
BRANCH  12  15
ATOM     15  C   UNL     1     142.918 145.669 163.188  1.00  0.00    -0.077 C 
ATOM     16  C   UNL     1     142.526 145.774 164.467  1.00  0.00     0.008 C 
ATOM     17  C   UNL     1     142.719 146.850 162.271  1.00  0.00     0.039 C 
ENDBRANCH  12  15
ENDBRANCH  11  12
ENDBRANCH   1  11
TORSDOF 1
ENDMDL
