MODEL 1
REMARK VINA RESULT:    -4.970      0.000      0.000
REMARK INTER + INTRA:          -5.296
REMARK INTER:                  -5.261
REMARK INTRA:                  -0.036
REMARK UNBOUND:                -0.036
REMARK SMILES COc1ccc2ccc(=O)oc2c1
REMARK SMILES IDX 3 1 13 2 12 3 6 4 5 5 4 6 7 7 8 8 9 9 10 10 11 11 2 12 1 13
REMARK H PARENT
REMARK Flexibility Score: inf
ROOT
ATOM      1  C   UNL     1      20.992   0.031 -21.032  1.00  0.00     0.122 A 
ATOM      2  C   UNL     1      21.336   0.655 -19.816  1.00  0.00     0.094 A 
ATOM      3  C   UNL     1      20.576   0.424 -18.664  1.00  0.00     0.142 A 
ATOM      4  C   UNL     1      19.459  -0.438 -18.721  1.00  0.00     0.018 A 
ATOM      5  C   UNL     1      19.116  -1.058 -19.929  1.00  0.00     0.016 A 
ATOM      6  C   UNL     1      19.881  -0.823 -21.075  1.00  0.00     0.047 A 
ATOM      7  C   UNL     1      18.719  -0.648 -17.554  1.00  0.00     0.019 A 
ATOM      8  C   UNL     1      19.101  -0.007 -16.376  1.00  0.00     0.094 A 
ATOM      9  C   UNL     1      20.220   0.833 -16.394  1.00  0.00     0.336 A 
ATOM     10  O   UNL     1      20.581   1.420 -15.341  1.00  0.00    -0.246 OA
ATOM     11  O   UNL     1      20.907   1.016 -17.520  1.00  0.00    -0.423 OA
ENDROOT
BRANCH   1  12
ATOM     12  O   UNL     1      21.723   0.230 -22.212  1.00  0.00    -0.497 OA
ATOM     13  C   UNL     1      22.116   1.506 -22.709  1.00  0.00     0.278 C 
ENDBRANCH   1  12
TORSDOF 1
ENDMDL
MODEL 2
REMARK VINA RESULT:    -4.959     15.356     17.439
REMARK INTER + INTRA:          -5.285
REMARK INTER:                  -5.250
REMARK INTRA:                  -0.035
REMARK UNBOUND:                -0.036
REMARK SMILES COc1ccc2ccc(=O)oc2c1
REMARK SMILES IDX 3 1 13 2 12 3 6 4 5 5 4 6 7 7 8 8 9 9 10 10 11 11 2 12 1 13
REMARK H PARENT
REMARK Flexibility Score: inf
ROOT
ATOM      1  C   UNL     1       8.227  -5.679 -10.593  1.00  0.00     0.122 A 
ATOM      2  C   UNL     1       8.201  -5.025  -9.345  1.00  0.00     0.094 A 
ATOM      3  C   UNL     1       8.066  -5.763  -8.164  1.00  0.00     0.142 A 
ATOM      4  C   UNL     1       7.956  -7.169  -8.224  1.00  0.00     0.018 A 
ATOM      5  C   UNL     1       7.983  -7.820  -9.464  1.00  0.00     0.016 A 
ATOM      6  C   UNL     1       8.118  -7.076 -10.639  1.00  0.00     0.047 A 
ATOM      7  C   UNL     1       7.823  -7.879  -7.026  1.00  0.00     0.019 A 
ATOM      8  C   UNL     1       7.802  -7.185  -5.818  1.00  0.00     0.094 A 
ATOM      9  C   UNL     1       7.916  -5.791  -5.834  1.00  0.00     0.336 A 
ATOM     10  O   UNL     1       7.900  -5.146  -4.754  1.00  0.00    -0.246 OA
ATOM     11  O   UNL     1       8.042  -5.139  -6.989  1.00  0.00    -0.423 OA
ENDROOT
BRANCH   1  12
ATOM     12  O   UNL     1       8.360  -4.983 -11.803  1.00  0.00    -0.497 OA
ATOM     13  C   UNL     1       7.525  -3.902 -12.206  1.00  0.00     0.278 C 
ENDBRANCH   1  12
TORSDOF 1
ENDMDL
MODEL 3
REMARK VINA RESULT:    -4.937     14.212     16.987
REMARK INTER + INTRA:          -5.261
REMARK INTER:                  -5.227
REMARK INTRA:                  -0.034
REMARK UNBOUND:                -0.036
REMARK SMILES COc1ccc2ccc(=O)oc2c1
REMARK SMILES IDX 3 1 13 2 12 3 6 4 5 5 4 6 7 7 8 8 9 9 10 10 11 11 2 12 1 13
REMARK H PARENT
REMARK Flexibility Score: inf
ROOT
ATOM      1  C   UNL     1       8.226  -5.869  -6.694  1.00  0.00     0.122 A 
ATOM      2  C   UNL     1       9.575  -6.031  -7.070  1.00  0.00     0.094 A 
ATOM      3  C   UNL     1       9.970  -5.804  -8.392  1.00  0.00     0.142 A 
ATOM      4  C   UNL     1       9.014  -5.410  -9.354  1.00  0.00     0.018 A 
ATOM      5  C   UNL     1       7.674  -5.248  -8.980  1.00  0.00     0.016 A 
ATOM      6  C   UNL     1       7.286  -5.478  -7.658  1.00  0.00     0.047 A 
ATOM      7  C   UNL     1       9.441  -5.190 -10.667  1.00  0.00     0.019 A 
ATOM      8  C   UNL     1      10.786  -5.364 -10.988  1.00  0.00     0.094 A 
ATOM      9  C   UNL     1      11.678  -5.755  -9.984  1.00  0.00     0.336 A 
ATOM     10  O   UNL     1      12.896  -5.917 -10.253  1.00  0.00    -0.246 OA
ATOM     11  O   UNL     1      11.245  -5.958  -8.741  1.00  0.00    -0.423 OA
ENDROOT
BRANCH   1  12
ATOM     12  O   UNL     1       7.781  -6.085  -5.381  1.00  0.00    -0.497 OA
ATOM     13  C   UNL     1       8.150  -5.283  -4.264  1.00  0.00     0.278 C 
ENDBRANCH   1  12
TORSDOF 1
ENDMDL
MODEL 4
REMARK VINA RESULT:    -4.935     13.841     16.012
REMARK INTER + INTRA:          -5.259
REMARK INTER:                  -5.226
REMARK INTRA:                  -0.034
REMARK UNBOUND:                -0.036
REMARK SMILES COc1ccc2ccc(=O)oc2c1
REMARK SMILES IDX 3 1 13 2 12 3 6 4 5 5 4 6 7 7 8 8 9 9 10 10 11 11 2 12 1 13
REMARK H PARENT
REMARK Flexibility Score: inf
ROOT
ATOM      1  C   UNL     1      11.446  -5.886  -9.958  1.00  0.00     0.122 A 
ATOM      2  C   UNL     1      11.045  -6.129  -8.629  1.00  0.00     0.094 A 
ATOM      3  C   UNL     1       9.725  -5.887  -8.235  1.00  0.00     0.142 A 
ATOM      4  C   UNL     1       8.790  -5.397  -9.174  1.00  0.00     0.018 A 
ATOM      5  C   UNL     1       9.189  -5.156 -10.495  1.00  0.00     0.016 A 
ATOM      6  C   UNL     1      10.509  -5.400 -10.881  1.00  0.00     0.047 A 
ATOM      7  C   UNL     1       7.478  -5.165  -8.751  1.00  0.00     0.019 A 
ATOM      8  C   UNL     1       7.132  -5.422  -7.425  1.00  0.00     0.094 A 
ATOM      9  C   UNL     1       8.110  -5.907  -6.550  1.00  0.00     0.336 A 
ATOM     10  O   UNL     1       7.817  -6.144  -5.349  1.00  0.00    -0.246 OA
ATOM     11  O   UNL     1       9.352  -6.118  -6.980  1.00  0.00    -0.423 OA
ENDROOT
BRANCH   1  12
ATOM     12  O   UNL     1      12.758  -6.113 -10.400  1.00  0.00    -0.497 OA
ATOM     13  C   UNL     1      13.558  -5.149 -11.077  1.00  0.00     0.278 C 
ENDBRANCH   1  12
TORSDOF 1
ENDMDL
MODEL 5
REMARK VINA RESULT:    -4.878     15.538     17.770
REMARK INTER + INTRA:          -5.199
REMARK INTER:                  -5.163
REMARK INTRA:                  -0.037
REMARK UNBOUND:                -0.036
REMARK SMILES COc1ccc2ccc(=O)oc2c1
REMARK SMILES IDX 3 1 13 2 12 3 6 4 5 5 4 6 7 7 8 8 9 9 10 10 11 11 2 12 1 13
REMARK H PARENT
REMARK Flexibility Score: inf
ROOT
ATOM      1  C   UNL     1       7.874  -6.489  -6.889  1.00  0.00     0.122 A 
ATOM      2  C   UNL     1       7.774  -5.429  -7.813  1.00  0.00     0.094 A 
ATOM      3  C   UNL     1       7.901  -5.674  -9.184  1.00  0.00     0.142 A 
ATOM      4  C   UNL     1       8.129  -6.989  -9.645  1.00  0.00     0.018 A 
ATOM      5  C   UNL     1       8.228  -8.043  -8.727  1.00  0.00     0.016 A 
ATOM      6  C   UNL     1       8.101  -7.790  -7.359  1.00  0.00     0.047 A 
ATOM      7  C   UNL     1       8.251  -7.202 -11.021  1.00  0.00     0.019 A 
ATOM      8  C   UNL     1       8.145  -6.120 -11.893  1.00  0.00     0.094 A 
ATOM      9  C   UNL     1       7.917  -4.844 -11.366  1.00  0.00     0.336 A 
ATOM     10  O   UNL     1       7.818  -3.854 -12.136  1.00  0.00    -0.246 OA
ATOM     11  O   UNL     1       7.805  -4.669 -10.051  1.00  0.00    -0.423 OA
ENDROOT
BRANCH   1  12
ATOM     12  O   UNL     1       7.754  -6.294  -5.505  1.00  0.00    -0.497 OA
ATOM     13  C   UNL     1       8.272  -5.168  -4.804  1.00  0.00     0.278 C 
ENDBRANCH   1  12
TORSDOF 1
ENDMDL
MODEL 6
REMARK VINA RESULT:    -4.858      1.034      4.739
REMARK INTER + INTRA:          -5.177
REMARK INTER:                  -5.141
REMARK INTRA:                  -0.037
REMARK UNBOUND:                -0.036
REMARK SMILES COc1ccc2ccc(=O)oc2c1
REMARK SMILES IDX 3 1 13 2 12 3 6 4 5 5 4 6 7 7 8 8 9 9 10 10 11 11 2 12 1 13
REMARK H PARENT
REMARK Flexibility Score: inf
ROOT
ATOM      1  C   UNL     1      20.543   0.660 -17.098  1.00  0.00     0.122 A 
ATOM      2  C   UNL     1      21.300   1.050 -18.221  1.00  0.00     0.094 A 
ATOM      3  C   UNL     1      21.048   0.481 -19.474  1.00  0.00     0.142 A 
ATOM      4  C   UNL     1      20.031  -0.487 -19.614  1.00  0.00     0.018 A 
ATOM      5  C   UNL     1      19.277  -0.875 -18.498  1.00  0.00     0.016 A 
ATOM      6  C   UNL     1      19.535  -0.302 -17.250  1.00  0.00     0.047 A 
ATOM      7  C   UNL     1      19.802  -1.037 -20.879  1.00  0.00     0.019 A 
ATOM      8  C   UNL     1      20.579  -0.617 -21.958  1.00  0.00     0.094 A 
ATOM      9  C   UNL     1      21.570   0.347 -21.745  1.00  0.00     0.336 A 
ATOM     10  O   UNL     1      22.282   0.739 -22.706  1.00  0.00    -0.246 OA
ATOM     11  O   UNL     1      21.766   0.854 -20.530  1.00  0.00    -0.423 OA
ENDROOT
BRANCH   1  12
ATOM     12  O   UNL     1      20.758   1.201 -15.822  1.00  0.00    -0.497 OA
ATOM     13  C   UNL     1      19.728   1.464 -14.875  1.00  0.00     0.278 C 
ENDBRANCH   1  12
TORSDOF 1
ENDMDL
MODEL 7
REMARK VINA RESULT:    -4.760      2.133      3.066
REMARK INTER + INTRA:          -5.074
REMARK INTER:                  -5.039
REMARK INTRA:                  -0.034
REMARK UNBOUND:                -0.036
REMARK SMILES COc1ccc2ccc(=O)oc2c1
REMARK SMILES IDX 3 1 13 2 12 3 6 4 5 5 4 6 7 7 8 8 9 9 10 10 11 11 2 12 1 13
REMARK H PARENT
REMARK Flexibility Score: inf
ROOT
ATOM      1  C   UNL     1      20.023  -0.900 -19.201  1.00  0.00     0.122 A 
ATOM      2  C   UNL     1      18.859  -1.113 -18.435  1.00  0.00     0.094 A 
ATOM      3  C   UNL     1      18.681  -0.442 -17.221  1.00  0.00     0.142 A 
ATOM      4  C   UNL     1      19.672   0.454 -16.762  1.00  0.00     0.018 A 
ATOM      5  C   UNL     1      20.828   0.666 -17.523  1.00  0.00     0.016 A 
ATOM      6  C   UNL     1      20.998  -0.008 -18.735  1.00  0.00     0.047 A 
ATOM      7  C   UNL     1      19.465   1.110 -15.544  1.00  0.00     0.019 A 
ATOM      8  C   UNL     1      18.297   0.864 -14.824  1.00  0.00     0.094 A 
ATOM      9  C   UNL     1      17.358  -0.036 -15.340  1.00  0.00     0.336 A 
ATOM     10  O   UNL     1      16.298  -0.271 -14.706  1.00  0.00    -0.246 OA
ATOM     11  O   UNL     1      17.581  -0.647 -16.502  1.00  0.00    -0.423 OA
ENDROOT
BRANCH   1  12
ATOM     12  O   UNL     1      20.246  -1.550 -20.424  1.00  0.00    -0.497 OA
ATOM     13  C   UNL     1      20.642  -0.893 -21.624  1.00  0.00     0.278 C 
ENDBRANCH   1  12
TORSDOF 1
ENDMDL
MODEL 8
REMARK VINA RESULT:    -4.759     14.730     16.874
REMARK INTER + INTRA:          -5.073
REMARK INTER:                  -5.034
REMARK INTRA:                  -0.039
REMARK UNBOUND:                -0.036
REMARK SMILES COc1ccc2ccc(=O)oc2c1
REMARK SMILES IDX 3 1 13 2 12 3 6 4 5 5 4 6 7 7 8 8 9 9 10 10 11 11 2 12 1 13
REMARK H PARENT
REMARK Flexibility Score: inf
ROOT
ATOM      1  C   UNL     1      11.230  -7.018  -9.583  1.00  0.00     0.122 A 
ATOM      2  C   UNL     1      10.693  -6.114  -8.643  1.00  0.00     0.094 A 
ATOM      3  C   UNL     1       9.733  -6.544  -7.721  1.00  0.00     0.142 A 
ATOM      4  C   UNL     1       9.301  -7.888  -7.732  1.00  0.00     0.018 A 
ATOM      5  C   UNL     1       9.834  -8.786  -8.666  1.00  0.00     0.016 A 
ATOM      6  C   UNL     1      10.793  -8.349  -9.584  1.00  0.00     0.047 A 
ATOM      7  C   UNL     1       8.340  -8.288  -6.798  1.00  0.00     0.019 A 
ATOM      8  C   UNL     1       7.840  -7.356  -5.889  1.00  0.00     0.094 A 
ATOM      9  C   UNL     1       8.315  -6.041  -5.936  1.00  0.00     0.336 A 
ATOM     10  O   UNL     1       7.877  -5.185  -5.125  1.00  0.00    -0.246 OA
ATOM     11  O   UNL     1       9.230  -5.687  -6.836  1.00  0.00    -0.423 OA
ENDROOT
BRANCH   1  12
ATOM     12  O   UNL     1      12.194  -6.634 -10.527  1.00  0.00    -0.497 OA
ATOM     13  C   UNL     1      12.923  -5.412 -10.482  1.00  0.00     0.278 C 
ENDBRANCH   1  12
TORSDOF 1
ENDMDL
MODEL 9
REMARK VINA RESULT:    -4.600      7.807      8.922
REMARK INTER + INTRA:          -4.904
REMARK INTER:                  -4.871
REMARK INTRA:                  -0.033
REMARK UNBOUND:                -0.036
REMARK SMILES COc1ccc2ccc(=O)oc2c1
REMARK SMILES IDX 3 1 13 2 12 3 6 4 5 5 4 6 7 7 8 8 9 9 10 10 11 11 2 12 1 13
REMARK H PARENT
REMARK Flexibility Score: inf
ROOT
ATOM      1  C   UNL     1      21.160   8.599 -19.322  1.00  0.00     0.122 A 
ATOM      2  C   UNL     1      21.629   8.153 -20.574  1.00  0.00     0.094 A 
ATOM      3  C   UNL     1      22.790   7.376 -20.656  1.00  0.00     0.142 A 
ATOM      4  C   UNL     1      23.492   7.037 -19.479  1.00  0.00     0.018 A 
ATOM      5  C   UNL     1      23.026   7.480 -18.235  1.00  0.00     0.016 A 
ATOM      6  C   UNL     1      21.866   8.256 -18.161  1.00  0.00     0.047 A 
ATOM      7  C   UNL     1      24.649   6.259 -19.593  1.00  0.00     0.019 A 
ATOM      8  C   UNL     1      25.072   5.843 -20.855  1.00  0.00     0.094 A 
ATOM      9  C   UNL     1      24.325   6.215 -21.978  1.00  0.00     0.336 A 
ATOM     10  O   UNL     1      24.690   5.850 -23.125  1.00  0.00    -0.246 OA
ATOM     11  O   UNL     1      23.228   6.957 -21.840  1.00  0.00    -0.423 OA
ENDROOT
BRANCH   1  12
ATOM     12  O   UNL     1      20.002   9.380 -19.189  1.00  0.00    -0.497 OA
ATOM     13  C   UNL     1      18.695   8.853 -18.985  1.00  0.00     0.278 C 
ENDBRANCH   1  12
TORSDOF 1
ENDMDL
