MODEL 1
REMARK VINA RESULT:    -4.242      0.000      0.000
REMARK INTER + INTRA:          -7.195
REMARK INTER:                  -6.474
REMARK INTRA:                  -0.721
REMARK UNBOUND:                -0.721
REMARK SMILES CCCCCCCCCCC(=O)[O-]
REMARK SMILES IDX 7 1 8 2 9 3 10 4 11 5 12 6 13 7 6 8 5 9 4 10 3 11 2 12 1 13
REMARK H PARENT
REMARK Flexibility Score: inf
ROOT
ATOM      1  C   UNL     1       7.240  -6.359 -23.462  1.00  0.00     0.000 C 
ENDROOT
BRANCH   1   2
ATOM      2  C   UNL     1       7.465  -5.358 -22.319  1.00  0.00     0.000 C 
BRANCH   2   3
ATOM      3  C   UNL     1       8.277  -4.129 -22.758  1.00  0.00     0.006 C 
BRANCH   3   4
ATOM      4  C   UNL     1       9.778  -4.282 -22.480  1.00  0.00     0.053 C 
BRANCH   4   5
ATOM      5  C   UNL     1      10.575  -3.498 -23.474  1.00  0.00     0.041 C 
ATOM      6  O   UNL     1      10.183  -3.403 -24.667  1.00  0.00    -0.550 OA
ATOM      7  O   UNL     1      11.725  -2.831 -23.073  1.00  0.00    -0.550 OA
ENDBRANCH   4   5
ENDBRANCH   3   4
ENDBRANCH   2   3
ENDBRANCH   1   2
BRANCH   1   8
ATOM      8  C   UNL     1       7.483  -5.695 -24.826  1.00  0.00     0.000 C 
BRANCH   8   9
ATOM      9  C   UNL     1       6.277  -5.821 -25.772  1.00  0.00    -0.000 C 
BRANCH   9  10
ATOM     10  C   UNL     1       5.868  -4.478 -26.393  1.00  0.00    -0.000 C 
BRANCH  10  11
ATOM     11  C   UNL     1       6.066  -3.329 -25.394  1.00  0.00    -0.000 C 
BRANCH  11  12
ATOM     12  C   UNL     1       4.825  -2.429 -25.276  1.00  0.00    -0.003 C 
ATOM     13  C   UNL     1       3.776  -2.723 -26.347  1.00  0.00     0.004 C 
ENDBRANCH  11  12
ENDBRANCH  10  11
ENDBRANCH   9  10
ENDBRANCH   8   9
ENDBRANCH   1   8
TORSDOF 9
ENDMDL
MODEL 2
REMARK VINA RESULT:    -4.170     11.259     13.038
REMARK INTER + INTRA:          -7.085
REMARK INTER:                  -6.012
REMARK INTRA:                  -1.073
REMARK UNBOUND:                -0.721
REMARK SMILES CCCCCCCCCCC(=O)[O-]
REMARK SMILES IDX 7 1 8 2 9 3 10 4 11 5 12 6 13 7 6 8 5 9 4 10 3 11 2 12 1 13
REMARK H PARENT
REMARK Flexibility Score: inf
ROOT
ATOM      1  C   UNL     1      17.148  -2.434 -17.550  1.00  0.00     0.000 C 
ENDROOT
BRANCH   1   2
ATOM      2  C   UNL     1      18.543  -2.835 -18.050  1.00  0.00     0.000 C 
BRANCH   2   3
ATOM      3  C   UNL     1      18.628  -2.897 -19.584  1.00  0.00     0.006 C 
BRANCH   3   4
ATOM      4  C   UNL     1      19.935  -2.303 -20.128  1.00  0.00     0.053 C 
BRANCH   4   5
ATOM      5  C   UNL     1      20.843  -3.391 -20.604  1.00  0.00     0.041 C 
ATOM      6  O   UNL     1      21.058  -3.543 -21.836  1.00  0.00    -0.550 OA
ATOM      7  O   UNL     1      21.493  -4.207 -19.687  1.00  0.00    -0.550 OA
ENDBRANCH   4   5
ENDBRANCH   3   4
ENDBRANCH   2   3
ENDBRANCH   1   2
BRANCH   1   8
ATOM      8  C   UNL     1      16.472  -3.603 -16.817  1.00  0.00     0.000 C 
BRANCH   8   9
ATOM      9  C   UNL     1      15.931  -4.674 -17.778  1.00  0.00    -0.000 C 
BRANCH   9  10
ATOM     10  C   UNL     1      16.636  -6.028 -17.614  1.00  0.00    -0.000 C 
BRANCH  10  11
ATOM     11  C   UNL     1      17.525  -6.036 -16.362  1.00  0.00    -0.000 C 
BRANCH  11  12
ATOM     12  C   UNL     1      18.994  -6.353 -16.682  1.00  0.00    -0.003 C 
ATOM     13  C   UNL     1      19.253  -6.511 -18.180  1.00  0.00     0.004 C 
ENDBRANCH  11  12
ENDBRANCH  10  11
ENDBRANCH   9  10
ENDBRANCH   8   9
ENDBRANCH   1   8
TORSDOF 9
ENDMDL
MODEL 3
REMARK VINA RESULT:    -4.156      2.383      3.359
REMARK INTER + INTRA:          -7.063
REMARK INTER:                  -6.244
REMARK INTRA:                  -0.819
REMARK UNBOUND:                -0.721
REMARK SMILES CCCCCCCCCCC(=O)[O-]
REMARK SMILES IDX 7 1 8 2 9 3 10 4 11 5 12 6 13 7 6 8 5 9 4 10 3 11 2 12 1 13
REMARK H PARENT
REMARK Flexibility Score: inf
ROOT
ATOM      1  C   UNL     1       9.079  -4.105 -25.131  1.00  0.00     0.000 C 
ENDROOT
BRANCH   1   2
ATOM      2  C   UNL     1       9.911  -3.600 -23.944  1.00  0.00     0.000 C 
BRANCH   2   3
ATOM      3  C   UNL     1       9.615  -4.365 -22.643  1.00  0.00     0.006 C 
BRANCH   3   4
ATOM      4  C   UNL     1       8.118  -4.406 -22.309  1.00  0.00     0.053 C 
BRANCH   4   5
ATOM      5  C   UNL     1       7.670  -5.816 -22.090  1.00  0.00     0.041 C 
ATOM      6  O   UNL     1       8.156  -6.749 -22.783  1.00  0.00    -0.550 OA
ATOM      7  O   UNL     1       6.753  -6.108 -21.089  1.00  0.00    -0.550 OA
ENDBRANCH   4   5
ENDBRANCH   3   4
ENDBRANCH   2   3
ENDBRANCH   1   2
BRANCH   1   8
ATOM      8  C   UNL     1       8.084  -3.033 -25.599  1.00  0.00     0.000 C 
BRANCH   8   9
ATOM      9  C   UNL     1       6.654  -3.575 -25.755  1.00  0.00    -0.000 C 
BRANCH   9  10
ATOM     10  C   UNL     1       6.583  -5.104 -25.624  1.00  0.00    -0.000 C 
BRANCH  10  11
ATOM     11  C   UNL     1       5.504  -5.684 -26.550  1.00  0.00    -0.000 C 
BRANCH  11  12
ATOM     12  C   UNL     1       4.892  -4.624 -27.480  1.00  0.00    -0.003 C 
ATOM     13  C   UNL     1       4.874  -5.060 -28.944  1.00  0.00     0.004 C 
ENDBRANCH  11  12
ENDBRANCH  10  11
ENDBRANCH   9  10
ENDBRANCH   8   9
ENDBRANCH   1   8
TORSDOF 9
ENDMDL
MODEL 4
REMARK VINA RESULT:    -4.135      3.190      4.459
REMARK INTER + INTRA:          -7.031
REMARK INTER:                  -5.616
REMARK INTRA:                  -1.415
REMARK UNBOUND:                -0.721
REMARK SMILES CCCCCCCCCCC(=O)[O-]
REMARK SMILES IDX 7 1 8 2 9 3 10 4 11 5 12 6 13 7 6 8 5 9 4 10 3 11 2 12 1 13
REMARK H PARENT
REMARK Flexibility Score: inf
ROOT
ATOM      1  C   UNL     1      10.010  -5.825 -22.168  1.00  0.00     0.000 C 
ENDROOT
BRANCH   1   2
ATOM      2  C   UNL     1      10.541  -6.448 -23.467  1.00  0.00     0.000 C 
BRANCH   2   3
ATOM      3  C   UNL     1       9.681  -7.627 -23.954  1.00  0.00     0.006 C 
BRANCH   3   4
ATOM      4  C   UNL     1       9.001  -7.346 -25.301  1.00  0.00     0.053 C 
BRANCH   4   5
ATOM      5  C   UNL     1       7.536  -7.632 -25.214  1.00  0.00     0.041 C 
ATOM      6  O   UNL     1       6.734  -7.076 -26.010  1.00  0.00    -0.550 OA
ATOM      7  O   UNL     1       7.059  -8.550 -24.287  1.00  0.00    -0.550 OA
ENDBRANCH   4   5
ENDBRANCH   3   4
ENDBRANCH   2   3
ENDBRANCH   1   2
BRANCH   1   8
ATOM      8  C   UNL     1       8.633  -6.401 -21.807  1.00  0.00     0.000 C 
BRANCH   8   9
ATOM      9  C   UNL     1       7.490  -5.399 -22.036  1.00  0.00    -0.000 C 
BRANCH   9  10
ATOM     10  C   UNL     1       7.926  -4.184 -22.870  1.00  0.00    -0.000 C 
BRANCH  10  11
ATOM     11  C   UNL     1       7.066  -4.051 -24.135  1.00  0.00    -0.000 C 
BRANCH  11  12
ATOM     12  C   UNL     1       7.901  -3.734 -25.386  1.00  0.00    -0.003 C 
ATOM     13  C   UNL     1       9.351  -3.384 -25.057  1.00  0.00     0.004 C 
ENDBRANCH  11  12
ENDBRANCH  10  11
ENDBRANCH   9  10
ENDBRANCH   8   9
ENDBRANCH   1   8
TORSDOF 9
ENDMDL
MODEL 5
REMARK VINA RESULT:    -4.092     11.124     13.190
REMARK INTER + INTRA:          -6.966
REMARK INTER:                  -5.867
REMARK INTRA:                  -1.098
REMARK UNBOUND:                -0.721
REMARK SMILES CCCCCCCCCCC(=O)[O-]
REMARK SMILES IDX 7 1 8 2 9 3 10 4 11 5 12 6 13 7 6 8 5 9 4 10 3 11 2 12 1 13
REMARK H PARENT
REMARK Flexibility Score: inf
ROOT
ATOM      1  C   UNL     1      18.702  -6.058 -17.570  1.00  0.00     0.000 C 
ENDROOT
BRANCH   1   2
ATOM      2  C   UNL     1      17.786  -6.018 -16.338  1.00  0.00     0.000 C 
BRANCH   2   3
ATOM      3  C   UNL     1      16.830  -4.815 -16.348  1.00  0.00     0.006 C 
BRANCH   3   4
ATOM      4  C   UNL     1      16.374  -4.434 -17.763  1.00  0.00     0.053 C 
BRANCH   4   5
ATOM      5  C   UNL     1      16.456  -2.954 -17.957  1.00  0.00     0.041 C 
ATOM      6  O   UNL     1      16.981  -2.227 -17.073  1.00  0.00    -0.550 OA
ATOM      7  O   UNL     1      15.997  -2.379 -19.136  1.00  0.00    -0.550 OA
ENDBRANCH   4   5
ENDBRANCH   3   4
ENDBRANCH   2   3
ENDBRANCH   1   2
BRANCH   1   8
ATOM      8  C   UNL     1      20.170  -6.238 -17.154  1.00  0.00     0.000 C 
BRANCH   8   9
ATOM      9  C   UNL     1      21.035  -5.009 -17.478  1.00  0.00    -0.000 C 
BRANCH   9  10
ATOM     10  C   UNL     1      20.197  -3.763 -17.801  1.00  0.00    -0.000 C 
BRANCH  10  11
ATOM     11  C   UNL     1      20.851  -2.937 -18.917  1.00  0.00    -0.000 C 
BRANCH  11  12
ATOM     12  C   UNL     1      19.847  -2.504 -19.997  1.00  0.00    -0.003 C 
ATOM     13  C   UNL     1      18.997  -3.663 -20.515  1.00  0.00     0.004 C 
ENDBRANCH  11  12
ENDBRANCH  10  11
ENDBRANCH   9  10
ENDBRANCH   8   9
ENDBRANCH   1   8
TORSDOF 9
ENDMDL
MODEL 6
REMARK VINA RESULT:    -4.061     11.666     13.188
REMARK INTER + INTRA:          -6.919
REMARK INTER:                  -5.659
REMARK INTRA:                  -1.260
REMARK UNBOUND:                -0.721
REMARK SMILES CCCCCCCCCCC(=O)[O-]
REMARK SMILES IDX 7 1 8 2 9 3 10 4 11 5 12 6 13 7 6 8 5 9 4 10 3 11 2 12 1 13
REMARK H PARENT
REMARK Flexibility Score: inf
ROOT
ATOM      1  C   UNL     1      18.623  -6.354 -16.431  1.00  0.00     0.000 C 
ENDROOT
BRANCH   1   2
ATOM      2  C   UNL     1      19.476  -6.277 -17.705  1.00  0.00     0.000 C 
BRANCH   2   3
ATOM      3  C   UNL     1      20.853  -5.640 -17.459  1.00  0.00     0.006 C 
BRANCH   3   4
ATOM      4  C   UNL     1      20.853  -4.123 -17.689  1.00  0.00     0.053 C 
BRANCH   4   5
ATOM      5  C   UNL     1      21.255  -3.808 -19.095  1.00  0.00     0.041 C 
ATOM      6  O   UNL     1      21.820  -4.683 -19.803  1.00  0.00    -0.550 OA
ATOM      7  O   UNL     1      20.963  -2.565 -19.641  1.00  0.00    -0.550 OA
ENDBRANCH   4   5
ENDBRANCH   3   4
ENDBRANCH   2   3
ENDBRANCH   1   2
BRANCH   1   8
ATOM      8  C   UNL     1      17.165  -5.967 -16.724  1.00  0.00     0.000 C 
BRANCH   8   9
ATOM      9  C   UNL     1      16.737  -4.677 -16.006  1.00  0.00    -0.000 C 
BRANCH   9  10
ATOM     10  C   UNL     1      16.279  -3.581 -16.980  1.00  0.00    -0.000 C 
BRANCH  10  11
ATOM     11  C   UNL     1      17.471  -2.739 -17.458  1.00  0.00    -0.000 C 
BRANCH  11  12
ATOM     12  C   UNL     1      17.471  -2.524 -18.980  1.00  0.00    -0.003 C 
ATOM     13  C   UNL     1      17.539  -3.834 -19.763  1.00  0.00     0.004 C 
ENDBRANCH  11  12
ENDBRANCH  10  11
ENDBRANCH   9  10
ENDBRANCH   8   9
ENDBRANCH   1   8
TORSDOF 9
ENDMDL
MODEL 7
REMARK VINA RESULT:    -4.043      2.368      4.860
REMARK INTER + INTRA:          -6.891
REMARK INTER:                  -5.665
REMARK INTRA:                  -1.225
REMARK UNBOUND:                -0.721
REMARK SMILES CCCCCCCCCCC(=O)[O-]
REMARK SMILES IDX 7 1 8 2 9 3 10 4 11 5 12 6 13 7 6 8 5 9 4 10 3 11 2 12 1 13
REMARK H PARENT
REMARK Flexibility Score: inf
ROOT
ATOM      1  C   UNL     1       7.390  -5.696 -23.953  1.00  0.00     0.000 C 
ENDROOT
BRANCH   1   2
ATOM      2  C   UNL     1       7.604  -4.189 -23.755  1.00  0.00     0.000 C 
BRANCH   2   3
ATOM      3  C   UNL     1       8.828  -3.659 -24.519  1.00  0.00     0.006 C 
BRANCH   3   4
ATOM      4  C   UNL     1       9.583  -4.765 -25.268  1.00  0.00     0.053 C 
BRANCH   4   5
ATOM      5  C   UNL     1      10.982  -4.331 -25.569  1.00  0.00     0.041 C 
ATOM      6  O   UNL     1      11.509  -3.393 -24.914  1.00  0.00    -0.550 OA
ATOM      7  O   UNL     1      11.722  -4.992 -26.541  1.00  0.00    -0.550 OA
ENDBRANCH   4   5
ENDBRANCH   3   4
ENDBRANCH   2   3
ENDBRANCH   1   2
BRANCH   1   8
ATOM      8  C   UNL     1       7.231  -6.408 -22.601  1.00  0.00     0.000 C 
BRANCH   8   9
ATOM      9  C   UNL     1       8.338  -6.039 -21.601  1.00  0.00    -0.000 C 
BRANCH   9  10
ATOM     10  C   UNL     1       9.590  -6.917 -21.750  1.00  0.00    -0.000 C 
BRANCH  10  11
ATOM     11  C   UNL     1      10.820  -6.065 -22.095  1.00  0.00    -0.000 C 
BRANCH  11  12
ATOM     12  C   UNL     1      10.782  -4.678 -21.434  1.00  0.00    -0.003 C 
ATOM     13  C   UNL     1      11.504  -4.644 -20.089  1.00  0.00     0.004 C 
ENDBRANCH  11  12
ENDBRANCH  10  11
ENDBRANCH   9  10
ENDBRANCH   8   9
ENDBRANCH   1   8
TORSDOF 9
ENDMDL
MODEL 8
REMARK VINA RESULT:    -4.038      1.935      3.199
REMARK INTER + INTRA:          -6.883
REMARK INTER:                  -5.542
REMARK INTRA:                  -1.341
REMARK UNBOUND:                -0.721
REMARK SMILES CCCCCCCCCCC(=O)[O-]
REMARK SMILES IDX 7 1 8 2 9 3 10 4 11 5 12 6 13 7 6 8 5 9 4 10 3 11 2 12 1 13
REMARK H PARENT
REMARK Flexibility Score: inf
ROOT
ATOM      1  C   UNL     1      10.410  -6.802 -23.315  1.00  0.00     0.000 C 
ENDROOT
BRANCH   1   2
ATOM      2  C   UNL     1       9.986  -6.871 -24.789  1.00  0.00     0.000 C 
BRANCH   2   3
ATOM      3  C   UNL     1      10.768  -5.889 -25.677  1.00  0.00     0.006 C 
BRANCH   3   4
ATOM      4  C   UNL     1      11.867  -5.142 -24.909  1.00  0.00     0.053 C 
BRANCH   4   5
ATOM      5  C   UNL     1      11.586  -3.673 -24.895  1.00  0.00     0.041 C 
ATOM      6  O   UNL     1      11.155  -3.101 -25.931  1.00  0.00    -0.550 OA
ATOM      7  O   UNL     1      11.755  -2.943 -23.726  1.00  0.00    -0.550 OA
ENDBRANCH   4   5
ENDBRANCH   3   4
ENDBRANCH   2   3
ENDBRANCH   1   2
BRANCH   1   8
ATOM      8  C   UNL     1       9.234  -6.368 -22.427  1.00  0.00     0.000 C 
BRANCH   8   9
ATOM      9  C   UNL     1       9.025  -4.845 -22.420  1.00  0.00    -0.000 C 
BRANCH   9  10
ATOM     10  C   UNL     1       7.700  -4.426 -23.075  1.00  0.00    -0.000 C 
BRANCH  10  11
ATOM     11  C   UNL     1       7.947  -3.772 -24.442  1.00  0.00    -0.000 C 
BRANCH  11  12
ATOM     12  C   UNL     1       6.920  -4.209 -25.499  1.00  0.00    -0.003 C 
ATOM     13  C   UNL     1       6.562  -5.691 -25.401  1.00  0.00     0.004 C 
ENDBRANCH  11  12
ENDBRANCH  10  11
ENDBRANCH   9  10
ENDBRANCH   8   9
ENDBRANCH   1   8
TORSDOF 9
ENDMDL
MODEL 9
REMARK VINA RESULT:    -4.030      2.419      4.087
REMARK INTER + INTRA:          -6.872
REMARK INTER:                  -5.452
REMARK INTRA:                  -1.419
REMARK UNBOUND:                -0.721
REMARK SMILES CCCCCCCCCCC(=O)[O-]
REMARK SMILES IDX 7 1 8 2 9 3 10 4 11 5 12 6 13 7 6 8 5 9 4 10 3 11 2 12 1 13
REMARK H PARENT
REMARK Flexibility Score: inf
ROOT
ATOM      1  C   UNL     1       8.170  -4.497 -22.488  1.00  0.00     0.000 C 
ENDROOT
BRANCH   1   2
ATOM      2  C   UNL     1       7.595  -4.125 -23.862  1.00  0.00     0.000 C 
BRANCH   2   3
ATOM      3  C   UNL     1       8.686  -3.761 -24.882  1.00  0.00     0.006 C 
BRANCH   3   4
ATOM      4  C   UNL     1      10.050  -3.509 -24.226  1.00  0.00     0.053 C 
BRANCH   4   5
ATOM      5  C   UNL     1      11.106  -4.341 -24.881  1.00  0.00     0.041 C 
ATOM      6  O   UNL     1      11.173  -4.405 -26.137  1.00  0.00    -0.550 OA
ATOM      7  O   UNL     1      12.046  -5.008 -24.107  1.00  0.00    -0.550 OA
ENDBRANCH   4   5
ENDBRANCH   3   4
ENDBRANCH   2   3
ENDBRANCH   1   2
BRANCH   1   8
ATOM      8  C   UNL     1       7.373  -5.648 -21.855  1.00  0.00     0.000 C 
BRANCH   8   9
ATOM      9  C   UNL     1       8.204  -6.932 -21.701  1.00  0.00    -0.000 C 
BRANCH   9  10
ATOM     10  C   UNL     1       9.514  -6.890 -22.502  1.00  0.00    -0.000 C 
BRANCH  10  11
ATOM     11  C   UNL     1       9.534  -7.984 -23.579  1.00  0.00    -0.000 C 
BRANCH  11  12
ATOM     12  C   UNL     1       9.236  -7.435 -24.984  1.00  0.00    -0.003 C 
ATOM     13  C   UNL     1       7.763  -7.558 -25.368  1.00  0.00     0.004 C 
ENDBRANCH  11  12
ENDBRANCH  10  11
ENDBRANCH   9  10
ENDBRANCH   8   9
ENDBRANCH   1   8
TORSDOF 9
ENDMDL
