MODEL 1
REMARK VINA RESULT:    -4.173      0.000      0.000
REMARK INTER + INTRA:          -9.742
REMARK INTER:                  -7.833
REMARK INTRA:                  -1.909
REMARK UNBOUND:                -1.909
REMARK SMILES O=C([O-])CCCCCCCCCCCCCCC(=O)[O-]
REMARK SMILES IDX 10 1 9 2 8 3 7 4 6 5 5 6 4 7 2 8 1 9 3 10 11 11 12 12 13 13
REMARK SMILES IDX 14 14 15 15 16 16 17 17 18 18 19 19 20 20
REMARK H PARENT
REMARK Flexibility Score: inf
ROOT
ATOM      1  C   UNL     1       7.348  78.325  64.333  1.00  0.00     0.000 C 
ENDROOT
BRANCH   1   2
ATOM      2  C   UNL     1       6.837  77.387  65.442  1.00  0.00     0.000 C 
BRANCH   2   3
ATOM      3  C   UNL     1       7.437  77.720  66.817  1.00  0.00     0.000 C 
BRANCH   3   4
ATOM      4  C   UNL     1       6.399  77.639  67.950  1.00  0.00     0.000 C 
BRANCH   4   5
ATOM      5  C   UNL     1       5.919  76.202  68.210  1.00  0.00     0.000 C 
BRANCH   5   6
ATOM      6  C   UNL     1       4.515  75.937  67.648  1.00  0.00     0.006 C 
BRANCH   6   7
ATOM      7  C   UNL     1       3.690  75.079  68.611  1.00  0.00     0.053 C 
BRANCH   7   8
ATOM      8  C   UNL     1       2.228  75.305  68.392  1.00  0.00     0.041 C 
ATOM      9  O   UNL     1       1.594  74.598  67.565  1.00  0.00    -0.550 OA
ATOM     10  O   UNL     1       1.573  76.331  69.063  1.00  0.00    -0.550 OA
ENDBRANCH   7   8
ENDBRANCH   6   7
ENDBRANCH   5   6
ENDBRANCH   4   5
ENDBRANCH   3   4
ENDBRANCH   2   3
ENDBRANCH   1   2
BRANCH   1  11
ATOM     11  C   UNL     1       6.218  78.832  63.424  1.00  0.00     0.000 C 
BRANCH  11  12
ATOM     12  C   UNL     1       4.835  78.736  64.091  1.00  0.00     0.000 C 
BRANCH  12  13
ATOM     13  C   UNL     1       3.973  79.984  63.846  1.00  0.00     0.000 C 
BRANCH  13  14
ATOM     14  C   UNL     1       3.350  80.537  65.137  1.00  0.00     0.000 C 
BRANCH  14  15
ATOM     15  C   UNL     1       3.945  79.844  66.372  1.00  0.00     0.000 C 
BRANCH  15  16
ATOM     16  C   UNL     1       2.867  79.288  67.316  1.00  0.00     0.006 C 
BRANCH  16  17
ATOM     17  C   UNL     1       3.294  79.330  68.789  1.00  0.00     0.053 C 
BRANCH  17  18
ATOM     18  C   UNL     1       2.378  80.218  69.572  1.00  0.00     0.041 C 
ATOM     19  O   UNL     1       1.933  81.279  69.060  1.00  0.00    -0.550 OA
ATOM     20  O   UNL     1       1.972  79.845  70.847  1.00  0.00    -0.550 OA
ENDBRANCH  17  18
ENDBRANCH  16  17
ENDBRANCH  15  16
ENDBRANCH  14  15
ENDBRANCH  13  14
ENDBRANCH  12  13
ENDBRANCH  11  12
ENDBRANCH   1  11
TORSDOF 15
ENDMDL
MODEL 2
REMARK VINA RESULT:    -4.122      1.190      4.539
REMARK INTER + INTRA:          -9.646
REMARK INTER:                  -7.675
REMARK INTRA:                  -1.970
REMARK UNBOUND:                -1.909
REMARK SMILES O=C([O-])CCCCCCCCCCCCCCC(=O)[O-]
REMARK SMILES IDX 10 1 9 2 8 3 7 4 6 5 5 6 4 7 2 8 1 9 3 10 11 11 12 12 13 13
REMARK SMILES IDX 14 14 15 15 16 16 17 17 18 18 19 19 20 20
REMARK H PARENT
REMARK Flexibility Score: inf
ROOT
ATOM      1  C   UNL     1       5.204  77.894  63.578  1.00  0.00     0.000 C 
ENDROOT
BRANCH   1   2
ATOM      2  C   UNL     1       5.144  79.396  63.911  1.00  0.00     0.000 C 
BRANCH   2   3
ATOM      3  C   UNL     1       3.782  79.817  64.485  1.00  0.00     0.000 C 
BRANCH   3   4
ATOM      4  C   UNL     1       3.791  79.905  66.021  1.00  0.00     0.000 C 
BRANCH   4   5
ATOM      5  C   UNL     1       2.496  80.511  66.586  1.00  0.00     0.000 C 
BRANCH   5   6
ATOM      6  C   UNL     1       1.955  79.730  67.793  1.00  0.00     0.006 C 
BRANCH   6   7
ATOM      7  C   UNL     1       2.287  80.446  69.105  1.00  0.00     0.053 C 
BRANCH   7   8
ATOM      8  C   UNL     1       1.765  79.668  70.271  1.00  0.00     0.041 C 
ATOM      9  O   UNL     1       1.917  78.419  70.319  1.00  0.00    -0.550 OA
ATOM     10  O   UNL     1       1.067  80.315  71.283  1.00  0.00    -0.550 OA
ENDBRANCH   7   8
ENDBRANCH   6   7
ENDBRANCH   5   6
ENDBRANCH   4   5
ENDBRANCH   3   4
ENDBRANCH   2   3
ENDBRANCH   1   2
BRANCH   1  11
ATOM     11  C   UNL     1       6.088  77.108  64.558  1.00  0.00     0.000 C 
BRANCH  11  12
ATOM     12  C   UNL     1       6.973  78.025  65.420  1.00  0.00     0.000 C 
BRANCH  12  13
ATOM     13  C   UNL     1       7.136  77.507  66.858  1.00  0.00     0.000 C 
BRANCH  13  14
ATOM     14  C   UNL     1       6.713  78.541  67.912  1.00  0.00     0.000 C 
BRANCH  14  15
ATOM     15  C   UNL     1       5.351  78.176  68.521  1.00  0.00     0.000 C 
BRANCH  15  16
ATOM     16  C   UNL     1       5.002  76.689  68.343  1.00  0.00     0.006 C 
BRANCH  16  17
ATOM     17  C   UNL     1       3.517  76.465  68.028  1.00  0.00     0.053 C 
BRANCH  17  18
ATOM     18  C   UNL     1       3.170  75.015  68.165  1.00  0.00     0.041 C 
ATOM     19  O   UNL     1       2.127  74.560  67.626  1.00  0.00    -0.550 OA
ATOM     20  O   UNL     1       4.029  74.157  68.840  1.00  0.00    -0.550 OA
ENDBRANCH  17  18
ENDBRANCH  16  17
ENDBRANCH  15  16
ENDBRANCH  14  15
ENDBRANCH  13  14
ENDBRANCH  12  13
ENDBRANCH  11  12
ENDBRANCH   1  11
TORSDOF 15
ENDMDL
MODEL 3
REMARK VINA RESULT:    -4.116      3.630      6.112
REMARK INTER + INTRA:          -9.635
REMARK INTER:                  -7.519
REMARK INTRA:                  -2.116
REMARK UNBOUND:                -1.909
REMARK SMILES O=C([O-])CCCCCCCCCCCCCCC(=O)[O-]
REMARK SMILES IDX 10 1 9 2 8 3 7 4 6 5 5 6 4 7 2 8 1 9 3 10 11 11 12 12 13 13
REMARK SMILES IDX 14 14 15 15 16 16 17 17 18 18 19 19 20 20
REMARK H PARENT
REMARK Flexibility Score: inf
ROOT
ATOM      1  C   UNL     1       5.835  76.644  68.404  1.00  0.00     0.000 C 
ENDROOT
BRANCH   1   2
ATOM      2  C   UNL     1       4.351  76.412  68.067  1.00  0.00     0.000 C 
BRANCH   2   3
ATOM      3  C   UNL     1       3.457  77.581  68.510  1.00  0.00     0.000 C 
BRANCH   3   4
ATOM      4  C   UNL     1       4.262  78.857  68.810  1.00  0.00     0.000 C 
BRANCH   4   5
ATOM      5  C   UNL     1       3.880  80.027  67.888  1.00  0.00     0.000 C 
BRANCH   5   6
ATOM      6  C   UNL     1       4.004  79.672  66.400  1.00  0.00     0.006 C 
BRANCH   6   7
ATOM      7  C   UNL     1       3.247  80.678  65.529  1.00  0.00     0.053 C 
BRANCH   7   8
ATOM      8  C   UNL     1       1.774  80.560  65.755  1.00  0.00     0.041 C 
ATOM      9  O   UNL     1       1.138  79.575  65.294  1.00  0.00    -0.550 OA
ATOM     10  O   UNL     1       1.090  81.564  66.431  1.00  0.00    -0.550 OA
ENDBRANCH   7   8
ENDBRANCH   6   7
ENDBRANCH   5   6
ENDBRANCH   4   5
ENDBRANCH   3   4
ENDBRANCH   2   3
ENDBRANCH   1   2
BRANCH   1  11
ATOM     11  C   UNL     1       6.749  76.490  67.179  1.00  0.00     0.000 C 
BRANCH  11  12
ATOM     12  C   UNL     1       7.348  77.831  66.718  1.00  0.00     0.000 C 
BRANCH  12  13
ATOM     13  C   UNL     1       7.171  78.070  65.211  1.00  0.00     0.000 C 
BRANCH  13  14
ATOM     14  C   UNL     1       6.048  77.214  64.604  1.00  0.00     0.000 C 
BRANCH  14  15
ATOM     15  C   UNL     1       5.319  77.979  63.489  1.00  0.00     0.000 C 
BRANCH  15  16
ATOM     16  C   UNL     1       6.003  79.311  63.141  1.00  0.00     0.006 C 
BRANCH  16  17
ATOM     17  C   UNL     1       6.339  79.430  61.648  1.00  0.00     0.053 C 
BRANCH  17  18
ATOM     18  C   UNL     1       7.811  79.623  61.460  1.00  0.00     0.041 C 
ATOM     19  O   UNL     1       8.630  79.018  62.200  1.00  0.00    -0.550 OA
ATOM     20  O   UNL     1       8.279  80.429  60.430  1.00  0.00    -0.550 OA
ENDBRANCH  17  18
ENDBRANCH  16  17
ENDBRANCH  15  16
ENDBRANCH  14  15
ENDBRANCH  13  14
ENDBRANCH  12  13
ENDBRANCH  11  12
ENDBRANCH   1  11
TORSDOF 15
ENDMDL
MODEL 4
REMARK VINA RESULT:    -4.095      6.628     10.093
REMARK INTER + INTRA:          -9.595
REMARK INTER:                  -8.939
REMARK INTRA:                  -0.656
REMARK UNBOUND:                -1.909
REMARK SMILES O=C([O-])CCCCCCCCCCCCCCC(=O)[O-]
REMARK SMILES IDX 10 1 9 2 8 3 7 4 6 5 5 6 4 7 2 8 1 9 3 10 11 11 12 12 13 13
REMARK SMILES IDX 14 14 15 15 16 16 17 17 18 18 19 19 20 20
REMARK H PARENT
REMARK Flexibility Score: inf
ROOT
ATOM      1  C   UNL     1       3.204  83.781  64.421  1.00  0.00     0.000 C 
ENDROOT
BRANCH   1   2
ATOM      2  C   UNL     1       4.425  84.712  64.307  1.00  0.00     0.000 C 
BRANCH   2   3
ATOM      3  C   UNL     1       4.922  84.856  62.860  1.00  0.00     0.000 C 
BRANCH   3   4
ATOM      4  C   UNL     1       3.942  85.647  61.976  1.00  0.00     0.000 C 
BRANCH   4   5
ATOM      5  C   UNL     1       3.718  87.082  62.479  1.00  0.00     0.000 C 
BRANCH   5   6
ATOM      6  C   UNL     1       3.939  88.134  61.383  1.00  0.00     0.006 C 
BRANCH   6   7
ATOM      7  C   UNL     1       3.264  89.459  61.747  1.00  0.00     0.053 C 
BRANCH   7   8
ATOM      8  C   UNL     1       3.134  90.330  60.538  1.00  0.00     0.041 C 
ATOM      9  O   UNL     1       4.162  90.778  59.966  1.00  0.00    -0.550 OA
ATOM     10  O   UNL     1       1.876  90.688  60.070  1.00  0.00    -0.550 OA
ENDBRANCH   7   8
ENDBRANCH   6   7
ENDBRANCH   5   6
ENDBRANCH   4   5
ENDBRANCH   3   4
ENDBRANCH   2   3
ENDBRANCH   1   2
BRANCH   1  11
ATOM     11  C   UNL     1       3.579  82.298  64.286  1.00  0.00     0.000 C 
BRANCH  11  12
ATOM     12  C   UNL     1       3.006  81.438  65.426  1.00  0.00     0.000 C 
BRANCH  12  13
ATOM     13  C   UNL     1       3.792  80.134  65.634  1.00  0.00     0.000 C 
BRANCH  13  14
ATOM     14  C   UNL     1       4.029  79.816  67.119  1.00  0.00     0.000 C 
BRANCH  14  15
ATOM     15  C   UNL     1       4.727  78.457  67.282  1.00  0.00     0.000 C 
BRANCH  15  16
ATOM     16  C   UNL     1       6.244  78.593  67.494  1.00  0.00     0.006 C 
BRANCH  16  17
ATOM     17  C   UNL     1       7.041  77.496  66.775  1.00  0.00     0.053 C 
BRANCH  17  18
ATOM     18  C   UNL     1       7.075  77.758  65.302  1.00  0.00     0.041 C 
ATOM     19  O   UNL     1       7.932  78.543  64.818  1.00  0.00    -0.550 OA
ATOM     20  O   UNL     1       6.196  77.091  64.458  1.00  0.00    -0.550 OA
ENDBRANCH  17  18
ENDBRANCH  16  17
ENDBRANCH  15  16
ENDBRANCH  14  15
ENDBRANCH  13  14
ENDBRANCH  12  13
ENDBRANCH  11  12
ENDBRANCH   1  11
TORSDOF 15
ENDMDL
MODEL 5
REMARK VINA RESULT:    -3.996      3.949      5.953
REMARK INTER + INTRA:          -9.409
REMARK INTER:                  -7.673
REMARK INTRA:                  -1.736
REMARK UNBOUND:                -1.909
REMARK SMILES O=C([O-])CCCCCCCCCCCCCCC(=O)[O-]
REMARK SMILES IDX 10 1 9 2 8 3 7 4 6 5 5 6 4 7 2 8 1 9 3 10 11 11 12 12 13 13
REMARK SMILES IDX 14 14 15 15 16 16 17 17 18 18 19 19 20 20
REMARK H PARENT
REMARK Flexibility Score: inf
ROOT
ATOM      1  C   UNL     1       4.659  76.394  68.223  1.00  0.00     0.000 C 
ENDROOT
BRANCH   1   2
ATOM      2  C   UNL     1       6.124  76.351  67.754  1.00  0.00     0.000 C 
BRANCH   2   3
ATOM      3  C   UNL     1       6.755  77.749  67.664  1.00  0.00     0.000 C 
BRANCH   3   4
ATOM      4  C   UNL     1       7.413  78.013  66.299  1.00  0.00     0.000 C 
BRANCH   4   5
ATOM      5  C   UNL     1       6.575  77.479  65.126  1.00  0.00     0.000 C 
BRANCH   5   6
ATOM      6  C   UNL     1       6.658  78.377  63.883  1.00  0.00     0.006 C 
BRANCH   6   7
ATOM      7  C   UNL     1       8.114  78.642  63.493  1.00  0.00     0.053 C 
BRANCH   7   8
ATOM      8  C   UNL     1       8.185  79.292  62.147  1.00  0.00     0.041 C 
ATOM      9  O   UNL     1       7.157  79.814  61.640  1.00  0.00    -0.550 OA
ATOM     10  O   UNL     1       9.375  79.279  61.429  1.00  0.00    -0.550 OA
ENDBRANCH   7   8
ENDBRANCH   6   7
ENDBRANCH   5   6
ENDBRANCH   4   5
ENDBRANCH   3   4
ENDBRANCH   2   3
ENDBRANCH   1   2
BRANCH   1  11
ATOM     11  C   UNL     1       4.222  77.799  68.662  1.00  0.00     0.000 C 
BRANCH  11  12
ATOM     12  C   UNL     1       2.821  78.171  68.144  1.00  0.00     0.000 C 
BRANCH  12  13
ATOM     13  C   UNL     1       2.777  79.572  67.513  1.00  0.00     0.000 C 
BRANCH  13  14
ATOM     14  C   UNL     1       3.912  79.802  66.503  1.00  0.00     0.000 C 
BRANCH  14  15
ATOM     15  C   UNL     1       3.391  79.698  65.062  1.00  0.00     0.000 C 
BRANCH  15  16
ATOM     16  C   UNL     1       3.690  80.957  64.232  1.00  0.00     0.006 C 
BRANCH  16  17
ATOM     17  C   UNL     1       3.343  82.252  64.979  1.00  0.00     0.053 C 
BRANCH  17  18
ATOM     18  C   UNL     1       3.745  83.444  64.169  1.00  0.00     0.041 C 
ATOM     19  O   UNL     1       3.758  84.590  64.689  1.00  0.00    -0.550 OA
ATOM     20  O   UNL     1       4.159  83.280  62.853  1.00  0.00    -0.550 OA
ENDBRANCH  17  18
ENDBRANCH  16  17
ENDBRANCH  15  16
ENDBRANCH  14  15
ENDBRANCH  13  14
ENDBRANCH  12  13
ENDBRANCH  11  12
ENDBRANCH   1  11
TORSDOF 15
ENDMDL
MODEL 6
REMARK VINA RESULT:    -3.996      3.652      6.469
REMARK INTER + INTRA:          -9.409
REMARK INTER:                  -7.341
REMARK INTRA:                  -2.068
REMARK UNBOUND:                -1.909
REMARK SMILES O=C([O-])CCCCCCCCCCCCCCC(=O)[O-]
REMARK SMILES IDX 10 1 9 2 8 3 7 4 6 5 5 6 4 7 2 8 1 9 3 10 11 11 12 12 13 13
REMARK SMILES IDX 14 14 15 15 16 16 17 17 18 18 19 19 20 20
REMARK H PARENT
REMARK Flexibility Score: inf
ROOT
ATOM      1  C   UNL     1       2.263  77.891  69.528  1.00  0.00     0.000 C 
ENDROOT
BRANCH   1   2
ATOM      2  C   UNL     1       2.129  79.295  68.910  1.00  0.00     0.000 C 
BRANCH   2   3
ATOM      3  C   UNL     1       3.469  80.046  68.860  1.00  0.00     0.000 C 
BRANCH   3   4
ATOM      4  C   UNL     1       4.208  79.845  67.525  1.00  0.00     0.000 C 
BRANCH   4   5
ATOM      5  C   UNL     1       3.247  79.619  66.346  1.00  0.00     0.000 C 
BRANCH   5   6
ATOM      6  C   UNL     1       3.675  80.379  65.082  1.00  0.00     0.006 C 
BRANCH   6   7
ATOM      7  C   UNL     1       3.245  79.629  63.818  1.00  0.00     0.053 C 
BRANCH   7   8
ATOM      8  C   UNL     1       3.109  80.576  62.668  1.00  0.00     0.041 C 
ATOM      9  O   UNL     1       4.113  81.210  62.247  1.00  0.00    -0.550 OA
ATOM     10  O   UNL     1       1.864  80.799  62.092  1.00  0.00    -0.550 OA
ENDBRANCH   7   8
ENDBRANCH   6   7
ENDBRANCH   5   6
ENDBRANCH   4   5
ENDBRANCH   3   4
ENDBRANCH   2   3
ENDBRANCH   1   2
BRANCH   1  11
ATOM     11  C   UNL     1       1.800  76.781  68.573  1.00  0.00     0.000 C 
BRANCH  11  12
ATOM     12  C   UNL     1       2.936  75.812  68.199  1.00  0.00     0.000 C 
BRANCH  12  13
ATOM     13  C   UNL     1       4.329  76.421  68.425  1.00  0.00     0.000 C 
BRANCH  13  14
ATOM     14  C   UNL     1       5.288  76.156  67.254  1.00  0.00     0.000 C 
BRANCH  14  15
ATOM     15  C   UNL     1       6.689  76.707  67.559  1.00  0.00     0.000 C 
BRANCH  15  16
ATOM     16  C   UNL     1       7.184  77.691  66.486  1.00  0.00     0.006 C 
BRANCH  16  17
ATOM     17  C   UNL     1       6.325  77.659  65.214  1.00  0.00     0.053 C 
BRANCH  17  18
ATOM     18  C   UNL     1       7.025  78.365  64.096  1.00  0.00     0.041 C 
ATOM     19  O   UNL     1       6.423  78.591  63.014  1.00  0.00    -0.550 OA
ATOM     20  O   UNL     1       8.325  78.823  64.270  1.00  0.00    -0.550 OA
ENDBRANCH  17  18
ENDBRANCH  16  17
ENDBRANCH  15  16
ENDBRANCH  14  15
ENDBRANCH  13  14
ENDBRANCH  12  13
ENDBRANCH  11  12
ENDBRANCH   1  11
TORSDOF 15
ENDMDL
MODEL 7
REMARK VINA RESULT:    -3.961      4.540      5.975
REMARK INTER + INTRA:          -9.345
REMARK INTER:                  -8.544
REMARK INTRA:                  -0.800
REMARK UNBOUND:                -1.909
REMARK SMILES O=C([O-])CCCCCCCCCCCCCCC(=O)[O-]
REMARK SMILES IDX 10 1 9 2 8 3 7 4 6 5 5 6 4 7 2 8 1 9 3 10 11 11 12 12 13 13
REMARK SMILES IDX 14 14 15 15 16 16 17 17 18 18 19 19 20 20
REMARK H PARENT
REMARK Flexibility Score: inf
ROOT
ATOM      1  C   UNL     1       4.321  79.312  63.750  1.00  0.00     0.000 C 
ENDROOT
BRANCH   1   2
ATOM      2  C   UNL     1       5.472  78.751  62.895  1.00  0.00     0.000 C 
BRANCH   2   3
ATOM      3  C   UNL     1       6.711  78.398  63.732  1.00  0.00     0.000 C 
BRANCH   3   4
ATOM      4  C   UNL     1       6.350  77.688  65.049  1.00  0.00     0.000 C 
BRANCH   4   5
ATOM      5  C   UNL     1       7.387  77.935  66.157  1.00  0.00     0.000 C 
BRANCH   5   6
ATOM      6  C   UNL     1       6.778  77.854  67.564  1.00  0.00     0.006 C 
BRANCH   6   7
ATOM      7  C   UNL     1       6.174  76.471  67.823  1.00  0.00     0.053 C 
BRANCH   7   8
ATOM      8  C   UNL     1       4.771  76.599  68.325  1.00  0.00     0.041 C 
ATOM      9  O   UNL     1       4.323  77.723  68.676  1.00  0.00    -0.550 OA
ATOM     10  O   UNL     1       3.971  75.470  68.454  1.00  0.00    -0.550 OA
ENDBRANCH   7   8
ENDBRANCH   6   7
ENDBRANCH   5   6
ENDBRANCH   4   5
ENDBRANCH   3   4
ENDBRANCH   2   3
ENDBRANCH   1   2
BRANCH   1  11
ATOM     11  C   UNL     1       3.474  80.346  62.994  1.00  0.00     0.000 C 
BRANCH  11  12
ATOM     12  C   UNL     1       3.893  81.794  63.305  1.00  0.00     0.000 C 
BRANCH  12  13
ATOM     13  C   UNL     1       3.478  82.238  64.716  1.00  0.00     0.000 C 
BRANCH  13  14
ATOM     14  C   UNL     1       3.090  83.724  64.779  1.00  0.00     0.000 C 
BRANCH  14  15
ATOM     15  C   UNL     1       4.169  84.599  64.123  1.00  0.00     0.000 C 
BRANCH  15  16
ATOM     16  C   UNL     1       3.582  85.627  63.142  1.00  0.00     0.006 C 
BRANCH  16  17
ATOM     17  C   UNL     1       4.579  86.036  62.049  1.00  0.00     0.053 C 
BRANCH  17  18
ATOM     18  C   UNL     1       4.273  87.415  61.555  1.00  0.00     0.041 C 
ATOM     19  O   UNL     1       3.551  88.188  62.239  1.00  0.00    -0.550 OA
ATOM     20  O   UNL     1       4.831  87.865  60.366  1.00  0.00    -0.550 OA
ENDBRANCH  17  18
ENDBRANCH  16  17
ENDBRANCH  15  16
ENDBRANCH  14  15
ENDBRANCH  13  14
ENDBRANCH  12  13
ENDBRANCH  11  12
ENDBRANCH   1  11
TORSDOF 15
ENDMDL
MODEL 8
REMARK VINA RESULT:    -3.961      6.064      7.704
REMARK INTER + INTRA:          -9.344
REMARK INTER:                  -8.583
REMARK INTRA:                  -0.761
REMARK UNBOUND:                -1.909
REMARK SMILES O=C([O-])CCCCCCCCCCCCCCC(=O)[O-]
REMARK SMILES IDX 10 1 9 2 8 3 7 4 6 5 5 6 4 7 2 8 1 9 3 10 11 11 12 12 13 13
REMARK SMILES IDX 14 14 15 15 16 16 17 17 18 18 19 19 20 20
REMARK H PARENT
REMARK Flexibility Score: inf
ROOT
ATOM      1  C   UNL     1       2.712  82.985  63.931  1.00  0.00     0.000 C 
ENDROOT
BRANCH   1   2
ATOM      2  C   UNL     1       3.762  81.861  63.990  1.00  0.00     0.000 C 
BRANCH   2   3
ATOM      3  C   UNL     1       3.197  80.558  64.577  1.00  0.00     0.000 C 
BRANCH   3   4
ATOM      4  C   UNL     1       2.905  80.668  66.083  1.00  0.00     0.000 C 
BRANCH   4   5
ATOM      5  C   UNL     1       3.367  79.428  66.867  1.00  0.00     0.000 C 
BRANCH   5   6
ATOM      6  C   UNL     1       4.782  78.977  66.480  1.00  0.00     0.006 C 
BRANCH   6   7
ATOM      7  C   UNL     1       5.608  78.633  67.722  1.00  0.00     0.053 C 
BRANCH   7   8
ATOM      8  C   UNL     1       6.234  77.282  67.576  1.00  0.00     0.041 C 
ATOM      9  O   UNL     1       7.368  77.163  67.041  1.00  0.00    -0.550 OA
ATOM     10  O   UNL     1       5.545  76.147  67.985  1.00  0.00    -0.550 OA
ENDBRANCH   7   8
ENDBRANCH   6   7
ENDBRANCH   5   6
ENDBRANCH   4   5
ENDBRANCH   3   4
ENDBRANCH   2   3
ENDBRANCH   1   2
BRANCH   1  11
ATOM     11  C   UNL     1       3.138  84.231  64.721  1.00  0.00     0.000 C 
BRANCH  11  12
ATOM     12  C   UNL     1       4.490  84.796  64.250  1.00  0.00     0.000 C 
BRANCH  12  13
ATOM     13  C   UNL     1       4.469  85.222  62.774  1.00  0.00     0.000 C 
BRANCH  13  14
ATOM     14  C   UNL     1       3.861  86.618  62.569  1.00  0.00     0.000 C 
BRANCH  14  15
ATOM     15  C   UNL     1       4.451  87.295  61.323  1.00  0.00     0.000 C 
BRANCH  15  16
ATOM     16  C   UNL     1       3.816  88.665  61.036  1.00  0.00     0.006 C 
BRANCH  16  17
ATOM     17  C   UNL     1       2.980  89.186  62.213  1.00  0.00     0.053 C 
BRANCH  17  18
ATOM     18  C   UNL     1       1.534  89.257  61.833  1.00  0.00     0.041 C 
ATOM     19  O   UNL     1       1.146  90.085  60.967  1.00  0.00    -0.550 OA
ATOM     20  O   UNL     1       0.624  88.371  62.395  1.00  0.00    -0.550 OA
ENDBRANCH  17  18
ENDBRANCH  16  17
ENDBRANCH  15  16
ENDBRANCH  14  15
ENDBRANCH  13  14
ENDBRANCH  12  13
ENDBRANCH  11  12
ENDBRANCH   1  11
TORSDOF 15
ENDMDL
MODEL 9
REMARK VINA RESULT:    -3.953      3.821      5.924
REMARK INTER + INTRA:          -9.329
REMARK INTER:                  -7.559
REMARK INTRA:                  -1.770
REMARK UNBOUND:                -1.909
REMARK SMILES O=C([O-])CCCCCCCCCCCCCCC(=O)[O-]
REMARK SMILES IDX 10 1 9 2 8 3 7 4 6 5 5 6 4 7 2 8 1 9 3 10 11 11 12 12 13 13
REMARK SMILES IDX 14 14 15 15 16 16 17 17 18 18 19 19 20 20
REMARK H PARENT
REMARK Flexibility Score: inf
ROOT
ATOM      1  C   UNL     1       4.171  75.669  67.862  1.00  0.00     0.000 C 
ENDROOT
BRANCH   1   2
ATOM      2  C   UNL     1       5.479  75.741  68.671  1.00  0.00     0.000 C 
BRANCH   2   3
ATOM      3  C   UNL     1       6.595  76.484  67.920  1.00  0.00     0.000 C 
BRANCH   3   4
ATOM      4  C   UNL     1       6.241  76.746  66.446  1.00  0.00     0.000 C 
BRANCH   4   5
ATOM      5  C   UNL     1       6.923  78.006  65.889  1.00  0.00     0.000 C 
BRANCH   5   6
ATOM      6  C   UNL     1       7.002  78.007  64.356  1.00  0.00     0.006 C 
BRANCH   6   7
ATOM      7  C   UNL     1       8.209  78.813  63.868  1.00  0.00     0.053 C 
BRANCH   7   8
ATOM      8  C   UNL     1       8.186  78.938  62.378  1.00  0.00     0.041 C 
ATOM      9  O   UNL     1       8.905  78.186  61.667  1.00  0.00    -0.550 OA
ATOM     10  O   UNL     1       7.409  79.919  61.773  1.00  0.00    -0.550 OA
ENDBRANCH   7   8
ENDBRANCH   6   7
ENDBRANCH   5   6
ENDBRANCH   4   5
ENDBRANCH   3   4
ENDBRANCH   2   3
ENDBRANCH   1   2
BRANCH   1  11
ATOM     11  C   UNL     1       2.943  76.081  68.688  1.00  0.00     0.000 C 
BRANCH  11  12
ATOM     12  C   UNL     1       2.432  77.486  68.324  1.00  0.00     0.000 C 
BRANCH  12  13
ATOM     13  C   UNL     1       3.316  78.603  68.899  1.00  0.00     0.000 C 
BRANCH  13  14
ATOM     14  C   UNL     1       4.015  79.428  67.806  1.00  0.00     0.000 C 
BRANCH  14  15
ATOM     15  C   UNL     1       3.074  79.666  66.615  1.00  0.00     0.000 C 
BRANCH  15  16
ATOM     16  C   UNL     1       3.831  80.005  65.322  1.00  0.00     0.006 C 
BRANCH  16  17
ATOM     17  C   UNL     1       2.966  80.775  64.315  1.00  0.00     0.053 C 
BRANCH  17  18
ATOM     18  C   UNL     1       2.286  79.825  63.380  1.00  0.00     0.041 C 
ATOM     19  O   UNL     1       2.877  79.421  62.345  1.00  0.00    -0.550 OA
ATOM     20  O   UNL     1       1.018  79.343  63.682  1.00  0.00    -0.550 OA
ENDBRANCH  17  18
ENDBRANCH  16  17
ENDBRANCH  15  16
ENDBRANCH  14  15
ENDBRANCH  13  14
ENDBRANCH  12  13
ENDBRANCH  11  12
ENDBRANCH   1  11
TORSDOF 15
ENDMDL
