MODEL 1
REMARK VINA RESULT:    -4.439      0.000      0.000
REMARK INTER + INTRA:         -13.082
REMARK INTER:                  -9.629
REMARK INTRA:                  -3.453
REMARK UNBOUND:                -3.453
REMARK SMILES CCCCCCCCCCCCCCCCCCCCCC(=O)[O-]
REMARK SMILES IDX 12 1 11 2 10 3 9 4 8 5 7 6 6 7 5 8 4 9 3 10 2 11 1 12 13 13
REMARK SMILES IDX 14 14 15 15 16 16 17 17 18 18 19 19 20 20 21 21 22 22 23 23
REMARK SMILES IDX 24 24
REMARK H PARENT
REMARK Flexibility Score: inf
ROOT
ATOM      1  C   UNL     1      13.944  24.932  51.112  1.00  0.00     0.000 C 
ENDROOT
BRANCH   1   2
ATOM      2  C   UNL     1      14.048  24.664  49.595  1.00  0.00     0.000 C 
BRANCH   2   3
ATOM      3  C   UNL     1      15.342  25.202  48.960  1.00  0.00     0.000 C 
BRANCH   3   4
ATOM      4  C   UNL     1      15.108  26.458  48.105  1.00  0.00    -0.000 C 
BRANCH   4   5
ATOM      5  C   UNL     1      15.452  27.756  48.855  1.00  0.00    -0.000 C 
BRANCH   5   6
ATOM      6  C   UNL     1      16.469  27.529  49.987  1.00  0.00    -0.000 C 
BRANCH   6   7
ATOM      7  C   UNL     1      16.167  28.376  51.234  1.00  0.00    -0.000 C 
BRANCH   7   8
ATOM      8  C   UNL     1      14.660  28.612  51.437  1.00  0.00    -0.000 C 
BRANCH   8   9
ATOM      9  C   UNL     1      14.305  30.106  51.515  1.00  0.00    -0.000 C 
BRANCH   9  10
ATOM     10  C   UNL     1      15.435  31.013  50.994  1.00  0.00    -0.000 C 
BRANCH  10  11
ATOM     11  C   UNL     1      15.768  32.155  51.965  1.00  0.00    -0.003 C 
ATOM     12  C   UNL     1      14.580  33.085  52.210  1.00  0.00     0.004 C 
ENDBRANCH  10  11
ENDBRANCH   9  10
ENDBRANCH   8   9
ENDBRANCH   7   8
ENDBRANCH   6   7
ENDBRANCH   5   6
ENDBRANCH   4   5
ENDBRANCH   3   4
ENDBRANCH   2   3
ENDBRANCH   1   2
BRANCH   1  13
ATOM     13  C   UNL     1      15.152  24.377  51.885  1.00  0.00     0.000 C 
BRANCH  13  14
ATOM     14  C   UNL     1      15.380  25.091  53.231  1.00  0.00     0.000 C 
BRANCH  14  15
ATOM     15  C   UNL     1      16.847  25.453  53.528  1.00  0.00     0.000 C 
BRANCH  15  16
ATOM     16  C   UNL     1      16.977  26.710  54.405  1.00  0.00     0.000 C 
BRANCH  16  17
ATOM     17  C   UNL     1      15.628  27.166  54.981  1.00  0.00     0.000 C 
BRANCH  17  18
ATOM     18  C   UNL     1      15.716  28.545  55.652  1.00  0.00     0.000 C 
BRANCH  18  19
ATOM     19  C   UNL     1      16.290  29.593  54.686  1.00  0.00     0.000 C 
BRANCH  19  20
ATOM     20  C   UNL     1      17.144  30.654  55.399  1.00  0.00     0.006 C 
BRANCH  20  21
ATOM     21  C   UNL     1      16.651  30.957  56.818  1.00  0.00     0.053 C 
BRANCH  21  22
ATOM     22  C   UNL     1      15.783  32.177  56.821  1.00  0.00     0.041 C 
ATOM     23  O   UNL     1      15.780  32.949  57.817  1.00  0.00    -0.550 OA
ATOM     24  O   UNL     1      14.999  32.475  55.712  1.00  0.00    -0.550 OA
ENDBRANCH  21  22
ENDBRANCH  20  21
ENDBRANCH  19  20
ENDBRANCH  18  19
ENDBRANCH  17  18
ENDBRANCH  16  17
ENDBRANCH  15  16
ENDBRANCH  14  15
ENDBRANCH  13  14
ENDBRANCH   1  13
TORSDOF 20
ENDMDL
MODEL 2
REMARK VINA RESULT:    -4.430      3.115      6.317
REMARK INTER + INTRA:         -13.062
REMARK INTER:                  -9.110
REMARK INTRA:                  -3.952
REMARK UNBOUND:                -3.453
REMARK SMILES CCCCCCCCCCCCCCCCCCCCCC(=O)[O-]
REMARK SMILES IDX 12 1 11 2 10 3 9 4 8 5 7 6 6 7 5 8 4 9 3 10 2 11 1 12 13 13
REMARK SMILES IDX 14 14 15 15 16 16 17 17 18 18 19 19 20 20 21 21 22 22 23 23
REMARK SMILES IDX 24 24
REMARK H PARENT
REMARK Flexibility Score: inf
ROOT
ATOM      1  C   UNL     1      16.237  28.799  55.313  1.00  0.00     0.000 C 
ENDROOT
BRANCH   1   2
ATOM      2  C   UNL     1      16.111  27.261  55.372  1.00  0.00     0.000 C 
BRANCH   2   3
ATOM      3  C   UNL     1      15.407  26.652  54.147  1.00  0.00     0.000 C 
BRANCH   3   4
ATOM      4  C   UNL     1      16.132  25.413  53.598  1.00  0.00    -0.000 C 
BRANCH   4   5
ATOM      5  C   UNL     1      17.654  25.472  53.818  1.00  0.00    -0.000 C 
BRANCH   5   6
ATOM      6  C   UNL     1      18.434  25.607  52.499  1.00  0.00    -0.000 C 
BRANCH   6   7
ATOM      7  C   UNL     1      19.427  26.781  52.515  1.00  0.00    -0.000 C 
BRANCH   7   8
ATOM      8  C   UNL     1      18.766  28.117  52.134  1.00  0.00    -0.000 C 
BRANCH   8   9
ATOM      9  C   UNL     1      19.617  29.331  52.545  1.00  0.00    -0.000 C 
BRANCH   9  10
ATOM     10  C   UNL     1      19.648  29.545  54.069  1.00  0.00    -0.000 C 
BRANCH  10  11
ATOM     11  C   UNL     1      19.874  31.015  54.452  1.00  0.00    -0.003 C 
ATOM     12  C   UNL     1      19.213  31.386  55.779  1.00  0.00     0.004 C 
ENDBRANCH  10  11
ENDBRANCH   9  10
ENDBRANCH   8   9
ENDBRANCH   7   8
ENDBRANCH   6   7
ENDBRANCH   5   6
ENDBRANCH   4   5
ENDBRANCH   3   4
ENDBRANCH   2   3
ENDBRANCH   1   2
BRANCH   1  13
ATOM     13  C   UNL     1      15.917  29.356  53.915  1.00  0.00     0.000 C 
BRANCH  13  14
ATOM     14  C   UNL     1      16.154  30.874  53.808  1.00  0.00     0.000 C 
BRANCH  14  15
ATOM     15  C   UNL     1      16.440  31.382  52.383  1.00  0.00     0.000 C 
BRANCH  15  16
ATOM     16  C   UNL     1      15.153  31.683  51.595  1.00  0.00     0.000 C 
BRANCH  16  17
ATOM     17  C   UNL     1      15.072  30.893  50.280  1.00  0.00     0.000 C 
BRANCH  17  18
ATOM     18  C   UNL     1      14.694  29.421  50.507  1.00  0.00     0.000 C 
BRANCH  18  19
ATOM     19  C   UNL     1      15.805  28.483  50.010  1.00  0.00     0.000 C 
BRANCH  19  20
ATOM     20  C   UNL     1      15.592  27.025  50.448  1.00  0.00     0.006 C 
BRANCH  20  21
ATOM     21  C   UNL     1      14.282  26.431  49.917  1.00  0.00     0.053 C 
BRANCH  21  22
ATOM     22  C   UNL     1      13.711  25.460  50.903  1.00  0.00     0.041 C 
ATOM     23  O   UNL     1      12.848  25.840  51.738  1.00  0.00    -0.550 OA
ATOM     24  O   UNL     1      14.115  24.130  50.883  1.00  0.00    -0.550 OA
ENDBRANCH  21  22
ENDBRANCH  20  21
ENDBRANCH  19  20
ENDBRANCH  18  19
ENDBRANCH  17  18
ENDBRANCH  16  17
ENDBRANCH  15  16
ENDBRANCH  14  15
ENDBRANCH  13  14
ENDBRANCH   1  13
TORSDOF 20
ENDMDL
MODEL 3
REMARK VINA RESULT:    -4.422      2.199      6.054
REMARK INTER + INTRA:         -13.045
REMARK INTER:                  -9.320
REMARK INTRA:                  -3.725
REMARK UNBOUND:                -3.453
REMARK SMILES CCCCCCCCCCCCCCCCCCCCCC(=O)[O-]
REMARK SMILES IDX 12 1 11 2 10 3 9 4 8 5 7 6 6 7 5 8 4 9 3 10 2 11 1 12 13 13
REMARK SMILES IDX 14 14 15 15 16 16 17 17 18 18 19 19 20 20 21 21 22 22 23 23
REMARK SMILES IDX 24 24
REMARK H PARENT
REMARK Flexibility Score: inf
ROOT
ATOM      1  C   UNL     1      16.188  27.268  54.886  1.00  0.00     0.000 C 
ENDROOT
BRANCH   1   2
ATOM      2  C   UNL     1      15.730  28.743  54.871  1.00  0.00     0.000 C 
BRANCH   2   3
ATOM      3  C   UNL     1      16.252  29.563  56.063  1.00  0.00     0.000 C 
BRANCH   3   4
ATOM      4  C   UNL     1      16.853  30.914  55.639  1.00  0.00    -0.000 C 
BRANCH   4   5
ATOM      5  C   UNL     1      18.366  30.831  55.375  1.00  0.00    -0.000 C 
BRANCH   5   6
ATOM      6  C   UNL     1      18.694  30.691  53.878  1.00  0.00    -0.000 C 
BRANCH   6   7
ATOM      7  C   UNL     1      19.136  29.267  53.499  1.00  0.00    -0.000 C 
BRANCH   7   8
ATOM      8  C   UNL     1      18.401  28.731  52.258  1.00  0.00    -0.000 C 
BRANCH   8   9
ATOM      9  C   UNL     1      18.622  27.224  52.050  1.00  0.00    -0.000 C 
BRANCH   9  10
ATOM     10  C   UNL     1      19.499  26.596  53.148  1.00  0.00    -0.000 C 
BRANCH  10  11
ATOM     11  C   UNL     1      19.624  25.072  53.000  1.00  0.00    -0.003 C 
ATOM     12  C   UNL     1      20.978  24.544  53.474  1.00  0.00     0.004 C 
ENDBRANCH  10  11
ENDBRANCH   9  10
ENDBRANCH   8   9
ENDBRANCH   7   8
ENDBRANCH   6   7
ENDBRANCH   5   6
ENDBRANCH   4   5
ENDBRANCH   3   4
ENDBRANCH   2   3
ENDBRANCH   1   2
BRANCH   1  13
ATOM     13  C   UNL     1      15.308  26.377  53.993  1.00  0.00     0.000 C 
BRANCH  13  14
ATOM     14  C   UNL     1      15.964  25.022  53.668  1.00  0.00     0.000 C 
BRANCH  14  15
ATOM     15  C   UNL     1      15.404  24.317  52.420  1.00  0.00     0.000 C 
BRANCH  15  16
ATOM     16  C   UNL     1      16.420  24.266  51.265  1.00  0.00     0.000 C 
BRANCH  16  17
ATOM     17  C   UNL     1      15.883  24.917  49.982  1.00  0.00     0.000 C 
BRANCH  17  18
ATOM     18  C   UNL     1      14.915  26.073  50.276  1.00  0.00     0.000 C 
BRANCH  18  19
ATOM     19  C   UNL     1      15.601  27.433  50.070  1.00  0.00     0.000 C 
BRANCH  19  20
ATOM     20  C   UNL     1      14.992  28.544  50.941  1.00  0.00     0.006 C 
BRANCH  20  21
ATOM     21  C   UNL     1      15.059  29.924  50.277  1.00  0.00     0.053 C 
BRANCH  21  22
ATOM     22  C   UNL     1      14.762  30.999  51.276  1.00  0.00     0.041 C 
ATOM     23  O   UNL     1      15.633  31.335  52.123  1.00  0.00    -0.550 OA
ATOM     24  O   UNL     1      13.532  31.647  51.255  1.00  0.00    -0.550 OA
ENDBRANCH  21  22
ENDBRANCH  20  21
ENDBRANCH  19  20
ENDBRANCH  18  19
ENDBRANCH  17  18
ENDBRANCH  16  17
ENDBRANCH  15  16
ENDBRANCH  14  15
ENDBRANCH  13  14
ENDBRANCH   1  13
TORSDOF 20
ENDMDL
MODEL 4
REMARK VINA RESULT:    -4.398      1.498      2.359
REMARK INTER + INTRA:         -12.992
REMARK INTER:                  -9.503
REMARK INTRA:                  -3.489
REMARK UNBOUND:                -3.453
REMARK SMILES CCCCCCCCCCCCCCCCCCCCCC(=O)[O-]
REMARK SMILES IDX 12 1 11 2 10 3 9 4 8 5 7 6 6 7 5 8 4 9 3 10 2 11 1 12 13 13
REMARK SMILES IDX 14 14 15 15 16 16 17 17 18 18 19 19 20 20 21 21 22 22 23 23
REMARK SMILES IDX 24 24
REMARK H PARENT
REMARK Flexibility Score: inf
ROOT
ATOM      1  C   UNL     1      14.906  26.243  53.419  1.00  0.00     0.000 C 
ENDROOT
BRANCH   1   2
ATOM      2  C   UNL     1      14.084  26.078  52.122  1.00  0.00     0.000 C 
BRANCH   2   3
ATOM      3  C   UNL     1      14.451  24.821  51.314  1.00  0.00     0.000 C 
BRANCH   3   4
ATOM      4  C   UNL     1      14.697  25.121  49.827  1.00  0.00    -0.000 C 
BRANCH   4   5
ATOM      5  C   UNL     1      15.635  26.321  49.612  1.00  0.00    -0.000 C 
BRANCH   5   6
ATOM      6  C   UNL     1      15.145  27.258  48.494  1.00  0.00    -0.000 C 
BRANCH   6   7
ATOM      7  C   UNL     1      15.073  28.728  48.941  1.00  0.00    -0.000 C 
BRANCH   7   8
ATOM      8  C   UNL     1      15.626  28.941  50.360  1.00  0.00    -0.000 C 
BRANCH   8   9
ATOM      9  C   UNL     1      14.590  29.570  51.306  1.00  0.00    -0.000 C 
BRANCH   9  10
ATOM     10  C   UNL     1      14.143  30.971  50.849  1.00  0.00    -0.000 C 
BRANCH  10  11
ATOM     11  C   UNL     1      15.286  31.995  50.890  1.00  0.00    -0.003 C 
ATOM     12  C   UNL     1      14.990  33.171  51.820  1.00  0.00     0.004 C 
ENDBRANCH  10  11
ENDBRANCH   9  10
ENDBRANCH   8   9
ENDBRANCH   7   8
ENDBRANCH   6   7
ENDBRANCH   5   6
ENDBRANCH   4   5
ENDBRANCH   3   4
ENDBRANCH   2   3
ENDBRANCH   1   2
BRANCH   1  13
ATOM     13  C   UNL     1      15.940  25.118  53.600  1.00  0.00     0.000 C 
BRANCH  13  14
ATOM     14  C   UNL     1      17.389  25.638  53.627  1.00  0.00     0.000 C 
BRANCH  14  15
ATOM     15  C   UNL     1      18.111  25.607  52.268  1.00  0.00     0.000 C 
BRANCH  15  16
ATOM     16  C   UNL     1      18.446  27.015  51.746  1.00  0.00     0.000 C 
BRANCH  16  17
ATOM     17  C   UNL     1      19.229  27.849  52.772  1.00  0.00     0.000 C 
BRANCH  17  18
ATOM     18  C   UNL     1      18.683  29.280  52.899  1.00  0.00     0.000 C 
BRANCH  18  19
ATOM     19  C   UNL     1      18.013  29.496  54.265  1.00  0.00     0.000 C 
BRANCH  19  20
ATOM     20  C   UNL     1      16.502  29.211  54.237  1.00  0.00     0.006 C 
BRANCH  20  21
ATOM     21  C   UNL     1      15.859  29.285  55.627  1.00  0.00     0.053 C 
BRANCH  21  22
ATOM     22  C   UNL     1      16.088  30.632  56.238  1.00  0.00     0.041 C 
ATOM     23  O   UNL     1      15.654  31.668  55.667  1.00  0.00    -0.550 OA
ATOM     24  O   UNL     1      16.758  30.741  57.451  1.00  0.00    -0.550 OA
ENDBRANCH  21  22
ENDBRANCH  20  21
ENDBRANCH  19  20
ENDBRANCH  18  19
ENDBRANCH  17  18
ENDBRANCH  16  17
ENDBRANCH  15  16
ENDBRANCH  14  15
ENDBRANCH  13  14
ENDBRANCH   1  13
TORSDOF 20
ENDMDL
MODEL 5
REMARK VINA RESULT:    -4.378      2.878      3.656
REMARK INTER + INTRA:         -12.950
REMARK INTER:                  -9.031
REMARK INTRA:                  -3.919
REMARK UNBOUND:                -3.453
REMARK SMILES CCCCCCCCCCCCCCCCCCCCCC(=O)[O-]
REMARK SMILES IDX 12 1 11 2 10 3 9 4 8 5 7 6 6 7 5 8 4 9 3 10 2 11 1 12 13 13
REMARK SMILES IDX 14 14 15 15 16 16 17 17 18 18 19 19 20 20 21 21 22 22 23 23
REMARK SMILES IDX 24 24
REMARK H PARENT
REMARK Flexibility Score: inf
ROOT
ATOM      1  C   UNL     1      17.982  25.907  51.477  1.00  0.00     0.000 C 
ENDROOT
BRANCH   1   2
ATOM      2  C   UNL     1      18.128  24.663  50.576  1.00  0.00     0.000 C 
BRANCH   2   3
ATOM      3  C   UNL     1      17.051  24.562  49.482  1.00  0.00     0.000 C 
BRANCH   3   4
ATOM      4  C   UNL     1      15.627  24.475  50.054  1.00  0.00    -0.000 C 
BRANCH   4   5
ATOM      5  C   UNL     1      14.728  25.629  49.581  1.00  0.00    -0.000 C 
BRANCH   5   6
ATOM      6  C   UNL     1      13.988  26.313  50.745  1.00  0.00    -0.000 C 
BRANCH   6   7
ATOM      7  C   UNL     1      14.663  27.621  51.189  1.00  0.00    -0.000 C 
BRANCH   7   8
ATOM      8  C   UNL     1      15.426  28.310  50.045  1.00  0.00    -0.000 C 
BRANCH   8   9
ATOM      9  C   UNL     1      15.052  29.794  49.900  1.00  0.00    -0.000 C 
BRANCH   9  10
ATOM     10  C   UNL     1      14.421  30.375  51.178  1.00  0.00    -0.000 C 
BRANCH  10  11
ATOM     11  C   UNL     1      14.657  31.886  51.316  1.00  0.00    -0.003 C 
ATOM     12  C   UNL     1      15.984  32.215  52.000  1.00  0.00     0.004 C 
ENDBRANCH  10  11
ENDBRANCH   9  10
ENDBRANCH   8   9
ENDBRANCH   7   8
ENDBRANCH   6   7
ENDBRANCH   5   6
ENDBRANCH   4   5
ENDBRANCH   3   4
ENDBRANCH   2   3
ENDBRANCH   1   2
BRANCH   1  13
ATOM     13  C   UNL     1      18.693  25.732  52.830  1.00  0.00     0.000 C 
BRANCH  13  14
ATOM     14  C   UNL     1      17.714  25.477  53.991  1.00  0.00     0.000 C 
BRANCH  14  15
ATOM     15  C   UNL     1      16.227  25.481  53.593  1.00  0.00     0.000 C 
BRANCH  15  16
ATOM     16  C   UNL     1      15.365  26.332  54.542  1.00  0.00     0.000 C 
BRANCH  16  17
ATOM     17  C   UNL     1      16.150  27.502  55.155  1.00  0.00     0.000 C 
BRANCH  17  18
ATOM     18  C   UNL     1      15.973  28.804  54.358  1.00  0.00     0.000 C 
BRANCH  18  19
ATOM     19  C   UNL     1      17.273  29.624  54.348  1.00  0.00     0.000 C 
BRANCH  19  20
ATOM     20  C   UNL     1      18.188  29.273  53.163  1.00  0.00     0.006 C 
BRANCH  20  21
ATOM     21  C   UNL     1      19.675  29.290  53.536  1.00  0.00     0.053 C 
BRANCH  21  22
ATOM     22  C   UNL     1      20.517  29.492  52.314  1.00  0.00     0.041 C 
ATOM     23  O   UNL     1      20.595  28.585  51.442  1.00  0.00    -0.550 OA
ATOM     24  O   UNL     1      21.194  30.691  52.127  1.00  0.00    -0.550 OA
ENDBRANCH  21  22
ENDBRANCH  20  21
ENDBRANCH  19  20
ENDBRANCH  18  19
ENDBRANCH  17  18
ENDBRANCH  16  17
ENDBRANCH  15  16
ENDBRANCH  14  15
ENDBRANCH  13  14
ENDBRANCH   1  13
TORSDOF 20
ENDMDL
MODEL 6
REMARK VINA RESULT:    -4.375      1.487      4.272
REMARK INTER + INTRA:         -12.943
REMARK INTER:                  -9.580
REMARK INTRA:                  -3.364
REMARK UNBOUND:                -3.453
REMARK SMILES CCCCCCCCCCCCCCCCCCCCCC(=O)[O-]
REMARK SMILES IDX 12 1 11 2 10 3 9 4 8 5 7 6 6 7 5 8 4 9 3 10 2 11 1 12 13 13
REMARK SMILES IDX 14 14 15 15 16 16 17 17 18 18 19 19 20 20 21 21 22 22 23 23
REMARK SMILES IDX 24 24
REMARK H PARENT
REMARK Flexibility Score: inf
ROOT
ATOM      1  C   UNL     1      15.117  28.970  50.382  1.00  0.00     0.000 C 
ENDROOT
BRANCH   1   2
ATOM      2  C   UNL     1      14.636  28.104  51.566  1.00  0.00     0.000 C 
BRANCH   2   3
ATOM      3  C   UNL     1      14.044  26.749  51.141  1.00  0.00     0.000 C 
BRANCH   3   4
ATOM      4  C   UNL     1      14.969  25.964  50.197  1.00  0.00    -0.000 C 
BRANCH   4   5
ATOM      5  C   UNL     1      15.383  24.600  50.774  1.00  0.00    -0.000 C 
BRANCH   5   6
ATOM      6  C   UNL     1      14.684  24.290  52.109  1.00  0.00    -0.000 C 
BRANCH   6   7
ATOM      7  C   UNL     1      15.661  24.255  53.296  1.00  0.00    -0.000 C 
BRANCH   7   8
ATOM      8  C   UNL     1      15.677  25.575  54.086  1.00  0.00    -0.000 C 
BRANCH   8   9
ATOM      9  C   UNL     1      17.050  26.265  54.047  1.00  0.00    -0.000 C 
BRANCH   9  10
ATOM     10  C   UNL     1      18.093  25.469  53.241  1.00  0.00    -0.000 C 
BRANCH  10  11
ATOM     11  C   UNL     1      18.501  26.181  51.943  1.00  0.00    -0.003 C 
ATOM     12  C   UNL     1      18.248  27.688  51.993  1.00  0.00     0.004 C 
ENDBRANCH  10  11
ENDBRANCH   9  10
ENDBRANCH   8   9
ENDBRANCH   7   8
ENDBRANCH   6   7
ENDBRANCH   5   6
ENDBRANCH   4   5
ENDBRANCH   3   4
ENDBRANCH   2   3
ENDBRANCH   1   2
BRANCH   1  13
ATOM     13  C   UNL     1      15.387  30.426  50.798  1.00  0.00     0.000 C 
BRANCH  13  14
ATOM     14  C   UNL     1      15.440  30.611  52.326  1.00  0.00     0.000 C 
BRANCH  14  15
ATOM     15  C   UNL     1      16.741  31.240  52.854  1.00  0.00     0.000 C 
BRANCH  15  16
ATOM     16  C   UNL     1      17.263  30.540  54.121  1.00  0.00     0.000 C 
BRANCH  16  17
ATOM     17  C   UNL     1      16.263  29.515  54.679  1.00  0.00     0.000 C 
BRANCH  17  18
ATOM     18  C   UNL     1      15.938  29.763  56.160  1.00  0.00     0.000 C 
BRANCH  18  19
ATOM     19  C   UNL     1      16.787  30.913  56.725  1.00  0.00     0.000 C 
BRANCH  19  20
ATOM     20  C   UNL     1      15.951  32.161  57.056  1.00  0.00     0.006 C 
BRANCH  20  21
ATOM     21  C   UNL     1      14.443  31.901  56.986  1.00  0.00     0.053 C 
BRANCH  21  22
ATOM     22  C   UNL     1      13.699  33.186  56.791  1.00  0.00     0.041 C 
ATOM     23  O   UNL     1      14.300  34.288  56.905  1.00  0.00    -0.550 OA
ATOM     24  O   UNL     1      12.350  33.165  56.458  1.00  0.00    -0.550 OA
ENDBRANCH  21  22
ENDBRANCH  20  21
ENDBRANCH  19  20
ENDBRANCH  18  19
ENDBRANCH  17  18
ENDBRANCH  16  17
ENDBRANCH  15  16
ENDBRANCH  14  15
ENDBRANCH  13  14
ENDBRANCH   1  13
TORSDOF 20
ENDMDL
MODEL 7
REMARK VINA RESULT:    -4.339      1.751      4.801
REMARK INTER + INTRA:         -12.865
REMARK INTER:                 -10.313
REMARK INTRA:                  -2.552
REMARK UNBOUND:                -3.453
REMARK SMILES CCCCCCCCCCCCCCCCCCCCCC(=O)[O-]
REMARK SMILES IDX 12 1 11 2 10 3 9 4 8 5 7 6 6 7 5 8 4 9 3 10 2 11 1 12 13 13
REMARK SMILES IDX 14 14 15 15 16 16 17 17 18 18 19 19 20 20 21 21 22 22 23 23
REMARK SMILES IDX 24 24
REMARK H PARENT
REMARK Flexibility Score: inf
ROOT
ATOM      1  C   UNL     1      13.568  25.654  50.953  1.00  0.00     0.000 C 
ENDROOT
BRANCH   1   2
ATOM      2  C   UNL     1      14.005  25.631  52.434  1.00  0.00     0.000 C 
BRANCH   2   3
ATOM      3  C   UNL     1      15.210  24.715  52.708  1.00  0.00     0.000 C 
BRANCH   3   4
ATOM      4  C   UNL     1      16.211  25.329  53.701  1.00  0.00    -0.000 C 
BRANCH   4   5
ATOM      5  C   UNL     1      15.606  26.489  54.509  1.00  0.00    -0.000 C 
BRANCH   5   6
ATOM      6  C   UNL     1      16.449  27.773  54.416  1.00  0.00    -0.000 C 
BRANCH   6   7
ATOM      7  C   UNL     1      16.002  28.850  55.419  1.00  0.00    -0.000 C 
BRANCH   7   8
ATOM      8  C   UNL     1      16.565  30.241  55.081  1.00  0.00    -0.000 C 
BRANCH   8   9
ATOM      9  C   UNL     1      17.290  30.887  56.273  1.00  0.00    -0.000 C 
BRANCH   9  10
ATOM     10  C   UNL     1      16.365  31.783  57.116  1.00  0.00    -0.000 C 
BRANCH  10  11
ATOM     11  C   UNL     1      15.185  32.339  56.304  1.00  0.00    -0.003 C 
ATOM     12  C   UNL     1      14.558  33.576  56.947  1.00  0.00     0.004 C 
ENDBRANCH  10  11
ENDBRANCH   9  10
ENDBRANCH   8   9
ENDBRANCH   7   8
ENDBRANCH   6   7
ENDBRANCH   5   6
ENDBRANCH   4   5
ENDBRANCH   3   4
ENDBRANCH   2   3
ENDBRANCH   1   2
BRANCH   1  13
ATOM     13  C   UNL     1      14.659  25.107  50.016  1.00  0.00     0.000 C 
BRANCH  13  14
ATOM     14  C   UNL     1      14.722  25.855  48.672  1.00  0.00     0.000 C 
BRANCH  14  15
ATOM     15  C   UNL     1      15.729  27.019  48.629  1.00  0.00     0.000 C 
BRANCH  15  16
ATOM     16  C   UNL     1      16.551  27.135  49.925  1.00  0.00     0.000 C 
BRANCH  16  17
ATOM     17  C   UNL     1      16.187  28.386  50.740  1.00  0.00     0.000 C 
BRANCH  17  18
ATOM     18  C   UNL     1      14.941  29.097  50.191  1.00  0.00     0.000 C 
BRANCH  18  19
ATOM     19  C   UNL     1      15.075  30.623  50.319  1.00  0.00     0.000 C 
BRANCH  19  20
ATOM     20  C   UNL     1      15.038  31.102  51.780  1.00  0.00     0.006 C 
BRANCH  20  21
ATOM     21  C   UNL     1      15.968  32.293  52.037  1.00  0.00     0.053 C 
BRANCH  21  22
ATOM     22  C   UNL     1      15.407  33.536  51.420  1.00  0.00     0.041 C 
ATOM     23  O   UNL     1      14.313  34.008  51.829  1.00  0.00    -0.550 OA
ATOM     24  O   UNL     1      16.107  34.188  50.411  1.00  0.00    -0.550 OA
ENDBRANCH  21  22
ENDBRANCH  20  21
ENDBRANCH  19  20
ENDBRANCH  18  19
ENDBRANCH  17  18
ENDBRANCH  16  17
ENDBRANCH  15  16
ENDBRANCH  14  15
ENDBRANCH  13  14
ENDBRANCH   1  13
TORSDOF 20
ENDMDL
MODEL 8
REMARK VINA RESULT:    -4.328      1.782      5.071
REMARK INTER + INTRA:         -12.842
REMARK INTER:                  -9.581
REMARK INTRA:                  -3.260
REMARK UNBOUND:                -3.453
REMARK SMILES CCCCCCCCCCCCCCCCCCCCCC(=O)[O-]
REMARK SMILES IDX 12 1 11 2 10 3 9 4 8 5 7 6 6 7 5 8 4 9 3 10 2 11 1 12 13 13
REMARK SMILES IDX 14 14 15 15 16 16 17 17 18 18 19 19 20 20 21 21 22 22 23 23
REMARK SMILES IDX 24 24
REMARK H PARENT
REMARK Flexibility Score: inf
ROOT
ATOM      1  C   UNL     1      15.696  24.278  53.165  1.00  0.00     0.000 C 
ENDROOT
BRANCH   1   2
ATOM      2  C   UNL     1      15.323  25.687  53.673  1.00  0.00     0.000 C 
BRANCH   2   3
ATOM      3  C   UNL     1      16.508  26.458  54.280  1.00  0.00     0.000 C 
BRANCH   3   4
ATOM      4  C   UNL     1      16.098  27.340  55.470  1.00  0.00    -0.000 C 
BRANCH   4   5
ATOM      5  C   UNL     1      15.710  28.766  55.044  1.00  0.00    -0.000 C 
BRANCH   5   6
ATOM      6  C   UNL     1      15.991  29.805  56.144  1.00  0.00    -0.000 C 
BRANCH   6   7
ATOM      7  C   UNL     1      16.660  31.079  55.600  1.00  0.00    -0.000 C 
BRANCH   7   8
ATOM      8  C   UNL     1      18.194  30.972  55.566  1.00  0.00    -0.000 C 
BRANCH   8   9
ATOM      9  C   UNL     1      18.749  30.925  54.133  1.00  0.00    -0.000 C 
BRANCH   9  10
ATOM     10  C   UNL     1      20.058  30.121  54.030  1.00  0.00    -0.000 C 
BRANCH  10  11
ATOM     11  C   UNL     1      19.863  28.767  53.333  1.00  0.00    -0.003 C 
ATOM     12  C   UNL     1      18.624  28.737  52.439  1.00  0.00     0.004 C 
ENDBRANCH  10  11
ENDBRANCH   9  10
ENDBRANCH   8   9
ENDBRANCH   7   8
ENDBRANCH   6   7
ENDBRANCH   5   6
ENDBRANCH   4   5
ENDBRANCH   3   4
ENDBRANCH   2   3
ENDBRANCH   1   2
BRANCH   1  13
ATOM     13  C   UNL     1      14.886  23.875  51.920  1.00  0.00     0.000 C 
BRANCH  13  14
ATOM     14  C   UNL     1      13.812  24.913  51.544  1.00  0.00     0.000 C 
BRANCH  14  15
ATOM     15  C   UNL     1      14.058  25.640  50.209  1.00  0.00     0.000 C 
BRANCH  15  16
ATOM     16  C   UNL     1      15.549  25.687  49.830  1.00  0.00     0.000 C 
BRANCH  16  17
ATOM     17  C   UNL     1      16.236  26.974  50.312  1.00  0.00     0.000 C 
BRANCH  17  18
ATOM     18  C   UNL     1      15.343  28.212  50.137  1.00  0.00     0.000 C 
BRANCH  18  19
ATOM     19  C   UNL     1      14.917  28.782  51.500  1.00  0.00     0.000 C 
BRANCH  19  20
ATOM     20  C   UNL     1      14.556  30.275  51.433  1.00  0.00     0.006 C 
BRANCH  20  21
ATOM     21  C   UNL     1      15.711  31.185  51.868  1.00  0.00     0.053 C 
BRANCH  21  22
ATOM     22  C   UNL     1      15.214  32.574  52.121  1.00  0.00     0.041 C 
ATOM     23  O   UNL     1      15.333  33.460  51.233  1.00  0.00    -0.550 OA
ATOM     24  O   UNL     1      14.595  32.883  53.327  1.00  0.00    -0.550 OA
ENDBRANCH  21  22
ENDBRANCH  20  21
ENDBRANCH  19  20
ENDBRANCH  18  19
ENDBRANCH  17  18
ENDBRANCH  16  17
ENDBRANCH  15  16
ENDBRANCH  14  15
ENDBRANCH  13  14
ENDBRANCH   1  13
TORSDOF 20
ENDMDL
MODEL 9
REMARK VINA RESULT:    -4.318      2.259      4.943
REMARK INTER + INTRA:         -12.820
REMARK INTER:                  -9.230
REMARK INTRA:                  -3.590
REMARK UNBOUND:                -3.453
REMARK SMILES CCCCCCCCCCCCCCCCCCCCCC(=O)[O-]
REMARK SMILES IDX 12 1 11 2 10 3 9 4 8 5 7 6 6 7 5 8 4 9 3 10 2 11 1 12 13 13
REMARK SMILES IDX 14 14 15 15 16 16 17 17 18 18 19 19 20 20 21 21 22 22 23 23
REMARK SMILES IDX 24 24
REMARK H PARENT
REMARK Flexibility Score: inf
ROOT
ATOM      1  C   UNL     1      15.427  26.001  53.849  1.00  0.00     0.000 C 
ENDROOT
BRANCH   1   2
ATOM      2  C   UNL     1      16.812  26.652  54.050  1.00  0.00     0.000 C 
BRANCH   2   3
ATOM      3  C   UNL     1      17.986  25.744  53.641  1.00  0.00     0.000 C 
BRANCH   3   4
ATOM      4  C   UNL     1      18.793  26.309  52.461  1.00  0.00    -0.000 C 
BRANCH   4   5
ATOM      5  C   UNL     1      20.270  26.550  52.816  1.00  0.00    -0.000 C 
BRANCH   5   6
ATOM      6  C   UNL     1      20.731  27.978  52.474  1.00  0.00    -0.000 C 
BRANCH   6   7
ATOM      7  C   UNL     1      19.567  28.981  52.423  1.00  0.00    -0.000 C 
BRANCH   7   8
ATOM      8  C   UNL     1      19.377  29.734  53.751  1.00  0.00    -0.000 C 
BRANCH   8   9
ATOM      9  C   UNL     1      17.939  30.245  53.936  1.00  0.00    -0.000 C 
BRANCH   9  10
ATOM     10  C   UNL     1      17.570  30.455  55.416  1.00  0.00    -0.000 C 
BRANCH  10  11
ATOM     11  C   UNL     1      16.164  29.936  55.751  1.00  0.00    -0.003 C 
ATOM     12  C   UNL     1      15.386  30.887  56.661  1.00  0.00     0.004 C 
ENDBRANCH  10  11
ENDBRANCH   9  10
ENDBRANCH   8   9
ENDBRANCH   7   8
ENDBRANCH   6   7
ENDBRANCH   5   6
ENDBRANCH   4   5
ENDBRANCH   3   4
ENDBRANCH   2   3
ENDBRANCH   1   2
BRANCH   1  13
ATOM     13  C   UNL     1      15.526  24.488  53.594  1.00  0.00     0.000 C 
BRANCH  13  14
ATOM     14  C   UNL     1      14.961  24.075  52.221  1.00  0.00     0.000 C 
BRANCH  14  15
ATOM     15  C   UNL     1      16.020  23.875  51.123  1.00  0.00     0.000 C 
BRANCH  15  16
ATOM     16  C   UNL     1      15.965  24.971  50.044  1.00  0.00     0.000 C 
BRANCH  16  17
ATOM     17  C   UNL     1      14.741  25.887  50.201  1.00  0.00     0.000 C 
BRANCH  17  18
ATOM     18  C   UNL     1      14.983  27.289  49.623  1.00  0.00     0.000 C 
BRANCH  18  19
ATOM     19  C   UNL     1      16.233  27.934  50.245  1.00  0.00     0.000 C 
BRANCH  19  20
ATOM     20  C   UNL     1      15.892  28.929  51.367  1.00  0.00     0.006 C 
BRANCH  20  21
ATOM     21  C   UNL     1      14.474  29.497  51.245  1.00  0.00     0.053 C 
BRANCH  21  22
ATOM     22  C   UNL     1      14.509  30.994  51.252  1.00  0.00     0.041 C 
ATOM     23  O   UNL     1      13.437  31.651  51.332  1.00  0.00    -0.550 OA
ATOM     24  O   UNL     1      15.727  31.661  51.196  1.00  0.00    -0.550 OA
ENDBRANCH  21  22
ENDBRANCH  20  21
ENDBRANCH  19  20
ENDBRANCH  18  19
ENDBRANCH  17  18
ENDBRANCH  16  17
ENDBRANCH  15  16
ENDBRANCH  14  15
ENDBRANCH  13  14
ENDBRANCH   1  13
TORSDOF 20
ENDMDL
