MODEL 1
REMARK VINA RESULT:     3.555      0.000      0.000
REMARK INTER + INTRA:           5.009
REMARK INTER:                   5.633
REMARK INTRA:                  -0.624
REMARK UNBOUND:                -0.624
REMARK SMILES CCCCCCCCCCCC(=O)[O-]
REMARK SMILES IDX 7 1 8 2 9 3 10 4 11 5 12 6 13 7 14 8 6 9 5 10 4 11 3 12 2 13
REMARK SMILES IDX 1 14
REMARK H PARENT
REMARK Flexibility Score: inf
ROOT
ATOM      1  C   UNL     1       3.935  -8.551  12.333  1.00  0.00     0.000 C 
ENDROOT
BRANCH   1   2
ATOM      2  C   UNL     1       3.383  -8.072  10.981  1.00  0.00     0.000 C 
BRANCH   2   3
ATOM      3  C   UNL     1       2.226  -7.085  11.179  1.00  0.00     0.000 C 
BRANCH   3   4
ATOM      4  C   UNL     1       1.254  -7.584  12.257  1.00  0.00     0.006 C 
BRANCH   4   5
ATOM      5  C   UNL     1      -0.212  -7.462  11.820  1.00  0.00     0.053 C 
BRANCH   5   6
ATOM      6  C   UNL     1      -0.454  -8.124  10.498  1.00  0.00     0.041 C 
ATOM      7  O   UNL     1      -0.026  -9.288  10.283  1.00  0.00    -0.550 OA
ATOM      8  O   UNL     1      -1.124  -7.441   9.490  1.00  0.00    -0.550 OA
ENDBRANCH   5   6
ENDBRANCH   4   5
ENDBRANCH   3   4
ENDBRANCH   2   3
ENDBRANCH   1   2
BRANCH   1   9
ATOM      9  C   UNL     1       4.858  -7.516  12.998  1.00  0.00     0.000 C 
BRANCH   9  10
ATOM     10  C   UNL     1       5.669  -6.704  11.974  1.00  0.00    -0.000 C 
BRANCH  10  11
ATOM     11  C   UNL     1       7.179  -6.738  12.257  1.00  0.00    -0.000 C 
BRANCH  11  12
ATOM     12  C   UNL     1       7.499  -6.879  13.756  1.00  0.00    -0.000 C 
BRANCH  12  13
ATOM     13  C   UNL     1       8.036  -5.574  14.367  1.00  0.00    -0.003 C 
ATOM     14  C   UNL     1       7.079  -4.967  15.394  1.00  0.00     0.004 C 
ENDBRANCH  12  13
ENDBRANCH  11  12
ENDBRANCH  10  11
ENDBRANCH   9  10
ENDBRANCH   1   9
TORSDOF 10
ENDMDL
MODEL 2
REMARK VINA RESULT:     4.307      3.978      7.462
REMARK INTER + INTRA:           6.201
REMARK INTER:                   6.759
REMARK INTRA:                  -0.558
REMARK UNBOUND:                -0.624
REMARK SMILES CCCCCCCCCCCC(=O)[O-]
REMARK SMILES IDX 7 1 8 2 9 3 10 4 11 5 12 6 13 7 14 8 6 9 5 10 4 11 3 12 2 13
REMARK SMILES IDX 1 14
REMARK H PARENT
REMARK Flexibility Score: inf
ROOT
ATOM      1  C   UNL     1       3.837  -8.405  12.620  1.00  0.00     0.000 C 
ENDROOT
BRANCH   1   2
ATOM      2  C   UNL     1       5.063  -7.612  13.100  1.00  0.00     0.000 C 
BRANCH   2   3
ATOM      3  C   UNL     1       5.687  -6.816  11.948  1.00  0.00     0.000 C 
BRANCH   3   4
ATOM      4  C   UNL     1       7.054  -6.242  12.350  1.00  0.00     0.006 C 
BRANCH   4   5
ATOM      5  C   UNL     1       7.484  -6.694  13.751  1.00  0.00     0.053 C 
BRANCH   5   6
ATOM      6  C   UNL     1       7.981  -5.547  14.577  1.00  0.00     0.041 C 
ATOM      7  O   UNL     1       9.211  -5.282  14.621  1.00  0.00    -0.550 OA
ATOM      8  O   UNL     1       7.088  -4.792  15.327  1.00  0.00    -0.550 OA
ENDBRANCH   5   6
ENDBRANCH   4   5
ENDBRANCH   3   4
ENDBRANCH   2   3
ENDBRANCH   1   2
BRANCH   1   9
ATOM      9  C   UNL     1       3.377  -7.993  11.212  1.00  0.00     0.000 C 
BRANCH   9  10
ATOM     10  C   UNL     1       2.218  -6.983  11.241  1.00  0.00    -0.000 C 
BRANCH  10  11
ATOM     11  C   UNL     1       0.923  -7.588  11.806  1.00  0.00    -0.000 C 
BRANCH  11  12
ATOM     12  C   UNL     1       0.294  -8.629  10.863  1.00  0.00    -0.000 C 
BRANCH  12  13
ATOM     13  C   UNL     1      -1.124  -8.237  10.417  1.00  0.00    -0.003 C 
ATOM     14  C   UNL     1      -1.125  -7.163   9.329  1.00  0.00     0.004 C 
ENDBRANCH  12  13
ENDBRANCH  11  12
ENDBRANCH  10  11
ENDBRANCH   9  10
ENDBRANCH   1   9
TORSDOF 10
ENDMDL
MODEL 3
REMARK VINA RESULT:     6.454      1.797      2.275
REMARK INTER + INTRA:           9.604
REMARK INTER:                  10.081
REMARK INTRA:                  -0.477
REMARK UNBOUND:                -0.624
REMARK SMILES CCCCCCCCCCCC(=O)[O-]
REMARK SMILES IDX 7 1 8 2 9 3 10 4 11 5 12 6 13 7 14 8 6 9 5 10 4 11 3 12 2 13
REMARK SMILES IDX 1 14
REMARK H PARENT
REMARK Flexibility Score: inf
ROOT
ATOM      1  C   UNL     1       4.116  -8.571  12.479  1.00  0.00     0.000 C 
ENDROOT
BRANCH   1   2
ATOM      2  C   UNL     1       3.639  -8.311  11.041  1.00  0.00     0.000 C 
BRANCH   2   3
ATOM      3  C   UNL     1       2.111  -8.388  10.948  1.00  0.00     0.000 C 
BRANCH   3   4
ATOM      4  C   UNL     1       1.458  -7.142  11.564  1.00  0.00     0.006 C 
BRANCH   4   5
ATOM      5  C   UNL     1       2.376  -5.914  11.504  1.00  0.00     0.053 C 
BRANCH   5   6
ATOM      6  C   UNL     1       2.119  -5.087  10.282  1.00  0.00     0.041 C 
ATOM      7  O   UNL     1       2.757  -4.018  10.094  1.00  0.00    -0.550 OA
ATOM      8  O   UNL     1       1.150  -5.479   9.368  1.00  0.00    -0.550 OA
ENDBRANCH   5   6
ENDBRANCH   4   5
ENDBRANCH   3   4
ENDBRANCH   2   3
ENDBRANCH   1   2
BRANCH   1   9
ATOM      9  C   UNL     1       4.978  -7.426  13.035  1.00  0.00     0.000 C 
BRANCH   9  10
ATOM     10  C   UNL     1       5.785  -6.708  11.939  1.00  0.00    -0.000 C 
BRANCH  10  11
ATOM     11  C   UNL     1       7.280  -6.606  12.280  1.00  0.00    -0.000 C 
BRANCH  11  12
ATOM     12  C   UNL     1       7.567  -6.846  13.773  1.00  0.00    -0.000 C 
BRANCH  12  13
ATOM     13  C   UNL     1       8.024  -5.569  14.496  1.00  0.00    -0.003 C 
ATOM     14  C   UNL     1       6.965  -5.021  15.453  1.00  0.00     0.004 C 
ENDBRANCH  12  13
ENDBRANCH  11  12
ENDBRANCH  10  11
ENDBRANCH   9  10
ENDBRANCH   1   9
TORSDOF 10
ENDMDL
