MODEL 1
REMARK VINA RESULT:    -4.141      0.000      0.000
REMARK INTER + INTRA:          -7.511
REMARK INTER:                  -6.562
REMARK INTRA:                  -0.949
REMARK UNBOUND:                -0.949
REMARK SMILES CCCCCCCCCCCC(=O)[O-]
REMARK SMILES IDX 7 1 8 2 9 3 10 4 11 5 12 6 13 7 14 8 6 9 5 10 4 11 3 12 2 13
REMARK SMILES IDX 1 14
REMARK H PARENT
REMARK Flexibility Score: inf
ROOT
ATOM      1  C   UNL     1     132.422 134.082 133.090  1.00  0.00     0.000 C 
ENDROOT
BRANCH   1   2
ATOM      2  C   UNL     1     132.634 133.690 131.618  1.00  0.00     0.000 C 
BRANCH   2   3
ATOM      3  C   UNL     1     131.311 133.406 130.887  1.00  0.00     0.000 C 
BRANCH   3   4
ATOM      4  C   UNL     1     131.505 132.558 129.615  1.00  0.00     0.006 C 
BRANCH   4   5
ATOM      5  C   UNL     1     130.952 133.201 128.333  1.00  0.00     0.053 C 
BRANCH   5   6
ATOM      6  C   UNL     1     129.612 132.646 127.958  1.00  0.00     0.041 C 
ATOM      7  O   UNL     1     128.568 133.321 128.157  1.00  0.00    -0.550 OA
ATOM      8  O   UNL     1     129.515 131.369 127.420  1.00  0.00    -0.550 OA
ENDBRANCH   5   6
ENDBRANCH   4   5
ENDBRANCH   3   4
ENDBRANCH   2   3
ENDBRANCH   1   2
BRANCH   1   9
ATOM      9  C   UNL     1     132.796 135.549 133.371  1.00  0.00     0.000 C 
BRANCH   9  10
ATOM     10  C   UNL     1     133.313 136.276 132.119  1.00  0.00    -0.000 C 
BRANCH  10  11
ATOM     11  C   UNL     1     132.799 137.724 132.022  1.00  0.00    -0.000 C 
BRANCH  11  12
ATOM     12  C   UNL     1     131.297 137.804 131.699  1.00  0.00    -0.000 C 
BRANCH  12  13
ATOM     13  C   UNL     1     130.835 136.922 130.525  1.00  0.00    -0.003 C 
ATOM     14  C   UNL     1     129.352 137.090 130.198  1.00  0.00     0.004 C 
ENDBRANCH  12  13
ENDBRANCH  11  12
ENDBRANCH  10  11
ENDBRANCH   9  10
ENDBRANCH   1   9
TORSDOF 10
ENDMDL
MODEL 2
REMARK VINA RESULT:    -3.936     11.936     14.505
REMARK INTER + INTRA:          -7.186
REMARK INTER:                  -6.302
REMARK INTRA:                  -0.885
REMARK UNBOUND:                -0.949
REMARK SMILES CCCCCCCCCCCC(=O)[O-]
REMARK SMILES IDX 7 1 8 2 9 3 10 4 11 5 12 6 13 7 14 8 6 9 5 10 4 11 3 12 2 13
REMARK SMILES IDX 1 14
REMARK H PARENT
REMARK Flexibility Score: inf
ROOT
ATOM      1  C   UNL     1     124.730 119.908 130.800  1.00  0.00     0.000 C 
ENDROOT
BRANCH   1   2
ATOM      2  C   UNL     1     125.561 121.011 130.123  1.00  0.00     0.000 C 
BRANCH   2   3
ATOM      3  C   UNL     1     124.702 122.202 129.666  1.00  0.00     0.000 C 
BRANCH   3   4
ATOM      4  C   UNL     1     125.102 122.725 128.274  1.00  0.00     0.006 C 
BRANCH   4   5
ATOM      5  C   UNL     1     126.608 122.977 128.098  1.00  0.00     0.053 C 
BRANCH   5   6
ATOM      6  C   UNL     1     126.891 124.354 127.582  1.00  0.00     0.041 C 
ATOM      7  O   UNL     1     126.732 125.356 128.329  1.00  0.00    -0.550 OA
ATOM      8  O   UNL     1     127.299 124.533 126.267  1.00  0.00    -0.550 OA
ENDBRANCH   5   6
ENDBRANCH   4   5
ENDBRANCH   3   4
ENDBRANCH   2   3
ENDBRANCH   1   2
BRANCH   1   9
ATOM      9  C   UNL     1     123.416 120.441 131.399  1.00  0.00     0.000 C 
BRANCH   9  10
ATOM     10  C   UNL     1     123.180 119.948 132.836  1.00  0.00    -0.000 C 
BRANCH  10  11
ATOM     11  C   UNL     1     123.329 121.072 133.877  1.00  0.00    -0.000 C 
BRANCH  11  12
ATOM     12  C   UNL     1     123.615 122.443 133.240  1.00  0.00    -0.000 C 
BRANCH  12  13
ATOM     13  C   UNL     1     124.907 123.128 133.720  1.00  0.00    -0.003 C 
ATOM     14  C   UNL     1     125.202 122.880 135.198  1.00  0.00     0.004 C 
ENDBRANCH  12  13
ENDBRANCH  11  12
ENDBRANCH  10  11
ENDBRANCH   9  10
ENDBRANCH   1   9
TORSDOF 10
ENDMDL
MODEL 3
REMARK VINA RESULT:    -3.909      1.196      2.912
REMARK INTER + INTRA:          -7.143
REMARK INTER:                  -6.325
REMARK INTRA:                  -0.817
REMARK UNBOUND:                -0.949
REMARK SMILES CCCCCCCCCCCC(=O)[O-]
REMARK SMILES IDX 7 1 8 2 9 3 10 4 11 5 12 6 13 7 14 8 6 9 5 10 4 11 3 12 2 13
REMARK SMILES IDX 1 14
REMARK H PARENT
REMARK Flexibility Score: inf
ROOT
ATOM      1  C   UNL     1     130.663 134.902 130.708  1.00  0.00     0.000 C 
ENDROOT
BRANCH   1   2
ATOM      2  C   UNL     1     130.830 134.083 129.417  1.00  0.00     0.000 C 
BRANCH   2   3
ATOM      3  C   UNL     1     131.091 132.593 129.691  1.00  0.00     0.000 C 
BRANCH   3   4
ATOM      4  C   UNL     1     130.726 131.694 128.495  1.00  0.00     0.006 C 
BRANCH   4   5
ATOM      5  C   UNL     1     129.275 131.187 128.503  1.00  0.00     0.053 C 
BRANCH   5   6
ATOM      6  C   UNL     1     128.445 131.840 127.440  1.00  0.00     0.041 C 
ATOM      7  O   UNL     1     127.697 132.810 127.728  1.00  0.00    -0.550 OA
ATOM      8  O   UNL     1     128.476 131.355 126.139  1.00  0.00    -0.550 OA
ENDBRANCH   5   6
ENDBRANCH   4   5
ENDBRANCH   3   4
ENDBRANCH   2   3
ENDBRANCH   1   2
BRANCH   1   9
ATOM      9  C   UNL     1     130.784 136.418 130.467  1.00  0.00     0.000 C 
BRANCH   9  10
ATOM     10  C   UNL     1     131.670 137.113 131.514  1.00  0.00    -0.000 C 
BRANCH  10  11
ATOM     11  C   UNL     1     132.907 136.277 131.890  1.00  0.00    -0.000 C 
BRANCH  11  12
ATOM     12  C   UNL     1     133.009 136.006 133.401  1.00  0.00    -0.000 C 
BRANCH  12  13
ATOM     13  C   UNL     1     132.413 134.665 133.864  1.00  0.00    -0.003 C 
ATOM     14  C   UNL     1     133.088 133.456 133.218  1.00  0.00     0.004 C 
ENDBRANCH  12  13
ENDBRANCH  11  12
ENDBRANCH  10  11
ENDBRANCH   9  10
ENDBRANCH   1   9
TORSDOF 10
ENDMDL
MODEL 4
REMARK VINA RESULT:    -3.898     13.372     15.519
REMARK INTER + INTRA:          -7.126
REMARK INTER:                  -6.339
REMARK INTRA:                  -0.788
REMARK UNBOUND:                -0.949
REMARK SMILES CCCCCCCCCCCC(=O)[O-]
REMARK SMILES IDX 7 1 8 2 9 3 10 4 11 5 12 6 13 7 14 8 6 9 5 10 4 11 3 12 2 13
REMARK SMILES IDX 1 14
REMARK H PARENT
REMARK Flexibility Score: inf
ROOT
ATOM      1  C   UNL     1     123.981 121.486 132.349  1.00  0.00     0.000 C 
ENDROOT
BRANCH   1   2
ATOM      2  C   UNL     1     123.218 120.454 131.502  1.00  0.00     0.000 C 
BRANCH   2   3
ATOM      3  C   UNL     1     123.364 119.022 132.042  1.00  0.00     0.000 C 
BRANCH   3   4
ATOM      4  C   UNL     1     124.546 118.264 131.409  1.00  0.00     0.006 C 
BRANCH   4   5
ATOM      5  C   UNL     1     125.230 119.009 130.251  1.00  0.00     0.053 C 
BRANCH   5   6
ATOM      6  C   UNL     1     126.705 118.751 130.210  1.00  0.00     0.041 C 
ATOM      7  O   UNL     1     127.420 119.299 129.330  1.00  0.00    -0.550 OA
ATOM      8  O   UNL     1     127.283 117.880 131.124  1.00  0.00    -0.550 OA
ENDBRANCH   5   6
ENDBRANCH   4   5
ENDBRANCH   3   4
ENDBRANCH   2   3
ENDBRANCH   1   2
BRANCH   1   9
ATOM      9  C   UNL     1     124.369 122.740 131.544  1.00  0.00     0.000 C 
BRANCH   9  10
ATOM     10  C   UNL     1     123.842 122.701 130.100  1.00  0.00    -0.000 C 
BRANCH  10  11
ATOM     11  C   UNL     1     124.817 123.344 129.098  1.00  0.00    -0.000 C 
BRANCH  11  12
ATOM     12  C   UNL     1     126.001 122.427 128.744  1.00  0.00    -0.000 C 
BRANCH  12  13
ATOM     13  C   UNL     1     127.159 123.117 128.001  1.00  0.00    -0.003 C 
ATOM     14  C   UNL     1     128.415 122.250 127.915  1.00  0.00     0.004 C 
ENDBRANCH  12  13
ENDBRANCH  11  12
ENDBRANCH  10  11
ENDBRANCH   9  10
ENDBRANCH   1   9
TORSDOF 10
ENDMDL
MODEL 5
REMARK VINA RESULT:    -3.872     12.790     15.687
REMARK INTER + INTRA:          -7.085
REMARK INTER:                  -6.119
REMARK INTRA:                  -0.966
REMARK UNBOUND:                -0.949
REMARK SMILES CCCCCCCCCCCC(=O)[O-]
REMARK SMILES IDX 7 1 8 2 9 3 10 4 11 5 12 6 13 7 14 8 6 9 5 10 4 11 3 12 2 13
REMARK SMILES IDX 1 14
REMARK H PARENT
REMARK Flexibility Score: inf
ROOT
ATOM      1  C   UNL     1     123.728 121.196 132.475  1.00  0.00     0.000 C 
ENDROOT
BRANCH   1   2
ATOM      2  C   UNL     1     124.589 122.180 131.667  1.00  0.00     0.000 C 
BRANCH   2   3
ATOM      3  C   UNL     1     124.242 122.178 130.169  1.00  0.00     0.000 C 
BRANCH   3   4
ATOM      4  C   UNL     1     125.490 122.243 129.268  1.00  0.00     0.006 C 
BRANCH   4   5
ATOM      5  C   UNL     1     125.671 123.580 128.532  1.00  0.00     0.053 C 
BRANCH   5   6
ATOM      6  C   UNL     1     126.887 123.579 127.656  1.00  0.00     0.041 C 
ATOM      7  O   UNL     1     127.002 124.424 126.731  1.00  0.00    -0.550 OA
ATOM      8  O   UNL     1     127.876 122.622 127.843  1.00  0.00    -0.550 OA
ENDBRANCH   5   6
ENDBRANCH   4   5
ENDBRANCH   3   4
ENDBRANCH   2   3
ENDBRANCH   1   2
BRANCH   1   9
ATOM      9  C   UNL     1     122.875 120.281 131.577  1.00  0.00     0.000 C 
BRANCH   9  10
ATOM     10  C   UNL     1     122.861 118.822 132.066  1.00  0.00    -0.000 C 
BRANCH  10  11
ATOM     11  C   UNL     1     124.233 118.139 131.925  1.00  0.00    -0.000 C 
BRANCH  11  12
ATOM     12  C   UNL     1     124.977 118.551 130.643  1.00  0.00    -0.000 C 
BRANCH  12  13
ATOM     13  C   UNL     1     126.505 118.373 130.690  1.00  0.00    -0.003 C 
ATOM     14  C   UNL     1     127.216 118.975 129.479  1.00  0.00     0.004 C 
ENDBRANCH  12  13
ENDBRANCH  11  12
ENDBRANCH  10  11
ENDBRANCH   9  10
ENDBRANCH   1   9
TORSDOF 10
ENDMDL
MODEL 6
REMARK VINA RESULT:    -3.847     13.009     15.553
REMARK INTER + INTRA:          -7.045
REMARK INTER:                  -6.202
REMARK INTRA:                  -0.843
REMARK UNBOUND:                -0.949
REMARK SMILES CCCCCCCCCCCC(=O)[O-]
REMARK SMILES IDX 7 1 8 2 9 3 10 4 11 5 12 6 13 7 14 8 6 9 5 10 4 11 3 12 2 13
REMARK SMILES IDX 1 14
REMARK H PARENT
REMARK Flexibility Score: inf
ROOT
ATOM      1  C   UNL     1     125.649 118.960 130.079  1.00  0.00     0.000 C 
ENDROOT
BRANCH   1   2
ATOM      2  C   UNL     1     125.162 118.295 131.377  1.00  0.00     0.000 C 
BRANCH   2   3
ATOM      3  C   UNL     1     123.629 118.298 131.503  1.00  0.00     0.000 C 
BRANCH   3   4
ATOM      4  C   UNL     1     123.136 119.047 132.756  1.00  0.00     0.006 C 
BRANCH   4   5
ATOM      5  C   UNL     1     122.144 120.185 132.466  1.00  0.00     0.053 C 
BRANCH   5   6
ATOM      6  C   UNL     1     122.814 121.524 132.451  1.00  0.00     0.041 C 
ATOM      7  O   UNL     1     122.290 122.487 131.832  1.00  0.00    -0.550 OA
ATOM      8  O   UNL     1     124.033 121.699 133.093  1.00  0.00    -0.550 OA
ENDBRANCH   5   6
ENDBRANCH   4   5
ENDBRANCH   3   4
ENDBRANCH   2   3
ENDBRANCH   1   2
BRANCH   1   9
ATOM      9  C   UNL     1     125.814 120.484 130.220  1.00  0.00     0.000 C 
BRANCH   9  10
ATOM     10  C   UNL     1     124.722 121.267 129.471  1.00  0.00    -0.000 C 
BRANCH  10  11
ATOM     11  C   UNL     1     125.118 122.731 129.212  1.00  0.00    -0.000 C 
BRANCH  11  12
ATOM     12  C   UNL     1     126.299 122.867 128.235  1.00  0.00    -0.000 C 
BRANCH  12  13
ATOM     13  C   UNL     1     126.418 124.237 127.544  1.00  0.00    -0.003 C 
ATOM     14  C   UNL     1     126.744 125.371 128.515  1.00  0.00     0.004 C 
ENDBRANCH  12  13
ENDBRANCH  11  12
ENDBRANCH  10  11
ENDBRANCH   9  10
ENDBRANCH   1   9
TORSDOF 10
ENDMDL
MODEL 7
REMARK VINA RESULT:    -3.843      1.549      3.187
REMARK INTER + INTRA:          -7.038
REMARK INTER:                  -6.115
REMARK INTRA:                  -0.924
REMARK UNBOUND:                -0.949
REMARK SMILES CCCCCCCCCCCC(=O)[O-]
REMARK SMILES IDX 7 1 8 2 9 3 10 4 11 5 12 6 13 7 14 8 6 9 5 10 4 11 3 12 2 13
REMARK SMILES IDX 1 14
REMARK H PARENT
REMARK Flexibility Score: inf
ROOT
ATOM      1  C   UNL     1     131.401 135.846 131.066  1.00  0.00     0.000 C 
ENDROOT
BRANCH   1   2
ATOM      2  C   UNL     1     130.693 134.684 130.350  1.00  0.00     0.000 C 
BRANCH   2   3
ATOM      3  C   UNL     1     131.462 133.358 130.474  1.00  0.00     0.000 C 
BRANCH   3   4
ATOM      4  C   UNL     1     131.350 132.485 129.209  1.00  0.00     0.006 C 
BRANCH   4   5
ATOM      5  C   UNL     1     130.283 132.953 128.207  1.00  0.00     0.053 C 
BRANCH   5   6
ATOM      6  C   UNL     1     129.336 131.852 127.838  1.00  0.00     0.041 C 
ATOM      7  O   UNL     1     128.277 132.112 127.209  1.00  0.00    -0.550 OA
ATOM      8  O   UNL     1     129.609 130.545 128.218  1.00  0.00    -0.550 OA
ENDBRANCH   5   6
ENDBRANCH   4   5
ENDBRANCH   3   4
ENDBRANCH   2   3
ENDBRANCH   1   2
BRANCH   1   9
ATOM      9  C   UNL     1     132.779 135.446 131.624  1.00  0.00     0.000 C 
BRANCH   9  10
ATOM     10  C   UNL     1     132.852 135.561 133.155  1.00  0.00    -0.000 C 
BRANCH  10  11
ATOM     11  C   UNL     1     132.975 134.191 133.846  1.00  0.00    -0.000 C 
BRANCH  11  12
ATOM     12  C   UNL     1     131.714 133.806 134.639  1.00  0.00    -0.000 C 
BRANCH  12  13
ATOM     13  C   UNL     1     130.854 132.701 134.000  1.00  0.00    -0.003 C 
ATOM     14  C   UNL     1     129.767 132.173 134.935  1.00  0.00     0.004 C 
ENDBRANCH  12  13
ENDBRANCH  11  12
ENDBRANCH  10  11
ENDBRANCH   9  10
ENDBRANCH   1   9
TORSDOF 10
ENDMDL
MODEL 8
REMARK VINA RESULT:    -3.745     12.605     14.702
REMARK INTER + INTRA:          -6.884
REMARK INTER:                  -6.105
REMARK INTRA:                  -0.779
REMARK UNBOUND:                -0.949
REMARK SMILES CCCCCCCCCCCC(=O)[O-]
REMARK SMILES IDX 7 1 8 2 9 3 10 4 11 5 12 6 13 7 14 8 6 9 5 10 4 11 3 12 2 13
REMARK SMILES IDX 1 14
REMARK H PARENT
REMARK Flexibility Score: inf
ROOT
ATOM      1  C   UNL     1     125.059 121.338 130.613  1.00  0.00     0.000 C 
ENDROOT
BRANCH   1   2
ATOM      2  C   UNL     1     123.975 120.318 131.000  1.00  0.00     0.000 C 
BRANCH   2   3
ATOM      3  C   UNL     1     123.068 120.823 132.135  1.00  0.00     0.000 C 
BRANCH   3   4
ATOM      4  C   UNL     1     123.663 122.033 132.880  1.00  0.00     0.006 C 
BRANCH   4   5
ATOM      5  C   UNL     1     123.586 121.936 134.412  1.00  0.00     0.053 C 
BRANCH   5   6
ATOM      6  C   UNL     1     124.557 122.858 135.083  1.00  0.00     0.041 C 
ATOM      7  O   UNL     1     124.668 124.051 134.698  1.00  0.00    -0.550 OA
ATOM      8  O   UNL     1     125.363 122.388 136.112  1.00  0.00    -0.550 OA
ENDBRANCH   5   6
ENDBRANCH   4   5
ENDBRANCH   3   4
ENDBRANCH   2   3
ENDBRANCH   1   2
BRANCH   1   9
ATOM      9  C   UNL     1     124.807 121.975 129.235  1.00  0.00     0.000 C 
BRANCH   9  10
ATOM     10  C   UNL     1     124.568 123.491 129.320  1.00  0.00    -0.000 C 
BRANCH  10  11
ATOM     11  C   UNL     1     125.732 124.307 128.730  1.00  0.00    -0.000 C 
BRANCH  11  12
ATOM     12  C   UNL     1     126.498 123.547 127.632  1.00  0.00    -0.000 C 
BRANCH  12  13
ATOM     13  C   UNL     1     128.002 123.357 127.900  1.00  0.00    -0.003 C 
ATOM     14  C   UNL     1     128.375 121.908 128.211  1.00  0.00     0.004 C 
ENDBRANCH  12  13
ENDBRANCH  11  12
ENDBRANCH  10  11
ENDBRANCH   9  10
ENDBRANCH   1   9
TORSDOF 10
ENDMDL
MODEL 9
REMARK VINA RESULT:    -3.377     13.330     16.018
REMARK INTER + INTRA:          -6.300
REMARK INTER:                  -5.293
REMARK INTRA:                  -1.006
REMARK UNBOUND:                -0.949
REMARK SMILES CCCCCCCCCCCC(=O)[O-]
REMARK SMILES IDX 7 1 8 2 9 3 10 4 11 5 12 6 13 7 14 8 6 9 5 10 4 11 3 12 2 13
REMARK SMILES IDX 1 14
REMARK H PARENT
REMARK Flexibility Score: inf
ROOT
ATOM      1  C   UNL     1     125.621 119.111 130.756  1.00  0.00     0.000 C 
ENDROOT
BRANCH   1   2
ATOM      2  C   UNL     1     125.736 120.495 130.095  1.00  0.00     0.000 C 
BRANCH   2   3
ATOM      3  C   UNL     1     124.593 121.440 130.500  1.00  0.00     0.000 C 
BRANCH   3   4
ATOM      4  C   UNL     1     124.643 122.788 129.756  1.00  0.00     0.006 C 
BRANCH   4   5
ATOM      5  C   UNL     1     124.950 122.673 128.254  1.00  0.00     0.053 C 
BRANCH   5   6
ATOM      6  C   UNL     1     126.208 123.395 127.881  1.00  0.00     0.041 C 
ATOM      7  O   UNL     1     126.155 124.568 127.428  1.00  0.00    -0.550 OA
ATOM      8  O   UNL     1     127.436 122.758 128.002  1.00  0.00    -0.550 OA
ENDBRANCH   5   6
ENDBRANCH   4   5
ENDBRANCH   3   4
ENDBRANCH   2   3
ENDBRANCH   1   2
BRANCH   1   9
ATOM      9  C   UNL     1     124.160 118.673 130.961  1.00  0.00     0.000 C 
BRANCH   9  10
ATOM     10  C   UNL     1     123.960 117.875 132.260  1.00  0.00    -0.000 C 
BRANCH  10  11
ATOM     11  C   UNL     1     122.715 118.326 133.045  1.00  0.00    -0.000 C 
BRANCH  11  12
ATOM     12  C   UNL     1     121.965 119.484 132.362  1.00  0.00    -0.000 C 
BRANCH  12  13
ATOM     13  C   UNL     1     122.060 120.838 133.086  1.00  0.00    -0.003 C 
ATOM     14  C   UNL     1     123.086 120.841 134.219  1.00  0.00     0.004 C 
ENDBRANCH  12  13
ENDBRANCH  11  12
ENDBRANCH  10  11
ENDBRANCH   9  10
ENDBRANCH   1   9
TORSDOF 10
ENDMDL
