MODEL 1
REMARK VINA RESULT:    -5.389      0.000      0.000
REMARK INTER + INTRA:          -6.059
REMARK INTER:                  -5.862
REMARK INTRA:                  -0.198
REMARK UNBOUND:                -0.198
REMARK SMILES Cc1ccc(C(C)C)c(O)c1
REMARK SMILES IDX 1 1 2 2 11 3 9 4 5 5 4 6 3 7 10 8 6 10 7 11 8 12
REMARK H PARENT 10 9
REMARK Flexibility Score: inf
ROOT
ATOM      1  C   UNL     1       6.785  10.550   6.832  1.00  0.00     0.044 C 
ATOM      2  C   UNL     1       5.467  10.758   7.515  1.00  0.00    -0.047 A 
ATOM      3  C   UNL     1       4.284  10.300   6.919  1.00  0.00     0.049 A 
ATOM      4  C   UNL     1       3.041  10.522   7.534  1.00  0.00     0.119 A 
ATOM      5  C   UNL     1       2.974  11.223   8.758  1.00  0.00    -0.004 A 
ATOM      6  C   UNL     1       4.168  11.696   9.337  1.00  0.00     0.008 A 
ATOM      7  C   UNL     1       5.400  11.470   8.718  1.00  0.00     0.004 A 
ENDROOT
BRANCH   4   8
ATOM      8  O   UNL     1       1.880  10.047   6.924  1.00  0.00    -0.508 OA
ATOM      9  H   UNL     1       1.003   9.980   7.428  1.00  0.00     0.293 HD
ENDBRANCH   4   8
BRANCH   5  10
ATOM     10  C   UNL     1       1.639  11.476   9.445  1.00  0.00     0.017 C 
ATOM     11  C   UNL     1       1.455  12.966   9.758  1.00  0.00     0.012 C 
ATOM     12  C   UNL     1       1.497  10.624  10.711  1.00  0.00     0.012 C 
ENDBRANCH   5  10
TORSDOF 2
ENDMDL
MODEL 2
REMARK VINA RESULT:    -5.276      2.939      4.534
REMARK INTER + INTRA:          -5.936
REMARK INTER:                  -5.764
REMARK INTRA:                  -0.172
REMARK UNBOUND:                -0.198
REMARK SMILES Cc1ccc(C(C)C)c(O)c1
REMARK SMILES IDX 1 1 2 2 11 3 9 4 5 5 4 6 3 7 10 8 6 10 7 11 8 12
REMARK H PARENT 10 9
REMARK Flexibility Score: inf
ROOT
ATOM      1  C   UNL     1       8.661  12.377   3.294  1.00  0.00     0.044 C 
ATOM      2  C   UNL     1       7.793  11.923   4.430  1.00  0.00    -0.047 A 
ATOM      3  C   UNL     1       8.366  11.329   5.562  1.00  0.00     0.049 A 
ATOM      4  C   UNL     1       7.559  10.868   6.614  1.00  0.00     0.119 A 
ATOM      5  C   UNL     1       6.154  10.990   6.532  1.00  0.00    -0.004 A 
ATOM      6  C   UNL     1       5.589  11.570   5.380  1.00  0.00     0.008 A 
ATOM      7  C   UNL     1       6.400  12.026   4.338  1.00  0.00     0.004 A 
ENDROOT
BRANCH   4   8
ATOM      8  O   UNL     1       8.156  10.290   7.734  1.00  0.00    -0.508 OA
ATOM      9  H   UNL     1       8.490   9.333   7.726  1.00  0.00     0.293 HD
ENDBRANCH   4   8
BRANCH   5  10
ATOM     10  C   UNL     1       5.257  10.498   7.659  1.00  0.00     0.017 C 
ATOM     11  C   UNL     1       3.878  10.090   7.128  1.00  0.00     0.012 C 
ATOM     12  C   UNL     1       5.132  11.551   8.767  1.00  0.00     0.012 C 
ENDBRANCH   5  10
TORSDOF 2
ENDMDL
MODEL 3
REMARK VINA RESULT:    -5.231      1.490      4.289
REMARK INTER + INTRA:          -5.887
REMARK INTER:                  -5.689
REMARK INTRA:                  -0.198
REMARK UNBOUND:                -0.198
REMARK SMILES Cc1ccc(C(C)C)c(O)c1
REMARK SMILES IDX 1 1 2 2 11 3 9 4 5 5 4 6 3 7 10 8 6 10 7 11 8 12
REMARK H PARENT 10 9
REMARK Flexibility Score: inf
ROOT
ATOM      1  C   UNL     1       1.444  11.390   9.947  1.00  0.00     0.044 C 
ATOM      2  C   UNL     1       2.752  11.373   9.213  1.00  0.00    -0.047 A 
ATOM      3  C   UNL     1       3.209  10.191   8.616  1.00  0.00     0.049 A 
ATOM      4  C   UNL     1       4.449  10.155   7.959  1.00  0.00     0.119 A 
ATOM      5  C   UNL     1       5.253  11.315   7.904  1.00  0.00    -0.004 A 
ATOM      6  C   UNL     1       4.791  12.492   8.526  1.00  0.00     0.008 A 
ATOM      7  C   UNL     1       3.556  12.517   9.177  1.00  0.00     0.004 A 
ENDROOT
BRANCH   4   8
ATOM      8  O   UNL     1       4.876   8.968   7.364  1.00  0.00    -0.508 OA
ATOM      9  H   UNL     1       4.236   8.361   6.865  1.00  0.00     0.293 HD
ENDBRANCH   4   8
BRANCH   5  10
ATOM     10  C   UNL     1       6.601  11.302   7.197  1.00  0.00     0.017 C 
ATOM     11  C   UNL     1       7.710  11.835   8.113  1.00  0.00     0.012 C 
ATOM     12  C   UNL     1       6.545  12.092   5.883  1.00  0.00     0.012 C 
ENDBRANCH   5  10
TORSDOF 2
ENDMDL
MODEL 4
REMARK VINA RESULT:    -5.149      2.163      3.531
REMARK INTER + INTRA:          -5.798
REMARK INTER:                  -5.598
REMARK INTRA:                  -0.200
REMARK UNBOUND:                -0.198
REMARK SMILES Cc1ccc(C(C)C)c(O)c1
REMARK SMILES IDX 1 1 2 2 11 3 9 4 5 5 4 6 3 7 10 8 6 10 7 11 8 12
REMARK H PARENT 10 9
REMARK Flexibility Score: inf
ROOT
ATOM      1  C   UNL     1       9.963  11.535   5.862  1.00  0.00     0.044 C 
ATOM      2  C   UNL     1       8.564  11.230   6.309  1.00  0.00    -0.047 A 
ATOM      3  C   UNL     1       7.555  11.006   5.363  1.00  0.00     0.049 A 
ATOM      4  C   UNL     1       6.236  10.756   5.772  1.00  0.00     0.119 A 
ATOM      5  C   UNL     1       5.912  10.739   7.147  1.00  0.00    -0.004 A 
ATOM      6  C   UNL     1       6.932  10.986   8.087  1.00  0.00     0.008 A 
ATOM      7  C   UNL     1       8.242  11.234   7.671  1.00  0.00     0.004 A 
ENDROOT
BRANCH   4   8
ATOM      8  O   UNL     1       5.252  10.526   4.810  1.00  0.00    -0.508 OA
ATOM      9  H   UNL     1       5.325  10.903   3.872  1.00  0.00     0.293 HD
ENDBRANCH   4   8
BRANCH   5  10
ATOM     10  C   UNL     1       4.489  10.470   7.615  1.00  0.00     0.017 C 
ATOM     11  C   UNL     1       4.085  11.436   8.735  1.00  0.00     0.012 C 
ATOM     12  C   UNL     1       4.318   9.012   8.056  1.00  0.00     0.012 C 
ENDBRANCH   5  10
TORSDOF 2
ENDMDL
MODEL 5
REMARK VINA RESULT:    -5.110      2.448      3.775
REMARK INTER + INTRA:          -5.756
REMARK INTER:                  -5.557
REMARK INTRA:                  -0.199
REMARK UNBOUND:                -0.198
REMARK SMILES Cc1ccc(C(C)C)c(O)c1
REMARK SMILES IDX 1 1 2 2 11 3 9 4 5 5 4 6 3 7 10 8 6 10 7 11 8 12
REMARK H PARENT 10 9
REMARK Flexibility Score: inf
ROOT
ATOM      1  C   UNL     1       7.663  12.568   4.190  1.00  0.00     0.044 C 
ATOM      2  C   UNL     1       6.835  11.989   5.298  1.00  0.00    -0.047 A 
ATOM      3  C   UNL     1       7.272  12.077   6.626  1.00  0.00     0.049 A 
ATOM      4  C   UNL     1       6.521  11.506   7.665  1.00  0.00     0.119 A 
ATOM      5  C   UNL     1       5.318  10.824   7.376  1.00  0.00    -0.004 A 
ATOM      6  C   UNL     1       4.899  10.724   6.035  1.00  0.00     0.008 A 
ATOM      7  C   UNL     1       5.653  11.296   5.007  1.00  0.00     0.004 A 
ENDROOT
BRANCH   4   8
ATOM      8  O   UNL     1       6.973  11.617   8.980  1.00  0.00    -0.508 OA
ATOM      9  H   UNL     1       7.821  12.123   9.211  1.00  0.00     0.293 HD
ENDBRANCH   4   8
BRANCH   5  10
ATOM     10  C   UNL     1       4.486  10.197   8.485  1.00  0.00     0.017 C 
ATOM     11  C   UNL     1       4.099   8.754   8.136  1.00  0.00     0.012 C 
ATOM     12  C   UNL     1       3.243  11.042   8.791  1.00  0.00     0.012 C 
ENDBRANCH   5  10
TORSDOF 2
ENDMDL
MODEL 6
REMARK VINA RESULT:    -5.020      2.086      4.815
REMARK INTER + INTRA:          -5.658
REMARK INTER:                  -5.464
REMARK INTRA:                  -0.194
REMARK UNBOUND:                -0.198
REMARK SMILES Cc1ccc(C(C)C)c(O)c1
REMARK SMILES IDX 1 1 2 2 11 3 9 4 5 5 4 6 3 7 10 8 6 10 7 11 8 12
REMARK H PARENT 10 9
REMARK Flexibility Score: inf
ROOT
ATOM      1  C   UNL     1       2.468  10.517   9.917  1.00  0.00     0.044 C 
ATOM      2  C   UNL     1       3.534  10.774   8.894  1.00  0.00    -0.047 A 
ATOM      3  C   UNL     1       4.626  11.595   9.205  1.00  0.00     0.049 A 
ATOM      4  C   UNL     1       5.610  11.871   8.243  1.00  0.00     0.119 A 
ATOM      5  C   UNL     1       5.499  11.329   6.943  1.00  0.00    -0.004 A 
ATOM      6  C   UNL     1       4.385  10.521   6.637  1.00  0.00     0.008 A 
ATOM      7  C   UNL     1       3.412  10.253   7.601  1.00  0.00     0.004 A 
ENDROOT
BRANCH   4   8
ATOM      8  O   UNL     1       6.692  12.683   8.581  1.00  0.00    -0.508 OA
ATOM      9  H   UNL     1       7.646  12.340   8.552  1.00  0.00     0.293 HD
ENDBRANCH   4   8
BRANCH   5  10
ATOM     10  C   UNL     1       6.552  11.613   5.881  1.00  0.00     0.017 C 
ATOM     11  C   UNL     1       5.923  11.678   4.484  1.00  0.00     0.012 C 
ATOM     12  C   UNL     1       7.680  10.576   5.930  1.00  0.00     0.012 C 
ENDBRANCH   5  10
TORSDOF 2
ENDMDL
MODEL 7
REMARK VINA RESULT:    -4.881      1.444      4.544
REMARK INTER + INTRA:          -5.506
REMARK INTER:                  -5.306
REMARK INTRA:                  -0.200
REMARK UNBOUND:                -0.198
REMARK SMILES Cc1ccc(C(C)C)c(O)c1
REMARK SMILES IDX 1 1 2 2 11 3 9 4 5 5 4 6 3 7 10 8 6 10 7 11 8 12
REMARK H PARENT 10 9
REMARK Flexibility Score: inf
ROOT
ATOM      1  C   UNL     1       2.407  10.914   9.637  1.00  0.00     0.044 C 
ATOM      2  C   UNL     1       3.603  11.014   8.738  1.00  0.00    -0.047 A 
ATOM      3  C   UNL     1       3.532  10.559   7.415  1.00  0.00     0.049 A 
ATOM      4  C   UNL     1       4.658  10.615   6.578  1.00  0.00     0.119 A 
ATOM      5  C   UNL     1       5.880  11.123   7.071  1.00  0.00    -0.004 A 
ATOM      6  C   UNL     1       5.944  11.559   8.409  1.00  0.00     0.008 A 
ATOM      7  C   UNL     1       4.819  11.499   9.234  1.00  0.00     0.004 A 
ENDROOT
BRANCH   4   8
ATOM      8  O   UNL     1       4.557  10.164   5.262  1.00  0.00    -0.508 OA
ATOM      9  H   UNL     1       5.240  10.418   4.558  1.00  0.00     0.293 HD
ENDBRANCH   4   8
BRANCH   5  10
ATOM     10  C   UNL     1       7.115  11.195   6.183  1.00  0.00     0.017 C 
ATOM     11  C   UNL     1       8.383  10.851   6.974  1.00  0.00     0.012 C 
ATOM     12  C   UNL     1       7.237  12.569   5.515  1.00  0.00     0.012 C 
ENDBRANCH   5  10
TORSDOF 2
ENDMDL
MODEL 8
REMARK VINA RESULT:    -4.828      1.702      2.336
REMARK INTER + INTRA:          -5.449
REMARK INTER:                  -5.267
REMARK INTRA:                  -0.182
REMARK UNBOUND:                -0.198
REMARK SMILES Cc1ccc(C(C)C)c(O)c1
REMARK SMILES IDX 1 1 2 2 11 3 9 4 5 5 4 6 3 7 10 8 6 10 7 11 8 12
REMARK H PARENT 10 9
REMARK Flexibility Score: inf
ROOT
ATOM      1  C   UNL     1       9.185  11.876   7.651  1.00  0.00     0.044 C 
ATOM      2  C   UNL     1       7.736  11.665   7.979  1.00  0.00    -0.047 A 
ATOM      3  C   UNL     1       7.003  10.666   7.325  1.00  0.00     0.049 A 
ATOM      4  C   UNL     1       5.639  10.485   7.598  1.00  0.00     0.119 A 
ATOM      5  C   UNL     1       4.988  11.322   8.532  1.00  0.00    -0.004 A 
ATOM      6  C   UNL     1       5.731  12.337   9.168  1.00  0.00     0.008 A 
ATOM      7  C   UNL     1       7.089  12.508   8.889  1.00  0.00     0.004 A 
ENDROOT
BRANCH   4   8
ATOM      8  O   UNL     1       4.935   9.477   6.941  1.00  0.00    -0.508 OA
ATOM      9  H   UNL     1       3.923   9.425   6.971  1.00  0.00     0.293 HD
ENDBRANCH   4   8
BRANCH   5  10
ATOM     10  C   UNL     1       3.509  11.147   8.846  1.00  0.00     0.017 C 
ATOM     11  C   UNL     1       2.866  12.484   9.235  1.00  0.00     0.012 C 
ATOM     12  C   UNL     1       3.296  10.093   9.939  1.00  0.00     0.012 C 
ENDBRANCH   5  10
TORSDOF 2
ENDMDL
MODEL 9
REMARK VINA RESULT:    -4.696      1.916      2.664
REMARK INTER + INTRA:          -5.306
REMARK INTER:                  -5.109
REMARK INTRA:                  -0.197
REMARK UNBOUND:                -0.198
REMARK SMILES Cc1ccc(C(C)C)c(O)c1
REMARK SMILES IDX 1 1 2 2 11 3 9 4 5 5 4 6 3 7 10 8 6 10 7 11 8 12
REMARK H PARENT 10 9
REMARK Flexibility Score: inf
ROOT
ATOM      1  C   UNL     1       6.584  11.239   4.988  1.00  0.00     0.044 C 
ATOM      2  C   UNL     1       5.622  11.271   6.138  1.00  0.00    -0.047 A 
ATOM      3  C   UNL     1       5.908  12.037   7.276  1.00  0.00     0.049 A 
ATOM      4  C   UNL     1       5.032  12.044   8.372  1.00  0.00     0.119 A 
ATOM      5  C   UNL     1       3.854  11.265   8.340  1.00  0.00    -0.004 A 
ATOM      6  C   UNL     1       3.588  10.483   7.199  1.00  0.00     0.008 A 
ATOM      7  C   UNL     1       4.466  10.483   6.113  1.00  0.00     0.004 A 
ENDROOT
BRANCH   4   8
ATOM      8  O   UNL     1       5.335  12.824   9.488  1.00  0.00    -0.508 OA
ATOM      9  H   UNL     1       4.979  12.598  10.410  1.00  0.00     0.293 HD
ENDBRANCH   4   8
BRANCH   5  10
ATOM     10  C   UNL     1       2.888  11.256   9.516  1.00  0.00     0.017 C 
ATOM     11  C   UNL     1       2.920   9.907  10.246  1.00  0.00     0.012 C 
ATOM     12  C   UNL     1       1.464  11.604   9.066  1.00  0.00     0.012 C 
ENDBRANCH   5  10
TORSDOF 2
ENDMDL
