MODEL 1
REMARK VINA RESULT:    -3.797      0.000      0.000
REMARK INTER + INTRA:          -6.148
REMARK INTER:                  -8.015
REMARK INTRA:                   1.868
REMARK UNBOUND:                 1.868
REMARK SMILES CCC(=O)CCCCC[C@@H]1NC(=O)[C@H]2CCCCN2C(=O)[C@@H]([C@@H](C)CC)NC(=O)[C@@H](Cc2cn(OC)c3ccccc23)NC1=O
REMARK SMILES IDX 9 1 10 2 44 3 43 4 45 6 30 7 28 8 27 9 29 11 22 12 23 14
REMARK SMILES IDX 24 15 25 16 26 17 31 18 32 19 33 20 42 21 34 22 37 23 41 24
REMARK SMILES IDX 38 25 40 26 39 27 35 28 36 29 11 30 12 31 13 33 14 34 19 35
REMARK SMILES IDX 15 36 18 37 16 38 17 39 20 40 21 41 8 43 7 44 6 45 5 46 3 47
REMARK SMILES IDX 4 48 2 49 1 50
REMARK H PARENT 43 5 27 10 11 32
REMARK Flexibility Score: 80.00
ROOT
ATOM      1  C   UNL     1      63.601  11.451  38.242  1.00  0.00     0.035 C 
ENDROOT
BRANCH   1   2
ATOM      2  C   UNL     1      62.991  12.788  37.774  1.00  0.00     0.171 C 
BRANCH   2   3
ATOM      3  C   UNL     1      61.496  12.782  37.916  1.00  0.00     0.243 C 
ATOM      4  N   UNL     1      60.899  12.527  39.193  1.00  0.00    -0.342 N 
ATOM      5  H   UNL     1      60.948  11.543  39.542  1.00  0.00     0.164 HD
ATOM      6  O   UNL     1      60.767  13.037  36.922  1.00  0.00    -0.273 OA
BRANCH   4   7
ATOM      7  C   UNL     1      60.314  13.529  40.103  1.00  0.00     0.175 C 
BRANCH   7   8
ATOM      8  C   UNL     1      60.369  14.980  39.633  1.00  0.00     0.243 C 
ATOM      9  N   UNL     1      60.629  16.010  40.603  1.00  0.00    -0.342 N 
ATOM     10  H   UNL     1      60.768  15.685  41.588  1.00  0.00     0.164 HD
ATOM     11  O   UNL     1      60.141  15.281  38.434  1.00  0.00    -0.273 OA
BRANCH   9  12
ATOM     12  C   UNL     1      60.788  17.460  40.381  1.00  0.00     0.174 CG0
ATOM     13  G   UNL     1      62.136  17.852  39.792  1.00  0.00     0.000 G0
BRANCH  12  14
ATOM     14  C   UNL     1      59.537  18.167  39.760  1.00  0.00     0.018 C 
ATOM     15  C   UNL     1      58.254  17.381  40.111  1.00  0.00     0.010 C 
BRANCH  14  16
ATOM     16  C   UNL     1      59.407  19.674  40.094  1.00  0.00     0.002 C 
ATOM     17  C   UNL     1      58.256  20.005  41.047  1.00  0.00     0.004 C 
ENDBRANCH  14  16
ENDBRANCH  12  14
ENDBRANCH   9  12
ENDBRANCH   7   8
BRANCH   7  18
ATOM     18  C   UNL     1      58.891  13.112  40.517  1.00  0.00     0.073 C 
BRANCH  18  19
ATOM     19  C   UNL     1      58.585  11.676  40.201  1.00  0.00    -0.016 A 
ATOM     20  C   UNL     1      58.470  10.634  41.116  1.00  0.00     0.134 A 
ATOM     21  C   UNL     1      58.370  11.113  38.954  1.00  0.00     0.006 A 
ATOM     22  N   UNL     1      58.213   9.476  40.462  1.00  0.00    -0.191 N 
ATOM     23  C   UNL     1      58.153   9.772  39.153  1.00  0.00     0.087 A 
ATOM     24  C   UNL     1      58.339  11.679  37.679  1.00  0.00     0.011 A 
ATOM     25  C   UNL     1      57.904   8.903  38.091  1.00  0.00     0.030 A 
ATOM     26  C   UNL     1      58.087  10.827  36.589  1.00  0.00     0.001 A 
ATOM     27  C   UNL     1      57.876   9.445  36.793  1.00  0.00     0.002 A 
BRANCH  22  28
ATOM     28  O   UNL     1      58.042   8.219  41.008  1.00  0.00    -0.417 OA
ATOM     29  C   UNL     1      58.024   7.041  40.212  1.00  0.00     0.313 C 
ENDBRANCH  22  28
ENDBRANCH  18  19
ENDBRANCH   7  18
ENDBRANCH   4   7
ENDBRANCH   2   3
BRANCH   2  30
ATOM     30  N   UNL     1      63.525  13.907  38.551  1.00  0.00    -0.343 N 
ATOM     31  C   UNL     1      63.849  15.161  37.935  1.00  0.00     0.243 C 
ATOM     32  H   UNL     1      63.399  13.882  39.589  1.00  0.00     0.164 HD
ATOM     33  O   UNL     1      64.099  15.204  36.699  1.00  0.00    -0.273 OA
BRANCH  31  34
ATOM     34  C   UNL     1      63.909  16.418  38.773  1.00  0.00     0.174 C 
ATOM     35  N   UNL     1      62.699  17.248  38.609  1.00  0.00    -0.329 N 
ATOM     36  C   UNL     1      65.173  17.244  38.462  1.00  0.00     0.035 C 
ATOM     37  C   UNL     1      62.542  17.992  37.349  1.00  0.00     0.120 C 
ATOM     38  C   UNL     1      65.063  18.000  37.132  1.00  0.00     0.004 C 
ATOM     39  C   UNL     1      63.785  18.845  37.070  1.00  0.00     0.022 C 
BRANCH  35  40
ATOM     40  C   UNL     1      62.155  17.858  39.791  1.00  0.00     0.246 CG0
ATOM     41  O   UNL     1      62.825  18.767  40.356  1.00  0.00    -0.272 OA
ATOM     42  G   UNL     1      60.804  17.484  40.383  1.00  0.00     0.000 G0
ENDBRANCH  35  40
ENDBRANCH  31  34
ENDBRANCH   2  30
ENDBRANCH   1   2
BRANCH   1  43
ATOM     43  C   UNL     1      62.689  10.700  39.238  1.00  0.00     0.003 C 
BRANCH  43  44
ATOM     44  C   UNL     1      62.703   9.177  39.019  1.00  0.00     0.001 C 
BRANCH  44  45
ATOM     45  C   UNL     1      61.923   8.747  37.767  1.00  0.00     0.008 C 
BRANCH  45  46
ATOM     46  C   UNL     1      62.814   8.060  36.714  1.00  0.00     0.075 C 
BRANCH  46  47
ATOM     47  C   UNL     1      63.409   6.764  37.214  1.00  0.00     0.132 C 
ATOM     48  O   UNL     1      64.414   6.776  37.911  1.00  0.00    -0.300 OA
BRANCH  47  49
ATOM     49  C   UNL     1      62.798   5.458  36.768  1.00  0.00     0.072 C 
ATOM     50  C   UNL     1      63.801   4.519  36.097  1.00  0.00     0.012 C 
ENDBRANCH  47  49
ENDBRANCH  46  47
ENDBRANCH  45  46
ENDBRANCH  44  45
ENDBRANCH  43  44
ENDBRANCH   1  43
TORSDOF 12
ENDMDL
MODEL 2
REMARK VINA RESULT:    -3.164      1.302      2.047
REMARK INTER + INTRA:          -4.810
REMARK INTER:                  -5.818
REMARK INTRA:                   1.007
REMARK UNBOUND:                 1.868
REMARK SMILES CCC(=O)CCCCC[C@@H]1NC(=O)[C@H]2CCCCN2C(=O)[C@@H]([C@@H](C)CC)NC(=O)[C@@H](Cc2cn(OC)c3ccccc23)NC1=O
REMARK SMILES IDX 9 1 10 2 44 3 43 4 45 6 30 7 28 8 27 9 29 11 22 12 23 14
REMARK SMILES IDX 24 15 25 16 26 17 31 18 32 19 33 20 42 21 34 22 37 23 41 24
REMARK SMILES IDX 38 25 40 26 39 27 35 28 36 29 11 30 12 31 13 33 14 34 19 35
REMARK SMILES IDX 15 36 18 37 16 38 17 39 20 40 21 41 8 43 7 44 6 45 5 46 3 47
REMARK SMILES IDX 4 48 2 49 1 50
REMARK H PARENT 43 5 27 10 11 32
REMARK Flexibility Score: 80.00
ROOT
ATOM      1  C   UNL     1      64.139  11.627  38.572  1.00  0.00     0.035 C 
ENDROOT
BRANCH   1   2
ATOM      2  C   UNL     1      63.560  12.893  37.909  1.00  0.00     0.171 C 
BRANCH   2   3
ATOM      3  C   UNL     1      62.060  12.842  37.859  1.00  0.00     0.243 C 
ATOM      4  N   UNL     1      61.315  12.516  39.038  1.00  0.00    -0.342 N 
ATOM      5  H   UNL     1      61.351  11.520  39.352  1.00  0.00     0.164 HD
ATOM      6  O   UNL     1      61.455  13.121  36.791  1.00  0.00    -0.273 OA
BRANCH   4   7
ATOM      7  C   UNL     1      60.589  13.462  39.906  1.00  0.00     0.175 C 
BRANCH   7   8
ATOM      8  C   UNL     1      60.643  14.931  39.495  1.00  0.00     0.243 C 
ATOM      9  N   UNL     1      60.666  15.935  40.525  1.00  0.00    -0.342 N 
ATOM     10  H   UNL     1      60.647  15.581  41.509  1.00  0.00     0.164 HD
ATOM     11  O   UNL     1      60.614  15.265  38.284  1.00  0.00    -0.273 OA
BRANCH   9  12
ATOM     12  C   UNL     1      60.777  17.399  40.376  1.00  0.00     0.174 CG0
ATOM     13  G   UNL     1      62.066  17.857  39.708  1.00  0.00     0.000 G0
BRANCH  12  14
ATOM     14  C   UNL     1      59.467  18.108  39.896  1.00  0.00     0.018 C 
ATOM     15  C   UNL     1      58.336  17.886  40.924  1.00  0.00     0.010 C 
BRANCH  14  16
ATOM     16  C   UNL     1      59.633  19.604  39.527  1.00  0.00     0.002 C 
ATOM     17  C   UNL     1      58.898  20.564  40.464  1.00  0.00     0.004 C 
ENDBRANCH  14  16
ENDBRANCH  12  14
ENDBRANCH   9  12
ENDBRANCH   7   8
BRANCH   7  18
ATOM     18  C   UNL     1      59.145  12.980  40.135  1.00  0.00     0.073 C 
BRANCH  18  19
ATOM     19  C   UNL     1      58.791  11.775  39.312  1.00  0.00    -0.016 A 
ATOM     20  C   UNL     1      58.519  11.754  37.948  1.00  0.00     0.134 A 
ATOM     21  C   UNL     1      58.658  10.466  39.746  1.00  0.00     0.006 A 
ATOM     22  N   UNL     1      58.213  10.493  37.560  1.00  0.00    -0.191 N 
ATOM     23  C   UNL     1      58.301   9.717  38.653  1.00  0.00     0.087 A 
ATOM     24  C   UNL     1      58.836   9.888  41.004  1.00  0.00     0.011 A 
ATOM     25  C   UNL     1      58.082   8.343  38.744  1.00  0.00     0.030 A 
ATOM     26  C   UNL     1      58.625   8.504  41.125  1.00  0.00     0.001 A 
ATOM     27  C   UNL     1      58.245   7.735  40.002  1.00  0.00     0.002 A 
BRANCH  22  28
ATOM     28  O   UNL     1      57.875  10.060  36.293  1.00  0.00    -0.417 OA
ATOM     29  C   UNL     1      57.979  10.899  35.150  1.00  0.00     0.313 C 
ENDBRANCH  22  28
ENDBRANCH  18  19
ENDBRANCH   7  18
ENDBRANCH   4   7
ENDBRANCH   2   3
BRANCH   2  30
ATOM     30  N   UNL     1      63.958  14.096  38.640  1.00  0.00    -0.343 N 
ATOM     31  C   UNL     1      64.064  15.369  37.990  1.00  0.00     0.243 C 
ATOM     32  H   UNL     1      63.887  14.076  39.684  1.00  0.00     0.164 HD
ATOM     33  O   UNL     1      64.246  15.421  36.743  1.00  0.00    -0.273 OA
BRANCH  31  34
ATOM     34  C   UNL     1      63.976  16.640  38.805  1.00  0.00     0.174 C 
ATOM     35  N   UNL     1      62.695  17.344  38.593  1.00  0.00    -0.329 N 
ATOM     36  C   UNL     1      65.161  17.582  38.510  1.00  0.00     0.035 C 
ATOM     37  C   UNL     1      62.501  18.047  37.315  1.00  0.00     0.120 C 
ATOM     38  C   UNL     1      65.013  18.302  37.163  1.00  0.00     0.004 C 
ATOM     39  C   UNL     1      63.660  19.014  37.052  1.00  0.00     0.022 C 
BRANCH  35  40
ATOM     40  C   UNL     1      62.061  17.917  39.749  1.00  0.00     0.246 CG0
ATOM     41  O   UNL     1      62.605  18.917  40.293  1.00  0.00    -0.272 OA
ATOM     42  G   UNL     1      60.756  17.396  40.335  1.00  0.00     0.000 G0
ENDBRANCH  35  40
ENDBRANCH  31  34
ENDBRANCH   2  30
ENDBRANCH   1   2
BRANCH   1  43
ATOM     43  C   UNL     1      63.040  10.670  39.084  1.00  0.00     0.003 C 
BRANCH  43  44
ATOM     44  C   UNL     1      62.869   9.432  38.186  1.00  0.00     0.001 C 
BRANCH  44  45
ATOM     45  C   UNL     1      63.685   8.225  38.674  1.00  0.00     0.008 C 
BRANCH  45  46
ATOM     46  C   UNL     1      64.133   7.302  37.525  1.00  0.00     0.075 C 
BRANCH  46  47
ATOM     47  C   UNL     1      65.129   6.259  37.974  1.00  0.00     0.132 C 
ATOM     48  O   UNL     1      64.763   5.308  38.652  1.00  0.00    -0.300 OA
BRANCH  47  49
ATOM     49  C   UNL     1      66.591   6.453  37.647  1.00  0.00     0.072 C 
ATOM     50  C   UNL     1      67.416   5.174  37.785  1.00  0.00     0.012 C 
ENDBRANCH  47  49
ENDBRANCH  46  47
ENDBRANCH  45  46
ENDBRANCH  44  45
ENDBRANCH  43  44
ENDBRANCH   1  43
TORSDOF 12
ENDMDL
MODEL 3
REMARK VINA RESULT:    -1.298      2.608      7.159
REMARK INTER + INTRA:          -0.873
REMARK INTER:                  -1.360
REMARK INTRA:                   0.488
REMARK UNBOUND:                 1.868
REMARK SMILES CCC(=O)CCCCC[C@@H]1NC(=O)[C@H]2CCCCN2C(=O)[C@@H]([C@@H](C)CC)NC(=O)[C@@H](Cc2cn(OC)c3ccccc23)NC1=O
REMARK SMILES IDX 9 1 10 2 44 3 43 4 45 6 30 7 28 8 27 9 29 11 22 12 23 14
REMARK SMILES IDX 24 15 25 16 26 17 31 18 32 19 33 20 42 21 34 22 37 23 41 24
REMARK SMILES IDX 38 25 40 26 39 27 35 28 36 29 11 30 12 31 13 33 14 34 19 35
REMARK SMILES IDX 15 36 18 37 16 38 17 39 20 40 21 41 8 43 7 44 6 45 5 46 3 47
REMARK SMILES IDX 4 48 2 49 1 50
REMARK H PARENT 43 5 27 10 11 32
REMARK Flexibility Score: 80.00
ROOT
ATOM      1  C   UNL     1      61.828  10.900  38.843  1.00  0.00     0.035 C 
ENDROOT
BRANCH   1   2
ATOM      2  C   UNL     1      62.188  12.396  38.950  1.00  0.00     0.171 C 
BRANCH   2   3
ATOM      3  C   UNL     1      63.451  12.704  38.199  1.00  0.00     0.243 C 
ATOM      4  N   UNL     1      63.389  13.380  36.938  1.00  0.00    -0.342 N 
ATOM      5  H   UNL     1      63.029  12.824  36.129  1.00  0.00     0.164 HD
ATOM      6  O   UNL     1      64.569  12.403  38.696  1.00  0.00    -0.273 OA
BRANCH   4   7
ATOM      7  C   UNL     1      63.682  14.804  36.690  1.00  0.00     0.175 C 
BRANCH   7   8
ATOM      8  C   UNL     1      62.939  15.808  37.568  1.00  0.00     0.243 C 
ATOM      9  N   UNL     1      62.159  16.835  36.931  1.00  0.00    -0.342 N 
ATOM     10  H   UNL     1      62.152  16.821  35.885  1.00  0.00     0.164 HD
ATOM     11  O   UNL     1      63.045  15.776  38.819  1.00  0.00    -0.273 OA
BRANCH   9  12
ATOM     12  C   UNL     1      61.315  17.868  37.561  1.00  0.00     0.174 CG0
ATOM     13  G   UNL     1      60.028  17.330  38.170  1.00  0.00     0.000 G0
BRANCH  12  14
ATOM     14  C   UNL     1      62.096  18.914  38.424  1.00  0.00     0.018 C 
ATOM     15  C   UNL     1      61.163  19.525  39.492  1.00  0.00     0.010 C 
BRANCH  14  16
ATOM     16  C   UNL     1      63.421  18.393  39.037  1.00  0.00     0.002 C 
ATOM     17  C   UNL     1      63.509  18.549  40.557  1.00  0.00     0.004 C 
ENDBRANCH  14  16
ENDBRANCH  12  14
ENDBRANCH   9  12
ENDBRANCH   7   8
BRANCH   7  18
ATOM     18  C   UNL     1      65.202  15.047  36.698  1.00  0.00     0.073 C 
BRANCH  18  19
ATOM     19  C   UNL     1      65.643  16.042  35.663  1.00  0.00    -0.016 A 
ATOM     20  C   UNL     1      65.349  16.008  34.304  1.00  0.00     0.134 A 
ATOM     21  C   UNL     1      66.427  17.168  35.855  1.00  0.00     0.006 A 
ATOM     22  N   UNL     1      65.939  17.055  33.681  1.00  0.00    -0.191 N 
ATOM     23  C   UNL     1      66.590  17.755  34.624  1.00  0.00     0.087 A 
ATOM     24  C   UNL     1      66.990  17.715  37.008  1.00  0.00     0.011 A 
ATOM     25  C   UNL     1      67.338  18.920  34.460  1.00  0.00     0.030 A 
ATOM     26  C   UNL     1      67.747  18.892  36.873  1.00  0.00     0.001 A 
ATOM     27  C   UNL     1      67.925  19.489  35.605  1.00  0.00     0.002 A 
BRANCH  22  28
ATOM     28  O   UNL     1      65.897  17.368  32.336  1.00  0.00    -0.417 OA
ATOM     29  C   UNL     1      66.841  16.851  31.406  1.00  0.00     0.313 C 
ENDBRANCH  22  28
ENDBRANCH  18  19
ENDBRANCH   7  18
ENDBRANCH   4   7
ENDBRANCH   2   3
BRANCH   2  30
ATOM     30  N   UNL     1      61.114  13.232  38.414  1.00  0.00    -0.343 N 
ATOM     31  C   UNL     1      60.100  13.786  39.262  1.00  0.00     0.243 C 
ATOM     32  H   UNL     1      61.254  13.654  37.466  1.00  0.00     0.164 HD
ATOM     33  O   UNL     1      59.845  13.240  40.370  1.00  0.00    -0.273 OA
BRANCH  31  34
ATOM     34  C   UNL     1      59.329  15.008  38.814  1.00  0.00     0.174 C 
ATOM     35  N   UNL     1      60.034  16.260  39.156  1.00  0.00    -0.329 N 
ATOM     36  C   UNL     1      57.902  15.019  39.397  1.00  0.00     0.035 C 
ATOM     37  C   UNL     1      60.047  16.679  40.566  1.00  0.00     0.120 C 
ATOM     38  C   UNL     1      57.881  15.410  40.881  1.00  0.00     0.004 C 
ATOM     39  C   UNL     1      58.621  16.730  41.125  1.00  0.00     0.022 C 
BRANCH  35  40
ATOM     40  C   UNL     1      60.027  17.308  38.171  1.00  0.00     0.246 CG0
ATOM     41  O   UNL     1      58.913  17.784  37.815  1.00  0.00    -0.272 OA
ATOM     42  G   UNL     1      61.291  17.888  37.555  1.00  0.00     0.000 G0
ENDBRANCH  35  40
ENDBRANCH  31  34
ENDBRANCH   2  30
ENDBRANCH   1   2
BRANCH   1  43
ATOM     43  C   UNL     1      61.579  10.250  40.222  1.00  0.00     0.003 C 
BRANCH  43  44
ATOM     44  C   UNL     1      61.493   8.715  40.144  1.00  0.00     0.001 C 
BRANCH  44  45
ATOM     45  C   UNL     1      62.818   8.065  39.717  1.00  0.00     0.008 C 
BRANCH  45  46
ATOM     46  C   UNL     1      62.637   7.014  38.605  1.00  0.00     0.075 C 
BRANCH  46  47
ATOM     47  C   UNL     1      63.859   6.145  38.424  1.00  0.00     0.132 C 
ATOM     48  O   UNL     1      63.754   5.030  37.931  1.00  0.00    -0.300 OA
BRANCH  47  49
ATOM     49  C   UNL     1      65.190   6.636  38.939  1.00  0.00     0.072 C 
ATOM     50  C   UNL     1      66.373   5.795  38.457  1.00  0.00     0.012 C 
ENDBRANCH  47  49
ENDBRANCH  46  47
ENDBRANCH  45  46
ENDBRANCH  44  45
ENDBRANCH  43  44
ENDBRANCH   1  43
TORSDOF 12
ENDMDL
MODEL 4
REMARK VINA RESULT:    -1.142      2.567      8.963
REMARK INTER + INTRA:          -0.543
REMARK INTER:                  -3.266
REMARK INTRA:                   2.723
REMARK UNBOUND:                 1.868
REMARK SMILES CCC(=O)CCCCC[C@@H]1NC(=O)[C@H]2CCCCN2C(=O)[C@@H]([C@@H](C)CC)NC(=O)[C@@H](Cc2cn(OC)c3ccccc23)NC1=O
REMARK SMILES IDX 9 1 10 2 44 3 43 4 45 6 30 7 28 8 27 9 29 11 22 12 23 14
REMARK SMILES IDX 24 15 25 16 26 17 31 18 32 19 33 20 42 21 34 22 37 23 41 24
REMARK SMILES IDX 38 25 40 26 39 27 35 28 36 29 11 30 12 31 13 33 14 34 19 35
REMARK SMILES IDX 15 36 18 37 16 38 17 39 20 40 21 41 8 43 7 44 6 45 5 46 3 47
REMARK SMILES IDX 4 48 2 49 1 50
REMARK H PARENT 43 5 27 10 11 32
REMARK Flexibility Score: 80.00
ROOT
ATOM      1  C   UNL     1      59.486  16.192  38.314  1.00  0.00     0.035 C 
ENDROOT
BRANCH   1   2
ATOM      2  C   UNL     1      60.422  14.973  38.440  1.00  0.00     0.171 C 
BRANCH   2   3
ATOM      3  C   UNL     1      61.491  15.214  39.466  1.00  0.00     0.243 C 
ATOM      4  N   UNL     1      61.843  14.179  40.391  1.00  0.00    -0.342 N 
ATOM      5  H   UNL     1      61.149  13.971  41.145  1.00  0.00     0.164 HD
ATOM      6  O   UNL     1      62.105  16.313  39.491  1.00  0.00    -0.273 OA
BRANCH   4   7
ATOM      7  C   UNL     1      63.034  13.312  40.325  1.00  0.00     0.175 C 
BRANCH   7   8
ATOM      8  C   UNL     1      62.844  11.957  39.647  1.00  0.00     0.243 C 
ATOM      9  N   UNL     1      62.341  10.859  40.428  1.00  0.00    -0.342 N 
ATOM     10  H   UNL     1      62.132  11.070  41.431  1.00  0.00     0.164 HD
ATOM     11  O   UNL     1      63.169  11.784  38.446  1.00  0.00    -0.273 OA
BRANCH   9  12
ATOM     12  C   UNL     1      62.021   9.489  39.984  1.00  0.00     0.174 CG0
ATOM     13  G   UNL     1      60.690   9.368  39.257  1.00  0.00     0.000 G0
BRANCH  12  14
ATOM     14  C   UNL     1      63.222   8.711  39.349  1.00  0.00     0.018 C 
ATOM     15  C   UNL     1      63.556   7.465  40.199  1.00  0.00     0.010 C 
BRANCH  14  16
ATOM     16  C   UNL     1      63.053   8.364  37.848  1.00  0.00     0.002 C 
ATOM     17  C   UNL     1      63.107   6.865  37.544  1.00  0.00     0.004 C 
ENDBRANCH  14  16
ENDBRANCH  12  14
ENDBRANCH   9  12
ENDBRANCH   7   8
BRANCH   7  18
ATOM     18  C   UNL     1      64.229  14.086  39.741  1.00  0.00     0.073 C 
BRANCH  18  19
ATOM     19  C   UNL     1      63.985  14.575  38.342  1.00  0.00    -0.016 A 
ATOM     20  C   UNL     1      63.114  14.018  37.411  1.00  0.00     0.134 A 
ATOM     21  C   UNL     1      64.577  15.656  37.710  1.00  0.00     0.006 A 
ATOM     22  N   UNL     1      63.179  14.712  36.250  1.00  0.00    -0.191 N 
ATOM     23  C   UNL     1      64.066  15.704  36.436  1.00  0.00     0.087 A 
ATOM     24  C   UNL     1      65.507  16.593  38.162  1.00  0.00     0.011 A 
ATOM     25  C   UNL     1      64.459  16.682  35.524  1.00  0.00     0.030 A 
ATOM     26  C   UNL     1      65.919  17.593  37.264  1.00  0.00     0.001 A 
ATOM     27  C   UNL     1      65.402  17.635  35.950  1.00  0.00     0.002 A 
BRANCH  22  28
ATOM     28  O   UNL     1      62.480  14.471  35.083  1.00  0.00    -0.417 OA
ATOM     29  C   UNL     1      62.392  13.175  34.505  1.00  0.00     0.313 C 
ENDBRANCH  22  28
ENDBRANCH  18  19
ENDBRANCH   7  18
ENDBRANCH   4   7
ENDBRANCH   2   3
BRANCH   2  30
ATOM     30  N   UNL     1      59.673  13.776  38.823  1.00  0.00    -0.343 N 
ATOM     31  C   UNL     1      59.579  12.639  37.954  1.00  0.00     0.243 C 
ATOM     32  H   UNL     1      59.453  13.645  39.837  1.00  0.00     0.164 HD
ATOM     33  O   UNL     1      59.747  12.787  36.712  1.00  0.00    -0.273 OA
BRANCH  31  34
ATOM     34  C   UNL     1      59.260  11.277  38.527  1.00  0.00     0.174 C 
ATOM     35  N   UNL     1      60.299  10.282  38.195  1.00  0.00    -0.329 N 
ATOM     36  C   UNL     1      57.875  10.782  38.067  1.00  0.00     0.035 C 
ATOM     37  C   UNL     1      60.354   9.782  36.812  1.00  0.00     0.120 C 
ATOM     38  C   UNL     1      57.884  10.292  36.613  1.00  0.00     0.004 C 
ATOM     39  C   UNL     1      58.984   9.250  36.377  1.00  0.00     0.022 C 
BRANCH  35  40
ATOM     40  C   UNL     1      60.683   9.361  39.230  1.00  0.00     0.246 CG0
ATOM     41  O   UNL     1      59.891   8.421  39.516  1.00  0.00    -0.272 OA
ATOM     42  G   UNL     1      62.003   9.447  39.982  1.00  0.00     0.000 G0
ENDBRANCH  35  40
ENDBRANCH  31  34
ENDBRANCH   2  30
ENDBRANCH   1   2
BRANCH   1  43
ATOM     43  C   UNL     1      58.206  16.047  39.167  1.00  0.00     0.003 C 
BRANCH  43  44
ATOM     44  C   UNL     1      57.904  17.307  39.998  1.00  0.00     0.001 C 
BRANCH  44  45
ATOM     45  C   UNL     1      59.170  17.953  40.583  1.00  0.00     0.008 C 
BRANCH  45  46
ATOM     46  C   UNL     1      59.477  19.331  39.968  1.00  0.00     0.075 C 
BRANCH  46  47
ATOM     47  C   UNL     1      60.902  19.444  39.480  1.00  0.00     0.132 C 
ATOM     48  O   UNL     1      61.785  19.821  40.238  1.00  0.00    -0.300 OA
BRANCH  47  49
ATOM     49  C   UNL     1      61.201  19.171  38.025  1.00  0.00     0.072 C 
ATOM     50  C   UNL     1      62.695  19.029  37.732  1.00  0.00     0.012 C 
ENDBRANCH  47  49
ENDBRANCH  46  47
ENDBRANCH  45  46
ENDBRANCH  44  45
ENDBRANCH  43  44
ENDBRANCH   1  43
TORSDOF 12
ENDMDL
MODEL 5
REMARK VINA RESULT:    -1.134      2.586      8.522
REMARK INTER + INTRA:          -0.525
REMARK INTER:                  -3.904
REMARK INTRA:                   3.379
REMARK UNBOUND:                 1.868
REMARK SMILES CCC(=O)CCCCC[C@@H]1NC(=O)[C@H]2CCCCN2C(=O)[C@@H]([C@@H](C)CC)NC(=O)[C@@H](Cc2cn(OC)c3ccccc23)NC1=O
REMARK SMILES IDX 9 1 10 2 44 3 43 4 45 6 30 7 28 8 27 9 29 11 22 12 23 14
REMARK SMILES IDX 24 15 25 16 26 17 31 18 32 19 33 20 42 21 34 22 37 23 41 24
REMARK SMILES IDX 38 25 40 26 39 27 35 28 36 29 11 30 12 31 13 33 14 34 19 35
REMARK SMILES IDX 15 36 18 37 16 38 17 39 20 40 21 41 8 43 7 44 6 45 5 46 3 47
REMARK SMILES IDX 4 48 2 49 1 50
REMARK H PARENT 43 5 27 10 11 32
REMARK Flexibility Score: 80.00
ROOT
ATOM      1  C   UNL     1      61.290  18.061  38.208  1.00  0.00     0.035 C 
ENDROOT
BRANCH   1   2
ATOM      2  C   UNL     1      61.723  16.592  38.381  1.00  0.00     0.171 C 
BRANCH   2   3
ATOM      3  C   UNL     1      62.747  16.452  39.471  1.00  0.00     0.243 C 
ATOM      4  N   UNL     1      62.736  15.300  40.321  1.00  0.00    -0.342 N 
ATOM      5  H   UNL     1      61.963  15.246  41.023  1.00  0.00     0.164 HD
ATOM      6  O   UNL     1      63.639  17.330  39.614  1.00  0.00    -0.273 OA
BRANCH   4   7
ATOM      7  C   UNL     1      63.641  14.139  40.236  1.00  0.00     0.175 C 
BRANCH   7   8
ATOM      8  C   UNL     1      63.021  12.835  39.741  1.00  0.00     0.243 C 
ATOM      9  N   UNL     1      61.950  12.248  40.501  1.00  0.00    -0.342 N 
ATOM     10  H   UNL     1      61.662  12.770  41.361  1.00  0.00     0.164 HD
ATOM     11  O   UNL     1      63.467  12.254  38.720  1.00  0.00    -0.273 OA
BRANCH   9  12
ATOM     12  C   UNL     1      61.162  11.040  40.193  1.00  0.00     0.174 CG0
ATOM     13  G   UNL     1      60.001  11.284  39.240  1.00  0.00     0.000 G0
BRANCH  12  14
ATOM     14  C   UNL     1      62.015   9.756  39.919  1.00  0.00     0.018 C 
ATOM     15  C   UNL     1      61.205   8.492  40.285  1.00  0.00     0.010 C 
BRANCH  14  16
ATOM     16  C   UNL     1      62.622   9.668  38.496  1.00  0.00     0.002 C 
ATOM     17  C   UNL     1      62.084   8.505  37.659  1.00  0.00     0.004 C 
ENDBRANCH  14  16
ENDBRANCH  12  14
ENDBRANCH   9  12
ENDBRANCH   7   8
BRANCH   7  18
ATOM     18  C   UNL     1      64.913  14.507  39.450  1.00  0.00     0.073 C 
BRANCH  18  19
ATOM     19  C   UNL     1      64.637  14.845  38.012  1.00  0.00    -0.016 A 
ATOM     20  C   UNL     1      63.831  14.128  37.134  1.00  0.00     0.134 A 
ATOM     21  C   UNL     1      65.133  15.916  37.287  1.00  0.00     0.006 A 
ATOM     22  N   UNL     1      63.843  14.719  35.916  1.00  0.00    -0.191 N 
ATOM     23  C   UNL     1      64.631  15.802  36.014  1.00  0.00     0.087 A 
ATOM     24  C   UNL     1      65.966  16.973  37.655  1.00  0.00     0.011 A 
ATOM     25  C   UNL     1      64.940  16.728  35.018  1.00  0.00     0.030 A 
ATOM     26  C   UNL     1      66.292  17.923  36.671  1.00  0.00     0.001 A 
ATOM     27  C   UNL     1      65.786  17.799  35.358  1.00  0.00     0.002 A 
BRANCH  22  28
ATOM     28  O   UNL     1      63.181  14.311  34.774  1.00  0.00    -0.417 OA
ATOM     29  C   UNL     1      62.339  13.165  34.754  1.00  0.00     0.313 C 
ENDBRANCH  22  28
ENDBRANCH  18  19
ENDBRANCH   7  18
ENDBRANCH   4   7
ENDBRANCH   2   3
BRANCH   2  30
ATOM     30  N   UNL     1      60.577  15.744  38.711  1.00  0.00    -0.343 N 
ATOM     31  C   UNL     1      60.160  14.677  37.848  1.00  0.00     0.243 C 
ATOM     32  H   UNL     1      60.248  15.737  39.704  1.00  0.00     0.164 HD
ATOM     33  O   UNL     1      60.463  14.709  36.624  1.00  0.00    -0.273 OA
BRANCH  31  34
ATOM     34  C   UNL     1      59.343  13.534  38.406  1.00  0.00     0.174 C 
ATOM     35  N   UNL     1      59.997  12.229  38.183  1.00  0.00    -0.329 N 
ATOM     36  C   UNL     1      57.915  13.524  37.825  1.00  0.00     0.035 C 
ATOM     37  C   UNL     1      59.991  11.681  36.818  1.00  0.00     0.120 C 
ATOM     38  C   UNL     1      57.875  12.998  36.384  1.00  0.00     0.004 C 
ATOM     39  C   UNL     1      58.563  11.633  36.265  1.00  0.00     0.022 C 
BRANCH  35  40
ATOM     40  C   UNL     1      59.952  11.278  39.261  1.00  0.00     0.246 CG0
ATOM     41  O   UNL     1      58.892  10.613  39.425  1.00  0.00    -0.272 OA
ATOM     42  G   UNL     1      61.122  11.015  40.198  1.00  0.00     0.000 G0
ENDBRANCH  35  40
ENDBRANCH  31  34
ENDBRANCH   2  30
ENDBRANCH   1   2
BRANCH   1  43
ATOM     43  C   UNL     1      61.321  18.849  39.537  1.00  0.00     0.003 C 
BRANCH  43  44
ATOM     44  C   UNL     1      60.384  18.249  40.600  1.00  0.00     0.001 C 
BRANCH  44  45
ATOM     45  C   UNL     1      59.283  19.226  41.044  1.00  0.00     0.008 C 
BRANCH  45  46
ATOM     46  C   UNL     1      57.875  18.777  40.610  1.00  0.00     0.075 C 
BRANCH  46  47
ATOM     47  C   UNL     1      57.909  17.766  39.488  1.00  0.00     0.132 C 
ATOM     48  O   UNL     1      58.002  16.572  39.736  1.00  0.00    -0.300 OA
BRANCH  47  49
ATOM     49  C   UNL     1      57.913  18.258  38.060  1.00  0.00     0.072 C 
ATOM     50  C   UNL     1      58.028  17.131  37.033  1.00  0.00     0.012 C 
ENDBRANCH  47  49
ENDBRANCH  46  47
ENDBRANCH  45  46
ENDBRANCH  44  45
ENDBRANCH  43  44
ENDBRANCH   1  43
TORSDOF 12
ENDMDL
MODEL 6
REMARK VINA RESULT:    -1.089      2.537      7.483
REMARK INTER + INTRA:          -0.430
REMARK INTER:                  -2.191
REMARK INTRA:                   1.761
REMARK UNBOUND:                 1.868
REMARK SMILES CCC(=O)CCCCC[C@@H]1NC(=O)[C@H]2CCCCN2C(=O)[C@@H]([C@@H](C)CC)NC(=O)[C@@H](Cc2cn(OC)c3ccccc23)NC1=O
REMARK SMILES IDX 9 1 10 2 44 3 43 4 45 6 30 7 28 8 27 9 29 11 22 12 23 14
REMARK SMILES IDX 24 15 25 16 26 17 31 18 32 19 33 20 42 21 34 22 37 23 41 24
REMARK SMILES IDX 38 25 40 26 39 27 35 28 36 29 11 30 12 31 13 33 14 34 19 35
REMARK SMILES IDX 15 36 18 37 16 38 17 39 20 40 21 41 8 43 7 44 6 45 5 46 3 47
REMARK SMILES IDX 4 48 2 49 1 50
REMARK H PARENT 43 5 27 10 11 32
REMARK Flexibility Score: 80.00
ROOT
ATOM      1  C   UNL     1      63.172  11.006  38.596  1.00  0.00     0.035 C 
ENDROOT
BRANCH   1   2
ATOM      2  C   UNL     1      63.048  12.536  38.746  1.00  0.00     0.171 C 
BRANCH   2   3
ATOM      3  C   UNL     1      64.115  13.246  37.962  1.00  0.00     0.243 C 
ATOM      4  N   UNL     1      63.754  14.082  36.857  1.00  0.00    -0.342 N 
ATOM      5  H   UNL     1      63.425  13.596  35.992  1.00  0.00     0.164 HD
ATOM      6  O   UNL     1      65.323  13.137  38.299  1.00  0.00    -0.273 OA
BRANCH   4   7
ATOM      7  C   UNL     1      63.703  15.556  36.852  1.00  0.00     0.175 C 
BRANCH   7   8
ATOM      8  C   UNL     1      62.707  16.199  37.813  1.00  0.00     0.243 C 
ATOM      9  N   UNL     1      61.669  17.036  37.272  1.00  0.00    -0.342 N 
ATOM     10  H   UNL     1      61.668  17.147  36.231  1.00  0.00     0.164 HD
ATOM     11  O   UNL     1      62.817  16.049  39.055  1.00  0.00    -0.273 OA
BRANCH   9  12
ATOM     12  C   UNL     1      60.568  17.708  37.986  1.00  0.00     0.174 CG0
ATOM     13  G   UNL     1      59.461  16.769  38.443  1.00  0.00     0.000 G0
BRANCH  12  14
ATOM     14  C   UNL     1      61.025  18.785  39.026  1.00  0.00     0.018 C 
ATOM     15  C   UNL     1      59.812  19.286  39.841  1.00  0.00     0.010 C 
BRANCH  14  16
ATOM     16  C   UNL     1      62.201  18.353  39.939  1.00  0.00     0.002 C 
ATOM     17  C   UNL     1      63.494  19.136  39.703  1.00  0.00     0.004 C 
ENDBRANCH  14  16
ENDBRANCH  12  14
ENDBRANCH   9  12
ENDBRANCH   7   8
BRANCH   7  18
ATOM     18  C   UNL     1      65.118  16.141  37.013  1.00  0.00     0.073 C 
BRANCH  18  19
ATOM     19  C   UNL     1      65.650  16.748  35.746  1.00  0.00    -0.016 A 
ATOM     20  C   UNL     1      65.384  16.322  34.449  1.00  0.00     0.134 A 
ATOM     21  C   UNL     1      66.507  17.829  35.623  1.00  0.00     0.006 A 
ATOM     22  N   UNL     1      66.060  17.093  33.565  1.00  0.00    -0.191 N 
ATOM     23  C   UNL     1      66.737  18.006  34.281  1.00  0.00     0.087 A 
ATOM     24  C   UNL     1      67.082  18.665  36.581  1.00  0.00     0.011 A 
ATOM     25  C   UNL     1      67.569  19.019  33.806  1.00  0.00     0.030 A 
ATOM     26  C   UNL     1      67.922  19.698  36.130  1.00  0.00     0.001 A 
ATOM     27  C   UNL     1      68.169  19.871  34.750  1.00  0.00     0.002 A 
BRANCH  22  28
ATOM     28  O   UNL     1      66.069  16.987  32.188  1.00  0.00    -0.417 OA
ATOM     29  C   UNL     1      67.202  17.343  31.406  1.00  0.00     0.313 C 
ENDBRANCH  22  28
ENDBRANCH  18  19
ENDBRANCH   7  18
ENDBRANCH   4   7
ENDBRANCH   2   3
BRANCH   2  30
ATOM     30  N   UNL     1      61.743  13.003  38.281  1.00  0.00    -0.343 N 
ATOM     31  C   UNL     1      60.702  13.360  39.201  1.00  0.00     0.243 C 
ATOM     32  H   UNL     1      61.672  13.346  37.295  1.00  0.00     0.164 HD
ATOM     33  O   UNL     1      60.711  12.885  40.370  1.00  0.00    -0.273 OA
BRANCH  31  34
ATOM     34  C   UNL     1      59.591  14.285  38.759  1.00  0.00     0.174 C 
ATOM     35  N   UNL     1      59.742  15.640  39.327  1.00  0.00    -0.329 N 
ATOM     36  C   UNL     1      58.204  13.709  39.108  1.00  0.00     0.035 C 
ATOM     37  C   UNL     1      59.442  15.823  40.756  1.00  0.00     0.120 C 
ATOM     38  C   UNL     1      57.875  13.843  40.600  1.00  0.00     0.004 C 
ATOM     39  C   UNL     1      58.045  15.287  41.085  1.00  0.00     0.022 C 
BRANCH  35  40
ATOM     40  C   UNL     1      59.460  16.752  38.461  1.00  0.00     0.246 CG0
ATOM     41  O   UNL     1      58.262  16.948  38.113  1.00  0.00    -0.272 OA
ATOM     42  G   UNL     1      60.525  17.717  37.961  1.00  0.00     0.000 G0
ENDBRANCH  35  40
ENDBRANCH  31  34
ENDBRANCH   2  30
ENDBRANCH   1   2
BRANCH   1  43
ATOM     43  C   UNL     1      62.945  10.260  39.929  1.00  0.00     0.003 C 
BRANCH  43  44
ATOM     44  C   UNL     1      62.289   8.882  39.730  1.00  0.00     0.001 C 
BRANCH  44  45
ATOM     45  C   UNL     1      62.284   8.429  38.262  1.00  0.00     0.008 C 
BRANCH  45  46
ATOM     46  C   UNL     1      61.111   7.489  37.929  1.00  0.00     0.075 C 
BRANCH  46  47
ATOM     47  C   UNL     1      59.792   7.997  38.461  1.00  0.00     0.132 C 
ATOM     48  O   UNL     1      58.768   7.348  38.291  1.00  0.00    -0.300 OA
BRANCH  47  49
ATOM     49  C   UNL     1      59.743   9.352  39.125  1.00  0.00     0.072 C 
ATOM     50  C   UNL     1      59.332  10.476  38.173  1.00  0.00     0.012 C 
ENDBRANCH  47  49
ENDBRANCH  46  47
ENDBRANCH  45  46
ENDBRANCH  44  45
ENDBRANCH  43  44
ENDBRANCH   1  43
TORSDOF 12
ENDMDL
MODEL 7
REMARK VINA RESULT:    -0.945     10.074     15.731
REMARK INTER + INTRA:          -0.128
REMARK INTER:                   0.675
REMARK INTRA:                  -0.803
REMARK UNBOUND:                 1.868
REMARK SMILES CCC(=O)CCCCC[C@@H]1NC(=O)[C@H]2CCCCN2C(=O)[C@@H]([C@@H](C)CC)NC(=O)[C@@H](Cc2cn(OC)c3ccccc23)NC1=O
REMARK SMILES IDX 9 1 10 2 44 3 43 4 45 6 30 7 28 8 27 9 29 11 22 12 23 14
REMARK SMILES IDX 24 15 25 16 26 17 31 18 32 19 33 20 42 21 34 22 37 23 41 24
REMARK SMILES IDX 38 25 40 26 39 27 35 28 36 29 11 30 12 31 13 33 14 34 19 35
REMARK SMILES IDX 15 36 18 37 16 38 17 39 20 40 21 41 8 43 7 44 6 45 5 46 3 47
REMARK SMILES IDX 4 48 2 49 1 50
REMARK H PARENT 43 5 27 10 11 32
REMARK Flexibility Score: 80.00
ROOT
ATOM      1  C   UNL     1      68.444  11.705  32.518  1.00  0.00     0.035 C 
ENDROOT
BRANCH   1   2
ATOM      2  C   UNL     1      69.169  10.350  32.392  1.00  0.00     0.171 C 
BRANCH   2   3
ATOM      3  C   UNL     1      70.634  10.541  32.124  1.00  0.00     0.243 C 
ATOM      4  N   UNL     1      71.603  10.055  33.060  1.00  0.00    -0.342 N 
ATOM      5  H   UNL     1      71.685  10.580  33.960  1.00  0.00     0.164 HD
ATOM      6  O   UNL     1      71.013  11.096  31.060  1.00  0.00    -0.273 OA
BRANCH   4   7
ATOM      7  C   UNL     1      72.417   8.834  32.924  1.00  0.00     0.175 C 
BRANCH   7   8
ATOM      8  C   UNL     1      72.202   7.757  33.985  1.00  0.00     0.243 C 
ATOM      9  N   UNL     1      71.589   6.516  33.593  1.00  0.00    -0.342 N 
ATOM     10  H   UNL     1      71.330   6.433  32.583  1.00  0.00     0.164 HD
ATOM     11  O   UNL     1      72.502   7.965  35.187  1.00  0.00    -0.273 OA
BRANCH   9  12
ATOM     12  C   UNL     1      71.336   5.319  34.417  1.00  0.00     0.174 CG0
ATOM     13  G   UNL     1      69.868   5.093  34.749  1.00  0.00     0.000 G0
BRANCH  12  14
ATOM     14  C   UNL     1      72.145   4.049  33.989  1.00  0.00     0.018 C 
ATOM     15  C   UNL     1      72.112   3.890  32.452  1.00  0.00     0.010 C 
BRANCH  14  16
ATOM     16  C   UNL     1      73.587   3.973  34.552  1.00  0.00     0.002 C 
ATOM     17  C   UNL     1      74.425   5.227  34.291  1.00  0.00     0.004 C 
ENDBRANCH  14  16
ENDBRANCH  12  14
ENDBRANCH   9  12
ENDBRANCH   7   8
BRANCH   7  18
ATOM     18  C   UNL     1      72.300   8.267  31.497  1.00  0.00     0.073 C 
BRANCH  18  19
ATOM     19  C   UNL     1      73.627   8.132  30.808  1.00  0.00    -0.016 A 
ATOM     20  C   UNL     1      74.347   9.150  30.191  1.00  0.00     0.134 A 
ATOM     21  C   UNL     1      74.380   6.981  30.644  1.00  0.00     0.006 A 
ATOM     22  N   UNL     1      75.485   8.648  29.655  1.00  0.00    -0.191 N 
ATOM     23  C   UNL     1      75.500   7.334  29.933  1.00  0.00     0.087 A 
ATOM     24  C   UNL     1      74.168   5.670  31.074  1.00  0.00     0.011 A 
ATOM     25  C   UNL     1      76.477   6.399  29.590  1.00  0.00     0.030 A 
ATOM     26  C   UNL     1      75.138   4.707  30.746  1.00  0.00     0.001 A 
ATOM     27  C   UNL     1      76.284   5.068  30.003  1.00  0.00     0.002 A 
BRANCH  22  28
ATOM     28  O   UNL     1      76.459   9.330  28.953  1.00  0.00    -0.417 OA
ATOM     29  C   UNL     1      77.057  10.522  29.448  1.00  0.00     0.313 C 
ENDBRANCH  22  28
ENDBRANCH  18  19
ENDBRANCH   7  18
ENDBRANCH   4   7
ENDBRANCH   2   3
BRANCH   2  30
ATOM     30  N   UNL     1      69.020   9.561  33.615  1.00  0.00    -0.343 N 
ATOM     31  C   UNL     1      68.405   8.266  33.603  1.00  0.00     0.243 C 
ATOM     32  H   UNL     1      69.616   9.820  34.435  1.00  0.00     0.164 HD
ATOM     33  O   UNL     1      67.607   7.961  32.673  1.00  0.00    -0.273 OA
BRANCH  31  34
ATOM     34  C   UNL     1      68.700   7.281  34.712  1.00  0.00     0.174 C 
ATOM     35  N   UNL     1      68.802   5.897  34.208  1.00  0.00    -0.329 N 
ATOM     36  C   UNL     1      67.649   7.367  35.836  1.00  0.00     0.035 C 
ATOM     37  C   UNL     1      67.559   5.215  33.816  1.00  0.00     0.120 C 
ATOM     38  C   UNL     1      66.323   6.703  35.447  1.00  0.00     0.004 C 
ATOM     39  C   UNL     1      66.536   5.266  34.956  1.00  0.00     0.022 C 
BRANCH  35  40
ATOM     40  C   UNL     1      69.846   5.074  34.755  1.00  0.00     0.246 CG0
ATOM     41  O   UNL     1      69.516   4.105  35.494  1.00  0.00    -0.272 OA
ATOM     42  G   UNL     1      71.325   5.294  34.470  1.00  0.00     0.000 G0
ENDBRANCH  35  40
ENDBRANCH  31  34
ENDBRANCH   2  30
ENDBRANCH   1   2
BRANCH   1  43
ATOM     43  C   UNL     1      68.169  12.360  31.147  1.00  0.00     0.003 C 
BRANCH  43  44
ATOM     44  C   UNL     1      69.109  13.545  30.859  1.00  0.00     0.001 C 
BRANCH  44  45
ATOM     45  C   UNL     1      68.388  14.733  30.204  1.00  0.00     0.008 C 
BRANCH  45  46
ATOM     46  C   UNL     1      68.677  16.071  30.911  1.00  0.00     0.075 C 
BRANCH  46  47
ATOM     47  C   UNL     1      67.450  16.656  31.569  1.00  0.00     0.132 C 
ATOM     48  O   UNL     1      66.450  16.897  30.906  1.00  0.00    -0.300 OA
BRANCH  47  49
ATOM     49  C   UNL     1      67.507  17.019  33.034  1.00  0.00     0.072 C 
ATOM     50  C   UNL     1      66.142  17.381  33.620  1.00  0.00     0.012 C 
ENDBRANCH  47  49
ENDBRANCH  46  47
ENDBRANCH  45  46
ENDBRANCH  44  45
ENDBRANCH  43  44
ENDBRANCH   1  43
TORSDOF 12
ENDMDL
