MODEL 1
REMARK VINA RESULT:    -2.834      0.000      0.000
REMARK INTER + INTRA:          -3.298
REMARK INTER:                  -3.248
REMARK INTRA:                  -0.050
REMARK UNBOUND:                -0.050
REMARK SMILES CC(C)[C@@H]([NH3+])C(=O)[O-]
REMARK SMILES IDX 4 1 5 2 6 6 7 7 8 8 2 9 1 10 3 11
REMARK H PARENT 5 3 5 4 5 5
REMARK Flexibility Score: inf
ROOT
ATOM      1  C   UNL     1     150.469 145.910 134.119  1.00  0.00     0.230 C 
ENDROOT
BRANCH   1   2
ATOM      2  N   UNL     1     151.249 146.873 133.324  1.00  0.00    -0.350 N 
ATOM      3  H   UNL     1     150.816 147.824 133.342  1.00  0.00     0.345 HD
ATOM      4  H   UNL     1     151.332 146.547 132.335  1.00  0.00     0.345 HD
ATOM      5  H   UNL     1     152.217 146.942 133.715  1.00  0.00     0.345 HD
ENDBRANCH   1   2
BRANCH   1   6
ATOM      6  C   UNL     1     148.997 146.238 134.070  1.00  0.00     0.099 C 
ATOM      7  O   UNL     1     148.397 146.676 135.087  1.00  0.00    -0.544 OA
ATOM      8  O   UNL     1     148.301 146.101 132.875  1.00  0.00    -0.544 OA
ENDBRANCH   1   6
BRANCH   1   9
ATOM      9  C   UNL     1     150.723 144.429 133.707  1.00  0.00     0.047 C 
ATOM     10  C   UNL     1     152.001 144.231 132.876  1.00  0.00     0.014 C 
ATOM     11  C   UNL     1     150.733 143.491 134.924  1.00  0.00     0.014 C 
ENDBRANCH   1   9
TORSDOF 3
ENDMDL
MODEL 2
REMARK VINA RESULT:    -2.716      2.935      3.652
REMARK INTER + INTRA:          -3.163
REMARK INTER:                  -3.178
REMARK INTRA:                   0.014
REMARK UNBOUND:                -0.050
REMARK SMILES CC(C)[C@@H]([NH3+])C(=O)[O-]
REMARK SMILES IDX 4 1 5 2 6 6 7 7 8 8 2 9 1 10 3 11
REMARK H PARENT 5 3 5 4 5 5
REMARK Flexibility Score: inf
ROOT
ATOM      1  C   UNL     1     151.013 143.069 134.858  1.00  0.00     0.230 C 
ENDROOT
BRANCH   1   2
ATOM      2  N   UNL     1     152.056 142.037 134.743  1.00  0.00    -0.350 N 
ATOM      3  H   UNL     1     151.807 141.321 134.024  1.00  0.00     0.345 HD
ATOM      4  H   UNL     1     152.209 141.568 135.664  1.00  0.00     0.345 HD
ATOM      5  H   UNL     1     152.959 142.486 134.464  1.00  0.00     0.345 HD
ENDBRANCH   1   2
BRANCH   1   6
ATOM      6  C   UNL     1     150.844 143.508 136.292  1.00  0.00     0.099 C 
ATOM      7  O   UNL     1     150.257 144.587 136.574  1.00  0.00    -0.544 OA
ATOM      8  O   UNL     1     151.298 142.691 137.320  1.00  0.00    -0.544 OA
ENDBRANCH   1   6
BRANCH   1   9
ATOM      9  C   UNL     1     151.259 144.294 133.928  1.00  0.00     0.047 C 
ATOM     10  C   UNL     1     152.355 144.059 132.875  1.00  0.00     0.014 C 
ATOM     11  C   UNL     1     149.965 144.764 133.246  1.00  0.00     0.014 C 
ENDBRANCH   1   9
TORSDOF 3
ENDMDL
MODEL 3
REMARK VINA RESULT:    -2.617      2.721      3.492
REMARK INTER + INTRA:          -3.049
REMARK INTER:                  -2.989
REMARK INTRA:                  -0.061
REMARK UNBOUND:                -0.050
REMARK SMILES CC(C)[C@@H]([NH3+])C(=O)[O-]
REMARK SMILES IDX 4 1 5 2 6 6 7 7 8 8 2 9 1 10 3 11
REMARK H PARENT 5 3 5 4 5 5
REMARK Flexibility Score: inf
ROOT
ATOM      1  C   UNL     1     150.687 144.936 133.545  1.00  0.00     0.230 C 
ENDROOT
BRANCH   1   2
ATOM      2  N   UNL     1     151.346 146.251 133.596  1.00  0.00    -0.350 N 
ATOM      3  H   UNL     1     152.170 146.241 134.238  1.00  0.00     0.345 HD
ATOM      4  H   UNL     1     150.671 146.985 133.908  1.00  0.00     0.345 HD
ATOM      5  H   UNL     1     151.675 146.512 132.638  1.00  0.00     0.345 HD
ENDBRANCH   1   2
BRANCH   1   6
ATOM      6  C   UNL     1     151.704 143.821 133.585  1.00  0.00     0.099 C 
ATOM      7  O   UNL     1     152.744 143.868 132.876  1.00  0.00    -0.544 OA
ATOM      8  O   UNL     1     151.517 142.750 134.450  1.00  0.00    -0.544 OA
ENDBRANCH   1   6
BRANCH   1   9
ATOM      9  C   UNL     1     149.612 144.746 134.657  1.00  0.00     0.047 C 
ATOM     10  C   UNL     1     149.437 145.978 135.561  1.00  0.00     0.014 C 
ATOM     11  C   UNL     1     148.255 144.322 134.075  1.00  0.00     0.014 C 
ENDBRANCH   1   9
TORSDOF 3
ENDMDL
MODEL 4
REMARK VINA RESULT:    -2.586     17.437     18.222
REMARK INTER + INTRA:          -3.015
REMARK INTER:                  -2.974
REMARK INTRA:                  -0.041
REMARK UNBOUND:                -0.050
REMARK SMILES CC(C)[C@@H]([NH3+])C(=O)[O-]
REMARK SMILES IDX 4 1 5 2 6 6 7 7 8 8 2 9 1 10 3 11
REMARK H PARENT 5 3 5 4 5 5
REMARK Flexibility Score: inf
ROOT
ATOM      1  C   UNL     1     150.939 147.317 151.185  1.00  0.00     0.230 C 
ENDROOT
BRANCH   1   2
ATOM      2  N   UNL     1     151.393 148.463 150.381  1.00  0.00    -0.350 N 
ATOM      3  H   UNL     1     150.614 148.866 149.814  1.00  0.00     0.345 HD
ATOM      4  H   UNL     1     152.173 148.178 149.747  1.00  0.00     0.345 HD
ATOM      5  H   UNL     1     151.760 149.209 151.016  1.00  0.00     0.345 HD
ENDBRANCH   1   2
BRANCH   1   6
ATOM      6  C   UNL     1     152.009 146.255 151.264  1.00  0.00     0.099 C 
ATOM      7  O   UNL     1     152.392 145.805 152.377  1.00  0.00    -0.544 OA
ATOM      8  O   UNL     1     152.547 145.731 150.096  1.00  0.00    -0.544 OA
ENDBRANCH   1   6
BRANCH   1   9
ATOM      9  C   UNL     1     150.452 147.722 152.608  1.00  0.00     0.047 C 
ATOM     10  C   UNL     1     150.237 149.236 152.778  1.00  0.00     0.014 C 
ATOM     11  C   UNL     1     149.182 146.960 153.017  1.00  0.00     0.014 C 
ENDBRANCH   1   9
TORSDOF 3
ENDMDL
MODEL 5
REMARK VINA RESULT:    -2.583     21.952     22.899
REMARK INTER + INTRA:          -3.011
REMARK INTER:                  -2.934
REMARK INTRA:                  -0.077
REMARK UNBOUND:                -0.050
REMARK SMILES CC(C)[C@@H]([NH3+])C(=O)[O-]
REMARK SMILES IDX 4 1 5 2 6 6 7 7 8 8 2 9 1 10 3 11
REMARK H PARENT 5 3 5 4 5 5
REMARK Flexibility Score: inf
ROOT
ATOM      1  C   UNL     1     135.887 145.435 152.145  1.00  0.00     0.230 C 
ENDROOT
BRANCH   1   2
ATOM      2  N   UNL     1     134.750 145.094 153.014  1.00  0.00    -0.350 N 
ATOM      3  H   UNL     1     134.001 144.591 152.485  1.00  0.00     0.345 HD
ATOM      4  H   UNL     1     134.350 145.956 153.447  1.00  0.00     0.345 HD
ATOM      5  H   UNL     1     135.079 144.474 153.790  1.00  0.00     0.345 HD
ENDBRANCH   1   2
BRANCH   1   6
ATOM      6  C   UNL     1     137.189 144.970 152.751  1.00  0.00     0.099 C 
ATOM      7  O   UNL     1     137.439 143.742 152.883  1.00  0.00    -0.544 OA
ATOM      8  O   UNL     1     138.147 145.904 153.125  1.00  0.00    -0.544 OA
ENDBRANCH   1   6
BRANCH   1   9
ATOM      9  C   UNL     1     135.729 144.899 150.691  1.00  0.00     0.047 C 
ATOM     10  C   UNL     1     134.297 145.017 150.143  1.00  0.00     0.014 C 
ATOM     11  C   UNL     1     136.720 145.564 149.724  1.00  0.00     0.014 C 
ENDBRANCH   1   9
TORSDOF 3
ENDMDL
MODEL 6
REMARK VINA RESULT:    -2.581     22.335     22.733
REMARK INTER + INTRA:          -3.009
REMARK INTER:                  -2.948
REMARK INTRA:                  -0.061
REMARK UNBOUND:                -0.050
REMARK SMILES CC(C)[C@@H]([NH3+])C(=O)[O-]
REMARK SMILES IDX 4 1 5 2 6 6 7 7 8 8 2 9 1 10 3 11
REMARK H PARENT 5 3 5 4 5 5
REMARK Flexibility Score: inf
ROOT
ATOM      1  C   UNL     1     135.548 144.672 151.739  1.00  0.00     0.230 C 
ENDROOT
BRANCH   1   2
ATOM      2  N   UNL     1     134.691 145.180 152.822  1.00  0.00    -0.350 N 
ATOM      3  H   UNL     1     135.134 145.988 153.314  1.00  0.00     0.345 HD
ATOM      4  H   UNL     1     134.488 144.422 153.512  1.00  0.00     0.345 HD
ATOM      5  H   UNL     1     133.777 145.496 152.423  1.00  0.00     0.345 HD
ENDBRANCH   1   2
BRANCH   1   6
ATOM      6  C   UNL     1     135.094 145.199 150.399  1.00  0.00     0.099 C 
ATOM      7  O   UNL     1     133.871 145.231 150.097  1.00  0.00    -0.544 OA
ATOM      8  O   UNL     1     136.030 145.701 149.504  1.00  0.00    -0.544 OA
ENDBRANCH   1   6
BRANCH   1   9
ATOM      9  C   UNL     1     137.061 144.967 151.968  1.00  0.00     0.047 C 
ATOM     10  C   UNL     1     137.323 146.187 152.867  1.00  0.00     0.014 C 
ATOM     11  C   UNL     1     137.807 143.739 152.513  1.00  0.00     0.014 C 
ENDBRANCH   1   9
TORSDOF 3
ENDMDL
MODEL 7
REMARK VINA RESULT:    -2.578      1.771      2.209
REMARK INTER + INTRA:          -3.006
REMARK INTER:                  -2.949
REMARK INTRA:                  -0.057
REMARK UNBOUND:                -0.050
REMARK SMILES CC(C)[C@@H]([NH3+])C(=O)[O-]
REMARK SMILES IDX 4 1 5 2 6 6 7 7 8 8 2 9 1 10 3 11
REMARK H PARENT 5 3 5 4 5 5
REMARK Flexibility Score: inf
ROOT
ATOM      1  C   UNL     1     149.892 144.865 133.376  1.00  0.00     0.230 C 
ENDROOT
BRANCH   1   2
ATOM      2  N   UNL     1     148.672 144.322 133.994  1.00  0.00    -0.350 N 
ATOM      3  H   UNL     1     147.859 144.364 133.339  1.00  0.00     0.345 HD
ATOM      4  H   UNL     1     148.441 144.846 134.868  1.00  0.00     0.345 HD
ATOM      5  H   UNL     1     148.832 143.322 134.259  1.00  0.00     0.345 HD
ENDBRANCH   1   2
BRANCH   1   6
ATOM      6  C   UNL     1     149.909 146.373 133.451  1.00  0.00     0.099 C 
ATOM      7  O   UNL     1     150.877 146.983 133.978  1.00  0.00    -0.544 OA
ATOM      8  O   UNL     1     148.869 147.102 132.889  1.00  0.00    -0.544 OA
ENDBRANCH   1   6
BRANCH   1   9
ATOM      9  C   UNL     1     151.200 144.264 133.972  1.00  0.00     0.047 C 
ATOM     10  C   UNL     1     150.958 143.067 134.906  1.00  0.00     0.014 C 
ATOM     11  C   UNL     1     152.206 143.884 132.875  1.00  0.00     0.014 C 
ENDBRANCH   1   9
TORSDOF 3
ENDMDL
MODEL 8
REMARK VINA RESULT:    -2.547      1.527      2.103
REMARK INTER + INTRA:          -2.970
REMARK INTER:                  -2.895
REMARK INTRA:                  -0.075
REMARK UNBOUND:                -0.050
REMARK SMILES CC(C)[C@@H]([NH3+])C(=O)[O-]
REMARK SMILES IDX 4 1 5 2 6 6 7 7 8 8 2 9 1 10 3 11
REMARK H PARENT 5 3 5 4 5 5
REMARK Flexibility Score: inf
ROOT
ATOM      1  C   UNL     1     150.873 146.615 134.143  1.00  0.00     0.230 C 
ENDROOT
BRANCH   1   2
ATOM      2  N   UNL     1     151.233 147.269 132.875  1.00  0.00    -0.350 N 
ATOM      3  H   UNL     1     150.746 148.187 132.767  1.00  0.00     0.345 HD
ATOM      4  H   UNL     1     150.995 146.652 132.066  1.00  0.00     0.345 HD
ATOM      5  H   UNL     1     152.265 147.437 132.851  1.00  0.00     0.345 HD
ENDBRANCH   1   2
BRANCH   1   6
ATOM      6  C   UNL     1     149.829 147.413 134.885  1.00  0.00     0.099 C 
ATOM      7  O   UNL     1     149.245 148.384 134.335  1.00  0.00    -0.544 OA
ATOM      8  O   UNL     1     149.468 147.044 136.175  1.00  0.00    -0.544 OA
ENDBRANCH   1   6
BRANCH   1   9
ATOM      9  C   UNL     1     150.416 145.136 133.961  1.00  0.00     0.047 C 
ATOM     10  C   UNL     1     149.045 144.994 133.280  1.00  0.00     0.014 C 
ATOM     11  C   UNL     1     151.466 144.301 133.213  1.00  0.00     0.014 C 
ENDBRANCH   1   9
TORSDOF 3
ENDMDL
