MODEL 1
REMARK VINA RESULT:    -2.914      0.000      0.000
REMARK INTER + INTRA:          -3.169
REMARK INTER:                  -3.169
REMARK INTRA:                   0.000
REMARK UNBOUND:                 0.000
REMARK SMILES [NH3+]CC(=O)[O-]
REMARK SMILES IDX 2 1 1 2 3 6 4 7 5 8
REMARK H PARENT 1 3 1 4 1 5
REMARK Flexibility Score: inf
ROOT
ATOM      1  C   UNL     1       7.580  24.130  21.142  1.00  0.00     0.312 C 
ENDROOT
BRANCH   1   2
ATOM      2  N   UNL     1       8.953  24.278  20.663  1.00  0.00    -0.353 N 
ATOM      3  H   UNL     1       9.559  24.664  21.424  1.00  0.00     0.344 HD
ATOM      4  H   UNL     1       8.963  24.939  19.854  1.00  0.00     0.344 HD
ATOM      5  H   UNL     1       9.326  23.351  20.350  1.00  0.00     0.344 HD
ENDBRANCH   1   2
BRANCH   1   6
ATOM      6  C   UNL     1       6.603  24.442  20.051  1.00  0.00     0.096 C 
ATOM      7  O   UNL     1       6.918  25.240  19.129  1.00  0.00    -0.544 OA
ATOM      8  O   UNL     1       5.365  23.812  20.024  1.00  0.00    -0.544 OA
ENDBRANCH   1   6
TORSDOF 2
ENDMDL
MODEL 2
REMARK VINA RESULT:    -2.903      1.094      1.383
REMARK INTER + INTRA:          -3.158
REMARK INTER:                  -3.158
REMARK INTRA:                   0.000
REMARK UNBOUND:                 0.000
REMARK SMILES [NH3+]CC(=O)[O-]
REMARK SMILES IDX 2 1 1 2 3 6 4 7 5 8
REMARK H PARENT 1 3 1 4 1 5
REMARK Flexibility Score: inf
ROOT
ATOM      1  C   UNL     1       7.594  24.923  20.186  1.00  0.00     0.312 C 
ENDROOT
BRANCH   1   2
ATOM      2  N   UNL     1       8.871  24.322  20.562  1.00  0.00    -0.353 N 
ATOM      3  H   UNL     1       8.764  23.286  20.664  1.00  0.00     0.344 HD
ATOM      4  H   UNL     1       9.182  24.722  21.475  1.00  0.00     0.344 HD
ATOM      5  H   UNL     1       9.594  24.532  19.835  1.00  0.00     0.344 HD
ENDBRANCH   1   2
BRANCH   1   6
ATOM      6  C   UNL     1       6.481  23.932  20.328  1.00  0.00     0.096 C 
ATOM      7  O   UNL     1       5.468  24.006  19.582  1.00  0.00    -0.544 OA
ATOM      8  O   UNL     1       6.584  22.896  21.247  1.00  0.00    -0.544 OA
ENDBRANCH   1   6
TORSDOF 2
ENDMDL
MODEL 3
REMARK VINA RESULT:    -2.853      1.413      2.119
REMARK INTER + INTRA:          -3.103
REMARK INTER:                  -3.103
REMARK INTRA:                   0.000
REMARK UNBOUND:                 0.000
REMARK SMILES [NH3+]CC(=O)[O-]
REMARK SMILES IDX 2 1 1 2 3 6 4 7 5 8
REMARK H PARENT 1 3 1 4 1 5
REMARK Flexibility Score: inf
ROOT
ATOM      1  C   UNL     1       8.462  25.424  20.920  1.00  0.00     0.312 C 
ENDROOT
BRANCH   1   2
ATOM      2  N   UNL     1       9.106  24.140  20.657  1.00  0.00    -0.353 N 
ATOM      3  H   UNL     1       9.115  23.558  21.526  1.00  0.00     0.344 HD
ATOM      4  H   UNL     1      10.092  24.308  20.352  1.00  0.00     0.344 HD
ATOM      5  H   UNL     1       8.597  23.632  19.897  1.00  0.00     0.344 HD
ENDBRANCH   1   2
BRANCH   1   6
ATOM      6  C   UNL     1       7.613  25.838  19.758  1.00  0.00     0.096 C 
ATOM      7  O   UNL     1       6.853  25.003  19.199  1.00  0.00    -0.544 OA
ATOM      8  O   UNL     1       7.623  27.157  19.323  1.00  0.00    -0.544 OA
ENDBRANCH   1   6
TORSDOF 2
ENDMDL
MODEL 4
REMARK VINA RESULT:    -2.691     15.121     15.303
REMARK INTER + INTRA:          -2.928
REMARK INTER:                  -2.928
REMARK INTRA:                   0.000
REMARK UNBOUND:                 0.000
REMARK SMILES [NH3+]CC(=O)[O-]
REMARK SMILES IDX 2 1 1 2 3 6 4 7 5 8
REMARK H PARENT 1 3 1 4 1 5
REMARK Flexibility Score: inf
ROOT
ATOM      1  C   UNL     1      -4.971  15.745  16.091  1.00  0.00     0.312 C 
ENDROOT
BRANCH   1   2
ATOM      2  N   UNL     1      -3.519  15.711  15.935  1.00  0.00    -0.353 N 
ATOM      3  H   UNL     1      -3.192  14.723  15.830  1.00  0.00     0.344 HD
ATOM      4  H   UNL     1      -3.074  16.126  16.785  1.00  0.00     0.344 HD
ATOM      5  H   UNL     1      -3.235  16.268  15.096  1.00  0.00     0.344 HD
ENDBRANCH   1   2
BRANCH   1   6
ATOM      6  C   UNL     1      -5.350  15.639  17.536  1.00  0.00     0.096 C 
ATOM      7  O   UNL     1      -4.579  15.070  18.353  1.00  0.00    -0.544 OA
ATOM      8  O   UNL     1      -6.531  16.212  17.990  1.00  0.00    -0.544 OA
ENDBRANCH   1   6
TORSDOF 2
ENDMDL
MODEL 5
REMARK VINA RESULT:    -2.633      2.211      2.343
REMARK INTER + INTRA:          -2.864
REMARK INTER:                  -2.864
REMARK INTRA:                   0.000
REMARK UNBOUND:                 0.000
REMARK SMILES [NH3+]CC(=O)[O-]
REMARK SMILES IDX 2 1 1 2 3 6 4 7 5 8
REMARK H PARENT 1 3 1 4 1 5
REMARK Flexibility Score: inf
ROOT
ATOM      1  C   UNL     1       6.584  24.531  19.928  1.00  0.00     0.312 C 
ENDROOT
BRANCH   1   2
ATOM      2  N   UNL     1       6.835  23.248  20.581  1.00  0.00    -0.353 N 
ATOM      3  H   UNL     1       7.824  23.205  20.919  1.00  0.00     0.344 HD
ATOM      4  H   UNL     1       6.678  22.478  19.893  1.00  0.00     0.344 HD
ATOM      5  H   UNL     1       6.180  23.123  21.388  1.00  0.00     0.344 HD
ENDBRANCH   1   2
BRANCH   1   6
ATOM      6  C   UNL     1       7.773  25.432  20.058  1.00  0.00     0.096 C 
ATOM      7  O   UNL     1       7.792  26.544  19.467  1.00  0.00    -0.544 OA
ATOM      8  O   UNL     1       8.837  25.067  20.872  1.00  0.00    -0.544 OA
ENDBRANCH   1   6
TORSDOF 2
ENDMDL
MODEL 6
REMARK VINA RESULT:    -2.556      5.906      6.373
REMARK INTER + INTRA:          -2.780
REMARK INTER:                  -2.780
REMARK INTRA:                   0.000
REMARK UNBOUND:                 0.000
REMARK SMILES [NH3+]CC(=O)[O-]
REMARK SMILES IDX 2 1 1 2 3 6 4 7 5 8
REMARK H PARENT 1 3 1 4 1 5
REMARK Flexibility Score: inf
ROOT
ATOM      1  C   UNL     1       7.283  30.223  16.711  1.00  0.00     0.312 C 
ENDROOT
BRANCH   1   2
ATOM      2  N   UNL     1       8.032  29.747  15.549  1.00  0.00    -0.353 N 
ATOM      3  H   UNL     1       7.780  28.753  15.342  1.00  0.00     0.344 HD
ATOM      4  H   UNL     1       9.054  29.801  15.757  1.00  0.00     0.344 HD
ATOM      5  H   UNL     1       7.821  30.346  14.717  1.00  0.00     0.344 HD
ENDBRANCH   1   2
BRANCH   1   6
ATOM      6  C   UNL     1       7.839  29.640  17.973  1.00  0.00     0.096 C 
ATOM      7  O   UNL     1       8.756  30.238  18.596  1.00  0.00    -0.544 OA
ATOM      8  O   UNL     1       7.310  28.464  18.489  1.00  0.00    -0.544 OA
ENDBRANCH   1   6
TORSDOF 2
ENDMDL
MODEL 7
REMARK VINA RESULT:    -2.549      7.221      7.701
REMARK INTER + INTRA:          -2.773
REMARK INTER:                  -2.773
REMARK INTRA:                   0.000
REMARK UNBOUND:                 0.000
REMARK SMILES [NH3+]CC(=O)[O-]
REMARK SMILES IDX 2 1 1 2 3 6 4 7 5 8
REMARK H PARENT 1 3 1 4 1 5
REMARK Flexibility Score: inf
ROOT
ATOM      1  C   UNL     1       3.035  17.335  19.660  1.00  0.00     0.312 C 
ENDROOT
BRANCH   1   2
ATOM      2  N   UNL     1       2.994  17.185  18.207  1.00  0.00    -0.353 N 
ATOM      3  H   UNL     1       3.084  18.120  17.747  1.00  0.00     0.344 HD
ATOM      4  H   UNL     1       2.080  16.759  17.933  1.00  0.00     0.344 HD
ATOM      5  H   UNL     1       3.770  16.558  17.890  1.00  0.00     0.344 HD
ENDBRANCH   1   2
BRANCH   1   6
ATOM      6  C   UNL     1       2.698  18.740  20.055  1.00  0.00     0.096 C 
ATOM      7  O   UNL     1       1.527  19.179  19.897  1.00  0.00    -0.544 OA
ATOM      8  O   UNL     1       3.662  19.548  20.645  1.00  0.00    -0.544 OA
ENDBRANCH   1   6
TORSDOF 2
ENDMDL
MODEL 8
REMARK VINA RESULT:    -2.512      8.052      8.302
REMARK INTER + INTRA:          -2.733
REMARK INTER:                  -2.733
REMARK INTRA:                   0.000
REMARK UNBOUND:                 0.000
REMARK SMILES [NH3+]CC(=O)[O-]
REMARK SMILES IDX 2 1 1 2 3 6 4 7 5 8
REMARK H PARENT 1 3 1 4 1 5
REMARK Flexibility Score: inf
ROOT
ATOM      1  C   UNL     1       0.685  19.896  20.442  1.00  0.00     0.312 C 
ENDROOT
BRANCH   1   2
ATOM      2  N   UNL     1      -0.287  19.253  19.561  1.00  0.00    -0.353 N 
ATOM      3  H   UNL     1      -0.959  19.964  19.188  1.00  0.00     0.344 HD
ATOM      4  H   UNL     1      -0.819  18.536  20.103  1.00  0.00     0.344 HD
ATOM      5  H   UNL     1       0.205  18.783  18.766  1.00  0.00     0.344 HD
ENDBRANCH   1   2
BRANCH   1   6
ATOM      6  C   UNL     1       1.804  18.957  20.769  1.00  0.00     0.096 C 
ATOM      7  O   UNL     1       1.933  18.507  21.938  1.00  0.00    -0.544 OA
ATOM      8  O   UNL     1       2.675  18.538  19.771  1.00  0.00    -0.544 OA
ENDBRANCH   1   6
TORSDOF 2
ENDMDL
MODEL 9
REMARK VINA RESULT:    -2.408     20.374     20.652
REMARK INTER + INTRA:          -2.619
REMARK INTER:                  -2.619
REMARK INTRA:                   0.000
REMARK UNBOUND:                 0.000
REMARK SMILES [NH3+]CC(=O)[O-]
REMARK SMILES IDX 2 1 1 2 3 6 4 7 5 8
REMARK H PARENT 1 3 1 4 1 5
REMARK Flexibility Score: inf
ROOT
ATOM      1  C   UNL     1      -5.526  24.778   3.800  1.00  0.00     0.312 C 
ENDROOT
BRANCH   1   2
ATOM      2  N   UNL     1      -5.168  24.204   5.095  1.00  0.00    -0.353 N 
ATOM      3  H   UNL     1      -5.946  23.598   5.447  1.00  0.00     0.344 HD
ATOM      4  H   UNL     1      -5.005  24.977   5.778  1.00  0.00     0.344 HD
ATOM      5  H   UNL     1      -4.292  23.638   5.007  1.00  0.00     0.344 HD
ENDBRANCH   1   2
BRANCH   1   6
ATOM      6  C   UNL     1      -5.895  26.221   3.946  1.00  0.00     0.096 C 
ATOM      7  O   UNL     1      -7.099  26.553   4.112  1.00  0.00    -0.544 OA
ATOM      8  O   UNL     1      -4.906  27.196   3.949  1.00  0.00    -0.544 OA
ENDBRANCH   1   6
TORSDOF 2
ENDMDL
