MODEL 1
REMARK VINA RESULT:    -1.983      0.000      0.000
REMARK INTER + INTRA:          -3.048
REMARK INTER:                  -2.794
REMARK INTRA:                  -0.254
REMARK UNBOUND:                -0.254
REMARK SMILES CCCCCCCCC(=O)[O-]
REMARK SMILES IDX 6 1 7 2 8 3 9 4 10 5 11 6 5 7 4 8 3 9 2 10 1 11
REMARK H PARENT
REMARK Flexibility Score: inf
ROOT
ATOM      1  C   UNL     1      -3.295  18.785 -10.880  1.00  0.00     0.000 C 
ENDROOT
BRANCH   1   2
ATOM      2  C   UNL     1      -4.069  20.102 -10.750  1.00  0.00     0.006 C 
BRANCH   2   3
ATOM      3  C   UNL     1      -5.568  19.882 -10.971  1.00  0.00     0.053 C 
BRANCH   3   4
ATOM      4  C   UNL     1      -6.118  20.917 -11.900  1.00  0.00     0.041 C 
ATOM      5  O   UNL     1      -5.941  22.140 -11.663  1.00  0.00    -0.550 OA
ATOM      6  O   UNL     1      -6.871  20.533 -13.003  1.00  0.00    -0.550 OA
ENDBRANCH   3   4
ENDBRANCH   2   3
ENDBRANCH   1   2
BRANCH   1   7
ATOM      7  C   UNL     1      -4.232  17.579 -10.749  1.00  0.00     0.000 C 
BRANCH   7   8
ATOM      8  C   UNL     1      -3.440  16.266 -10.719  1.00  0.00    -0.000 C 
BRANCH   8   9
ATOM      9  C   UNL     1      -4.379  15.054 -10.752  1.00  0.00    -0.000 C 
BRANCH   9  10
ATOM     10  C   UNL     1      -3.784  13.876  -9.975  1.00  0.00    -0.003 C 
ATOM     11  C   UNL     1      -2.260  13.889 -10.034  1.00  0.00     0.004 C 
ENDBRANCH   9  10
ENDBRANCH   8   9
ENDBRANCH   7   8
ENDBRANCH   1   7
TORSDOF 7
ENDMDL
MODEL 2
REMARK VINA RESULT:    -1.327     20.186     22.260
REMARK INTER + INTRA:          -2.124
REMARK INTER:                  -1.684
REMARK INTRA:                  -0.440
REMARK UNBOUND:                -0.254
REMARK SMILES CCCCCCCCC(=O)[O-]
REMARK SMILES IDX 6 1 7 2 8 3 9 4 10 5 11 6 5 7 4 8 3 9 2 10 1 11
REMARK H PARENT
REMARK Flexibility Score: inf
ROOT
ATOM      1  C   UNL     1     -17.985  33.726 -20.115  1.00  0.00     0.000 C 
ENDROOT
BRANCH   1   2
ATOM      2  C   UNL     1     -19.505  33.919 -20.058  1.00  0.00     0.006 C 
BRANCH   2   3
ATOM      3  C   UNL     1     -20.011  33.880 -18.614  1.00  0.00     0.053 C 
BRANCH   3   4
ATOM      4  C   UNL     1     -21.413  33.361 -18.563  1.00  0.00     0.041 C 
ATOM      5  O   UNL     1     -22.122  33.552 -17.541  1.00  0.00    -0.550 OA
ATOM      6  O   UNL     1     -21.921  32.623 -19.624  1.00  0.00    -0.550 OA
ENDBRANCH   3   4
ENDBRANCH   2   3
ENDBRANCH   1   2
BRANCH   1   7
ATOM      7  C   UNL     1     -17.329  34.124 -18.788  1.00  0.00     0.000 C 
BRANCH   7   8
ATOM      8  C   UNL     1     -15.833  33.787 -18.790  1.00  0.00    -0.000 C 
BRANCH   8   9
ATOM      9  C   UNL     1     -15.423  33.103 -20.100  1.00  0.00    -0.000 C 
BRANCH   9  10
ATOM     10  C   UNL     1     -14.892  31.690 -19.839  1.00  0.00    -0.003 C 
ATOM     11  C   UNL     1     -16.025  30.733 -19.478  1.00  0.00     0.004 C 
ENDBRANCH   9  10
ENDBRANCH   8   9
ENDBRANCH   7   8
ENDBRANCH   1   7
TORSDOF 7
ENDMDL
MODEL 3
REMARK VINA RESULT:    -0.922      3.637      6.135
REMARK INTER + INTRA:          -1.553
REMARK INTER:                  -1.196
REMARK INTRA:                  -0.357
REMARK UNBOUND:                -0.254
REMARK SMILES CCCCCCCCC(=O)[O-]
REMARK SMILES IDX 6 1 7 2 8 3 9 4 10 5 11 6 5 7 4 8 3 9 2 10 1 11
REMARK H PARENT
REMARK Flexibility Score: inf
ROOT
ATOM      1  C   UNL     1      -4.090  18.495 -10.753  1.00  0.00     0.000 C 
ENDROOT
BRANCH   1   2
ATOM      2  C   UNL     1      -3.290  17.187 -10.743  1.00  0.00     0.006 C 
BRANCH   2   3
ATOM      3  C   UNL     1      -4.219  15.973 -10.819  1.00  0.00     0.053 C 
BRANCH   3   4
ATOM      4  C   UNL     1      -3.544  14.759 -10.264  1.00  0.00     0.041 C 
ATOM      5  O   UNL     1      -4.216  13.875  -9.672  1.00  0.00    -0.550 OA
ATOM      6  O   UNL     1      -2.164  14.628 -10.355  1.00  0.00    -0.550 OA
ENDBRANCH   3   4
ENDBRANCH   2   3
ENDBRANCH   1   2
BRANCH   1   7
ATOM      7  C   UNL     1      -5.582  18.226 -10.981  1.00  0.00     0.000 C 
BRANCH   7   8
ATOM      8  C   UNL     1      -6.409  19.500 -10.770  1.00  0.00    -0.000 C 
BRANCH   8   9
ATOM      9  C   UNL     1      -6.556  20.286 -12.078  1.00  0.00    -0.000 C 
BRANCH   9  10
ATOM     10  C   UNL     1      -6.225  21.768 -11.869  1.00  0.00    -0.003 C 
ATOM     11  C   UNL     1      -4.781  21.952 -11.412  1.00  0.00     0.004 C 
ENDBRANCH   9  10
ENDBRANCH   8   9
ENDBRANCH   7   8
ENDBRANCH   1   7
TORSDOF 7
ENDMDL
MODEL 4
REMARK VINA RESULT:    -0.208      3.669      6.230
REMARK INTER + INTRA:          -0.547
REMARK INTER:                  -0.251
REMARK INTRA:                  -0.296
REMARK UNBOUND:                -0.254
REMARK SMILES CCCCCCCCC(=O)[O-]
REMARK SMILES IDX 6 1 7 2 8 3 9 4 10 5 11 6 5 7 4 8 3 9 2 10 1 11
REMARK H PARENT
REMARK Flexibility Score: inf
ROOT
ATOM      1  C   UNL     1      -4.211  18.191 -10.751  1.00  0.00     0.000 C 
ENDROOT
BRANCH   1   2
ATOM      2  C   UNL     1      -3.330  16.943 -10.615  1.00  0.00     0.006 C 
BRANCH   2   3
ATOM      3  C   UNL     1      -4.143  15.668 -10.851  1.00  0.00     0.053 C 
BRANCH   3   4
ATOM      4  C   UNL     1      -3.519  14.508 -10.141  1.00  0.00     0.041 C 
ATOM      5  O   UNL     1      -4.169  13.875  -9.269  1.00  0.00    -0.550 OA
ATOM      6  O   UNL     1      -2.201  14.158 -10.406  1.00  0.00    -0.550 OA
ENDBRANCH   3   4
ENDBRANCH   2   3
ENDBRANCH   1   2
BRANCH   1   7
ATOM      7  C   UNL     1      -3.362  19.467 -10.750  1.00  0.00     0.000 C 
BRANCH   7   8
ATOM      8  C   UNL     1      -4.211  20.694 -11.101  1.00  0.00    -0.000 C 
BRANCH   8   9
ATOM      9  C   UNL     1      -5.707  20.360 -11.060  1.00  0.00    -0.000 C 
BRANCH   9  10
ATOM     10  C   UNL     1      -6.505  21.296 -11.973  1.00  0.00    -0.003 C 
ATOM     11  C   UNL     1      -6.831  20.624 -13.304  1.00  0.00     0.004 C 
ENDBRANCH   9  10
ENDBRANCH   8   9
ENDBRANCH   7   8
ENDBRANCH   1   7
TORSDOF 7
ENDMDL
MODEL 5
REMARK VINA RESULT:     0.057     20.304     22.555
REMARK INTER + INTRA:          -0.174
REMARK INTER:                   0.206
REMARK INTRA:                  -0.381
REMARK UNBOUND:                -0.254
REMARK SMILES CCCCCCCCC(=O)[O-]
REMARK SMILES IDX 6 1 7 2 8 3 9 4 10 5 11 6 5 7 4 8 3 9 2 10 1 11
REMARK H PARENT
REMARK Flexibility Score: inf
ROOT
ATOM      1  C   UNL     1     -18.253  33.106 -19.325  1.00  0.00     0.000 C 
ENDROOT
BRANCH   1   2
ATOM      2  C   UNL     1     -17.020  32.650 -20.114  1.00  0.00     0.006 C 
BRANCH   2   3
ATOM      3  C   UNL     1     -15.915  33.708 -20.068  1.00  0.00     0.053 C 
BRANCH   3   4
ATOM      4  C   UNL     1     -15.013  33.474 -18.898  1.00  0.00     0.041 C 
ATOM      5  O   UNL     1     -14.061  32.655 -18.986  1.00  0.00    -0.550 OA
ATOM      6  O   UNL     1     -15.253  34.123 -17.694  1.00  0.00    -0.550 OA
ENDBRANCH   3   4
ENDBRANCH   2   3
ENDBRANCH   1   2
BRANCH   1   7
ATOM      7  C   UNL     1     -19.073  34.124 -20.125  1.00  0.00     0.000 C 
BRANCH   7   8
ATOM      8  C   UNL     1     -20.548  34.095 -19.706  1.00  0.00    -0.000 C 
BRANCH   8   9
ATOM      9  C   UNL     1     -20.687  33.997 -18.182  1.00  0.00    -0.000 C 
BRANCH   9  10
ATOM     10  C   UNL     1     -22.018  33.346 -17.791  1.00  0.00    -0.003 C 
ATOM     11  C   UNL     1     -22.066  31.884 -18.224  1.00  0.00     0.004 C 
ENDBRANCH   9  10
ENDBRANCH   8   9
ENDBRANCH   7   8
ENDBRANCH   1   7
TORSDOF 7
ENDMDL
MODEL 6
REMARK VINA RESULT:     0.429      1.076      1.589
REMARK INTER + INTRA:           0.351
REMARK INTER:                  -0.853
REMARK INTRA:                   1.204
REMARK UNBOUND:                -0.254
REMARK SMILES CCCCCCCCC(=O)[O-]
REMARK SMILES IDX 6 1 7 2 8 3 9 4 10 5 11 6 5 7 4 8 3 9 2 10 1 11
REMARK H PARENT
REMARK Flexibility Score: inf
ROOT
ATOM      1  C   UNL     1      -4.740  19.477 -11.035  1.00  0.00     0.000 C 
ENDROOT
BRANCH   1   2
ATOM      2  C   UNL     1      -4.671  21.003 -10.896  1.00  0.00     0.006 C 
BRANCH   2   3
ATOM      3  C   UNL     1      -5.722  21.683 -11.775  1.00  0.00     0.053 C 
BRANCH   3   4
ATOM      4  C   UNL     1      -6.507  20.664 -12.539  1.00  0.00     0.041 C 
ATOM      5  O   UNL     1      -6.923  20.923 -13.698  1.00  0.00    -0.550 OA
ATOM      6  O   UNL     1      -6.823  19.446 -11.951  1.00  0.00    -0.550 OA
ENDBRANCH   3   4
ENDBRANCH   2   3
ENDBRANCH   1   2
BRANCH   1   7
ATOM      7  C   UNL     1      -3.346  18.850 -10.917  1.00  0.00     0.000 C 
BRANCH   7   8
ATOM      8  C   UNL     1      -3.350  17.401 -11.420  1.00  0.00    -0.000 C 
BRANCH   8   9
ATOM      9  C   UNL     1      -3.564  16.416 -10.264  1.00  0.00    -0.000 C 
BRANCH   9  10
ATOM     10  C   UNL     1      -4.120  15.082 -10.773  1.00  0.00    -0.003 C 
ATOM     11  C   UNL     1      -3.434  13.902 -10.091  1.00  0.00     0.004 C 
ENDBRANCH   9  10
ENDBRANCH   8   9
ENDBRANCH   7   8
ENDBRANCH   1   7
TORSDOF 7
ENDMDL
