MODEL 1
REMARK VINA RESULT:    19.452      0.000      0.000
REMARK INTER + INTRA:          31.147
REMARK INTER:                  26.843
REMARK INTRA:                   4.304
REMARK UNBOUND:                 4.304
REMARK SMILES C=C(CC[C@@H](C(=O)[O-])[C@@H]1CC[C@]2(C)C3=C(CC[C@]12C)[C@@]1(C)CC[C@H](O)C(C)(C)[C@H]1CC3)C(C)C
REMARK SMILES IDX 4 1 5 2 6 3 7 4 8 5 9 6 10 7 18 8 11 9 12 10 17 11 19 12
REMARK SMILES IDX 13 13 14 14 16 15 15 16 31 17 20 18 30 19 29 20 22 21 21 22
REMARK SMILES IDX 26 23 23 24 24 25 27 26 28 27 25 28 3 30 2 31 1 32 32 33
REMARK SMILES IDX 33 34 34 35
REMARK H PARENT 25 29
REMARK Flexibility Score: inf
ROOT
ATOM      1  C   UNL     1      -3.767  33.825  24.479  1.00  0.00     0.014 C 
ENDROOT
BRANCH   1   2
ATOM      2  C   UNL     1      -4.340  34.338  25.837  1.00  0.00     0.039 C 
BRANCH   2   3
ATOM      3  C   UNL     1      -5.303  35.489  25.667  1.00  0.00     0.045 C 
ATOM      4  O   UNL     1      -5.968  35.591  24.601  1.00  0.00    -0.550 OA
ATOM      5  O   UNL     1      -5.449  36.463  26.650  1.00  0.00    -0.550 OA
ENDBRANCH   2   3
BRANCH   2   6
ATOM      6  C   UNL     1      -4.935  33.248  26.798  1.00  0.00     0.004 C 
ATOM      7  C   UNL     1      -5.010  33.700  28.270  1.00  0.00     0.006 C 
ATOM      8  C   UNL     1      -4.378  31.774  26.793  1.00  0.00    -0.020 C 
ATOM      9  C   UNL     1      -4.506  32.538  29.112  1.00  0.00     0.012 C 
ATOM     10  C   UNL     1      -4.663  31.263  28.254  1.00  0.00    -0.006 C 
ATOM     11  C   UNL     1      -2.852  31.717  26.543  1.00  0.00     0.012 C 
ATOM     12  C   UNL     1      -5.096  30.928  25.696  1.00  0.00     0.012 C 
ATOM     13  C   UNL     1      -6.120  30.733  28.405  1.00  0.00     0.017 C 
ATOM     14  C   UNL     1      -3.695  30.169  28.760  1.00  0.00    -0.064 C 
ATOM     15  C   UNL     1      -2.306  30.301  26.696  1.00  0.00     0.032 C 
ATOM     16  C   UNL     1      -2.714  29.623  27.995  1.00  0.00    -0.064 C 
ATOM     17  C   UNL     1      -3.722  29.807  30.218  1.00  0.00     0.032 C 
ATOM     18  C   UNL     1      -1.969  28.331  28.456  1.00  0.00    -0.008 C 
ATOM     19  C   UNL     1      -3.664  28.307  30.465  1.00  0.00     0.009 C 
ATOM     20  C   UNL     1      -2.893  27.448  29.402  1.00  0.00     0.007 C 
ATOM     21  C   UNL     1      -0.672  28.726  29.210  1.00  0.00     0.014 C 
ATOM     22  C   UNL     1      -1.598  27.531  27.166  1.00  0.00     0.016 C 
ATOM     23  C   UNL     1      -2.162  26.208  30.098  1.00  0.00    -0.006 C 
ATOM     24  C   UNL     1       0.056  27.528  29.842  1.00  0.00     0.033 C 
ATOM     25  C   UNL     1      -0.844  26.705  30.784  1.00  0.00     0.120 C 
ATOM     26  C   UNL     1      -3.086  25.563  31.179  1.00  0.00     0.014 C 
ATOM     27  C   UNL     1      -1.864  25.055  29.084  1.00  0.00     0.014 C 
BRANCH  25  28
ATOM     28  O   UNL     1      -0.097  25.615  31.269  1.00  0.00    -0.393 OA
ATOM     29  H   UNL     1       0.786  25.968  31.553  1.00  0.00     0.210 HD
ENDBRANCH  25  28
ENDBRANCH   2   6
ENDBRANCH   1   2
BRANCH   1  30
ATOM     30  C   UNL     1      -4.604  32.698  23.833  1.00  0.00     0.031 C 
BRANCH  30  31
ATOM     31  C   UNL     1      -5.354  33.120  22.581  1.00  0.00    -0.075 C 
ATOM     32  C   UNL     1      -6.125  32.221  21.940  1.00  0.00     0.008 C 
BRANCH  31  33
ATOM     33  C   UNL     1      -5.103  34.478  21.928  1.00  0.00     0.008 C 
ATOM     34  C   UNL     1      -6.119  35.529  22.381  1.00  0.00     0.012 C 
ATOM     35  C   UNL     1      -3.669  34.956  22.186  1.00  0.00     0.012 C 
ENDBRANCH  31  33
ENDBRANCH  30  31
ENDBRANCH   1  30
TORSDOF 7
ENDMDL
MODEL 2
REMARK VINA RESULT:    21.017      1.561      1.947
REMARK INTER + INTRA:          33.308
REMARK INTER:                  26.525
REMARK INTRA:                   6.783
REMARK UNBOUND:                 4.304
REMARK SMILES C=C(CC[C@@H](C(=O)[O-])[C@@H]1CC[C@]2(C)C3=C(CC[C@]12C)[C@@]1(C)CC[C@H](O)C(C)(C)[C@H]1CC3)C(C)C
REMARK SMILES IDX 4 1 5 2 6 3 7 4 8 5 9 6 10 7 18 8 11 9 12 10 17 11 19 12
REMARK SMILES IDX 13 13 14 14 16 15 15 16 31 17 20 18 30 19 29 20 22 21 21 22
REMARK SMILES IDX 26 23 23 24 24 25 27 26 28 27 25 28 3 30 2 31 1 32 32 33
REMARK SMILES IDX 33 34 34 35
REMARK H PARENT 25 29
REMARK Flexibility Score: inf
ROOT
ATOM      1  C   UNL     1      -3.326  33.029  24.890  1.00  0.00     0.014 C 
ENDROOT
BRANCH   1   2
ATOM      2  C   UNL     1      -4.829  32.990  25.311  1.00  0.00     0.039 C 
BRANCH   2   3
ATOM      3  C   UNL     1      -5.689  32.224  24.335  1.00  0.00     0.045 C 
ATOM      4  O   UNL     1      -6.125  32.802  23.303  1.00  0.00    -0.550 OA
ATOM      5  O   UNL     1      -6.043  30.898  24.566  1.00  0.00    -0.550 OA
ENDBRANCH   2   3
BRANCH   2   6
ATOM      6  C   UNL     1      -5.127  32.547  26.788  1.00  0.00     0.004 C 
ATOM      7  C   UNL     1      -4.495  33.470  27.848  1.00  0.00     0.006 C 
ATOM      8  C   UNL     1      -4.873  31.063  27.254  1.00  0.00    -0.020 C 
ATOM      9  C   UNL     1      -3.878  32.567  28.904  1.00  0.00     0.012 C 
ATOM     10  C   UNL     1      -4.589  31.201  28.796  1.00  0.00    -0.006 C 
ATOM     11  C   UNL     1      -3.630  30.434  26.581  1.00  0.00     0.012 C 
ATOM     12  C   UNL     1      -6.116  30.176  26.936  1.00  0.00     0.012 C 
ATOM     13  C   UNL     1      -5.908  31.254  29.622  1.00  0.00     0.017 C 
ATOM     14  C   UNL     1      -3.690  30.094  29.392  1.00  0.00    -0.064 C 
ATOM     15  C   UNL     1      -3.308  29.059  27.157  1.00  0.00     0.032 C 
ATOM     16  C   UNL     1      -3.229  29.034  28.677  1.00  0.00    -0.064 C 
ATOM     17  C   UNL     1      -3.153  30.278  30.783  1.00  0.00     0.032 C 
ATOM     18  C   UNL     1      -2.581  27.809  29.393  1.00  0.00    -0.008 C 
ATOM     19  C   UNL     1      -3.241  29.018  31.632  1.00  0.00     0.009 C 
ATOM     20  C   UNL     1      -3.145  27.650  30.871  1.00  0.00     0.007 C 
ATOM     21  C   UNL     1      -1.041  27.994  29.437  1.00  0.00     0.014 C 
ATOM     22  C   UNL     1      -2.928  26.544  28.544  1.00  0.00     0.016 C 
ATOM     23  C   UNL     1      -2.400  26.554  31.767  1.00  0.00    -0.006 C 
ATOM     24  C   UNL     1      -0.319  26.915  30.262  1.00  0.00     0.033 C 
ATOM     25  C   UNL     1      -0.854  26.800  31.702  1.00  0.00     0.120 C 
ATOM     26  C   UNL     1      -2.868  26.651  33.254  1.00  0.00     0.014 C 
ATOM     27  C   UNL     1      -2.752  25.095  31.328  1.00  0.00     0.014 C 
BRANCH  25  28
ATOM     28  O   UNL     1      -0.160  25.761  32.350  1.00  0.00    -0.393 OA
ATOM     29  H   UNL     1      -0.211  25.938  33.326  1.00  0.00     0.210 HD
ENDBRANCH  25  28
ENDBRANCH   2   6
ENDBRANCH   1   2
BRANCH   1  30
ATOM     30  C   UNL     1      -3.093  33.550  23.455  1.00  0.00     0.031 C 
BRANCH  30  31
ATOM     31  C   UNL     1      -4.307  34.216  22.829  1.00  0.00    -0.075 C 
ATOM     32  C   UNL     1      -5.010  33.557  21.891  1.00  0.00     0.008 C 
BRANCH  31  33
ATOM     33  C   UNL     1      -4.631  35.685  23.101  1.00  0.00     0.008 C 
ATOM     34  C   UNL     1      -4.372  36.566  21.877  1.00  0.00     0.012 C 
ATOM     35  C   UNL     1      -6.074  35.846  23.597  1.00  0.00     0.012 C 
ENDBRANCH  31  33
ENDBRANCH  30  31
ENDBRANCH   1  30
TORSDOF 7
ENDMDL
