MODEL 1
REMARK VINA RESULT:    -7.567      0.000      0.000
REMARK INTER + INTRA:          -9.439
REMARK INTER:                  -9.115
REMARK INTRA:                  -0.324
REMARK UNBOUND:                -0.324
REMARK SMILES O=c1c(O)c(-c2ccc(O)c(O)c2)oc2cc(O)cc(O)c12
REMARK SMILES IDX 5 1 3 2 2 3 1 4 22 5 20 6 19 7 17 8 16 9 15 10 14 11 6 12
REMARK SMILES IDX 7 13 8 14 9 15 13 16 11 17 10 18 12 20 4 22 21 24 18 26
REMARK H PARENT 10 19 12 21 4 23 21 25 18 27
REMARK Flexibility Score: inf
ROOT
ATOM      1  C   UNL     1     -14.427  17.753  25.070  1.00  0.00     0.180 A 
ATOM      2  C   UNL     1     -15.221  17.116  24.100  1.00  0.00     0.208 A 
ATOM      3  C   UNL     1     -16.090  17.892  23.316  1.00  0.00     0.238 A 
ATOM      4  O   UNL     1     -16.837  17.310  22.487  1.00  0.00    -0.285 OA
ATOM      5  C   UNL     1     -16.142  19.295  23.499  1.00  0.00     0.111 A 
ATOM      6  C   UNL     1     -16.955  20.182  22.732  1.00  0.00     0.134 A 
ATOM      7  C   UNL     1     -17.026  21.535  23.087  1.00  0.00     0.093 A 
ATOM      8  C   UNL     1     -16.263  22.044  24.137  1.00  0.00     0.123 A 
ATOM      9  C   UNL     1     -15.418  21.197  24.855  1.00  0.00     0.094 A 
ATOM     10  C   UNL     1     -15.354  19.836  24.548  1.00  0.00     0.146 A 
ATOM     11  O   UNL     1     -14.547  19.061  25.263  1.00  0.00    -0.452 OA
ENDROOT
BRANCH   1  12
ATOM     12  C   UNL     1     -13.470  17.007  25.919  1.00  0.00     0.025 A 
ATOM     13  C   UNL     1     -12.180  16.688  25.460  1.00  0.00     0.016 A 
ATOM     14  C   UNL     1     -11.286  16.004  26.287  1.00  0.00     0.051 A 
ATOM     15  C   UNL     1     -11.661  15.640  27.588  1.00  0.00     0.157 A 
ATOM     16  C   UNL     1     -13.834  16.658  27.231  1.00  0.00     0.062 A 
ATOM     17  C   UNL     1     -12.940  15.973  28.061  1.00  0.00     0.158 A 
BRANCH  15  18
ATOM     18  O   UNL     1     -10.766  14.957  28.409  1.00  0.00    -0.504 OA
ATOM     19  H   UNL     1      -9.865  15.349  28.655  1.00  0.00     0.293 HD
ENDBRANCH  15  18
BRANCH  17  20
ATOM     20  O   UNL     1     -13.341  15.632  29.353  1.00  0.00    -0.504 OA
ATOM     21  H   UNL     1     -13.951  14.845  29.537  1.00  0.00     0.293 HD
ENDBRANCH  17  20
ENDBRANCH   1  12
BRANCH   2  22
ATOM     22  O   UNL     1     -15.169  15.728  23.951  1.00  0.00    -0.502 OA
ATOM     23  H   UNL     1     -14.399  15.171  24.302  1.00  0.00     0.293 HD
ENDBRANCH   2  22
BRANCH   6  24
ATOM     24  O   UNL     1     -17.686  19.794  21.605  1.00  0.00    -0.507 OA
ATOM     25  H   UNL     1     -18.320  20.391  21.097  1.00  0.00     0.293 HD
ENDBRANCH   6  24
BRANCH   8  26
ATOM     26  O   UNL     1     -16.345  23.399  24.452  1.00  0.00    -0.508 OA
ATOM     27  H   UNL     1     -17.232  23.842  24.660  1.00  0.00     0.293 HD
ENDBRANCH   8  26
TORSDOF 6
ENDMDL
MODEL 2
REMARK VINA RESULT:    -7.040      0.663      1.434
REMARK INTER + INTRA:          -8.804
REMARK INTER:                  -8.716
REMARK INTRA:                  -0.088
REMARK UNBOUND:                -0.324
REMARK SMILES O=c1c(O)c(-c2ccc(O)c(O)c2)oc2cc(O)cc(O)c12
REMARK SMILES IDX 5 1 3 2 2 3 1 4 22 5 20 6 19 7 17 8 16 9 15 10 14 11 6 12
REMARK SMILES IDX 7 13 8 14 9 15 13 16 11 17 10 18 12 20 4 22 21 24 18 26
REMARK H PARENT 10 19 12 21 4 23 21 25 18 27
REMARK Flexibility Score: inf
ROOT
ATOM      1  C   UNL     1     -14.443  17.782  25.124  1.00  0.00     0.180 A 
ATOM      2  C   UNL     1     -15.277  17.135  24.196  1.00  0.00     0.208 A 
ATOM      3  C   UNL     1     -16.139  17.907  23.401  1.00  0.00     0.238 A 
ATOM      4  O   UNL     1     -16.922  17.317  22.611  1.00  0.00    -0.285 OA
ATOM      5  C   UNL     1     -16.146  19.316  23.533  1.00  0.00     0.111 A 
ATOM      6  C   UNL     1     -16.950  20.198  22.750  1.00  0.00     0.134 A 
ATOM      7  C   UNL     1     -16.973  21.565  23.055  1.00  0.00     0.093 A 
ATOM      8  C   UNL     1     -16.172  22.090  24.069  1.00  0.00     0.123 A 
ATOM      9  C   UNL     1     -15.337  21.244  24.800  1.00  0.00     0.094 A 
ATOM     10  C   UNL     1     -15.320  19.871  24.544  1.00  0.00     0.146 A 
ATOM     11  O   UNL     1     -14.519  19.100  25.270  1.00  0.00    -0.452 OA
ENDROOT
BRANCH   1  12
ATOM     12  C   UNL     1     -13.489  17.040  25.979  1.00  0.00     0.025 A 
ATOM     13  C   UNL     1     -13.580  17.079  27.382  1.00  0.00     0.016 A 
ATOM     14  C   UNL     1     -12.684  16.351  28.168  1.00  0.00     0.051 A 
ATOM     15  C   UNL     1     -11.693  15.563  27.567  1.00  0.00     0.157 A 
ATOM     16  C   UNL     1     -12.506  16.233  25.381  1.00  0.00     0.062 A 
ATOM     17  C   UNL     1     -11.607  15.503  26.167  1.00  0.00     0.158 A 
BRANCH  15  18
ATOM     18  O   UNL     1     -10.799  14.840  28.355  1.00  0.00    -0.504 OA
ATOM     19  H   UNL     1     -10.592  15.111  29.309  1.00  0.00     0.293 HD
ENDBRANCH  15  18
BRANCH  17  20
ATOM     20  O   UNL     1     -10.637  14.722  25.537  1.00  0.00    -0.504 OA
ATOM     21  H   UNL     1      -9.842  15.132  25.063  1.00  0.00     0.293 HD
ENDBRANCH  17  20
ENDBRANCH   1  12
BRANCH   2  22
ATOM     22  O   UNL     1     -15.269  15.741  24.098  1.00  0.00    -0.502 OA
ATOM     23  H   UNL     1     -15.970  15.160  24.543  1.00  0.00     0.293 HD
ENDBRANCH   2  22
BRANCH   6  24
ATOM     24  O   UNL     1     -17.717  19.791  21.655  1.00  0.00    -0.507 OA
ATOM     25  H   UNL     1     -18.724  19.815  21.618  1.00  0.00     0.293 HD
ENDBRANCH   6  24
BRANCH   8  26
ATOM     26  O   UNL     1     -16.207  23.457  24.335  1.00  0.00    -0.508 OA
ATOM     27  H   UNL     1     -15.360  23.987  24.501  1.00  0.00     0.293 HD
ENDBRANCH   8  26
TORSDOF 6
ENDMDL
MODEL 3
REMARK VINA RESULT:    -6.954      1.941      2.521
REMARK INTER + INTRA:          -8.701
REMARK INTER:                  -8.588
REMARK INTRA:                  -0.112
REMARK UNBOUND:                -0.324
REMARK SMILES O=c1c(O)c(-c2ccc(O)c(O)c2)oc2cc(O)cc(O)c12
REMARK SMILES IDX 5 1 3 2 2 3 1 4 22 5 20 6 19 7 17 8 16 9 15 10 14 11 6 12
REMARK SMILES IDX 7 13 8 14 9 15 13 16 11 17 10 18 12 20 4 22 21 24 18 26
REMARK H PARENT 10 19 12 21 4 23 21 25 18 27
REMARK Flexibility Score: inf
ROOT
ATOM      1  C   UNL     1     -13.417  17.240  24.946  1.00  0.00     0.180 A 
ATOM      2  C   UNL     1     -13.455  16.342  23.864  1.00  0.00     0.208 A 
ATOM      3  C   UNL     1     -14.556  16.373  22.993  1.00  0.00     0.238 A 
ATOM      4  O   UNL     1     -14.611  15.532  22.059  1.00  0.00    -0.285 OA
ATOM      5  C   UNL     1     -15.595  17.311  23.204  1.00  0.00     0.111 A 
ATOM      6  C   UNL     1     -16.737  17.458  22.360  1.00  0.00     0.134 A 
ATOM      7  C   UNL     1     -17.767  18.328  22.737  1.00  0.00     0.093 A 
ATOM      8  C   UNL     1     -17.667  19.105  23.891  1.00  0.00     0.123 A 
ATOM      9  C   UNL     1     -16.528  19.013  24.691  1.00  0.00     0.094 A 
ATOM     10  C   UNL     1     -15.500  18.127  24.361  1.00  0.00     0.146 A 
ATOM     11  O   UNL     1     -14.438  18.062  25.155  1.00  0.00    -0.452 OA
ENDROOT
BRANCH   1  12
ATOM     12  C   UNL     1     -12.279  17.284  25.893  1.00  0.00     0.025 A 
ATOM     13  C   UNL     1     -11.514  18.451  26.064  1.00  0.00     0.016 A 
ATOM     14  C   UNL     1     -10.460  18.477  26.980  1.00  0.00     0.051 A 
ATOM     15  C   UNL     1     -10.163  17.344  27.749  1.00  0.00     0.157 A 
ATOM     16  C   UNL     1     -11.990  16.157  26.681  1.00  0.00     0.062 A 
ATOM     17  C   UNL     1     -10.935  16.180  27.599  1.00  0.00     0.158 A 
BRANCH  15  18
ATOM     18  O   UNL     1      -9.110  17.374  28.662  1.00  0.00    -0.504 OA
ATOM     19  H   UNL     1      -8.974  18.155  29.291  1.00  0.00     0.293 HD
ENDBRANCH  15  18
BRANCH  17  20
ATOM     20  O   UNL     1     -10.670  15.038  28.355  1.00  0.00    -0.504 OA
ATOM     21  H   UNL     1      -9.853  14.462  28.191  1.00  0.00     0.293 HD
ENDBRANCH  17  20
ENDBRANCH   1  12
BRANCH   2  22
ATOM     22  O   UNL     1     -12.429  15.411  23.688  1.00  0.00    -0.502 OA
ATOM     23  H   UNL     1     -11.558  15.642  23.224  1.00  0.00     0.293 HD
ENDBRANCH   2  22
BRANCH   6  24
ATOM     24  O   UNL     1     -16.894  16.798  21.138  1.00  0.00    -0.507 OA
ATOM     25  H   UNL     1     -17.757  16.392  20.811  1.00  0.00     0.293 HD
ENDBRANCH   6  24
BRANCH   8  26
ATOM     26  O   UNL     1     -18.704  19.973  24.228  1.00  0.00    -0.508 OA
ATOM     27  H   UNL     1     -19.455  19.688  24.844  1.00  0.00     0.293 HD
ENDBRANCH   8  26
TORSDOF 6
ENDMDL
MODEL 4
REMARK VINA RESULT:    -6.869      3.508      4.330
REMARK INTER + INTRA:          -8.598
REMARK INTER:                  -8.275
REMARK INTRA:                  -0.323
REMARK UNBOUND:                -0.324
REMARK SMILES O=c1c(O)c(-c2ccc(O)c(O)c2)oc2cc(O)cc(O)c12
REMARK SMILES IDX 5 1 3 2 2 3 1 4 22 5 20 6 19 7 17 8 16 9 15 10 14 11 6 12
REMARK SMILES IDX 7 13 8 14 9 15 13 16 11 17 10 18 12 20 4 22 21 24 18 26
REMARK H PARENT 10 19 12 21 4 23 21 25 18 27
REMARK Flexibility Score: inf
ROOT
ATOM      1  C   UNL     1     -12.382  18.860  26.494  1.00  0.00     0.180 A 
ATOM      2  C   UNL     1     -11.547  19.954  26.208  1.00  0.00     0.208 A 
ATOM      3  C   UNL     1     -12.050  21.255  26.372  1.00  0.00     0.238 A 
ATOM      4  O   UNL     1     -11.317  22.230  26.063  1.00  0.00    -0.285 OA
ATOM      5  C   UNL     1     -13.374  21.445  26.835  1.00  0.00     0.111 A 
ATOM      6  C   UNL     1     -13.973  22.719  27.077  1.00  0.00     0.134 A 
ATOM      7  C   UNL     1     -15.331  22.791  27.409  1.00  0.00     0.093 A 
ATOM      8  C   UNL     1     -16.095  21.636  27.573  1.00  0.00     0.123 A 
ATOM      9  C   UNL     1     -15.504  20.384  27.398  1.00  0.00     0.094 A 
ATOM     10  C   UNL     1     -14.161  20.280  27.031  1.00  0.00     0.146 A 
ATOM     11  O   UNL     1     -13.640  19.071  26.863  1.00  0.00    -0.452 OA
ENDROOT
BRANCH   1  12
ATOM     12  C   UNL     1     -11.916  17.460  26.368  1.00  0.00     0.025 A 
ATOM     13  C   UNL     1     -12.018  16.761  25.153  1.00  0.00     0.016 A 
ATOM     14  C   UNL     1     -11.550  15.448  25.052  1.00  0.00     0.051 A 
ATOM     15  C   UNL     1     -10.962  14.819  26.158  1.00  0.00     0.157 A 
ATOM     16  C   UNL     1     -11.308  16.832  27.469  1.00  0.00     0.062 A 
ATOM     17  C   UNL     1     -10.839  15.517  27.370  1.00  0.00     0.158 A 
BRANCH  15  18
ATOM     18  O   UNL     1     -10.498  13.509  26.053  1.00  0.00    -0.504 OA
ATOM     19  H   UNL     1     -10.826  12.886  25.325  1.00  0.00     0.293 HD
ENDBRANCH  15  18
BRANCH  17  20
ATOM     20  O   UNL     1     -10.252  14.922  28.487  1.00  0.00    -0.504 OA
ATOM     21  H   UNL     1      -9.311  14.548  28.465  1.00  0.00     0.293 HD
ENDBRANCH  17  20
ENDBRANCH   1  12
BRANCH   2  22
ATOM     22  O   UNL     1     -10.251  19.743  25.731  1.00  0.00    -0.502 OA
ATOM     23  H   UNL     1      -9.457  20.284  26.055  1.00  0.00     0.293 HD
ENDBRANCH   2  22
BRANCH   6  24
ATOM     24  O   UNL     1     -13.276  23.929  27.031  1.00  0.00    -0.507 OA
ATOM     25  H   UNL     1     -13.547  24.768  27.522  1.00  0.00     0.293 HD
ENDBRANCH   6  24
BRANCH   8  26
ATOM     26  O   UNL     1     -17.440  21.745  27.919  1.00  0.00    -0.508 OA
ATOM     27  H   UNL     1     -18.129  22.097  27.266  1.00  0.00     0.293 HD
ENDBRANCH   8  26
TORSDOF 6
ENDMDL
MODEL 5
REMARK VINA RESULT:    -6.817      2.889      7.265
REMARK INTER + INTRA:          -8.535
REMARK INTER:                  -8.207
REMARK INTRA:                  -0.328
REMARK UNBOUND:                -0.324
REMARK SMILES O=c1c(O)c(-c2ccc(O)c(O)c2)oc2cc(O)cc(O)c12
REMARK SMILES IDX 5 1 3 2 2 3 1 4 22 5 20 6 19 7 17 8 16 9 15 10 14 11 6 12
REMARK SMILES IDX 7 13 8 14 9 15 13 16 11 17 10 18 12 20 4 22 21 24 18 26
REMARK H PARENT 10 19 12 21 4 23 21 25 18 27
REMARK Flexibility Score: inf
ROOT
ATOM      1  C   UNL     1     -15.947  17.573  23.102  1.00  0.00     0.180 A 
ATOM      2  C   UNL     1     -15.032  17.476  24.165  1.00  0.00     0.208 A 
ATOM      3  C   UNL     1     -13.976  16.555  24.072  1.00  0.00     0.238 A 
ATOM      4  O   UNL     1     -13.192  16.435  25.049  1.00  0.00    -0.285 OA
ATOM      5  C   UNL     1     -13.840  15.754  22.914  1.00  0.00     0.111 A 
ATOM      6  C   UNL     1     -12.785  14.816  22.697  1.00  0.00     0.134 A 
ATOM      7  C   UNL     1     -12.822  13.983  21.572  1.00  0.00     0.093 A 
ATOM      8  C   UNL     1     -13.838  14.099  20.623  1.00  0.00     0.123 A 
ATOM      9  C   UNL     1     -14.841  15.053  20.795  1.00  0.00     0.094 A 
ATOM     10  C   UNL     1     -14.851  15.874  21.926  1.00  0.00     0.146 A 
ATOM     11  O   UNL     1     -15.830  16.761  22.057  1.00  0.00    -0.452 OA
ENDROOT
BRANCH   1  12
ATOM     12  C   UNL     1     -17.070  18.537  23.115  1.00  0.00     0.025 A 
ATOM     13  C   UNL     1     -16.898  19.868  22.697  1.00  0.00     0.016 A 
ATOM     14  C   UNL     1     -17.978  20.754  22.695  1.00  0.00     0.051 A 
ATOM     15  C   UNL     1     -19.249  20.321  23.097  1.00  0.00     0.157 A 
ATOM     16  C   UNL     1     -18.351  18.103  23.497  1.00  0.00     0.062 A 
ATOM     17  C   UNL     1     -19.435  18.988  23.497  1.00  0.00     0.158 A 
BRANCH  15  18
ATOM     18  O   UNL     1     -20.324  21.208  23.095  1.00  0.00    -0.504 OA
ATOM     19  H   UNL     1     -20.779  21.490  22.234  1.00  0.00     0.293 HD
ENDBRANCH  15  18
BRANCH  17  20
ATOM     20  O   UNL     1     -20.689  18.524  23.895  1.00  0.00    -0.504 OA
ATOM     21  H   UNL     1     -20.956  17.552  23.804  1.00  0.00     0.293 HD
ENDBRANCH  17  20
ENDBRANCH   1  12
BRANCH   2  22
ATOM     22  O   UNL     1     -15.198  18.262  25.308  1.00  0.00    -0.502 OA
ATOM     23  H   UNL     1     -16.051  18.775  25.497  1.00  0.00     0.293 HD
ENDBRANCH   2  22
BRANCH   6  24
ATOM     24  O   UNL     1     -11.674  14.684  23.534  1.00  0.00    -0.507 OA
ATOM     25  H   UNL     1     -10.964  13.974  23.441  1.00  0.00     0.293 HD
ENDBRANCH   6  24
BRANCH   8  26
ATOM     26  O   UNL     1     -13.835  13.265  19.507  1.00  0.00    -0.508 OA
ATOM     27  H   UNL     1     -12.972  12.921  19.104  1.00  0.00     0.293 HD
ENDBRANCH   8  26
TORSDOF 6
ENDMDL
MODEL 6
REMARK VINA RESULT:    -6.777      1.266      3.035
REMARK INTER + INTRA:          -8.488
REMARK INTER:                  -8.164
REMARK INTRA:                  -0.323
REMARK UNBOUND:                -0.324
REMARK SMILES O=c1c(O)c(-c2ccc(O)c(O)c2)oc2cc(O)cc(O)c12
REMARK SMILES IDX 5 1 3 2 2 3 1 4 22 5 20 6 19 7 17 8 16 9 15 10 14 11 6 12
REMARK SMILES IDX 7 13 8 14 9 15 13 16 11 17 10 18 12 20 4 22 21 24 18 26
REMARK H PARENT 10 19 12 21 4 23 21 25 18 27
REMARK Flexibility Score: inf
ROOT
ATOM      1  C   UNL     1     -13.756  18.863  26.030  1.00  0.00     0.180 A 
ATOM      2  C   UNL     1     -13.604  20.193  26.461  1.00  0.00     0.208 A 
ATOM      3  C   UNL     1     -14.385  21.196  25.866  1.00  0.00     0.238 A 
ATOM      4  O   UNL     1     -14.206  22.390  26.218  1.00  0.00    -0.285 OA
ATOM      5  C   UNL     1     -15.319  20.855  24.858  1.00  0.00     0.111 A 
ATOM      6  C   UNL     1     -16.191  21.785  24.215  1.00  0.00     0.134 A 
ATOM      7  C   UNL     1     -16.982  21.360  23.140  1.00  0.00     0.093 A 
ATOM      8  C   UNL     1     -16.982  20.027  22.729  1.00  0.00     0.123 A 
ATOM      9  C   UNL     1     -16.178  19.098  23.390  1.00  0.00     0.094 A 
ATOM     10  C   UNL     1     -15.351  19.499  24.442  1.00  0.00     0.146 A 
ATOM     11  O   UNL     1     -14.593  18.586  25.037  1.00  0.00    -0.452 OA
ENDROOT
BRANCH   1  12
ATOM     12  C   UNL     1     -12.986  17.748  26.626  1.00  0.00     0.025 A 
ATOM     13  C   UNL     1     -11.724  17.380  26.128  1.00  0.00     0.016 A 
ATOM     14  C   UNL     1     -11.006  16.340  26.722  1.00  0.00     0.051 A 
ATOM     15  C   UNL     1     -11.530  15.661  27.830  1.00  0.00     0.157 A 
ATOM     16  C   UNL     1     -13.498  17.078  27.751  1.00  0.00     0.062 A 
ATOM     17  C   UNL     1     -12.780  16.035  28.347  1.00  0.00     0.158 A 
BRANCH  15  18
ATOM     18  O   UNL     1     -10.810  14.622  28.419  1.00  0.00    -0.504 OA
ATOM     19  H   UNL     1      -9.832  14.467  28.207  1.00  0.00     0.293 HD
ENDBRANCH  15  18
BRANCH  17  20
ATOM     20  O   UNL     1     -13.326  15.384  29.454  1.00  0.00    -0.504 OA
ATOM     21  H   UNL     1     -14.273  15.028  29.455  1.00  0.00     0.293 HD
ENDBRANCH  17  20
ENDBRANCH   1  12
BRANCH   2  22
ATOM     22  O   UNL     1     -12.660  20.509  27.443  1.00  0.00    -0.502 OA
ATOM     23  H   UNL     1     -12.923  20.796  28.378  1.00  0.00     0.293 HD
ENDBRANCH   2  22
BRANCH   6  24
ATOM     24  O   UNL     1     -16.337  23.118  24.607  1.00  0.00    -0.507 OA
ATOM     25  H   UNL     1     -16.981  23.443  25.311  1.00  0.00     0.293 HD
ENDBRANCH   6  24
BRANCH   8  26
ATOM     26  O   UNL     1     -17.793  19.635  21.666  1.00  0.00    -0.508 OA
ATOM     27  H   UNL     1     -17.418  19.139  20.867  1.00  0.00     0.293 HD
ENDBRANCH   8  26
TORSDOF 6
ENDMDL
MODEL 7
REMARK VINA RESULT:    -6.689      1.633      3.338
REMARK INTER + INTRA:          -8.381
REMARK INTER:                  -8.330
REMARK INTRA:                  -0.051
REMARK UNBOUND:                -0.324
REMARK SMILES O=c1c(O)c(-c2ccc(O)c(O)c2)oc2cc(O)cc(O)c12
REMARK SMILES IDX 5 1 3 2 2 3 1 4 22 5 20 6 19 7 17 8 16 9 15 10 14 11 6 12
REMARK SMILES IDX 7 13 8 14 9 15 13 16 11 17 10 18 12 20 4 22 21 24 18 26
REMARK H PARENT 10 19 12 21 4 23 21 25 18 27
REMARK Flexibility Score: inf
ROOT
ATOM      1  C   UNL     1     -13.936  18.116  25.775  1.00  0.00     0.180 A 
ATOM      2  C   UNL     1     -14.373  19.421  26.064  1.00  0.00     0.208 A 
ATOM      3  C   UNL     1     -15.377  19.995  25.267  1.00  0.00     0.238 A 
ATOM      4  O   UNL     1     -15.725  21.182  25.497  1.00  0.00    -0.285 OA
ATOM      5  C   UNL     1     -15.942  19.252  24.203  1.00  0.00     0.111 A 
ATOM      6  C   UNL     1     -16.993  19.720  23.358  1.00  0.00     0.134 A 
ATOM      7  C   UNL     1     -17.385  18.952  22.254  1.00  0.00     0.093 A 
ATOM      8  C   UNL     1     -16.812  17.706  22.004  1.00  0.00     0.123 A 
ATOM      9  C   UNL     1     -15.826  17.212  22.859  1.00  0.00     0.094 A 
ATOM     10  C   UNL     1     -15.388  17.971  23.947  1.00  0.00     0.146 A 
ATOM     11  O   UNL     1     -14.440  17.470  24.730  1.00  0.00    -0.452 OA
ENDROOT
BRANCH   1  12
ATOM     12  C   UNL     1     -12.901  17.435  26.584  1.00  0.00     0.025 A 
ATOM     13  C   UNL     1     -13.140  16.181  27.174  1.00  0.00     0.016 A 
ATOM     14  C   UNL     1     -12.139  15.546  27.914  1.00  0.00     0.051 A 
ATOM     15  C   UNL     1     -10.882  16.145  28.064  1.00  0.00     0.157 A 
ATOM     16  C   UNL     1     -11.631  18.022  26.721  1.00  0.00     0.062 A 
ATOM     17  C   UNL     1     -10.627  17.388  27.461  1.00  0.00     0.158 A 
BRANCH  15  18
ATOM     18  O   UNL     1      -9.886  15.509  28.804  1.00  0.00    -0.504 OA
ATOM     19  H   UNL     1      -9.301  16.018  29.455  1.00  0.00     0.293 HD
ENDBRANCH  15  18
BRANCH  17  20
ATOM     20  O   UNL     1      -9.383  18.008  27.585  1.00  0.00    -0.504 OA
ATOM     21  H   UNL     1      -9.277  19.013  27.542  1.00  0.00     0.293 HD
ENDBRANCH  17  20
ENDBRANCH   1  12
BRANCH   2  22
ATOM     22  O   UNL     1     -13.786  20.143  27.106  1.00  0.00    -0.502 OA
ATOM     23  H   UNL     1     -13.288  19.695  27.866  1.00  0.00     0.293 HD
ENDBRANCH   2  22
BRANCH   6  24
ATOM     24  O   UNL     1     -17.696  20.909  23.572  1.00  0.00    -0.507 OA
ATOM     25  H   UNL     1     -17.579  21.752  23.031  1.00  0.00     0.293 HD
ENDBRANCH   6  24
BRANCH   8  26
ATOM     26  O   UNL     1     -17.237  16.961  20.906  1.00  0.00    -0.508 OA
ATOM     27  H   UNL     1     -16.603  16.358  20.397  1.00  0.00     0.293 HD
ENDBRANCH   8  26
TORSDOF 6
ENDMDL
MODEL 8
REMARK VINA RESULT:    -6.557      3.882      5.104
REMARK INTER + INTRA:          -8.223
REMARK INTER:                  -8.171
REMARK INTRA:                  -0.052
REMARK UNBOUND:                -0.324
REMARK SMILES O=c1c(O)c(-c2ccc(O)c(O)c2)oc2cc(O)cc(O)c12
REMARK SMILES IDX 5 1 3 2 2 3 1 4 22 5 20 6 19 7 17 8 16 9 15 10 14 11 6 12
REMARK SMILES IDX 7 13 8 14 9 15 13 16 11 17 10 18 12 20 4 22 21 24 18 26
REMARK H PARENT 10 19 12 21 4 23 21 25 18 27
REMARK Flexibility Score: inf
ROOT
ATOM      1  C   UNL     1     -11.892  20.042  26.408  1.00  0.00     0.180 A 
ATOM      2  C   UNL     1     -12.452  20.576  27.582  1.00  0.00     0.208 A 
ATOM      3  C   UNL     1     -12.787  21.939  27.619  1.00  0.00     0.238 A 
ATOM      4  O   UNL     1     -13.236  22.422  28.690  1.00  0.00    -0.285 OA
ATOM      5  C   UNL     1     -12.573  22.747  26.476  1.00  0.00     0.111 A 
ATOM      6  C   UNL     1     -12.913  24.131  26.389  1.00  0.00     0.134 A 
ATOM      7  C   UNL     1     -12.537  24.864  25.256  1.00  0.00     0.093 A 
ATOM      8  C   UNL     1     -11.894  24.250  24.182  1.00  0.00     0.123 A 
ATOM      9  C   UNL     1     -11.610  22.885  24.233  1.00  0.00     0.094 A 
ATOM     10  C   UNL     1     -11.940  22.135  25.364  1.00  0.00     0.146 A 
ATOM     11  O   UNL     1     -11.643  20.841  25.376  1.00  0.00    -0.452 OA
ENDROOT
BRANCH   1  12
ATOM     12  C   UNL     1     -11.536  18.611  26.284  1.00  0.00     0.025 A 
ATOM     13  C   UNL     1     -10.669  17.990  27.200  1.00  0.00     0.016 A 
ATOM     14  C   UNL     1     -10.366  16.632  27.077  1.00  0.00     0.051 A 
ATOM     15  C   UNL     1     -10.935  15.870  26.048  1.00  0.00     0.157 A 
ATOM     16  C   UNL     1     -12.120  17.838  25.266  1.00  0.00     0.062 A 
ATOM     17  C   UNL     1     -11.818  16.477  25.141  1.00  0.00     0.158 A 
BRANCH  15  18
ATOM     18  O   UNL     1     -10.629  14.515  25.928  1.00  0.00    -0.504 OA
ATOM     19  H   UNL     1     -10.129  14.017  26.655  1.00  0.00     0.293 HD
ENDBRANCH  15  18
BRANCH  17  20
ATOM     20  O   UNL     1     -12.407  15.745  24.109  1.00  0.00    -0.504 OA
ATOM     21  H   UNL     1     -13.399  15.793  23.915  1.00  0.00     0.293 HD
ENDBRANCH  17  20
ENDBRANCH   1  12
BRANCH   2  22
ATOM     22  O   UNL     1     -12.634  19.764  28.705  1.00  0.00    -0.502 OA
ATOM     23  H   UNL     1     -12.935  18.799  28.636  1.00  0.00     0.293 HD
ENDBRANCH   2  22
BRANCH   6  24
ATOM     24  O   UNL     1     -13.636  24.820  27.366  1.00  0.00    -0.507 OA
ATOM     25  H   UNL     1     -14.170  25.660  27.201  1.00  0.00     0.293 HD
ENDBRANCH   6  24
BRANCH   8  26
ATOM     26  O   UNL     1     -11.548  25.006  23.064  1.00  0.00    -0.508 OA
ATOM     27  H   UNL     1     -11.658  24.644  22.125  1.00  0.00     0.293 HD
ENDBRANCH   8  26
TORSDOF 6
ENDMDL
MODEL 9
REMARK VINA RESULT:    -6.540      2.099      7.023
REMARK INTER + INTRA:          -8.202
REMARK INTER:                  -8.176
REMARK INTRA:                  -0.026
REMARK UNBOUND:                -0.324
REMARK SMILES O=c1c(O)c(-c2ccc(O)c(O)c2)oc2cc(O)cc(O)c12
REMARK SMILES IDX 5 1 3 2 2 3 1 4 22 5 20 6 19 7 17 8 16 9 15 10 14 11 6 12
REMARK SMILES IDX 7 13 8 14 9 15 13 16 11 17 10 18 12 20 4 22 21 24 18 26
REMARK H PARENT 10 19 12 21 4 23 21 25 18 27
REMARK Flexibility Score: inf
ROOT
ATOM      1  C   UNL     1     -14.758  18.942  24.989  1.00  0.00     0.180 A 
ATOM      2  C   UNL     1     -14.134  19.882  25.827  1.00  0.00     0.208 A 
ATOM      3  C   UNL     1     -12.905  19.553  26.423  1.00  0.00     0.238 A 
ATOM      4  O   UNL     1     -12.378  20.377  27.215  1.00  0.00    -0.285 OA
ATOM      5  C   UNL     1     -12.309  18.296  26.161  1.00  0.00     0.111 A 
ATOM      6  C   UNL     1     -11.048  17.875  26.679  1.00  0.00     0.134 A 
ATOM      7  C   UNL     1     -10.616  16.560  26.460  1.00  0.00     0.093 A 
ATOM      8  C   UNL     1     -11.368  15.675  25.689  1.00  0.00     0.123 A 
ATOM      9  C   UNL     1     -12.574  16.096  25.127  1.00  0.00     0.094 A 
ATOM     10  C   UNL     1     -13.048  17.389  25.358  1.00  0.00     0.146 A 
ATOM     11  O   UNL     1     -14.206  17.747  24.815  1.00  0.00    -0.452 OA
ENDROOT
BRANCH   1  12
ATOM     12  C   UNL     1     -16.040  19.225  24.306  1.00  0.00     0.025 A 
ATOM     13  C   UNL     1     -16.228  20.401  23.558  1.00  0.00     0.016 A 
ATOM     14  C   UNL     1     -17.439  20.635  22.902  1.00  0.00     0.051 A 
ATOM     15  C   UNL     1     -18.475  19.693  22.971  1.00  0.00     0.157 A 
ATOM     16  C   UNL     1     -17.075  18.275  24.355  1.00  0.00     0.062 A 
ATOM     17  C   UNL     1     -18.289  18.507  23.699  1.00  0.00     0.158 A 
BRANCH  15  18
ATOM     18  O   UNL     1     -19.682  19.932  22.316  1.00  0.00    -0.504 OA
ATOM     19  H   UNL     1     -20.390  20.539  22.712  1.00  0.00     0.293 HD
ENDBRANCH  15  18
BRANCH  17  20
ATOM     20  O   UNL     1     -19.297  17.546  23.780  1.00  0.00    -0.504 OA
ATOM     21  H   UNL     1     -20.220  17.764  24.135  1.00  0.00     0.293 HD
ENDBRANCH  17  20
ENDBRANCH   1  12
BRANCH   2  22
ATOM     22  O   UNL     1     -14.750  21.109  26.089  1.00  0.00    -0.502 OA
ATOM     23  H   UNL     1     -15.662  21.350  25.718  1.00  0.00     0.293 HD
ENDBRANCH   2  22
BRANCH   6  24
ATOM     24  O   UNL     1     -10.176  18.708  27.385  1.00  0.00    -0.507 OA
ATOM     25  H   UNL     1     -10.219  19.716  27.386  1.00  0.00     0.293 HD
ENDBRANCH   6  24
BRANCH   8  26
ATOM     26  O   UNL     1     -10.900  14.379  25.478  1.00  0.00    -0.508 OA
ATOM     27  H   UNL     1     -10.526  14.089  24.583  1.00  0.00     0.293 HD
ENDBRANCH   8  26
TORSDOF 6
ENDMDL
