MODEL 1
REMARK VINA RESULT:    -4.481      0.000      0.000
REMARK INTER + INTRA:          -6.851
REMARK INTER:                  -6.839
REMARK INTRA:                  -0.012
REMARK UNBOUND:                -0.012
REMARK SMILES CC1=CCC[C@@H](C)C(=O)C[C@H](C(C)C)C(=O)C1
REMARK SMILES IDX 8 1 9 2 6 3 7 4 5 5 4 6 3 7 2 8 1 9 10 11 11 12 15 13 16 14
REMARK SMILES IDX 17 15 12 17 13 18 14 19
REMARK H PARENT
REMARK Flexibility Score: 70.00
ROOT
ATOM      1  C   UNL     1       4.661  19.366   6.960  1.00  0.00     0.136 C 
ATOM      2  O   UNL     1       4.531  18.200   6.621  1.00  0.00    -0.299 OA
ENDROOT
BRANCH   1   3
ATOM      3  C   UNL     1       6.061  19.855   7.300  1.00  0.00     0.053 C 
ATOM      4  C   UNL     1       5.957  21.172   8.077  1.00  0.00     0.016 C 
BRANCH   3   5
ATOM      5  C   UNL     1       7.019  20.018   6.097  1.00  0.00     0.015 C 
BRANCH   5   6
ATOM      6  C   UNL     1       6.700  21.233   5.197  1.00  0.00     0.028 C 
BRANCH   6   7
ATOM      7  C   UNL     1       6.296  20.780   3.813  1.00  0.00    -0.028 C 
ATOM      8  C   UNL     1       5.155  21.121   3.171  1.00  0.00    -0.070 CG0
ATOM      9  C   UNL     1       4.948  20.597   1.773  1.00  0.00     0.039 C 
ATOM     10  G   UNL     1       4.075  21.981   3.801  1.00  0.00     0.000 G0
ENDBRANCH   6   7
ENDBRANCH   5   6
ENDBRANCH   3   5
ENDBRANCH   1   3
BRANCH   1  11
ATOM     11  C   UNL     1       3.414  20.212   7.151  1.00  0.00     0.087 C 
BRANCH  11  12
ATOM     12  C   UNL     1       3.364  21.529   6.312  1.00  0.00     0.066 C 
BRANCH  12  13
ATOM     13  C   UNL     1       3.215  21.279   4.814  1.00  0.00     0.140 C 
ATOM     14  O   UNL     1       2.352  20.517   4.407  1.00  0.00    -0.299 OA
BRANCH  13  15
ATOM     15  C   UNL     1       4.063  22.001   3.797  1.00  0.00     0.106 CG0
ATOM     16  G   UNL     1       5.140  21.124   3.185  1.00  0.00     0.000 G0
ENDBRANCH  13  15
ENDBRANCH  12  13
BRANCH  12  17
ATOM     17  C   UNL     1       2.353  22.605   6.826  1.00  0.00    -0.006 C 
ATOM     18  C   UNL     1       1.648  22.242   8.143  1.00  0.00     0.008 C 
ATOM     19  C   UNL     1       3.018  23.987   6.958  1.00  0.00     0.008 C 
ENDBRANCH  12  17
ENDBRANCH  11  12
ENDBRANCH   1  11
TORSDOF 1
ENDMDL
MODEL 2
REMARK VINA RESULT:    -4.411      1.777      4.169
REMARK INTER + INTRA:          -6.743
REMARK INTER:                  -7.186
REMARK INTRA:                   0.443
REMARK UNBOUND:                -0.012
REMARK SMILES CC1=CCC[C@@H](C)C(=O)C[C@H](C(C)C)C(=O)C1
REMARK SMILES IDX 8 1 9 2 6 3 7 4 5 5 4 6 3 7 2 8 1 9 10 11 11 12 15 13 16 14
REMARK SMILES IDX 17 15 12 17 13 18 14 19
REMARK H PARENT
REMARK Flexibility Score: 70.00
ROOT
ATOM      1  C   UNL     1       6.678  20.542   5.660  1.00  0.00     0.136 C 
ATOM      2  O   UNL     1       6.892  21.379   6.523  1.00  0.00    -0.299 OA
ENDROOT
BRANCH   1   3
ATOM      3  C   UNL     1       6.732  19.077   6.065  1.00  0.00     0.053 C 
ATOM      4  C   UNL     1       6.492  18.205   4.827  1.00  0.00     0.016 C 
BRANCH   3   5
ATOM      5  C   UNL     1       5.769  18.665   7.203  1.00  0.00     0.015 C 
BRANCH   5   6
ATOM      6  C   UNL     1       4.286  18.582   6.776  1.00  0.00     0.028 C 
BRANCH   6   7
ATOM      7  C   UNL     1       3.499  19.735   7.355  1.00  0.00    -0.028 C 
ATOM      8  C   UNL     1       2.842  20.678   6.642  1.00  0.00    -0.070 CG0
ATOM      9  C   UNL     1       2.077  21.732   7.403  1.00  0.00     0.039 C 
ATOM     10  G   UNL     1       2.861  20.736   5.127  1.00  0.00     0.000 G0
ENDBRANCH   6   7
ENDBRANCH   5   6
ENDBRANCH   3   5
ENDBRANCH   1   3
BRANCH   1  11
ATOM     11  C   UNL     1       6.510  21.003   4.223  1.00  0.00     0.087 C 
BRANCH  11  12
ATOM     12  C   UNL     1       5.063  20.883   3.647  1.00  0.00     0.066 C 
BRANCH  12  13
ATOM     13  C   UNL     1       4.008  21.530   4.537  1.00  0.00     0.140 C 
ATOM     14  O   UNL     1       4.050  22.732   4.756  1.00  0.00    -0.299 OA
BRANCH  13  15
ATOM     15  C   UNL     1       2.856  20.744   5.113  1.00  0.00     0.106 CG0
ATOM     16  G   UNL     1       2.870  20.686   6.629  1.00  0.00     0.000 G0
ENDBRANCH  13  15
ENDBRANCH  12  13
BRANCH  12  17
ATOM     17  C   UNL     1       4.906  21.311   2.151  1.00  0.00    -0.006 C 
ATOM     18  C   UNL     1       4.682  20.146   1.173  1.00  0.00     0.008 C 
ATOM     19  C   UNL     1       3.791  22.357   1.977  1.00  0.00     0.008 C 
ENDBRANCH  12  17
ENDBRANCH  11  12
ENDBRANCH   1  11
TORSDOF 1
ENDMDL
MODEL 3
REMARK VINA RESULT:    -4.101      1.769      3.814
REMARK INTER + INTRA:          -6.271
REMARK INTER:                  -6.278
REMARK INTRA:                   0.007
REMARK UNBOUND:                -0.012
REMARK SMILES CC1=CCC[C@@H](C)C(=O)C[C@H](C(C)C)C(=O)C1
REMARK SMILES IDX 8 1 9 2 6 3 7 4 5 5 4 6 3 7 2 8 1 9 10 11 11 12 15 13 16 14
REMARK SMILES IDX 17 15 12 17 13 18 14 19
REMARK H PARENT
REMARK Flexibility Score: 70.00
ROOT
ATOM      1  C   UNL     1       3.122  21.481   6.427  1.00  0.00     0.136 C 
ATOM      2  O   UNL     1       3.173  21.294   7.633  1.00  0.00    -0.299 OA
ENDROOT
BRANCH   1   3
ATOM      3  C   UNL     1       1.789  21.253   5.730  1.00  0.00     0.053 C 
ATOM      4  C   UNL     1       0.887  20.407   6.635  1.00  0.00     0.016 C 
BRANCH   3   5
ATOM      5  C   UNL     1       1.875  20.620   4.320  1.00  0.00     0.015 C 
BRANCH   5   6
ATOM      6  C   UNL     1       2.143  21.636   3.188  1.00  0.00     0.028 C 
BRANCH   6   7
ATOM      7  C   UNL     1       2.848  20.969   2.029  1.00  0.00    -0.028 C 
ATOM      8  C   UNL     1       4.188  20.864   1.874  1.00  0.00    -0.070 CG0
ATOM      9  C   UNL     1       4.703  20.125   0.665  1.00  0.00     0.039 C 
ATOM     10  G   UNL     1       5.185  21.472   2.843  1.00  0.00     0.000 G0
ENDBRANCH   6   7
ENDBRANCH   5   6
ENDBRANCH   3   5
ENDBRANCH   1   3
BRANCH   1  11
ATOM     11  C   UNL     1       4.408  21.792   5.682  1.00  0.00     0.087 C 
BRANCH  11  12
ATOM     12  C   UNL     1       5.307  20.557   5.354  1.00  0.00     0.066 C 
BRANCH  12  13
ATOM     13  C   UNL     1       5.721  20.490   3.888  1.00  0.00     0.140 C 
ATOM     14  O   UNL     1       6.456  19.592   3.503  1.00  0.00    -0.299 OA
BRANCH  13  15
ATOM     15  C   UNL     1       5.197  21.466   2.864  1.00  0.00     0.106 CG0
ATOM     16  G   UNL     1       4.215  20.843   1.890  1.00  0.00     0.000 G0
ENDBRANCH  13  15
ENDBRANCH  12  13
BRANCH  12  17
ATOM     17  C   UNL     1       6.523  20.347   6.314  1.00  0.00    -0.006 C 
ATOM     18  C   UNL     1       6.721  21.468   7.348  1.00  0.00     0.008 C 
ATOM     19  C   UNL     1       6.449  18.988   7.031  1.00  0.00     0.008 C 
ENDBRANCH  12  17
ENDBRANCH  11  12
ENDBRANCH   1  11
TORSDOF 1
ENDMDL
MODEL 4
REMARK VINA RESULT:    -4.030      1.782      4.165
REMARK INTER + INTRA:          -6.162
REMARK INTER:                  -6.062
REMARK INTRA:                  -0.100
REMARK UNBOUND:                -0.012
REMARK SMILES CC1=CCC[C@@H](C)C(=O)C[C@H](C(C)C)C(=O)C1
REMARK SMILES IDX 8 1 9 2 6 3 7 4 5 5 4 6 3 7 2 8 1 9 10 11 11 12 15 13 16 14
REMARK SMILES IDX 17 15 12 17 13 18 14 19
REMARK H PARENT
REMARK Flexibility Score: 70.00
ROOT
ATOM      1  C   UNL     1       6.118  20.406   4.264  1.00  0.00     0.136 C 
ATOM      2  O   UNL     1       6.474  19.445   3.599  1.00  0.00    -0.299 OA
ENDROOT
BRANCH   1   3
ATOM      3  C   UNL     1       6.535  20.449   5.726  1.00  0.00     0.053 C 
ATOM      4  C   UNL     1       6.217  19.100   6.379  1.00  0.00     0.016 C 
BRANCH   3   5
ATOM      5  C   UNL     1       5.924  21.602   6.558  1.00  0.00     0.015 C 
BRANCH   5   6
ATOM      6  C   UNL     1       4.587  21.246   7.244  1.00  0.00     0.028 C 
BRANCH   6   7
ATOM      7  C   UNL     1       3.506  22.224   6.844  1.00  0.00    -0.028 C 
ATOM      8  C   UNL     1       2.554  22.009   5.907  1.00  0.00    -0.070 CG0
ATOM      9  C   UNL     1       1.534  23.095   5.675  1.00  0.00     0.039 C 
ATOM     10  G   UNL     1       2.484  20.745   5.071  1.00  0.00     0.000 G0
ENDBRANCH   6   7
ENDBRANCH   5   6
ENDBRANCH   3   5
ENDBRANCH   1   3
BRANCH   1  11
ATOM     11  C   UNL     1       5.176  21.418   3.637  1.00  0.00     0.087 C 
BRANCH  11  12
ATOM     12  C   UNL     1       3.965  20.813   2.858  1.00  0.00     0.066 C 
BRANCH  12  13
ATOM     13  C   UNL     1       2.632  21.013   3.572  1.00  0.00     0.140 C 
ATOM     14  O   UNL     1       1.644  21.344   2.934  1.00  0.00    -0.299 OA
BRANCH  13  15
ATOM     15  C   UNL     1       2.469  20.749   5.048  1.00  0.00     0.106 CG0
ATOM     16  G   UNL     1       2.550  22.006   5.893  1.00  0.00     0.000 G0
ENDBRANCH  13  15
ENDBRANCH  12  13
BRANCH  12  17
ATOM     17  C   UNL     1       3.883  21.210   1.347  1.00  0.00    -0.006 C 
ATOM     18  C   UNL     1       4.548  22.553   1.002  1.00  0.00     0.008 C 
ATOM     19  C   UNL     1       4.449  20.103   0.441  1.00  0.00     0.008 C 
ENDBRANCH  12  17
ENDBRANCH  11  12
ENDBRANCH   1  11
TORSDOF 1
ENDMDL
MODEL 5
REMARK VINA RESULT:    -3.925      1.962      4.274
REMARK INTER + INTRA:          -6.002
REMARK INTER:                  -5.704
REMARK INTRA:                  -0.297
REMARK UNBOUND:                -0.012
REMARK SMILES CC1=CCC[C@@H](C)C(=O)C[C@H](C(C)C)C(=O)C1
REMARK SMILES IDX 8 1 9 2 6 3 7 4 5 5 4 6 3 7 2 8 1 9 10 11 11 12 15 13 16 14
REMARK SMILES IDX 17 15 12 17 13 18 14 19
REMARK H PARENT
REMARK Flexibility Score: 70.00
ROOT
ATOM      1  C   UNL     1       5.735  20.592   4.536  1.00  0.00     0.136 C 
ATOM      2  O   UNL     1       6.460  19.842   3.901  1.00  0.00    -0.299 OA
ENDROOT
BRANCH   1   3
ATOM      3  C   UNL     1       5.720  20.451   6.050  1.00  0.00     0.053 C 
ATOM      4  C   UNL     1       7.045  20.975   6.616  1.00  0.00     0.016 C 
BRANCH   3   5
ATOM      5  C   UNL     1       5.439  19.025   6.582  1.00  0.00     0.015 C 
BRANCH   5   6
ATOM      6  C   UNL     1       3.939  18.670   6.674  1.00  0.00     0.028 C 
BRANCH   6   7
ATOM      7  C   UNL     1       3.159  19.806   7.295  1.00  0.00    -0.028 C 
ATOM      8  C   UNL     1       2.165  20.501   6.697  1.00  0.00    -0.070 CG0
ATOM      9  C   UNL     1       1.477  21.579   7.496  1.00  0.00     0.039 C 
ATOM     10  G   UNL     1       1.732  20.261   5.263  1.00  0.00     0.000 G0
ENDBRANCH   6   7
ENDBRANCH   5   6
ENDBRANCH   3   5
ENDBRANCH   1   3
BRANCH   1  11
ATOM     11  C   UNL     1       4.800  21.518   3.777  1.00  0.00     0.087 C 
BRANCH  11  12
ATOM     12  C   UNL     1       3.442  20.883   3.338  1.00  0.00     0.066 C 
BRANCH  12  13
ATOM     13  C   UNL     1       2.283  21.254   4.258  1.00  0.00     0.140 C 
ATOM     14  O   UNL     1       1.756  22.352   4.162  1.00  0.00    -0.299 OA
BRANCH  13  15
ATOM     15  C   UNL     1       1.709  20.275   5.253  1.00  0.00     0.106 CG0
ATOM     16  G   UNL     1       2.162  20.535   6.677  1.00  0.00     0.000 G0
ENDBRANCH  13  15
ENDBRANCH  12  13
BRANCH  12  17
ATOM     17  C   UNL     1       3.075  21.078   1.831  1.00  0.00    -0.006 C 
ATOM     18  C   UNL     1       4.282  21.116   0.879  1.00  0.00     0.008 C 
ATOM     19  C   UNL     1       2.070  20.015   1.352  1.00  0.00     0.008 C 
ENDBRANCH  12  17
ENDBRANCH  11  12
ENDBRANCH   1  11
TORSDOF 1
ENDMDL
MODEL 6
REMARK VINA RESULT:    -3.916      2.435      4.619
REMARK INTER + INTRA:          -5.988
REMARK INTER:                  -5.883
REMARK INTRA:                  -0.105
REMARK UNBOUND:                -0.012
REMARK SMILES CC1=CCC[C@@H](C)C(=O)C[C@H](C(C)C)C(=O)C1
REMARK SMILES IDX 8 1 9 2 6 3 7 4 5 5 4 6 3 7 2 8 1 9 10 11 11 12 15 13 16 14
REMARK SMILES IDX 17 15 12 17 13 18 14 19
REMARK H PARENT
REMARK Flexibility Score: 70.00
ROOT
ATOM      1  C   UNL     1       4.679  21.212   3.334  1.00  0.00     0.136 C 
ATOM      2  O   UNL     1       5.899  21.219   3.275  1.00  0.00    -0.299 OA
ENDROOT
BRANCH   1   3
ATOM      3  C   UNL     1       3.906  21.296   2.027  1.00  0.00     0.053 C 
ATOM      4  C   UNL     1       4.624  20.458   0.964  1.00  0.00     0.016 C 
BRANCH   3   5
ATOM      5  C   UNL     1       3.650  22.726   1.496  1.00  0.00     0.015 C 
BRANCH   5   6
ATOM      6  C   UNL     1       2.398  23.407   2.094  1.00  0.00     0.028 C 
BRANCH   6   7
ATOM      7  C   UNL     1       2.771  24.698   2.785  1.00  0.00    -0.028 C 
ATOM      8  C   UNL     1       2.858  24.881   4.122  1.00  0.00    -0.070 CG0
ATOM      9  C   UNL     1       3.285  26.238   4.622  1.00  0.00     0.039 C 
ATOM     10  G   UNL     1       2.526  23.798   5.131  1.00  0.00     0.000 G0
ENDBRANCH   6   7
ENDBRANCH   5   6
ENDBRANCH   3   5
ENDBRANCH   1   3
BRANCH   1  11
ATOM     11  C   UNL     1       4.015  21.259   4.699  1.00  0.00     0.087 C 
BRANCH  11  12
ATOM     12  C   UNL     1       4.614  22.298   5.699  1.00  0.00     0.066 C 
BRANCH  12  13
ATOM     13  C   UNL     1       3.644  23.422   6.048  1.00  0.00     0.140 C 
ATOM     14  O   UNL     1       3.816  24.082   7.062  1.00  0.00    -0.299 OA
BRANCH  13  15
ATOM     15  C   UNL     1       2.501  23.801   5.140  1.00  0.00     0.106 CG0
ATOM     16  G   UNL     1       2.866  24.876   4.134  1.00  0.00     0.000 G0
ENDBRANCH  13  15
ENDBRANCH  12  13
BRANCH  12  17
ATOM     17  C   UNL     1       5.279  21.684   6.975  1.00  0.00    -0.006 C 
ATOM     18  C   UNL     1       4.382  20.709   7.756  1.00  0.00     0.008 C 
ATOM     19  C   UNL     1       6.619  21.004   6.642  1.00  0.00     0.008 C 
ENDBRANCH  12  17
ENDBRANCH  11  12
ENDBRANCH   1  11
TORSDOF 1
ENDMDL
MODEL 7
REMARK VINA RESULT:    -3.906      2.149      4.465
REMARK INTER + INTRA:          -5.974
REMARK INTER:                  -5.767
REMARK INTRA:                  -0.206
REMARK UNBOUND:                -0.012
REMARK SMILES CC1=CCC[C@@H](C)C(=O)C[C@H](C(C)C)C(=O)C1
REMARK SMILES IDX 8 1 9 2 6 3 7 4 5 5 4 6 3 7 2 8 1 9 10 11 11 12 15 13 16 14
REMARK SMILES IDX 17 15 12 17 13 18 14 19
REMARK H PARENT
REMARK Flexibility Score: 70.00
ROOT
ATOM      1  C   UNL     1       4.694  20.881   3.877  1.00  0.00     0.136 C 
ATOM      2  O   UNL     1       5.903  21.052   3.845  1.00  0.00    -0.299 OA
ENDROOT
BRANCH   1   3
ATOM      3  C   UNL     1       3.888  21.294   2.654  1.00  0.00     0.053 C 
ATOM      4  C   UNL     1       4.572  20.750   1.395  1.00  0.00     0.016 C 
BRANCH   3   5
ATOM      5  C   UNL     1       3.631  22.813   2.509  1.00  0.00     0.015 C 
BRANCH   5   6
ATOM      6  C   UNL     1       2.361  23.311   3.233  1.00  0.00     0.028 C 
BRANCH   6   7
ATOM      7  C   UNL     1       2.724  24.231   4.375  1.00  0.00    -0.028 C 
ATOM      8  C   UNL     1       2.563  23.958   5.690  1.00  0.00    -0.070 CG0
ATOM      9  C   UNL     1       3.023  24.993   6.687  1.00  0.00     0.039 C 
ATOM     10  G   UNL     1       1.925  22.680   6.201  1.00  0.00     0.000 G0
ENDBRANCH   6   7
ENDBRANCH   5   6
ENDBRANCH   3   5
ENDBRANCH   1   3
BRANCH   1  11
ATOM     11  C   UNL     1       4.058  20.402   5.170  1.00  0.00     0.087 C 
BRANCH  11  12
ATOM     12  C   UNL     1       4.226  21.359   6.393  1.00  0.00     0.066 C 
BRANCH  12  13
ATOM     13  C   UNL     1       2.896  21.800   6.996  1.00  0.00     0.140 C 
ATOM     14  O   UNL     1       2.617  21.492   8.145  1.00  0.00    -0.299 OA
BRANCH  13  15
ATOM     15  C   UNL     1       1.925  22.672   6.238  1.00  0.00     0.106 CG0
ATOM     16  G   UNL     1       2.558  23.940   5.698  1.00  0.00     0.000 G0
ENDBRANCH  13  15
ENDBRANCH  12  13
BRANCH  12  17
ATOM     17  C   UNL     1       5.228  20.867   7.488  1.00  0.00    -0.006 C 
ATOM     18  C   UNL     1       5.621  19.385   7.375  1.00  0.00     0.008 C 
ATOM     19  C   UNL     1       6.496  21.739   7.525  1.00  0.00     0.008 C 
ENDBRANCH  12  17
ENDBRANCH  11  12
ENDBRANCH   1  11
TORSDOF 1
ENDMDL
MODEL 8
REMARK VINA RESULT:    -3.845      2.387      3.749
REMARK INTER + INTRA:          -5.880
REMARK INTER:                  -5.817
REMARK INTRA:                  -0.063
REMARK UNBOUND:                -0.012
REMARK SMILES CC1=CCC[C@@H](C)C(=O)C[C@H](C(C)C)C(=O)C1
REMARK SMILES IDX 8 1 9 2 6 3 7 4 5 5 4 6 3 7 2 8 1 9 10 11 11 12 15 13 16 14
REMARK SMILES IDX 17 15 12 17 13 18 14 19
REMARK H PARENT
REMARK Flexibility Score: 70.00
ROOT
ATOM      1  C   UNL     1       6.001  21.503   6.692  1.00  0.00     0.136 C 
ATOM      2  O   UNL     1       6.419  21.462   7.839  1.00  0.00    -0.299 OA
ENDROOT
BRANCH   1   3
ATOM      3  C   UNL     1       6.681  20.619   5.657  1.00  0.00     0.053 C 
ATOM      4  C   UNL     1       6.591  21.294   4.284  1.00  0.00     0.016 C 
BRANCH   3   5
ATOM      5  C   UNL     1       6.153  19.167   5.574  1.00  0.00     0.015 C 
BRANCH   5   6
ATOM      6  C   UNL     1       5.477  18.665   6.869  1.00  0.00     0.028 C 
BRANCH   6   7
ATOM      7  C   UNL     1       4.040  18.276   6.605  1.00  0.00    -0.028 C 
ATOM      8  C   UNL     1       2.948  18.955   7.023  1.00  0.00    -0.070 CG0
ATOM      9  C   UNL     1       1.593  18.427   6.625  1.00  0.00     0.039 C 
ATOM     10  G   UNL     1       3.026  20.200   7.887  1.00  0.00     0.000 G0
ENDBRANCH   6   7
ENDBRANCH   5   6
ENDBRANCH   3   5
ENDBRANCH   1   3
BRANCH   1  11
ATOM     11  C   UNL     1       4.932  22.523   6.342  1.00  0.00     0.087 C 
BRANCH  11  12
ATOM     12  C   UNL     1       3.540  21.928   5.957  1.00  0.00     0.066 C 
BRANCH  12  13
ATOM     13  C   UNL     1       2.724  21.482   7.166  1.00  0.00     0.140 C 
ATOM     14  O   UNL     1       1.767  22.148   7.533  1.00  0.00    -0.299 OA
BRANCH  13  15
ATOM     15  C   UNL     1       3.016  20.195   7.897  1.00  0.00     0.106 CG0
ATOM     16  G   UNL     1       2.944  18.971   7.004  1.00  0.00     0.000 G0
ENDBRANCH  13  15
ENDBRANCH  12  13
BRANCH  12  17
ATOM     17  C   UNL     1       2.695  22.800   4.972  1.00  0.00    -0.006 C 
ATOM     18  C   UNL     1       3.312  24.169   4.641  1.00  0.00     0.008 C 
ATOM     19  C   UNL     1       2.385  22.042   3.669  1.00  0.00     0.008 C 
ENDBRANCH  12  17
ENDBRANCH  11  12
ENDBRANCH   1  11
TORSDOF 1
ENDMDL
MODEL 9
REMARK VINA RESULT:    -3.559      1.120      1.533
REMARK INTER + INTRA:          -5.444
REMARK INTER:                  -6.413
REMARK INTRA:                   0.969
REMARK UNBOUND:                -0.012
REMARK SMILES CC1=CCC[C@@H](C)C(=O)C[C@H](C(C)C)C(=O)C1
REMARK SMILES IDX 8 1 9 2 6 3 7 4 5 5 4 6 3 7 2 8 1 9 10 11 11 12 15 13 16 14
REMARK SMILES IDX 17 15 12 17 13 18 14 19
REMARK H PARENT
REMARK Flexibility Score: 70.00
ROOT
ATOM      1  C   UNL     1       4.743  19.843   6.725  1.00  0.00     0.136 C 
ATOM      2  O   UNL     1       4.679  18.646   6.960  1.00  0.00    -0.299 OA
ENDROOT
BRANCH   1   3
ATOM      3  C   UNL     1       6.120  20.447   6.495  1.00  0.00     0.053 C 
ATOM      4  C   UNL     1       6.479  21.345   7.684  1.00  0.00     0.016 C 
BRANCH   3   5
ATOM      5  C   UNL     1       6.292  21.224   5.168  1.00  0.00     0.015 C 
BRANCH   5   6
ATOM      6  C   UNL     1       6.022  20.379   3.902  1.00  0.00     0.028 C 
BRANCH   6   7
ATOM      7  C   UNL     1       5.428  21.235   2.807  1.00  0.00    -0.028 C 
ATOM      8  C   UNL     1       4.118  21.538   2.664  1.00  0.00    -0.070 CG0
ATOM      9  C   UNL     1       3.723  22.442   1.523  1.00  0.00     0.039 C 
ATOM     10  G   UNL     1       3.036  20.993   3.577  1.00  0.00     0.000 G0
ENDBRANCH   6   7
ENDBRANCH   5   6
ENDBRANCH   3   5
ENDBRANCH   1   3
BRANCH   1  11
ATOM     11  C   UNL     1       3.475  20.673   6.812  1.00  0.00     0.087 C 
BRANCH  11  12
ATOM     12  C   UNL     1       3.489  22.005   5.996  1.00  0.00     0.066 C 
BRANCH  12  13
ATOM     13  C   UNL     1       2.665  21.932   4.715  1.00  0.00     0.140 C 
ATOM     14  O   UNL     1       1.713  22.681   4.560  1.00  0.00    -0.299 OA
BRANCH  13  15
ATOM     15  C   UNL     1       3.028  21.001   3.584  1.00  0.00     0.106 CG0
ATOM     16  G   UNL     1       4.113  21.555   2.679  1.00  0.00     0.000 G0
ENDBRANCH  13  15
ENDBRANCH  12  13
BRANCH  12  17
ATOM     17  C   UNL     1       3.168  23.293   6.823  1.00  0.00    -0.006 C 
ATOM     18  C   UNL     1       3.220  24.600   6.016  1.00  0.00     0.008 C 
ATOM     19  C   UNL     1       1.811  23.180   7.540  1.00  0.00     0.008 C 
ENDBRANCH  12  17
ENDBRANCH  11  12
ENDBRANCH   1  11
TORSDOF 1
ENDMDL
