MODEL 1
REMARK VINA RESULT:    -8.933      0.000      0.000
REMARK INTER + INTRA:         -11.160
REMARK INTER:                 -10.761
REMARK INTRA:                  -0.400
REMARK UNBOUND:                -0.400
REMARK SMILES O=c1c(O)c(-c2ccc(O)cc2O)oc2cc(O)cc(O)c12
REMARK SMILES IDX 5 1 3 2 2 3 1 4 22 5 20 6 19 7 17 8 16 9 15 10 14 11 6 12
REMARK SMILES IDX 8 13 7 14 9 15 11 16 12 17 10 18 13 20 4 22 21 24 18 26
REMARK H PARENT 10 19 13 21 4 23 21 25 18 27
REMARK Flexibility Score: inf
ROOT
ATOM      1  C   UNL     1     139.193 -18.688  79.787  1.00  0.00     0.184 A 
ATOM      2  C   UNL     1     140.341 -19.145  79.123  1.00  0.00     0.208 A 
ATOM      3  C   UNL     1     141.541 -18.430  79.269  1.00  0.00     0.238 A 
ATOM      4  O   UNL     1     142.554 -18.814  78.627  1.00  0.00    -0.285 OA
ATOM      5  C   UNL     1     141.579 -17.279  80.092  1.00  0.00     0.111 A 
ATOM      6  C   UNL     1     142.749 -16.502  80.345  1.00  0.00     0.134 A 
ATOM      7  C   UNL     1     142.643 -15.309  81.071  1.00  0.00     0.093 A 
ATOM      8  C   UNL     1     141.420 -14.900  81.608  1.00  0.00     0.123 A 
ATOM      9  C   UNL     1     140.284 -15.682  81.417  1.00  0.00     0.094 A 
ATOM     10  C   UNL     1     140.351 -16.858  80.667  1.00  0.00     0.146 A 
ATOM     11  O   UNL     1     139.241 -17.569  80.500  1.00  0.00    -0.451 OA
ENDROOT
BRANCH   1  12
ATOM     12  C   UNL     1     137.902 -19.402  79.689  1.00  0.00     0.063 A 
ATOM     13  C   UNL     1     136.376 -21.068  80.587  1.00  0.00     0.047 A 
ATOM     14  C   UNL     1     137.586 -20.372  80.654  1.00  0.00     0.020 A 
ATOM     15  C   UNL     1     135.475 -20.816  79.550  1.00  0.00     0.119 A 
ATOM     16  C   UNL     1     135.791 -19.867  78.570  1.00  0.00     0.093 A 
ATOM     17  C   UNL     1     137.006 -19.167  78.625  1.00  0.00     0.130 A 
BRANCH  15  18
ATOM     18  O   UNL     1     134.272 -21.514  79.499  1.00  0.00    -0.508 OA
ATOM     19  H   UNL     1     133.379 -21.034  79.484  1.00  0.00     0.293 HD
ENDBRANCH  15  18
BRANCH  17  20
ATOM     20  O   UNL     1     137.332 -18.260  77.616  1.00  0.00    -0.507 OA
ATOM     21  H   UNL     1     138.292 -18.110  77.326  1.00  0.00     0.293 HD
ENDBRANCH  17  20
ENDBRANCH   1  12
BRANCH   2  22
ATOM     22  O   UNL     1     140.271 -20.274  78.302  1.00  0.00    -0.502 OA
ATOM     23  H   UNL     1     139.433 -20.837  78.222  1.00  0.00     0.293 HD
ENDBRANCH   2  22
BRANCH   6  24
ATOM     24  O   UNL     1     144.033 -16.869  79.932  1.00  0.00    -0.507 OA
ATOM     25  H   UNL     1     144.407 -17.804  79.979  1.00  0.00     0.293 HD
ENDBRANCH   6  24
BRANCH   8  26
ATOM     26  O   UNL     1     141.326 -13.719  82.343  1.00  0.00    -0.508 OA
ATOM     27  H   UNL     1     140.513 -13.513  82.912  1.00  0.00     0.293 HD
ENDBRANCH   8  26
TORSDOF 6
ENDMDL
MODEL 2
REMARK VINA RESULT:    -8.517      2.913      5.789
REMARK INTER + INTRA:         -10.659
REMARK INTER:                 -10.264
REMARK INTRA:                  -0.395
REMARK UNBOUND:                -0.400
REMARK SMILES O=c1c(O)c(-c2ccc(O)cc2O)oc2cc(O)cc(O)c12
REMARK SMILES IDX 5 1 3 2 2 3 1 4 22 5 20 6 19 7 17 8 16 9 15 10 14 11 6 12
REMARK SMILES IDX 8 13 7 14 9 15 11 16 12 17 10 18 13 20 4 22 21 24 18 26
REMARK H PARENT 10 19 13 21 4 23 21 25 18 27
REMARK Flexibility Score: inf
ROOT
ATOM      1  C   UNL     1     140.966 -20.420  78.898  1.00  0.00     0.184 A 
ATOM      2  C   UNL     1     139.715 -20.814  78.402  1.00  0.00     0.208 A 
ATOM      3  C   UNL     1     138.553 -20.285  78.986  1.00  0.00     0.238 A 
ATOM      4  O   UNL     1     137.433 -20.684  78.572  1.00  0.00    -0.285 OA
ATOM      5  C   UNL     1     138.660 -19.354  80.048  1.00  0.00     0.111 A 
ATOM      6  C   UNL     1     137.552 -18.723  80.687  1.00  0.00     0.134 A 
ATOM      7  C   UNL     1     137.770 -17.918  81.812  1.00  0.00     0.093 A 
ATOM      8  C   UNL     1     139.063 -17.671  82.281  1.00  0.00     0.123 A 
ATOM      9  C   UNL     1     140.155 -18.235  81.628  1.00  0.00     0.094 A 
ATOM     10  C   UNL     1     139.968 -19.071  80.525  1.00  0.00     0.146 A 
ATOM     11  O   UNL     1     141.036 -19.596  79.938  1.00  0.00    -0.451 OA
ENDROOT
BRANCH   1  12
ATOM     12  C   UNL     1     142.228 -20.927  78.318  1.00  0.00     0.063 A 
ATOM     13  C   UNL     1     143.950 -22.642  78.270  1.00  0.00     0.047 A 
ATOM     14  C   UNL     1     142.757 -22.137  78.793  1.00  0.00     0.020 A 
ATOM     15  C   UNL     1     144.636 -21.938  77.278  1.00  0.00     0.119 A 
ATOM     16  C   UNL     1     144.129 -20.718  76.813  1.00  0.00     0.093 A 
ATOM     17  C   UNL     1     142.934 -20.201  77.337  1.00  0.00     0.130 A 
BRANCH  15  18
ATOM     18  O   UNL     1     145.822 -22.455  76.762  1.00  0.00    -0.508 OA
ATOM     19  H   UNL     1     145.911 -22.705  75.783  1.00  0.00     0.293 HD
ENDBRANCH  15  18
BRANCH  17  20
ATOM     20  O   UNL     1     142.465 -18.961  76.902  1.00  0.00    -0.507 OA
ATOM     21  H   UNL     1     143.090 -18.259  76.524  1.00  0.00     0.293 HD
ENDBRANCH  17  20
ENDBRANCH   1  12
BRANCH   2  22
ATOM     22  O   UNL     1     139.636 -21.749  77.365  1.00  0.00    -0.502 OA
ATOM     23  H   UNL     1     139.031 -21.621  76.563  1.00  0.00     0.293 HD
ENDBRANCH   2  22
BRANCH   6  24
ATOM     24  O   UNL     1     136.231 -18.831  80.244  1.00  0.00    -0.507 OA
ATOM     25  H   UNL     1     135.891 -18.486  79.359  1.00  0.00     0.293 HD
ENDBRANCH   6  24
BRANCH   8  26
ATOM     26  O   UNL     1     139.272 -16.856  83.392  1.00  0.00    -0.508 OA
ATOM     27  H   UNL     1     140.197 -16.519  83.636  1.00  0.00     0.293 HD
ENDBRANCH   8  26
TORSDOF 6
ENDMDL
MODEL 3
REMARK VINA RESULT:    -8.268      2.507      4.943
REMARK INTER + INTRA:         -10.360
REMARK INTER:                 -10.028
REMARK INTRA:                  -0.332
REMARK UNBOUND:                -0.400
REMARK SMILES O=c1c(O)c(-c2ccc(O)cc2O)oc2cc(O)cc(O)c12
REMARK SMILES IDX 5 1 3 2 2 3 1 4 22 5 20 6 19 7 17 8 16 9 15 10 14 11 6 12
REMARK SMILES IDX 8 13 7 14 9 15 11 16 12 17 10 18 13 20 4 22 21 24 18 26
REMARK H PARENT 10 19 13 21 4 23 21 25 18 27
REMARK Flexibility Score: inf
ROOT
ATOM      1  C   UNL     1     141.323 -18.846  79.096  1.00  0.00     0.184 A 
ATOM      2  C   UNL     1     139.937 -18.769  78.891  1.00  0.00     0.208 A 
ATOM      3  C   UNL     1     139.238 -17.654  79.380  1.00  0.00     0.238 A 
ATOM      4  O   UNL     1     137.987 -17.617  79.241  1.00  0.00    -0.285 OA
ATOM      5  C   UNL     1     139.938 -16.622  80.052  1.00  0.00     0.111 A 
ATOM      6  C   UNL     1     139.338 -15.429  80.553  1.00  0.00     0.134 A 
ATOM      7  C   UNL     1     140.104 -14.538  81.315  1.00  0.00     0.093 A 
ATOM      8  C   UNL     1     141.464 -14.767  81.539  1.00  0.00     0.123 A 
ATOM      9  C   UNL     1     142.073 -15.899  81.004  1.00  0.00     0.094 A 
ATOM     10  C   UNL     1     141.327 -16.825  80.270  1.00  0.00     0.146 A 
ATOM     11  O   UNL     1     141.944 -17.896  79.787  1.00  0.00    -0.451 OA
ENDROOT
BRANCH   1  12
ATOM     12  C   UNL     1     142.121 -19.984  78.594  1.00  0.00     0.063 A 
ATOM     13  C   UNL     1     143.738 -20.841  76.993  1.00  0.00     0.047 A 
ATOM     14  C   UNL     1     142.973 -19.785  77.495  1.00  0.00     0.020 A 
ATOM     15  C   UNL     1     143.650 -22.110  77.570  1.00  0.00     0.119 A 
ATOM     16  C   UNL     1     142.787 -22.324  78.651  1.00  0.00     0.093 A 
ATOM     17  C   UNL     1     142.011 -21.271  79.159  1.00  0.00     0.130 A 
BRANCH  15  18
ATOM     18  O   UNL     1     144.422 -23.152  77.061  1.00  0.00    -0.508 OA
ATOM     19  H   UNL     1     145.263 -23.468  77.530  1.00  0.00     0.293 HD
ENDBRANCH  15  18
BRANCH  17  20
ATOM     20  O   UNL     1     141.117 -21.508  80.204  1.00  0.00    -0.507 OA
ATOM     21  H   UNL     1     140.889 -22.449  80.505  1.00  0.00     0.293 HD
ENDBRANCH  17  20
ENDBRANCH   1  12
BRANCH   2  22
ATOM     22  O   UNL     1     139.268 -19.809  78.241  1.00  0.00    -0.502 OA
ATOM     23  H   UNL     1     139.702 -20.706  78.060  1.00  0.00     0.293 HD
ENDBRANCH   2  22
BRANCH   6  24
ATOM     24  O   UNL     1     138.012 -15.061  80.309  1.00  0.00    -0.507 OA
ATOM     25  H   UNL     1     137.397 -15.524  79.659  1.00  0.00     0.293 HD
ENDBRANCH   6  24
BRANCH   8  26
ATOM     26  O   UNL     1     142.223 -13.867  82.285  1.00  0.00    -0.508 OA
ATOM     27  H   UNL     1     142.689 -14.148  83.140  1.00  0.00     0.293 HD
ENDBRANCH   8  26
TORSDOF 6
ENDMDL
MODEL 4
REMARK VINA RESULT:    -8.204      1.546      6.971
REMARK INTER + INTRA:         -10.283
REMARK INTER:                  -9.867
REMARK INTRA:                  -0.416
REMARK UNBOUND:                -0.400
REMARK SMILES O=c1c(O)c(-c2ccc(O)cc2O)oc2cc(O)cc(O)c12
REMARK SMILES IDX 5 1 3 2 2 3 1 4 22 5 20 6 19 7 17 8 16 9 15 10 14 11 6 12
REMARK SMILES IDX 8 13 7 14 9 15 11 16 12 17 10 18 13 20 4 22 21 24 18 26
REMARK H PARENT 10 19 13 21 4 23 21 25 18 27
REMARK Flexibility Score: inf
ROOT
ATOM      1  C   UNL     1     138.505 -18.838  79.533  1.00  0.00     0.184 A 
ATOM      2  C   UNL     1     138.010 -19.693  80.529  1.00  0.00     0.208 A 
ATOM      3  C   UNL     1     136.783 -20.343  80.319  1.00  0.00     0.238 A 
ATOM      4  O   UNL     1     136.318 -21.067  81.238  1.00  0.00    -0.285 OA
ATOM      5  C   UNL     1     136.078 -20.142  79.107  1.00  0.00     0.111 A 
ATOM      6  C   UNL     1     134.848 -20.781  78.770  1.00  0.00     0.134 A 
ATOM      7  C   UNL     1     134.173 -20.408  77.600  1.00  0.00     0.093 A 
ATOM      8  C   UNL     1     134.719 -19.466  76.724  1.00  0.00     0.123 A 
ATOM      9  C   UNL     1     135.948 -18.881  77.015  1.00  0.00     0.094 A 
ATOM     10  C   UNL     1     136.627 -19.205  78.192  1.00  0.00     0.146 A 
ATOM     11  O   UNL     1     137.792 -18.616  78.435  1.00  0.00    -0.451 OA
ENDROOT
BRANCH   1  12
ATOM     12  C   UNL     1     139.797 -18.135  79.684  1.00  0.00     0.063 A 
ATOM     13  C   UNL     1     141.085 -16.357  80.729  1.00  0.00     0.047 A 
ATOM     14  C   UNL     1     139.880 -17.046  80.566  1.00  0.00     0.020 A 
ATOM     15  C   UNL     1     142.216 -16.737  80.002  1.00  0.00     0.119 A 
ATOM     16  C   UNL     1     142.138 -17.808  79.102  1.00  0.00     0.093 A 
ATOM     17  C   UNL     1     140.930 -18.501  78.929  1.00  0.00     0.130 A 
BRANCH  15  18
ATOM     18  O   UNL     1     143.411 -16.044  80.177  1.00  0.00    -0.508 OA
ATOM     19  H   UNL     1     143.458 -15.201  80.738  1.00  0.00     0.293 HD
ENDBRANCH  15  18
BRANCH  17  20
ATOM     20  O   UNL     1     140.851 -19.534  77.993  1.00  0.00    -0.507 OA
ATOM     21  H   UNL     1     140.839 -20.507  78.276  1.00  0.00     0.293 HD
ENDBRANCH  17  20
ENDBRANCH   1  12
BRANCH   2  22
ATOM     22  O   UNL     1     138.717 -19.860  81.723  1.00  0.00    -0.502 OA
ATOM     23  H   UNL     1     139.379 -19.173  82.063  1.00  0.00     0.293 HD
ENDBRANCH   2  22
BRANCH   6  24
ATOM     24  O   UNL     1     134.263 -21.798  79.530  1.00  0.00    -0.507 OA
ATOM     25  H   UNL     1     134.003 -22.705  79.173  1.00  0.00     0.293 HD
ENDBRANCH   6  24
BRANCH   8  26
ATOM     26  O   UNL     1     134.049 -19.112  75.554  1.00  0.00    -0.508 OA
ATOM     27  H   UNL     1     134.315 -19.495  74.654  1.00  0.00     0.293 HD
ENDBRANCH   8  26
TORSDOF 6
ENDMDL
MODEL 5
REMARK VINA RESULT:    -8.053      1.564      7.000
REMARK INTER + INTRA:         -10.101
REMARK INTER:                  -9.763
REMARK INTRA:                  -0.338
REMARK UNBOUND:                -0.400
REMARK SMILES O=c1c(O)c(-c2ccc(O)cc2O)oc2cc(O)cc(O)c12
REMARK SMILES IDX 5 1 3 2 2 3 1 4 22 5 20 6 19 7 17 8 16 9 15 10 14 11 6 12
REMARK SMILES IDX 8 13 7 14 9 15 11 16 12 17 10 18 13 20 4 22 21 24 18 26
REMARK H PARENT 10 19 13 21 4 23 21 25 18 27
REMARK Flexibility Score: inf
ROOT
ATOM      1  C   UNL     1     138.491 -18.806  79.551  1.00  0.00     0.184 A 
ATOM      2  C   UNL     1     138.006 -19.676  80.539  1.00  0.00     0.208 A 
ATOM      3  C   UNL     1     136.792 -20.346  80.319  1.00  0.00     0.238 A 
ATOM      4  O   UNL     1     136.335 -21.083  81.232  1.00  0.00    -0.285 OA
ATOM      5  C   UNL     1     136.089 -20.149  79.105  1.00  0.00     0.111 A 
ATOM      6  C   UNL     1     134.871 -20.807  78.759  1.00  0.00     0.134 A 
ATOM      7  C   UNL     1     134.196 -20.438  77.589  1.00  0.00     0.093 A 
ATOM      8  C   UNL     1     134.729 -19.482  76.721  1.00  0.00     0.123 A 
ATOM      9  C   UNL     1     135.947 -18.878  77.020  1.00  0.00     0.094 A 
ATOM     10  C   UNL     1     136.626 -19.198  78.198  1.00  0.00     0.146 A 
ATOM     11  O   UNL     1     137.779 -18.590  78.451  1.00  0.00    -0.451 OA
ENDROOT
BRANCH   1  12
ATOM     12  C   UNL     1     139.770 -18.083  79.712  1.00  0.00     0.063 A 
ATOM     13  C   UNL     1     142.111 -17.841  79.102  1.00  0.00     0.047 A 
ATOM     14  C   UNL     1     140.887 -18.501  78.970  1.00  0.00     0.020 A 
ATOM     15  C   UNL     1     142.241 -16.768  79.987  1.00  0.00     0.119 A 
ATOM     16  C   UNL     1     141.139 -16.358  80.748  1.00  0.00     0.093 A 
ATOM     17  C   UNL     1     139.907 -17.018  80.626  1.00  0.00     0.130 A 
BRANCH  15  18
ATOM     18  O   UNL     1     143.467 -16.118  80.105  1.00  0.00    -0.508 OA
ATOM     19  H   UNL     1     143.721 -15.613  80.946  1.00  0.00     0.293 HD
ENDBRANCH  15  18
BRANCH  17  20
ATOM     20  O   UNL     1     138.831 -16.632  81.427  1.00  0.00    -0.507 OA
ATOM     21  H   UNL     1     138.967 -16.280  82.367  1.00  0.00     0.293 HD
ENDBRANCH  17  20
ENDBRANCH   1  12
BRANCH   2  22
ATOM     22  O   UNL     1     138.711 -19.838  81.735  1.00  0.00    -0.502 OA
ATOM     23  H   UNL     1     139.680 -19.561  81.837  1.00  0.00     0.293 HD
ENDBRANCH   2  22
BRANCH   6  24
ATOM     24  O   UNL     1     134.300 -21.839  79.510  1.00  0.00    -0.507 OA
ATOM     25  H   UNL     1     134.612 -22.123  80.426  1.00  0.00     0.293 HD
ENDBRANCH   6  24
BRANCH   8  26
ATOM     26  O   UNL     1     134.058 -19.133  75.550  1.00  0.00    -0.508 OA
ATOM     27  H   UNL     1     134.558 -18.941  74.690  1.00  0.00     0.293 HD
ENDBRANCH   8  26
TORSDOF 6
ENDMDL
MODEL 6
REMARK VINA RESULT:    -7.790      2.649      6.355
REMARK INTER + INTRA:          -9.783
REMARK INTER:                  -9.662
REMARK INTRA:                  -0.122
REMARK UNBOUND:                -0.400
REMARK SMILES O=c1c(O)c(-c2ccc(O)cc2O)oc2cc(O)cc(O)c12
REMARK SMILES IDX 5 1 3 2 2 3 1 4 22 5 20 6 19 7 17 8 16 9 15 10 14 11 6 12
REMARK SMILES IDX 8 13 7 14 9 15 11 16 12 17 10 18 13 20 4 22 21 24 18 26
REMARK H PARENT 10 19 13 21 4 23 21 25 18 27
REMARK Flexibility Score: inf
ROOT
ATOM      1  C   UNL     1     140.913 -20.262  78.944  1.00  0.00     0.184 A 
ATOM      2  C   UNL     1     140.995 -18.936  79.396  1.00  0.00     0.208 A 
ATOM      3  C   UNL     1     139.830 -18.300  79.853  1.00  0.00     0.238 A 
ATOM      4  O   UNL     1     139.900 -17.093  80.206  1.00  0.00    -0.285 OA
ATOM      5  C   UNL     1     138.602 -19.005  79.867  1.00  0.00     0.111 A 
ATOM      6  C   UNL     1     137.368 -18.472  80.346  1.00  0.00     0.134 A 
ATOM      7  C   UNL     1     136.190 -19.214  80.192  1.00  0.00     0.093 A 
ATOM      8  C   UNL     1     136.213 -20.495  79.635  1.00  0.00     0.123 A 
ATOM      9  C   UNL     1     137.421 -21.046  79.218  1.00  0.00     0.094 A 
ATOM     10  C   UNL     1     138.607 -20.317  79.325  1.00  0.00     0.146 A 
ATOM     11  O   UNL     1     139.736 -20.877  78.906  1.00  0.00    -0.451 OA
ENDROOT
BRANCH   1  12
ATOM     12  C   UNL     1     142.104 -20.995  78.465  1.00  0.00     0.063 A 
ATOM     13  C   UNL     1     143.625 -22.875  78.716  1.00  0.00     0.047 A 
ATOM     14  C   UNL     1     142.501 -22.161  79.140  1.00  0.00     0.020 A 
ATOM     15  C   UNL     1     144.373 -22.427  77.625  1.00  0.00     0.119 A 
ATOM     16  C   UNL     1     143.998 -21.253  76.959  1.00  0.00     0.093 A 
ATOM     17  C   UNL     1     142.875 -20.526  77.382  1.00  0.00     0.130 A 
BRANCH  15  18
ATOM     18  O   UNL     1     145.489 -23.151  77.211  1.00  0.00    -0.508 OA
ATOM     19  H   UNL     1     145.514 -23.618  76.312  1.00  0.00     0.293 HD
ENDBRANCH  15  18
BRANCH  17  20
ATOM     20  O   UNL     1     142.540 -19.331  76.742  1.00  0.00    -0.507 OA
ATOM     21  H   UNL     1     143.251 -18.702  76.387  1.00  0.00     0.293 HD
ENDBRANCH  17  20
ENDBRANCH   1  12
BRANCH   2  22
ATOM     22  O   UNL     1     142.216 -18.258  79.354  1.00  0.00    -0.502 OA
ATOM     23  H   UNL     1     142.423 -17.554  78.655  1.00  0.00     0.293 HD
ENDBRANCH   2  22
BRANCH   6  24
ATOM     24  O   UNL     1     137.250 -17.242  81.000  1.00  0.00    -0.507 OA
ATOM     25  H   UNL     1     137.997 -16.573  81.105  1.00  0.00     0.293 HD
ENDBRANCH   6  24
BRANCH   8  26
ATOM     26  O   UNL     1     135.037 -21.232  79.499  1.00  0.00    -0.508 OA
ATOM     27  H   UNL     1     134.801 -21.696  78.630  1.00  0.00     0.293 HD
ENDBRANCH   8  26
TORSDOF 6
ENDMDL
MODEL 7
REMARK VINA RESULT:    -7.589      3.589      6.850
REMARK INTER + INTRA:          -9.541
REMARK INTER:                  -9.295
REMARK INTRA:                  -0.246
REMARK UNBOUND:                -0.400
REMARK SMILES O=c1c(O)c(-c2ccc(O)cc2O)oc2cc(O)cc(O)c12
REMARK SMILES IDX 5 1 3 2 2 3 1 4 22 5 20 6 19 7 17 8 16 9 15 10 14 11 6 12
REMARK SMILES IDX 8 13 7 14 9 15 11 16 12 17 10 18 13 20 4 22 21 24 18 26
REMARK H PARENT 10 19 13 21 4 23 21 25 18 27
REMARK Flexibility Score: inf
ROOT
ATOM      1  C   UNL     1     140.366 -20.965  78.634  1.00  0.00     0.184 A 
ATOM      2  C   UNL     1     140.018 -21.321  79.946  1.00  0.00     0.208 A 
ATOM      3  C   UNL     1     138.681 -21.192  80.354  1.00  0.00     0.238 A 
ATOM      4  O   UNL     1     138.385 -21.461  81.549  1.00  0.00    -0.285 OA
ATOM      5  C   UNL     1     137.707 -20.726  79.438  1.00  0.00     0.111 A 
ATOM      6  C   UNL     1     136.316 -20.595  79.731  1.00  0.00     0.134 A 
ATOM      7  C   UNL     1     135.465 -20.001  78.791  1.00  0.00     0.093 A 
ATOM      8  C   UNL     1     135.944 -19.593  77.543  1.00  0.00     0.123 A 
ATOM      9  C   UNL     1     137.288 -19.771  77.226  1.00  0.00     0.094 A 
ATOM     10  C   UNL     1     138.169 -20.327  78.156  1.00  0.00     0.146 A 
ATOM     11  O   UNL     1     139.444 -20.469  77.816  1.00  0.00    -0.451 OA
ENDROOT
BRANCH   1  12
ATOM     12  C   UNL     1     141.751 -21.091  78.136  1.00  0.00     0.063 A 
ATOM     13  C   UNL     1     143.728 -22.471  77.819  1.00  0.00     0.047 A 
ATOM     14  C   UNL     1     142.416 -22.320  78.276  1.00  0.00     0.020 A 
ATOM     15  C   UNL     1     144.397 -21.395  77.232  1.00  0.00     0.119 A 
ATOM     16  C   UNL     1     143.751 -20.158  77.108  1.00  0.00     0.093 A 
ATOM     17  C   UNL     1     142.436 -19.996  77.569  1.00  0.00     0.130 A 
BRANCH  15  18
ATOM     18  O   UNL     1     145.703 -21.562  76.778  1.00  0.00    -0.508 OA
ATOM     19  H   UNL     1     146.325 -20.772  76.650  1.00  0.00     0.293 HD
ENDBRANCH  15  18
BRANCH  17  20
ATOM     20  O   UNL     1     141.821 -18.746  77.486  1.00  0.00    -0.507 OA
ATOM     21  H   UNL     1     141.241 -18.491  76.695  1.00  0.00     0.293 HD
ENDBRANCH  17  20
ENDBRANCH   1  12
BRANCH   2  22
ATOM     22  O   UNL     1     141.003 -21.761  80.836  1.00  0.00    -0.502 OA
ATOM     23  H   UNL     1     141.358 -22.709  80.827  1.00  0.00     0.293 HD
ENDBRANCH   2  22
BRANCH   6  24
ATOM     24  O   UNL     1     135.721 -21.054  80.910  1.00  0.00    -0.507 OA
ATOM     25  H   UNL     1     136.186 -21.609  81.611  1.00  0.00     0.293 HD
ENDBRANCH   6  24
BRANCH   8  26
ATOM     26  O   UNL     1     135.087 -19.017  76.607  1.00  0.00    -0.508 OA
ATOM     27  H   UNL     1     134.468 -19.582  76.037  1.00  0.00     0.293 HD
ENDBRANCH   8  26
TORSDOF 6
ENDMDL
MODEL 8
REMARK VINA RESULT:    -7.484      2.886      5.326
REMARK INTER + INTRA:          -9.414
REMARK INTER:                  -9.042
REMARK INTRA:                  -0.373
REMARK UNBOUND:                -0.400
REMARK SMILES O=c1c(O)c(-c2ccc(O)cc2O)oc2cc(O)cc(O)c12
REMARK SMILES IDX 5 1 3 2 2 3 1 4 22 5 20 6 19 7 17 8 16 9 15 10 14 11 6 12
REMARK SMILES IDX 8 13 7 14 9 15 11 16 12 17 10 18 13 20 4 22 21 24 18 26
REMARK H PARENT 10 19 13 21 4 23 21 25 18 27
REMARK Flexibility Score: inf
ROOT
ATOM      1  C   UNL     1     135.464 -19.560  77.788  1.00  0.00     0.184 A 
ATOM      2  C   UNL     1     135.416 -20.612  78.715  1.00  0.00     0.208 A 
ATOM      3  C   UNL     1     136.562 -20.907  79.470  1.00  0.00     0.238 A 
ATOM      4  O   UNL     1     136.529 -21.887  80.261  1.00  0.00    -0.285 OA
ATOM      5  C   UNL     1     137.736 -20.133  79.300  1.00  0.00     0.111 A 
ATOM      6  C   UNL     1     138.942 -20.316  80.040  1.00  0.00     0.134 A 
ATOM      7  C   UNL     1     140.082 -19.578  79.697  1.00  0.00     0.093 A 
ATOM      8  C   UNL     1     140.039 -18.617  78.683  1.00  0.00     0.123 A 
ATOM      9  C   UNL     1     138.851 -18.390  77.995  1.00  0.00     0.094 A 
ATOM     10  C   UNL     1     137.707 -19.135  78.289  1.00  0.00     0.146 A 
ATOM     11  O   UNL     1     136.597 -18.893  77.602  1.00  0.00    -0.451 OA
ENDROOT
BRANCH   1  12
ATOM     12  C   UNL     1     134.288 -19.188  76.973  1.00  0.00     0.063 A 
ATOM     13  C   UNL     1     132.006 -18.357  76.878  1.00  0.00     0.047 A 
ATOM     14  C   UNL     1     133.136 -18.713  77.619  1.00  0.00     0.020 A 
ATOM     15  C   UNL     1     132.007 -18.484  75.487  1.00  0.00     0.119 A 
ATOM     16  C   UNL     1     133.144 -18.978  74.835  1.00  0.00     0.093 A 
ATOM     17  C   UNL     1     134.281 -19.343  75.571  1.00  0.00     0.130 A 
BRANCH  15  18
ATOM     18  O   UNL     1     130.875 -18.121  74.762  1.00  0.00    -0.508 OA
ATOM     19  H   UNL     1     130.554 -17.159  74.725  1.00  0.00     0.293 HD
ENDBRANCH  15  18
BRANCH  17  20
ATOM     20  O   UNL     1     135.390 -19.881  74.916  1.00  0.00    -0.507 OA
ATOM     21  H   UNL     1     135.499 -19.809  73.911  1.00  0.00     0.293 HD
ENDBRANCH  17  20
ENDBRANCH   1  12
BRANCH   2  22
ATOM     22  O   UNL     1     134.250 -21.372  78.851  1.00  0.00    -0.502 OA
ATOM     23  H   UNL     1     134.260 -22.385  78.862  1.00  0.00     0.293 HD
ENDBRANCH   2  22
BRANCH   6  24
ATOM     24  O   UNL     1     139.064 -21.183  81.129  1.00  0.00    -0.507 OA
ATOM     25  H   UNL     1     139.801 -21.862  81.244  1.00  0.00     0.293 HD
ENDBRANCH   6  24
BRANCH   8  26
ATOM     26  O   UNL     1     141.174 -17.876  78.359  1.00  0.00    -0.508 OA
ATOM     27  H   UNL     1     141.402 -17.649  77.398  1.00  0.00     0.293 HD
ENDBRANCH   8  26
TORSDOF 6
ENDMDL
MODEL 9
REMARK VINA RESULT:    -7.481      1.302      2.935
REMARK INTER + INTRA:          -9.411
REMARK INTER:                  -8.993
REMARK INTRA:                  -0.419
REMARK UNBOUND:                -0.400
REMARK SMILES O=c1c(O)c(-c2ccc(O)cc2O)oc2cc(O)cc(O)c12
REMARK SMILES IDX 5 1 3 2 2 3 1 4 22 5 20 6 19 7 17 8 16 9 15 10 14 11 6 12
REMARK SMILES IDX 8 13 7 14 9 15 11 16 12 17 10 18 13 20 4 22 21 24 18 26
REMARK H PARENT 10 19 13 21 4 23 21 25 18 27
REMARK Flexibility Score: inf
ROOT
ATOM      1  C   UNL     1     138.694 -17.794  80.394  1.00  0.00     0.184 A 
ATOM      2  C   UNL     1     138.193 -16.658  81.047  1.00  0.00     0.208 A 
ATOM      3  C   UNL     1     139.080 -15.628  81.397  1.00  0.00     0.238 A 
ATOM      4  O   UNL     1     138.633 -14.635  82.031  1.00  0.00    -0.285 OA
ATOM      5  C   UNL     1     140.454 -15.740  81.073  1.00  0.00     0.111 A 
ATOM      6  C   UNL     1     141.435 -14.740  81.343  1.00  0.00     0.134 A 
ATOM      7  C   UNL     1     142.786 -15.013  81.096  1.00  0.00     0.093 A 
ATOM      8  C   UNL     1     143.183 -16.226  80.528  1.00  0.00     0.123 A 
ATOM      9  C   UNL     1     142.227 -17.186  80.206  1.00  0.00     0.094 A 
ATOM     10  C   UNL     1     140.875 -16.957  80.474  1.00  0.00     0.146 A 
ATOM     11  O   UNL     1     139.997 -17.903  80.161  1.00  0.00    -0.451 OA
ENDROOT
BRANCH   1  12
ATOM     12  C   UNL     1     137.813 -18.907  79.984  1.00  0.00     0.063 A 
ATOM     13  C   UNL     1     136.510 -20.863  80.606  1.00  0.00     0.047 A 
ATOM     14  C   UNL     1     137.341 -19.798  80.961  1.00  0.00     0.020 A 
ATOM     15  C   UNL     1     136.153 -21.062  79.270  1.00  0.00     0.119 A 
ATOM     16  C   UNL     1     136.637 -20.193  78.284  1.00  0.00     0.093 A 
ATOM     17  C   UNL     1     137.476 -19.124  78.631  1.00  0.00     0.130 A 
BRANCH  15  18
ATOM     18  O   UNL     1     135.321 -22.126  78.932  1.00  0.00    -0.508 OA
ATOM     19  H   UNL     1     134.443 -21.980  78.446  1.00  0.00     0.293 HD
ENDBRANCH  15  18
BRANCH  17  20
ATOM     20  O   UNL     1     137.993 -18.295  77.634  1.00  0.00    -0.507 OA
ATOM     21  H   UNL     1     137.388 -17.790  76.997  1.00  0.00     0.293 HD
ENDBRANCH  17  20
ENDBRANCH   1  12
BRANCH   2  22
ATOM     22  O   UNL     1     136.835 -16.580  81.372  1.00  0.00    -0.502 OA
ATOM     23  H   UNL     1     136.104 -16.654  80.674  1.00  0.00     0.293 HD
ENDBRANCH   2  22
BRANCH   6  24
ATOM     24  O   UNL     1     141.134 -13.462  81.825  1.00  0.00    -0.507 OA
ATOM     25  H   UNL     1     140.322 -12.925  81.563  1.00  0.00     0.293 HD
ENDBRANCH   6  24
BRANCH   8  26
ATOM     26  O   UNL     1     144.528 -16.484  80.271  1.00  0.00    -0.508 OA
ATOM     27  H   UNL     1     145.049 -17.168  80.808  1.00  0.00     0.293 HD
ENDBRANCH   8  26
TORSDOF 6
ENDMDL
