MODEL 1
REMARK VINA RESULT:    -4.995      0.000      0.000
REMARK INTER + INTRA:          -7.812
REMARK INTER:                  -7.330
REMARK INTRA:                  -0.482
REMARK UNBOUND:                -0.482
REMARK SMILES O=C([O-])CCCCCCCC(=O)[O-]
REMARK SMILES IDX 7 1 6 2 5 3 4 4 2 5 1 6 3 7 8 8 9 9 10 10 11 11 12 12 13 13
REMARK H PARENT
REMARK Flexibility Score: inf
ROOT
ATOM      1  C   UNL     1       0.391   7.758  -7.349  1.00  0.00     0.000 C 
ENDROOT
BRANCH   1   2
ATOM      2  C   UNL     1       1.259   9.007  -7.112  1.00  0.00     0.000 C 
BRANCH   2   3
ATOM      3  C   UNL     1       1.452   9.325  -5.619  1.00  0.00     0.006 C 
BRANCH   3   4
ATOM      4  C   UNL     1       2.776   8.771  -5.077  1.00  0.00     0.053 C 
BRANCH   4   5
ATOM      5  C   UNL     1       2.587   7.471  -4.357  1.00  0.00     0.041 C 
ATOM      6  O   UNL     1       2.693   6.381  -4.979  1.00  0.00    -0.550 OA
ATOM      7  O   UNL     1       2.323   7.463  -2.993  1.00  0.00    -0.550 OA
ENDBRANCH   4   5
ENDBRANCH   3   4
ENDBRANCH   2   3
ENDBRANCH   1   2
BRANCH   1   8
ATOM      8  C   UNL     1       0.367   7.243  -8.803  1.00  0.00     0.000 C 
BRANCH   8   9
ATOM      9  C   UNL     1       0.401   5.712  -8.956  1.00  0.00     0.006 C 
BRANCH   9  10
ATOM     10  C   UNL     1       1.220   5.022  -7.858  1.00  0.00     0.053 C 
BRANCH  10  11
ATOM     11  C   UNL     1       0.348   4.124  -7.041  1.00  0.00     0.041 C 
ATOM     12  O   UNL     1      -0.300   3.197  -7.593  1.00  0.00    -0.550 OA
ATOM     13  O   UNL     1       0.210   4.343  -5.675  1.00  0.00    -0.550 OA
ENDBRANCH  10  11
ENDBRANCH   9  10
ENDBRANCH   8   9
ENDBRANCH   1   8
TORSDOF 8
ENDMDL
MODEL 2
REMARK VINA RESULT:    -4.906      0.248      4.448
REMARK INTER + INTRA:          -7.681
REMARK INTER:                  -7.252
REMARK INTRA:                  -0.429
REMARK UNBOUND:                -0.482
REMARK SMILES O=C([O-])CCCCCCCC(=O)[O-]
REMARK SMILES IDX 7 1 6 2 5 3 4 4 2 5 1 6 3 7 8 8 9 9 10 10 11 11 12 12 13 13
REMARK H PARENT
REMARK Flexibility Score: inf
ROOT
ATOM      1  C   UNL     1       0.550   7.975  -7.546  1.00  0.00     0.000 C 
ENDROOT
BRANCH   1   2
ATOM      2  C   UNL     1       0.931   7.267  -8.859  1.00  0.00     0.000 C 
BRANCH   2   3
ATOM      3  C   UNL     1       0.437   5.812  -8.917  1.00  0.00     0.006 C 
BRANCH   3   4
ATOM      4  C   UNL     1       1.232   4.893  -7.980  1.00  0.00     0.053 C 
BRANCH   4   5
ATOM      5  C   UNL     1       0.337   4.144  -7.039  1.00  0.00     0.041 C 
ATOM      6  O   UNL     1      -0.364   3.186  -7.461  1.00  0.00    -0.550 OA
ATOM      7  O   UNL     1       0.302   4.483  -5.693  1.00  0.00    -0.550 OA
ENDBRANCH   4   5
ENDBRANCH   3   4
ENDBRANCH   2   3
ENDBRANCH   1   2
BRANCH   1   8
ATOM      8  C   UNL     1       1.491   9.122  -7.123  1.00  0.00     0.000 C 
BRANCH   8   9
ATOM      9  C   UNL     1       1.511   9.429  -5.615  1.00  0.00     0.006 C 
BRANCH   9  10
ATOM     10  C   UNL     1       2.803   8.966  -4.931  1.00  0.00     0.053 C 
BRANCH  10  11
ATOM     11  C   UNL     1       2.649   7.572  -4.411  1.00  0.00     0.041 C 
ATOM     12  O   UNL     1       2.733   6.591  -5.196  1.00  0.00    -0.550 OA
ATOM     13  O   UNL     1       2.361   7.358  -3.069  1.00  0.00    -0.550 OA
ENDBRANCH  10  11
ENDBRANCH   9  10
ENDBRANCH   8   9
ENDBRANCH   1   8
TORSDOF 8
ENDMDL
MODEL 3
REMARK VINA RESULT:    -4.191     17.880     19.527
REMARK INTER + INTRA:          -6.632
REMARK INTER:                  -6.095
REMARK INTRA:                  -0.538
REMARK UNBOUND:                -0.482
REMARK SMILES O=C([O-])CCCCCCCC(=O)[O-]
REMARK SMILES IDX 7 1 6 2 5 3 4 4 2 5 1 6 3 7 8 8 9 9 10 10 11 11 12 12 13 13
REMARK H PARENT
REMARK Flexibility Score: inf
ROOT
ATOM      1  C   UNL     1      -6.096  -6.259   5.233  1.00  0.00     0.000 C 
ENDROOT
BRANCH   1   2
ATOM      2  C   UNL     1      -4.856  -6.539   6.101  1.00  0.00     0.000 C 
BRANCH   2   3
ATOM      3  C   UNL     1      -3.982  -5.291   6.313  1.00  0.00     0.006 C 
BRANCH   3   4
ATOM      4  C   UNL     1      -4.091  -4.303   5.144  1.00  0.00     0.053 C 
BRANCH   4   5
ATOM      5  C   UNL     1      -4.624  -2.973   5.583  1.00  0.00     0.041 C 
ATOM      6  O   UNL     1      -4.379  -1.939   4.907  1.00  0.00    -0.550 OA
ATOM      7  O   UNL     1      -5.415  -2.881   6.721  1.00  0.00    -0.550 OA
ENDBRANCH   4   5
ENDBRANCH   3   4
ENDBRANCH   2   3
ENDBRANCH   1   2
BRANCH   1   8
ATOM      8  C   UNL     1      -7.417  -6.092   6.011  1.00  0.00     0.000 C 
BRANCH   8   9
ATOM      9  C   UNL     1      -8.509  -7.123   5.676  1.00  0.00     0.006 C 
BRANCH   9  10
ATOM     10  C   UNL     1      -8.756  -8.120   6.815  1.00  0.00     0.053 C 
BRANCH  10  11
ATOM     11  C   UNL     1      -7.581  -9.032   6.974  1.00  0.00     0.041 C 
ATOM     12  O   UNL     1      -7.349  -9.922   6.116  1.00  0.00    -0.550 OA
ATOM     13  O   UNL     1      -6.770  -8.931   8.099  1.00  0.00    -0.550 OA
ENDBRANCH  10  11
ENDBRANCH   9  10
ENDBRANCH   8   9
ENDBRANCH   1   8
TORSDOF 8
ENDMDL
MODEL 4
REMARK VINA RESULT:    -4.166      1.860      4.607
REMARK INTER + INTRA:          -6.596
REMARK INTER:                  -5.970
REMARK INTRA:                  -0.627
REMARK UNBOUND:                -0.482
REMARK SMILES O=C([O-])CCCCCCCC(=O)[O-]
REMARK SMILES IDX 7 1 6 2 5 3 4 4 2 5 1 6 3 7 8 8 9 9 10 10 11 11 12 12 13 13
REMARK H PARENT
REMARK Flexibility Score: inf
ROOT
ATOM      1  C   UNL     1       2.802   6.352  -9.785  1.00  0.00     0.000 C 
ENDROOT
BRANCH   1   2
ATOM      2  C   UNL     1       1.379   6.910  -9.976  1.00  0.00     0.000 C 
BRANCH   2   3
ATOM      3  C   UNL     1       0.287   5.855  -9.734  1.00  0.00     0.006 C 
BRANCH   3   4
ATOM      4  C   UNL     1       0.818   4.640  -8.961  1.00  0.00     0.053 C 
BRANCH   4   5
ATOM      5  C   UNL     1       0.259   4.573  -7.572  1.00  0.00     0.041 C 
ATOM      6  O   UNL     1      -0.098   3.467  -7.086  1.00  0.00    -0.550 OA
ATOM      7  O   UNL     1       0.163   5.726  -6.804  1.00  0.00    -0.550 OA
ENDBRANCH   4   5
ENDBRANCH   3   4
ENDBRANCH   2   3
ENDBRANCH   1   2
BRANCH   1   8
ATOM      8  C   UNL     1       3.699   7.159  -8.825  1.00  0.00     0.000 C 
BRANCH   8   9
ATOM      9  C   UNL     1       3.529   6.822  -7.333  1.00  0.00     0.006 C 
BRANCH   9  10
ATOM     10  C   UNL     1       3.505   8.069  -6.440  1.00  0.00     0.053 C 
BRANCH  10  11
ATOM     11  C   UNL     1       2.606   7.853  -5.265  1.00  0.00     0.041 C 
ATOM     12  O   UNL     1       2.553   6.726  -4.707  1.00  0.00    -0.550 OA
ATOM     13  O   UNL     1       1.788   8.883  -4.816  1.00  0.00    -0.550 OA
ENDBRANCH  10  11
ENDBRANCH   9  10
ENDBRANCH   8   9
ENDBRANCH   1   8
TORSDOF 8
ENDMDL
MODEL 5
REMARK VINA RESULT:    -4.155      2.350      3.556
REMARK INTER + INTRA:          -6.580
REMARK INTER:                  -6.010
REMARK INTRA:                  -0.570
REMARK UNBOUND:                -0.482
REMARK SMILES O=C([O-])CCCCCCCC(=O)[O-]
REMARK SMILES IDX 7 1 6 2 5 3 4 4 2 5 1 6 3 7 8 8 9 9 10 10 11 11 12 12 13 13
REMARK H PARENT
REMARK Flexibility Score: inf
ROOT
ATOM      1  C   UNL     1       1.523   4.886  -7.785  1.00  0.00     0.000 C 
ENDROOT
BRANCH   1   2
ATOM      2  C   UNL     1       0.880   4.871  -6.386  1.00  0.00     0.000 C 
BRANCH   2   3
ATOM      3  C   UNL     1       1.778   5.504  -5.309  1.00  0.00     0.006 C 
BRANCH   3   4
ATOM      4  C   UNL     1       2.238   6.916  -5.697  1.00  0.00     0.053 C 
BRANCH   4   5
ATOM      5  C   UNL     1       2.621   7.728  -4.497  1.00  0.00     0.041 C 
ATOM      6  O   UNL     1       3.088   8.889  -4.642  1.00  0.00    -0.550 OA
ATOM      7  O   UNL     1       2.432   7.216  -3.220  1.00  0.00    -0.550 OA
ENDBRANCH   4   5
ENDBRANCH   3   4
ENDBRANCH   2   3
ENDBRANCH   1   2
BRANCH   1   8
ATOM      8  C   UNL     1       0.529   4.866  -8.963  1.00  0.00     0.000 C 
BRANCH   8   9
ATOM      9  C   UNL     1       0.427   6.181  -9.755  1.00  0.00     0.006 C 
BRANCH   9  10
ATOM     10  C   UNL     1       0.085   7.385  -8.868  1.00  0.00     0.053 C 
BRANCH  10  11
ATOM     11  C   UNL     1       1.147   8.433  -8.979  1.00  0.00     0.041 C 
ATOM     12  O   UNL     1       2.357   8.101  -9.077  1.00  0.00    -0.550 OA
ATOM     13  O   UNL     1       0.804   9.779  -8.922  1.00  0.00    -0.550 OA
ENDBRANCH  10  11
ENDBRANCH   9  10
ENDBRANCH   8   9
ENDBRANCH   1   8
TORSDOF 8
ENDMDL
MODEL 6
REMARK VINA RESULT:    -4.112      2.252      3.395
REMARK INTER + INTRA:          -6.517
REMARK INTER:                  -5.870
REMARK INTRA:                  -0.647
REMARK UNBOUND:                -0.482
REMARK SMILES O=C([O-])CCCCCCCC(=O)[O-]
REMARK SMILES IDX 7 1 6 2 5 3 4 4 2 5 1 6 3 7 8 8 9 9 10 10 11 11 12 12 13 13
REMARK H PARENT
REMARK Flexibility Score: inf
ROOT
ATOM      1  C   UNL     1       3.033   7.934  -4.939  1.00  0.00     0.000 C 
ENDROOT
BRANCH   1   2
ATOM      2  C   UNL     1       2.203   9.227  -5.023  1.00  0.00     0.000 C 
BRANCH   2   3
ATOM      3  C   UNL     1       1.219   9.229  -6.204  1.00  0.00     0.006 C 
BRANCH   3   4
ATOM      4  C   UNL     1       1.938   9.128  -7.556  1.00  0.00     0.053 C 
BRANCH   4   5
ATOM      5  C   UNL     1       1.154   8.324  -8.548  1.00  0.00     0.041 C 
ATOM      6  O   UNL     1       1.562   8.209  -9.733  1.00  0.00    -0.550 OA
ATOM      7  O   UNL     1      -0.010   7.676  -8.154  1.00  0.00    -0.550 OA
ENDBRANCH   4   5
ENDBRANCH   3   4
ENDBRANCH   2   3
ENDBRANCH   1   2
BRANCH   1   8
ATOM      8  C   UNL     1       2.216   6.643  -4.726  1.00  0.00     0.000 C 
BRANCH   8   9
ATOM      9  C   UNL     1       2.058   5.756  -5.974  1.00  0.00     0.006 C 
BRANCH   9  10
ATOM     10  C   UNL     1       0.809   4.867  -5.919  1.00  0.00     0.053 C 
BRANCH  10  11
ATOM     11  C   UNL     1       0.553   4.243  -7.253  1.00  0.00     0.041 C 
ATOM     12  O   UNL     1      -0.311   3.335  -7.372  1.00  0.00    -0.550 OA
ATOM     13  O   UNL     1       1.304   4.628  -8.357  1.00  0.00    -0.550 OA
ENDBRANCH  10  11
ENDBRANCH   9  10
ENDBRANCH   8   9
ENDBRANCH   1   8
TORSDOF 8
ENDMDL
MODEL 7
REMARK VINA RESULT:    -4.106      2.297      4.797
REMARK INTER + INTRA:          -6.507
REMARK INTER:                  -6.010
REMARK INTRA:                  -0.497
REMARK UNBOUND:                -0.482
REMARK SMILES O=C([O-])CCCCCCCC(=O)[O-]
REMARK SMILES IDX 7 1 6 2 5 3 4 4 2 5 1 6 3 7 8 8 9 9 10 10 11 11 12 12 13 13
REMARK H PARENT
REMARK Flexibility Score: inf
ROOT
ATOM      1  C   UNL     1       1.476   4.861  -7.796  1.00  0.00     0.000 C 
ENDROOT
BRANCH   1   2
ATOM      2  C   UNL     1       0.496   4.746  -8.978  1.00  0.00     0.000 C 
BRANCH   2   3
ATOM      3  C   UNL     1       0.473   6.007  -9.858  1.00  0.00     0.006 C 
BRANCH   3   4
ATOM      4  C   UNL     1       1.450   7.079  -9.359  1.00  0.00     0.053 C 
BRANCH   4   5
ATOM      5  C   UNL     1       0.734   8.267  -8.792  1.00  0.00     0.041 C 
ATOM      6  O   UNL     1       0.597   9.312  -9.481  1.00  0.00    -0.550 OA
ATOM      7  O   UNL     1       0.193   8.209  -7.514  1.00  0.00    -0.550 OA
ENDBRANCH   4   5
ENDBRANCH   3   4
ENDBRANCH   2   3
ENDBRANCH   1   2
BRANCH   1   8
ATOM      8  C   UNL     1       0.821   4.869  -6.400  1.00  0.00     0.000 C 
BRANCH   8   9
ATOM      9  C   UNL     1       1.691   5.454  -5.273  1.00  0.00     0.006 C 
BRANCH   9  10
ATOM     10  C   UNL     1       2.375   6.768  -5.670  1.00  0.00     0.053 C 
BRANCH  10  11
ATOM     11  C   UNL     1       2.642   7.605  -4.460  1.00  0.00     0.041 C 
ATOM     12  O   UNL     1       2.364   7.167  -3.313  1.00  0.00    -0.550 OA
ATOM     13  O   UNL     1       3.150   8.891  -4.601  1.00  0.00    -0.550 OA
ENDBRANCH  10  11
ENDBRANCH   9  10
ENDBRANCH   8   9
ENDBRANCH   1   8
TORSDOF 8
ENDMDL
MODEL 8
REMARK VINA RESULT:    -4.064     17.875     19.237
REMARK INTER + INTRA:          -6.446
REMARK INTER:                  -5.537
REMARK INTRA:                  -0.909
REMARK UNBOUND:                -0.482
REMARK SMILES O=C([O-])CCCCCCCC(=O)[O-]
REMARK SMILES IDX 7 1 6 2 5 3 4 4 2 5 1 6 3 7 8 8 9 9 10 10 11 11 12 12 13 13
REMARK H PARENT
REMARK Flexibility Score: inf
ROOT
ATOM      1  C   UNL     1      -4.201  -4.190   5.240  1.00  0.00     0.000 C 
ENDROOT
BRANCH   1   2
ATOM      2  C   UNL     1      -4.840  -2.912   5.812  1.00  0.00     0.000 C 
BRANCH   2   3
ATOM      3  C   UNL     1      -5.298  -3.075   7.271  1.00  0.00     0.006 C 
BRANCH   3   4
ATOM      4  C   UNL     1      -6.824  -3.177   7.390  1.00  0.00     0.053 C 
BRANCH   4   5
ATOM      5  C   UNL     1      -7.240  -4.151   8.450  1.00  0.00     0.041 C 
ATOM      6  O   UNL     1      -6.390  -4.923   8.968  1.00  0.00    -0.550 OA
ATOM      7  O   UNL     1      -8.557  -4.184   8.888  1.00  0.00    -0.550 OA
ENDBRANCH   4   5
ENDBRANCH   3   4
ENDBRANCH   2   3
ENDBRANCH   1   2
BRANCH   1   8
ATOM      8  C   UNL     1      -3.966  -5.320   6.262  1.00  0.00     0.000 C 
BRANCH   8   9
ATOM      9  C   UNL     1      -4.881  -6.547   6.104  1.00  0.00     0.006 C 
BRANCH   9  10
ATOM     10  C   UNL     1      -6.100  -6.270   5.215  1.00  0.00     0.053 C 
BRANCH  10  11
ATOM     11  C   UNL     1      -7.360  -6.653   5.923  1.00  0.00     0.041 C 
ATOM     12  O   UNL     1      -8.429  -6.029   5.695  1.00  0.00    -0.550 OA
ATOM     13  O   UNL     1      -7.344  -7.667   6.873  1.00  0.00    -0.550 OA
ENDBRANCH  10  11
ENDBRANCH   9  10
ENDBRANCH   8   9
ENDBRANCH   1   8
TORSDOF 8
ENDMDL
MODEL 9
REMARK VINA RESULT:    -4.058     17.874     19.691
REMARK INTER + INTRA:          -6.437
REMARK INTER:                  -5.545
REMARK INTRA:                  -0.892
REMARK UNBOUND:                -0.482
REMARK SMILES O=C([O-])CCCCCCCC(=O)[O-]
REMARK SMILES IDX 7 1 6 2 5 3 4 4 2 5 1 6 3 7 8 8 9 9 10 10 11 11 12 12 13 13
REMARK H PARENT
REMARK Flexibility Score: inf
ROOT
ATOM      1  C   UNL     1      -4.871  -3.011   5.971  1.00  0.00     0.000 C 
ENDROOT
BRANCH   1   2
ATOM      2  C   UNL     1      -4.107  -4.298   5.612  1.00  0.00     0.000 C 
BRANCH   2   3
ATOM      3  C   UNL     1      -5.000  -5.353   4.937  1.00  0.00     0.006 C 
BRANCH   3   4
ATOM      4  C   UNL     1      -5.179  -6.602   5.810  1.00  0.00     0.053 C 
BRANCH   4   5
ATOM      5  C   UNL     1      -6.623  -6.880   6.101  1.00  0.00     0.041 C 
ATOM      6  O   UNL     1      -6.977  -8.011   6.526  1.00  0.00    -0.550 OA
ATOM      7  O   UNL     1      -7.571  -5.879   5.934  1.00  0.00    -0.550 OA
ENDBRANCH   4   5
ENDBRANCH   3   4
ENDBRANCH   2   3
ENDBRANCH   1   2
BRANCH   1   8
ATOM      8  C   UNL     1      -5.797  -3.120   7.200  1.00  0.00     0.000 C 
BRANCH   8   9
ATOM      9  C   UNL     1      -5.096  -3.499   8.516  1.00  0.00     0.006 C 
BRANCH   9  10
ATOM     10  C   UNL     1      -5.559  -4.853   9.069  1.00  0.00     0.053 C 
BRANCH  10  11
ATOM     11  C   UNL     1      -4.404  -5.797   9.173  1.00  0.00     0.041 C 
ATOM     12  O   UNL     1      -3.242  -5.412   8.880  1.00  0.00    -0.550 OA
ATOM     13  O   UNL     1      -4.618  -7.119   9.546  1.00  0.00    -0.550 OA
ENDBRANCH  10  11
ENDBRANCH   9  10
ENDBRANCH   8   9
ENDBRANCH   1   8
TORSDOF 8
ENDMDL
