MODEL 1
REMARK VINA RESULT:    -4.363      0.000      0.000
REMARK INTER + INTRA:          -5.806
REMARK INTER:                  -5.638
REMARK INTRA:                  -0.168
REMARK UNBOUND:                -0.168
REMARK SMILES CCCCCCC(=O)[O-]
REMARK SMILES IDX 5 1 6 2 7 3 8 4 9 5 4 6 3 7 2 8 1 9
REMARK H PARENT
REMARK Flexibility Score: inf
ROOT
ATOM      1  C   UNL     1      28.917  57.213  -7.343  1.00  0.00     0.006 C 
ENDROOT
BRANCH   1   2
ATOM      2  C   UNL     1      28.835  56.390  -6.055  1.00  0.00     0.053 C 
BRANCH   2   3
ATOM      3  C   UNL     1      29.718  56.978  -5.001  1.00  0.00     0.041 C 
ATOM      4  O   UNL     1      29.277  57.166  -3.836  1.00  0.00    -0.550 OA
ATOM      5  O   UNL     1      31.015  57.363  -5.316  1.00  0.00    -0.550 OA
ENDBRANCH   2   3
ENDBRANCH   1   2
BRANCH   1   6
ATOM      6  C   UNL     1      28.196  56.505  -8.496  1.00  0.00     0.000 C 
BRANCH   6   7
ATOM      7  C   UNL     1      28.065  57.427  -9.713  1.00  0.00    -0.000 C 
BRANCH   7   8
ATOM      8  C   UNL     1      28.189  58.900  -9.304  1.00  0.00    -0.003 C 
ATOM      9  C   UNL     1      27.047  59.730  -9.881  1.00  0.00     0.004 C 
ENDBRANCH   7   8
ENDBRANCH   6   7
ENDBRANCH   1   6
TORSDOF 5
ENDMDL
MODEL 2
REMARK VINA RESULT:    -4.231     18.533     19.741
REMARK INTER + INTRA:          -5.636
REMARK INTER:                  -5.386
REMARK INTRA:                  -0.250
REMARK UNBOUND:                -0.168
REMARK SMILES CCCCCCC(=O)[O-]
REMARK SMILES IDX 5 1 6 2 7 3 8 4 9 5 4 6 3 7 2 8 1 9
REMARK H PARENT
REMARK Flexibility Score: inf
ROOT
ATOM      1  C   UNL     1      38.994  64.930   8.317  1.00  0.00     0.006 C 
ENDROOT
BRANCH   1   2
ATOM      2  C   UNL     1      39.109  64.881   6.791  1.00  0.00     0.053 C 
BRANCH   2   3
ATOM      3  C   UNL     1      38.236  65.922   6.167  1.00  0.00     0.041 C 
ATOM      4  O   UNL     1      37.150  66.251   6.714  1.00  0.00    -0.550 OA
ATOM      5  O   UNL     1      38.596  66.496   4.954  1.00  0.00    -0.550 OA
ENDBRANCH   2   3
ENDBRANCH   1   2
BRANCH   1   6
ATOM      6  C   UNL     1      39.505  63.630   8.950  1.00  0.00     0.000 C 
BRANCH   6   7
ATOM      7  C   UNL     1      40.887  63.257   8.401  1.00  0.00    -0.000 C 
BRANCH   7   8
ATOM      8  C   UNL     1      41.070  61.734   8.362  1.00  0.00    -0.003 C 
ATOM      9  C   UNL     1      39.764  61.032   8.003  1.00  0.00     0.004 C 
ENDBRANCH   7   8
ENDBRANCH   6   7
ENDBRANCH   1   6
TORSDOF 5
ENDMDL
MODEL 3
REMARK VINA RESULT:    -4.180      3.209      5.023
REMARK INTER + INTRA:          -5.569
REMARK INTER:                  -5.404
REMARK INTRA:                  -0.165
REMARK UNBOUND:                -0.168
REMARK SMILES CCCCCCC(=O)[O-]
REMARK SMILES IDX 5 1 6 2 7 3 8 4 9 5 4 6 3 7 2 8 1 9
REMARK H PARENT
REMARK Flexibility Score: inf
ROOT
ATOM      1  C   UNL     1      28.707  57.740  -8.129  1.00  0.00     0.006 C 
ENDROOT
BRANCH   1   2
ATOM      2  C   UNL     1      28.030  57.720  -9.502  1.00  0.00     0.053 C 
BRANCH   2   3
ATOM      3  C   UNL     1      27.821  59.114 -10.003  1.00  0.00     0.041 C 
ATOM      4  O   UNL     1      28.731  59.699 -10.647  1.00  0.00    -0.550 OA
ATOM      5  O   UNL     1      26.639  59.785  -9.718  1.00  0.00    -0.550 OA
ENDBRANCH   2   3
ENDBRANCH   1   2
BRANCH   1   6
ATOM      6  C   UNL     1      28.455  56.431  -7.373  1.00  0.00     0.000 C 
BRANCH   6   7
ATOM      7  C   UNL     1      28.986  56.514  -5.936  1.00  0.00    -0.000 C 
BRANCH   7   8
ATOM      8  C   UNL     1      29.951  57.695  -5.774  1.00  0.00    -0.003 C 
ATOM      9  C   UNL     1      31.222  57.272  -5.043  1.00  0.00     0.004 C 
ENDBRANCH   7   8
ENDBRANCH   6   7
ENDBRANCH   1   6
TORSDOF 5
ENDMDL
MODEL 4
REMARK VINA RESULT:    -4.158     18.268     19.725
REMARK INTER + INTRA:          -5.541
REMARK INTER:                  -5.370
REMARK INTRA:                  -0.171
REMARK UNBOUND:                -0.168
REMARK SMILES CCCCCCC(=O)[O-]
REMARK SMILES IDX 5 1 6 2 7 3 8 4 9 5 4 6 3 7 2 8 1 9
REMARK H PARENT
REMARK Flexibility Score: inf
ROOT
ATOM      1  C   UNL     1      38.962  65.347   6.563  1.00  0.00     0.006 C 
ENDROOT
BRANCH   1   2
ATOM      2  C   UNL     1      37.562  65.966   6.534  1.00  0.00     0.053 C 
BRANCH   2   3
ATOM      3  C   UNL     1      37.510  67.094   5.553  1.00  0.00     0.041 C 
ATOM      4  O   UNL     1      36.851  68.135   5.817  1.00  0.00    -0.550 OA
ATOM      5  O   UNL     1      38.149  66.978   4.325  1.00  0.00    -0.550 OA
ENDBRANCH   2   3
ENDBRANCH   1   2
BRANCH   1   6
ATOM      6  C   UNL     1      39.276  64.761   7.945  1.00  0.00     0.000 C 
BRANCH   6   7
ATOM      7  C   UNL     1      40.741  64.318   8.036  1.00  0.00    -0.000 C 
BRANCH   7   8
ATOM      8  C   UNL     1      41.551  64.851   6.848  1.00  0.00    -0.003 C 
ATOM      9  C   UNL     1      42.566  65.898   7.298  1.00  0.00     0.004 C 
ENDBRANCH   7   8
ENDBRANCH   6   7
ENDBRANCH   1   6
TORSDOF 5
ENDMDL
MODEL 5
REMARK VINA RESULT:    -4.021     18.922     19.849
REMARK INTER + INTRA:          -5.365
REMARK INTER:                  -5.198
REMARK INTRA:                  -0.166
REMARK UNBOUND:                -0.168
REMARK SMILES CCCCCCC(=O)[O-]
REMARK SMILES IDX 5 1 6 2 7 3 8 4 9 5 4 6 3 7 2 8 1 9
REMARK H PARENT
REMARK Flexibility Score: inf
ROOT
ATOM      1  C   UNL     1      39.374  63.461   7.974  1.00  0.00     0.006 C 
ENDROOT
BRANCH   1   2
ATOM      2  C   UNL     1      39.044  64.952   8.072  1.00  0.00     0.053 C 
BRANCH   2   3
ATOM      3  C   UNL     1      38.628  65.485   6.738  1.00  0.00     0.041 C 
ATOM      4  O   UNL     1      39.445  65.504   5.780  1.00  0.00    -0.550 OA
ATOM      5  O   UNL     1      37.352  66.007   6.565  1.00  0.00    -0.550 OA
ENDBRANCH   2   3
ENDBRANCH   1   2
BRANCH   1   6
ATOM      6  C   UNL     1      40.825  63.190   8.389  1.00  0.00     0.000 C 
BRANCH   6   7
ATOM      7  C   UNL     1      41.241  61.757   8.036  1.00  0.00    -0.000 C 
BRANCH   7   8
ATOM      8  C   UNL     1      40.126  60.761   8.378  1.00  0.00    -0.003 C 
ATOM      9  C   UNL     1      40.653  59.330   8.398  1.00  0.00     0.004 C 
ENDBRANCH   7   8
ENDBRANCH   6   7
ENDBRANCH   1   6
TORSDOF 5
ENDMDL
MODEL 6
REMARK VINA RESULT:    -3.895     18.547     19.457
REMARK INTER + INTRA:          -5.201
REMARK INTER:                  -5.054
REMARK INTRA:                  -0.147
REMARK UNBOUND:                -0.168
REMARK SMILES CCCCCCC(=O)[O-]
REMARK SMILES IDX 5 1 6 2 7 3 8 4 9 5 4 6 3 7 2 8 1 9
REMARK H PARENT
REMARK Flexibility Score: inf
ROOT
ATOM      1  C   UNL     1      39.743  62.384   7.975  1.00  0.00     0.006 C 
ENDROOT
BRANCH   1   2
ATOM      2  C   UNL     1      40.740  61.277   8.330  1.00  0.00     0.053 C 
BRANCH   2   3
ATOM      3  C   UNL     1      40.084  59.936   8.246  1.00  0.00     0.041 C 
ATOM      4  O   UNL     1      38.926  59.825   7.763  1.00  0.00    -0.550 OA
ATOM      5  O   UNL     1      40.731  58.813   8.746  1.00  0.00    -0.550 OA
ENDBRANCH   2   3
ENDBRANCH   1   2
BRANCH   1   6
ATOM      6  C   UNL     1      40.013  63.651   8.795  1.00  0.00     0.000 C 
BRANCH   6   7
ATOM      7  C   UNL     1      39.024  64.765   8.430  1.00  0.00    -0.000 C 
BRANCH   7   8
ATOM      8  C   UNL     1      39.007  65.012   6.917  1.00  0.00    -0.003 C 
ATOM      9  C   UNL     1      37.876  65.958   6.526  1.00  0.00     0.004 C 
ENDBRANCH   7   8
ENDBRANCH   6   7
ENDBRANCH   1   6
TORSDOF 5
ENDMDL
MODEL 7
REMARK VINA RESULT:    -3.853     19.622     20.259
REMARK INTER + INTRA:          -5.147
REMARK INTER:                  -4.985
REMARK INTRA:                  -0.163
REMARK UNBOUND:                -0.168
REMARK SMILES CCCCCCC(=O)[O-]
REMARK SMILES IDX 5 1 6 2 7 3 8 4 9 5 4 6 3 7 2 8 1 9
REMARK H PARENT
REMARK Flexibility Score: inf
ROOT
ATOM      1  C   UNL     1      39.845  62.167   8.194  1.00  0.00     0.006 C 
ENDROOT
BRANCH   1   2
ATOM      2  C   UNL     1      39.618  63.506   8.900  1.00  0.00     0.053 C 
BRANCH   2   3
ATOM      3  C   UNL     1      39.742  64.637   7.930  1.00  0.00     0.041 C 
ATOM      4  O   UNL     1      40.876  65.103   7.640  1.00  0.00    -0.550 OA
ATOM      5  O   UNL     1      38.602  65.211   7.381  1.00  0.00    -0.550 OA
ENDBRANCH   2   3
ENDBRANCH   1   2
BRANCH   1   6
ATOM      6  C   UNL     1      41.308  61.724   8.312  1.00  0.00     0.000 C 
BRANCH   6   7
ATOM      7  C   UNL     1      41.478  60.263   7.877  1.00  0.00    -0.000 C 
BRANCH   7   8
ATOM      8  C   UNL     1      40.343  59.390   8.426  1.00  0.00    -0.003 C 
ATOM      9  C   UNL     1      40.839  57.986   8.759  1.00  0.00     0.004 C 
ENDBRANCH   7   8
ENDBRANCH   6   7
ENDBRANCH   1   6
TORSDOF 5
ENDMDL
MODEL 8
REMARK VINA RESULT:    -3.819     18.414     19.525
REMARK INTER + INTRA:          -5.104
REMARK INTER:                  -4.902
REMARK INTRA:                  -0.201
REMARK UNBOUND:                -0.168
REMARK SMILES CCCCCCC(=O)[O-]
REMARK SMILES IDX 5 1 6 2 7 3 8 4 9 5 4 6 3 7 2 8 1 9
REMARK H PARENT
REMARK Flexibility Score: inf
ROOT
ATOM      1  C   UNL     1      39.759  61.013   8.085  1.00  0.00     0.006 C 
ENDROOT
BRANCH   1   2
ATOM      2  C   UNL     1      39.879  59.754   7.220  1.00  0.00     0.053 C 
BRANCH   2   3
ATOM      3  C   UNL     1      39.519  58.539   8.014  1.00  0.00     0.041 C 
ATOM      4  O   UNL     1      40.399  57.930   8.678  1.00  0.00    -0.550 OA
ATOM      5  O   UNL     1      38.220  58.048   7.982  1.00  0.00    -0.550 OA
ENDBRANCH   2   3
ENDBRANCH   1   2
BRANCH   1   6
ATOM      6  C   UNL     1      41.118  61.706   8.238  1.00  0.00     0.000 C 
BRANCH   6   7
ATOM      7  C   UNL     1      40.944  63.211   8.476  1.00  0.00    -0.000 C 
BRANCH   7   8
ATOM      8  C   UNL     1      39.486  63.551   8.807  1.00  0.00    -0.003 C 
ATOM      9  C   UNL     1      39.035  64.812   8.077  1.00  0.00     0.004 C 
ENDBRANCH   7   8
ENDBRANCH   6   7
ENDBRANCH   1   6
TORSDOF 5
ENDMDL
MODEL 9
REMARK VINA RESULT:    -3.817     19.325     19.829
REMARK INTER + INTRA:          -5.101
REMARK INTER:                  -4.954
REMARK INTRA:                  -0.147
REMARK UNBOUND:                -0.168
REMARK SMILES CCCCCCC(=O)[O-]
REMARK SMILES IDX 5 1 6 2 7 3 8 4 9 5 4 6 3 7 2 8 1 9
REMARK H PARENT
REMARK Flexibility Score: inf
ROOT
ATOM      1  C   UNL     1      41.577  60.725   8.059  1.00  0.00     0.006 C 
ENDROOT
BRANCH   1   2
ATOM      2  C   UNL     1      40.371  59.848   8.408  1.00  0.00     0.053 C 
BRANCH   2   3
ATOM      3  C   UNL     1      40.682  58.407   8.155  1.00  0.00     0.041 C 
ATOM      4  O   UNL     1      40.805  57.606   9.119  1.00  0.00    -0.550 OA
ATOM      5  O   UNL     1      40.884  57.957   6.856  1.00  0.00    -0.550 OA
ENDBRANCH   2   3
ENDBRANCH   1   2
BRANCH   1   6
ATOM      6  C   UNL     1      41.255  62.210   8.265  1.00  0.00     0.000 C 
BRANCH   6   7
ATOM      7  C   UNL     1      39.741  62.448   8.279  1.00  0.00    -0.000 C 
BRANCH   7   8
ATOM      8  C   UNL     1      39.404  63.815   8.887  1.00  0.00    -0.003 C 
ATOM      9  C   UNL     1      39.033  64.823   7.803  1.00  0.00     0.004 C 
ENDBRANCH   7   8
ENDBRANCH   6   7
ENDBRANCH   1   6
TORSDOF 5
ENDMDL
