MODEL 1
REMARK VINA RESULT:    -3.529      0.000      0.000
REMARK INTER + INTRA:          -5.055
REMARK INTER:                  -4.767
REMARK INTRA:                  -0.288
REMARK UNBOUND:                -0.288
REMARK SMILES CCCCCCCC(=O)[O-]
REMARK SMILES IDX 5 1 6 2 7 3 8 4 9 5 10 6 4 7 3 8 2 9 1 10
REMARK H PARENT
REMARK Flexibility Score: inf
ROOT
ATOM      1  C   UNL     1      22.131   3.174  12.777  1.00  0.00     0.000 C 
ENDROOT
BRANCH   1   2
ATOM      2  C   UNL     1      22.246   1.952  13.700  1.00  0.00     0.006 C 
BRANCH   2   3
ATOM      3  C   UNL     1      23.540   2.003  14.519  1.00  0.00     0.053 C 
BRANCH   3   4
ATOM      4  C   UNL     1      23.594   0.864  15.487  1.00  0.00     0.041 C 
ATOM      5  O   UNL     1      23.550  -0.324  15.072  1.00  0.00    -0.550 OA
ATOM      6  O   UNL     1      23.742   1.113  16.846  1.00  0.00    -0.550 OA
ENDBRANCH   3   4
ENDBRANCH   2   3
ENDBRANCH   1   2
BRANCH   1   7
ATOM      7  C   UNL     1      22.690   4.454  13.418  1.00  0.00     0.000 C 
BRANCH   7   8
ATOM      8  C   UNL     1      23.710   5.170  12.520  1.00  0.00    -0.000 C 
BRANCH   8   9
ATOM      9  C   UNL     1      25.108   5.145  13.150  1.00  0.00    -0.003 C 
ATOM     10  C   UNL     1      25.510   6.528  13.654  1.00  0.00     0.004 C 
ENDBRANCH   8   9
ENDBRANCH   7   8
ENDBRANCH   1   7
TORSDOF 6
ENDMDL
MODEL 2
REMARK VINA RESULT:    -3.518      0.795      1.605
REMARK INTER + INTRA:          -5.040
REMARK INTER:                  -4.755
REMARK INTRA:                  -0.285
REMARK UNBOUND:                -0.288
REMARK SMILES CCCCCCCC(=O)[O-]
REMARK SMILES IDX 5 1 6 2 7 3 8 4 9 5 10 6 4 7 3 8 2 9 1 10
REMARK H PARENT
REMARK Flexibility Score: inf
ROOT
ATOM      1  C   UNL     1      22.866   3.975  12.909  1.00  0.00     0.000 C 
ENDROOT
BRANCH   1   2
ATOM      2  C   UNL     1      23.494   3.126  14.024  1.00  0.00     0.006 C 
BRANCH   2   3
ATOM      3  C   UNL     1      22.807   1.760  14.124  1.00  0.00     0.053 C 
BRANCH   3   4
ATOM      4  C   UNL     1      23.566   0.858  15.047  1.00  0.00     0.041 C 
ATOM      5  O   UNL     1      24.259   1.343  15.980  1.00  0.00    -0.550 OA
ATOM      6  O   UNL     1      23.468  -0.521  14.907  1.00  0.00    -0.550 OA
ENDBRANCH   3   4
ENDBRANCH   2   3
ENDBRANCH   1   2
BRANCH   1   7
ATOM      7  C   UNL     1      23.792   5.105  12.433  1.00  0.00     0.000 C 
BRANCH   7   8
ATOM      8  C   UNL     1      25.097   5.182  13.239  1.00  0.00    -0.000 C 
BRANCH   8   9
ATOM      9  C   UNL     1      25.416   6.629  13.631  1.00  0.00    -0.003 C 
ATOM     10  C   UNL     1      25.146   6.872  15.113  1.00  0.00     0.004 C 
ENDBRANCH   8   9
ENDBRANCH   7   8
ENDBRANCH   1   7
TORSDOF 6
ENDMDL
MODEL 3
REMARK VINA RESULT:    -3.418      1.660      2.385
REMARK INTER + INTRA:          -4.905
REMARK INTER:                  -4.614
REMARK INTRA:                  -0.290
REMARK UNBOUND:                -0.288
REMARK SMILES CCCCCCCC(=O)[O-]
REMARK SMILES IDX 5 1 6 2 7 3 8 4 9 5 10 6 4 7 3 8 2 9 1 10
REMARK H PARENT
REMARK Flexibility Score: inf
ROOT
ATOM      1  C   UNL     1      23.511   3.140  14.208  1.00  0.00     0.000 C 
ENDROOT
BRANCH   1   2
ATOM      2  C   UNL     1      23.032   1.682  14.266  1.00  0.00     0.006 C 
BRANCH   2   3
ATOM      3  C   UNL     1      21.923   1.430  13.239  1.00  0.00     0.053 C 
BRANCH   3   4
ATOM      4  C   UNL     1      21.444   0.014  13.322  1.00  0.00     0.041 C 
ATOM      5  O   UNL     1      21.726  -0.693  14.324  1.00  0.00    -0.550 OA
ATOM      6  O   UNL     1      20.643  -0.508  12.314  1.00  0.00    -0.550 OA
ENDBRANCH   3   4
ENDBRANCH   2   3
ENDBRANCH   1   2
BRANCH   1   7
ATOM      7  C   UNL     1      22.810   3.951  13.107  1.00  0.00     0.000 C 
BRANCH   7   8
ATOM      8  C   UNL     1      23.755   4.935  12.403  1.00  0.00    -0.000 C 
BRANCH   8   9
ATOM      9  C   UNL     1      25.070   5.084  13.177  1.00  0.00    -0.003 C 
ATOM     10  C   UNL     1      25.349   6.545  13.516  1.00  0.00     0.004 C 
ENDBRANCH   8   9
ENDBRANCH   7   8
ENDBRANCH   1   7
TORSDOF 6
ENDMDL
MODEL 4
REMARK VINA RESULT:    -3.336      9.834     11.181
REMARK INTER + INTRA:          -4.795
REMARK INTER:                  -4.228
REMARK INTRA:                  -0.567
REMARK UNBOUND:                -0.288
REMARK SMILES CCCCCCCC(=O)[O-]
REMARK SMILES IDX 5 1 6 2 7 3 8 4 9 5 10 6 4 7 3 8 2 9 1 10
REMARK H PARENT
REMARK Flexibility Score: inf
ROOT
ATOM      1  C   UNL     1      15.326   1.588  10.618  1.00  0.00     0.000 C 
ENDROOT
BRANCH   1   2
ATOM      2  C   UNL     1      13.951   1.889  10.004  1.00  0.00     0.006 C 
BRANCH   2   3
ATOM      3  C   UNL     1      13.913   1.489   8.525  1.00  0.00     0.053 C 
BRANCH   3   4
ATOM      4  C   UNL     1      12.853   0.460   8.287  1.00  0.00     0.041 C 
ATOM      5  O   UNL     1      11.688   0.813   7.964  1.00  0.00    -0.550 OA
ATOM      6  O   UNL     1      13.165  -0.891   8.373  1.00  0.00    -0.550 OA
ENDBRANCH   3   4
ENDBRANCH   2   3
ENDBRANCH   1   2
BRANCH   1   7
ATOM      7  C   UNL     1      15.581   0.083  10.789  1.00  0.00     0.000 C 
BRANCH   7   8
ATOM      8  C   UNL     1      16.909  -0.369  10.163  1.00  0.00    -0.000 C 
BRANCH   8   9
ATOM      9  C   UNL     1      16.675  -1.042   8.806  1.00  0.00    -0.003 C 
ATOM     10  C   UNL     1      17.151  -0.154   7.660  1.00  0.00     0.004 C 
ENDBRANCH   8   9
ENDBRANCH   7   8
ENDBRANCH   1   7
TORSDOF 6
ENDMDL
MODEL 5
REMARK VINA RESULT:    -3.322      2.879      4.552
REMARK INTER + INTRA:          -4.776
REMARK INTER:                  -4.295
REMARK INTRA:                  -0.481
REMARK UNBOUND:                -0.288
REMARK SMILES CCCCCCCC(=O)[O-]
REMARK SMILES IDX 5 1 6 2 7 3 8 4 9 5 10 6 4 7 3 8 2 9 1 10
REMARK H PARENT
REMARK Flexibility Score: inf
ROOT
ATOM      1  C   UNL     1      22.483   3.701  12.722  1.00  0.00     0.000 C 
ENDROOT
BRANCH   1   2
ATOM      2  C   UNL     1      23.209   5.045  12.559  1.00  0.00     0.006 C 
BRANCH   2   3
ATOM      3  C   UNL     1      24.695   4.911  12.909  1.00  0.00     0.053 C 
BRANCH   3   4
ATOM      4  C   UNL     1      25.109   5.989  13.860  1.00  0.00     0.041 C 
ATOM      5  O   UNL     1      25.657   7.038  13.431  1.00  0.00    -0.550 OA
ATOM      6  O   UNL     1      24.845   5.857  15.218  1.00  0.00    -0.550 OA
ENDBRANCH   3   4
ENDBRANCH   2   3
ENDBRANCH   1   2
BRANCH   1   7
ATOM      7  C   UNL     1      22.534   3.172  14.163  1.00  0.00     0.000 C 
BRANCH   7   8
ATOM      8  C   UNL     1      22.493   1.638  14.234  1.00  0.00    -0.000 C 
BRANCH   8   9
ATOM      9  C   UNL     1      23.697   1.093  15.012  1.00  0.00    -0.003 C 
ATOM     10  C   UNL     1      24.596   2.223  15.502  1.00  0.00     0.004 C 
ENDBRANCH   8   9
ENDBRANCH   7   8
ENDBRANCH   1   7
TORSDOF 6
ENDMDL
MODEL 6
REMARK VINA RESULT:    -3.265      8.221      9.877
REMARK INTER + INTRA:          -4.699
REMARK INTER:                  -4.409
REMARK INTRA:                  -0.289
REMARK UNBOUND:                -0.288
REMARK SMILES CCCCCCCC(=O)[O-]
REMARK SMILES IDX 5 1 6 2 7 3 8 4 9 5 10 6 4 7 3 8 2 9 1 10
REMARK H PARENT
REMARK Flexibility Score: inf
ROOT
ATOM      1  C   UNL     1      16.836  -0.389   9.803  1.00  0.00     0.000 C 
ENDROOT
BRANCH   1   2
ATOM      2  C   UNL     1      15.666  -0.012  10.725  1.00  0.00     0.006 C 
BRANCH   2   3
ATOM      3  C   UNL     1      15.228   1.437  10.489  1.00  0.00     0.053 C 
BRANCH   3   4
ATOM      4  C   UNL     1      13.913   1.477   9.776  1.00  0.00     0.041 C 
ATOM      5  O   UNL     1      13.226   2.533   9.771  1.00  0.00    -0.550 OA
ATOM      6  O   UNL     1      13.468   0.363   9.075  1.00  0.00    -0.550 OA
ENDBRANCH   3   4
ENDBRANCH   2   3
ENDBRANCH   1   2
BRANCH   1   7
ATOM      7  C   UNL     1      17.894  -1.248  10.511  1.00  0.00     0.000 C 
BRANCH   7   8
ATOM      8  C   UNL     1      17.379  -1.868  11.818  1.00  0.00    -0.000 C 
BRANCH   8   9
ATOM      9  C   UNL     1      18.538  -2.191  12.767  1.00  0.00    -0.003 C 
ATOM     10  C   UNL     1      19.785  -1.389  12.408  1.00  0.00     0.004 C 
ENDBRANCH   8   9
ENDBRANCH   7   8
ENDBRANCH   1   7
TORSDOF 6
ENDMDL
MODEL 7
REMARK VINA RESULT:    -3.263      4.117      6.430
REMARK INTER + INTRA:          -4.695
REMARK INTER:                  -4.388
REMARK INTRA:                  -0.308
REMARK UNBOUND:                -0.288
REMARK SMILES CCCCCCCC(=O)[O-]
REMARK SMILES IDX 5 1 6 2 7 3 8 4 9 5 10 6 4 7 3 8 2 9 1 10
REMARK H PARENT
REMARK Flexibility Score: inf
ROOT
ATOM      1  C   UNL     1      21.178  -1.116  11.638  1.00  0.00     0.000 C 
ENDROOT
BRANCH   1   2
ATOM      2  C   UNL     1      21.193  -0.649  13.101  1.00  0.00     0.006 C 
BRANCH   2   3
ATOM      3  C   UNL     1      21.681   0.800  13.207  1.00  0.00     0.053 C 
BRANCH   3   4
ATOM      4  C   UNL     1      22.742   0.920  14.256  1.00  0.00     0.041 C 
ATOM      5  O   UNL     1      23.446   1.962  14.330  1.00  0.00    -0.550 OA
ATOM      6  O   UNL     1      22.921  -0.099  15.183  1.00  0.00    -0.550 OA
ENDBRANCH   3   4
ENDBRANCH   2   3
ENDBRANCH   1   2
BRANCH   1   7
ATOM      7  C   UNL     1      19.961  -1.995  11.310  1.00  0.00     0.000 C 
BRANCH   7   8
ATOM      8  C   UNL     1      18.841  -1.869  12.352  1.00  0.00    -0.000 C 
BRANCH   8   9
ATOM      9  C   UNL     1      17.479  -1.680  11.674  1.00  0.00    -0.003 C 
ATOM     10  C   UNL     1      17.635  -1.083  10.279  1.00  0.00     0.004 C 
ENDBRANCH   8   9
ENDBRANCH   7   8
ENDBRANCH   1   7
TORSDOF 6
ENDMDL
MODEL 8
REMARK VINA RESULT:    -3.251     10.123     11.437
REMARK INTER + INTRA:          -4.680
REMARK INTER:                  -4.342
REMARK INTRA:                  -0.338
REMARK UNBOUND:                -0.288
REMARK SMILES CCCCCCCC(=O)[O-]
REMARK SMILES IDX 5 1 6 2 7 3 8 4 9 5 10 6 4 7 3 8 2 9 1 10
REMARK H PARENT
REMARK Flexibility Score: inf
ROOT
ATOM      1  C   UNL     1      15.503   1.028  10.444  1.00  0.00     0.000 C 
ENDROOT
BRANCH   1   2
ATOM      2  C   UNL     1      14.206   1.252   9.653  1.00  0.00     0.006 C 
BRANCH   2   3
ATOM      3  C   UNL     1      13.775  -0.031   8.935  1.00  0.00     0.053 C 
BRANCH   3   4
ATOM      4  C   UNL     1      12.869   0.289   7.788  1.00  0.00     0.041 C 
ATOM      5  O   UNL     1      11.713   0.739   7.999  1.00  0.00    -0.550 OA
ATOM      6  O   UNL     1      13.321   0.136   6.483  1.00  0.00    -0.550 OA
ENDBRANCH   3   4
ENDBRANCH   2   3
ENDBRANCH   1   2
BRANCH   1   7
ATOM      7  C   UNL     1      16.443   0.018   9.767  1.00  0.00     0.000 C 
BRANCH   7   8
ATOM      8  C   UNL     1      17.018  -1.010  10.753  1.00  0.00    -0.000 C 
BRANCH   8   9
ATOM      9  C   UNL     1      15.907  -1.635  11.605  1.00  0.00    -0.003 C 
ATOM     10  C   UNL     1      16.468  -2.686  12.557  1.00  0.00     0.004 C 
ENDBRANCH   8   9
ENDBRANCH   7   8
ENDBRANCH   1   7
TORSDOF 6
ENDMDL
MODEL 9
REMARK VINA RESULT:    -3.238      5.760      7.660
REMARK INTER + INTRA:          -4.662
REMARK INTER:                  -4.354
REMARK INTRA:                  -0.308
REMARK UNBOUND:                -0.288
REMARK SMILES CCCCCCCC(=O)[O-]
REMARK SMILES IDX 5 1 6 2 7 3 8 4 9 5 10 6 4 7 3 8 2 9 1 10
REMARK H PARENT
REMARK Flexibility Score: inf
ROOT
ATOM      1  C   UNL     1      17.378  -1.701  11.668  1.00  0.00     0.000 C 
ENDROOT
BRANCH   1   2
ATOM      2  C   UNL     1      18.696  -1.913  12.428  1.00  0.00     0.006 C 
BRANCH   2   3
ATOM      3  C   UNL     1      19.888  -1.413  11.605  1.00  0.00     0.053 C 
BRANCH   3   4
ATOM      4  C   UNL     1      21.011  -1.003  12.506  1.00  0.00     0.041 C 
ATOM      5  O   UNL     1      21.246   0.217  12.712  1.00  0.00    -0.550 OA
ATOM      6  O   UNL     1      21.768  -1.970  13.156  1.00  0.00    -0.550 OA
ENDBRANCH   3   4
ENDBRANCH   2   3
ENDBRANCH   1   2
BRANCH   1   7
ATOM      7  C   UNL     1      17.594  -1.444  10.169  1.00  0.00     0.000 C 
BRANCH   7   8
ATOM      8  C   UNL     1      16.748  -0.276   9.640  1.00  0.00    -0.000 C 
BRANCH   8   9
ATOM      9  C   UNL     1      15.594   0.044  10.598  1.00  0.00    -0.003 C 
ATOM     10  C   UNL     1      15.294   1.539  10.620  1.00  0.00     0.004 C 
ENDBRANCH   8   9
ENDBRANCH   7   8
ENDBRANCH   1   7
TORSDOF 6
ENDMDL
