MODEL 1
REMARK VINA RESULT:    -4.711      0.000      0.000
REMARK INTER + INTRA:          -3.060
REMARK INTER:                  -5.812
REMARK INTRA:                   2.753
REMARK UNBOUND:                 2.753
REMARK SMILES C=C1CC[C@H]2[C@H]([C@@H]3[C@@H](C)CC[C@@H]13)C2(C)C
REMARK SMILES IDX 3 1 2 2 1 3 12 4 9 5 8 6 10 7 7 8 11 9 4 11 5 12 6 13 13 14
REMARK SMILES IDX 14 16 15 17
REMARK H PARENT
REMARK Flexibility Score: 80.00
ROOT
ATOM      1  C   UNL     1       0.805  13.776   6.561  1.00  0.00     0.031 C 
ENDROOT
BRANCH   1   2
ATOM      2  C   UNL     1      -0.315  13.418   5.578  1.00  0.00    -0.074 C 
ATOM      3  C   UNL     1      -1.017  12.288   5.769  1.00  0.00     0.008 C 
BRANCH   2   4
ATOM      4  C   UNL     1      -0.390  14.217   4.276  1.00  0.00     0.018 C 
ATOM      5  C   UNL     1       0.515  13.799   0.653  1.00  0.00     0.008 C 
ATOM      6  C   UNL     1       0.161  14.498   1.969  1.00  0.00    -0.010 C 
ATOM      7  C   UNL     1      -1.358  14.740   2.120  1.00  0.00     0.004 C 
ATOM      8  C   UNL     1       0.548  13.672   3.197  1.00  0.00     0.003 CG0
ATOM      9  C   UNL     1      -1.731  14.363   3.563  1.00  0.00     0.008 C 
ATOM     10  G   UNL     1       1.995  13.877   3.684  1.00  0.00     0.000 G0
ENDBRANCH   2   4
ENDBRANCH   1   2
BRANCH   1  11
ATOM     11  C   UNL     1       2.242  13.354   6.114  1.00  0.00     0.009 C 
BRANCH  11  12
ATOM     12  C   UNL     1       2.260  12.746   4.702  1.00  0.00    -0.001 C 
ATOM     13  C   UNL     1       1.997  13.886   3.676  1.00  0.00     0.002 CG0
ATOM     14  C   UNL     1       3.226  12.986   3.552  1.00  0.00    -0.029 C 
ATOM     15  G   UNL     1       0.552  13.666   3.189  1.00  0.00     0.000 G0
ATOM     16  C   UNL     1       4.582  13.600   3.919  1.00  0.00     0.011 C 
ATOM     17  C   UNL     1       3.216  11.937   2.435  1.00  0.00     0.011 C 
ENDBRANCH  11  12
ENDBRANCH   1  11
TORSDOF 0
ENDMDL
MODEL 2
REMARK VINA RESULT:    -4.645      1.348      3.638
REMARK INTER + INTRA:          -2.978
REMARK INTER:                  -5.691
REMARK INTRA:                   2.713
REMARK UNBOUND:                 2.753
REMARK SMILES C=C1CC[C@H]2[C@H]([C@@H]3[C@@H](C)CC[C@@H]13)C2(C)C
REMARK SMILES IDX 3 1 2 2 1 3 12 4 9 5 8 6 10 7 7 8 11 9 4 11 5 12 6 13 13 14
REMARK SMILES IDX 14 16 15 17
REMARK H PARENT
REMARK Flexibility Score: 80.00
ROOT
ATOM      1  C   UNL     1       2.611  12.778   2.905  1.00  0.00     0.031 C 
ENDROOT
BRANCH   1   2
ATOM      2  C   UNL     1       2.179  14.121   2.306  1.00  0.00    -0.074 C 
ATOM      3  C   UNL     1       2.954  15.202   2.495  1.00  0.00     0.008 C 
BRANCH   2   4
ATOM      4  C   UNL     1       0.752  14.223   1.765  1.00  0.00     0.018 C 
ATOM      5  C   UNL     1      -2.570  15.628   2.816  1.00  0.00     0.008 C 
ATOM      6  C   UNL     1      -1.555  14.765   2.061  1.00  0.00    -0.010 C 
ATOM      7  C   UNL     1      -1.086  15.421   0.743  1.00  0.00     0.004 C 
ATOM      8  C   UNL     1      -0.271  14.533   2.859  1.00  0.00     0.003 CG0
ATOM      9  C   UNL     1       0.438  15.233   0.666  1.00  0.00     0.008 C 
ATOM     10  G   UNL     1      -0.315  13.329   3.819  1.00  0.00     0.000 G0
ENDBRANCH   2   4
ENDBRANCH   1   2
BRANCH   1  11
ATOM     11  C   UNL     1       1.986  12.440   4.298  1.00  0.00     0.009 C 
BRANCH  11  12
ATOM     12  C   UNL     1       0.939  13.476   4.736  1.00  0.00    -0.001 C 
ATOM     13  C   UNL     1      -0.313  13.321   3.824  1.00  0.00     0.002 CG0
ATOM     14  C   UNL     1      -0.439  13.269   5.346  1.00  0.00    -0.029 C 
ATOM     15  G   UNL     1      -0.271  14.533   2.873  1.00  0.00     0.000 G0
ATOM     16  C   UNL     1      -0.703  11.897   5.978  1.00  0.00     0.011 C 
ATOM     17  C   UNL     1      -1.058  14.487   6.041  1.00  0.00     0.011 C 
ENDBRANCH  11  12
ENDBRANCH   1  11
TORSDOF 0
ENDMDL
MODEL 3
REMARK VINA RESULT:    -4.520      1.312      1.966
REMARK INTER + INTRA:          -2.824
REMARK INTER:                  -5.515
REMARK INTRA:                   2.691
REMARK UNBOUND:                 2.753
REMARK SMILES C=C1CC[C@H]2[C@H]([C@@H]3[C@@H](C)CC[C@@H]13)C2(C)C
REMARK SMILES IDX 3 1 2 2 1 3 12 4 9 5 8 6 10 7 7 8 11 9 4 11 5 12 6 13 13 14
REMARK SMILES IDX 14 16 15 17
REMARK H PARENT
REMARK Flexibility Score: 80.00
ROOT
ATOM      1  C   UNL     1       1.088  13.065   6.438  1.00  0.00     0.031 C 
ENDROOT
BRANCH   1   2
ATOM      2  C   UNL     1      -0.382  12.856   6.057  1.00  0.00    -0.074 C 
ATOM      3  C   UNL     1      -0.889  11.612   6.063  1.00  0.00     0.008 C 
BRANCH   2   4
ATOM      4  C   UNL     1      -1.118  14.036   5.420  1.00  0.00     0.018 C 
ATOM      5  C   UNL     1      -2.236  15.156   2.013  1.00  0.00     0.008 C 
ATOM      6  C   UNL     1      -1.847  15.241   3.492  1.00  0.00    -0.010 C 
ATOM      7  C   UNL     1      -3.062  15.085   4.432  1.00  0.00     0.004 C 
ATOM      8  C   UNL     1      -0.884  14.129   3.911  1.00  0.00     0.003 CG0
ATOM      9  C   UNL     1      -2.632  14.142   5.568  1.00  0.00     0.008 C 
ATOM     10  G   UNL     1       0.607  14.445   3.684  1.00  0.00     0.000 G0
ENDBRANCH   2   4
ENDBRANCH   1   2
BRANCH   1  11
ATOM     11  C   UNL     1       2.085  13.122   5.235  1.00  0.00     0.009 C 
BRANCH  11  12
ATOM     12  C   UNL     1       1.364  13.094   3.877  1.00  0.00    -0.001 C 
ATOM     13  C   UNL     1       0.619  14.447   3.692  1.00  0.00     0.002 CG0
ATOM     14  C   UNL     1       1.598  13.939   2.634  1.00  0.00    -0.029 C 
ATOM     15  G   UNL     1      -0.872  14.119   3.904  1.00  0.00     0.000 G0
ATOM     16  C   UNL     1       2.954  14.648   2.539  1.00  0.00     0.011 C 
ATOM     17  C   UNL     1       1.003  13.396   1.330  1.00  0.00     0.011 C 
ENDBRANCH  11  12
ENDBRANCH   1  11
TORSDOF 0
ENDMDL
MODEL 4
REMARK VINA RESULT:    -4.489      2.110      4.318
REMARK INTER + INTRA:          -2.787
REMARK INTER:                  -5.461
REMARK INTRA:                   2.675
REMARK UNBOUND:                 2.753
REMARK SMILES C=C1CC[C@H]2[C@H]([C@@H]3[C@@H](C)CC[C@@H]13)C2(C)C
REMARK SMILES IDX 3 1 2 2 1 3 12 4 9 5 8 6 10 7 7 8 11 9 4 11 5 12 6 13 13 14
REMARK SMILES IDX 14 16 15 17
REMARK H PARENT
REMARK Flexibility Score: 80.00
ROOT
ATOM      1  C   UNL     1      -0.364  14.084   0.960  1.00  0.00     0.031 C 
ENDROOT
BRANCH   1   2
ATOM      2  C   UNL     1       0.004  13.941   2.441  1.00  0.00    -0.074 C 
ATOM      3  C   UNL     1      -0.761  14.545   3.366  1.00  0.00     0.008 C 
BRANCH   2   4
ATOM      4  C   UNL     1       1.378  13.355   2.772  1.00  0.00     0.018 C 
ATOM      5  C   UNL     1       4.756  14.548   3.903  1.00  0.00     0.008 C 
ATOM      6  C   UNL     1       3.693  13.634   3.286  1.00  0.00    -0.010 C 
ATOM      7  C   UNL     1       3.103  12.640   4.310  1.00  0.00     0.004 C 
ATOM      8  C   UNL     1       2.486  14.409   2.756  1.00  0.00     0.003 CG0
ATOM      9  C   UNL     1       1.581  12.622   4.094  1.00  0.00     0.008 C 
ATOM     10  G   UNL     1       2.630  14.921   1.310  1.00  0.00     0.000 G0
ENDBRANCH   2   4
ENDBRANCH   1   2
BRANCH   1  11
ATOM     11  C   UNL     1       0.395  15.216   0.193  1.00  0.00     0.009 C 
BRANCH  11  12
ATOM     12  C   UNL     1       1.456  15.904   1.066  1.00  0.00    -0.001 C 
ATOM     13  C   UNL     1       2.627  14.904   1.292  1.00  0.00     0.002 CG0
ATOM     14  C   UNL     1       2.885  16.302   0.729  1.00  0.00    -0.029 C 
ATOM     15  G   UNL     1       2.480  14.433   2.751  1.00  0.00     0.000 G0
ATOM     16  C   UNL     1       3.230  16.402  -0.761  1.00  0.00     0.011 C 
ATOM     17  C   UNL     1       3.538  17.325   1.666  1.00  0.00     0.011 C 
ENDBRANCH  11  12
ENDBRANCH   1  11
TORSDOF 0
ENDMDL
MODEL 5
REMARK VINA RESULT:    -4.320      2.300      4.651
REMARK INTER + INTRA:          -2.577
REMARK INTER:                  -5.266
REMARK INTRA:                   2.689
REMARK UNBOUND:                 2.753
REMARK SMILES C=C1CC[C@H]2[C@H]([C@@H]3[C@@H](C)CC[C@@H]13)C2(C)C
REMARK SMILES IDX 3 1 2 2 1 3 12 4 9 5 8 6 10 7 7 8 11 9 4 11 5 12 6 13 13 14
REMARK SMILES IDX 14 16 15 17
REMARK H PARENT
REMARK Flexibility Score: 80.00
ROOT
ATOM      1  C   UNL     1       0.061  15.039   0.544  1.00  0.00     0.031 C 
ENDROOT
BRANCH   1   2
ATOM      2  C   UNL     1       1.473  15.431   0.093  1.00  0.00    -0.074 C 
ATOM      3  C   UNL     1       1.976  14.888  -1.029  1.00  0.00     0.008 C 
BRANCH   2   4
ATOM      4  C   UNL     1       2.342  16.200   1.090  1.00  0.00     0.018 C 
ATOM      5  C   UNL     1       5.192  15.538   3.446  1.00  0.00     0.008 C 
ATOM      6  C   UNL     1       3.983  16.243   2.824  1.00  0.00    -0.010 C 
ATOM      7  C   UNL     1       4.391  17.294   1.768  1.00  0.00     0.004 C 
ATOM      8  C   UNL     1       3.060  15.279   2.077  1.00  0.00     0.003 CG0
ATOM      9  C   UNL     1       3.443  17.118   0.570  1.00  0.00     0.008 C 
ATOM     10  G   UNL     1       1.989  14.599   2.953  1.00  0.00     0.000 G0
ENDBRANCH   2   4
ENDBRANCH   1   2
BRANCH   1  11
ATOM     11  C   UNL     1      -0.003  13.894   1.607  1.00  0.00     0.009 C 
BRANCH  11  12
ATOM     12  C   UNL     1       1.392  13.458   2.082  1.00  0.00    -0.001 C 
ATOM     13  C   UNL     1       1.984  14.594   2.966  1.00  0.00     0.002 CG0
ATOM     14  C   UNL     1       1.892  13.160   3.487  1.00  0.00    -0.029 C 
ATOM     15  G   UNL     1       3.061  15.265   2.092  1.00  0.00     0.000 G0
ATOM     16  C   UNL     1       0.819  12.869   4.543  1.00  0.00     0.011 C 
ATOM     17  C   UNL     1       3.198  12.363   3.582  1.00  0.00     0.011 C 
ENDBRANCH  11  12
ENDBRANCH   1  11
TORSDOF 0
ENDMDL
MODEL 6
REMARK VINA RESULT:    -4.144      1.656      3.030
REMARK INTER + INTRA:          -2.361
REMARK INTER:                  -5.061
REMARK INTRA:                   2.700
REMARK UNBOUND:                 2.753
REMARK SMILES C=C1CC[C@H]2[C@H]([C@@H]3[C@@H](C)CC[C@@H]13)C2(C)C
REMARK SMILES IDX 3 1 2 2 1 3 12 4 9 5 8 6 10 7 7 8 11 9 4 11 5 12 6 13 13 14
REMARK SMILES IDX 14 16 15 17
REMARK H PARENT
REMARK Flexibility Score: 80.00
ROOT
ATOM      1  C   UNL     1       4.012  14.027   4.397  1.00  0.00     0.031 C 
ENDROOT
BRANCH   1   2
ATOM      2  C   UNL     1       2.799  13.090   4.401  1.00  0.00    -0.074 C 
ATOM      3  C   UNL     1       2.984  11.780   4.166  1.00  0.00     0.008 C 
BRANCH   2   4
ATOM      4  C   UNL     1       1.412  13.735   4.393  1.00  0.00     0.018 C 
ATOM      5  C   UNL     1      -1.358  14.438   1.954  1.00  0.00     0.008 C 
ATOM      6  C   UNL     1      -0.498  14.552   3.217  1.00  0.00    -0.010 C 
ATOM      7  C   UNL     1      -1.006  13.647   4.361  1.00  0.00     0.004 C 
ATOM      8  C   UNL     1       0.948  14.114   2.985  1.00  0.00     0.003 CG0
ATOM      9  C   UNL     1       0.229  12.973   4.981  1.00  0.00     0.008 C 
ATOM     10  G   UNL     1       1.884  15.221   2.463  1.00  0.00     0.000 G0
ENDBRANCH   2   4
ENDBRANCH   1   2
BRANCH   1  11
ATOM     11  C   UNL     1       4.302  14.733   3.032  1.00  0.00     0.009 C 
BRANCH  11  12
ATOM     12  C   UNL     1       3.195  14.481   1.997  1.00  0.00    -0.001 C 
ATOM     13  C   UNL     1       1.907  15.216   2.471  1.00  0.00     0.002 CG0
ATOM     14  C   UNL     1       2.483  15.461   1.076  1.00  0.00    -0.029 C 
ATOM     15  G   UNL     1       0.970  14.103   2.976  1.00  0.00     0.000 G0
ATOM     16  C   UNL     1       3.186  16.802   0.836  1.00  0.00     0.011 C 
ATOM     17  C   UNL     1       1.733  14.846  -0.110  1.00  0.00     0.011 C 
ENDBRANCH  11  12
ENDBRANCH   1  11
TORSDOF 0
ENDMDL
MODEL 7
REMARK VINA RESULT:    -4.053      1.021      3.374
REMARK INTER + INTRA:          -2.248
REMARK INTER:                  -4.916
REMARK INTRA:                   2.669
REMARK UNBOUND:                 2.753
REMARK SMILES C=C1CC[C@H]2[C@H]([C@@H]3[C@@H](C)CC[C@@H]13)C2(C)C
REMARK SMILES IDX 3 1 2 2 1 3 12 4 9 5 8 6 10 7 7 8 11 9 4 11 5 12 6 13 13 14
REMARK SMILES IDX 14 16 15 17
REMARK H PARENT
REMARK Flexibility Score: 80.00
ROOT
ATOM      1  C   UNL     1       0.379  13.648   0.655  1.00  0.00     0.031 C 
ENDROOT
BRANCH   1   2
ATOM      2  C   UNL     1      -0.292  14.618   1.634  1.00  0.00    -0.074 C 
ATOM      3  C   UNL     1      -0.242  15.938   1.386  1.00  0.00     0.008 C 
BRANCH   2   4
ATOM      4  C   UNL     1      -0.740  14.057   2.985  1.00  0.00     0.018 C 
ATOM      5  C   UNL     1       0.418  14.046   6.559  1.00  0.00     0.008 C 
ATOM      6  C   UNL     1      -0.331  13.613   5.295  1.00  0.00    -0.010 C 
ATOM      7  C   UNL     1      -1.728  14.263   5.184  1.00  0.00     0.004 C 
ATOM      8  C   UNL     1       0.393  14.023   4.013  1.00  0.00     0.003 CG0
ATOM      9  C   UNL     1      -1.894  14.723   3.727  1.00  0.00     0.008 C 
ATOM     10  G   UNL     1       1.450  13.018   3.516  1.00  0.00     0.000 G0
ENDBRANCH   2   4
ENDBRANCH   1   2
BRANCH   1  11
ATOM     11  C   UNL     1       1.822  13.195   1.053  1.00  0.00     0.009 C 
BRANCH  11  12
ATOM     12  C   UNL     1       2.256  13.755   2.417  1.00  0.00    -0.001 C 
ATOM     13  C   UNL     1       1.467  13.003   3.528  1.00  0.00     0.002 CG0
ATOM     14  C   UNL     1       2.993  13.073   3.559  1.00  0.00    -0.029 C 
ATOM     15  G   UNL     1       0.416  14.012   4.030  1.00  0.00     0.000 G0
ATOM     16  C   UNL     1       3.758  11.793   3.206  1.00  0.00     0.011 C 
ATOM     17  C   UNL     1       3.631  14.002   4.598  1.00  0.00     0.011 C 
ENDBRANCH  11  12
ENDBRANCH   1  11
TORSDOF 0
ENDMDL
MODEL 8
REMARK VINA RESULT:    -3.480      1.617      4.058
REMARK INTER + INTRA:          -1.541
REMARK INTER:                  -4.262
REMARK INTRA:                   2.720
REMARK UNBOUND:                 2.753
REMARK SMILES C=C1CC[C@H]2[C@H]([C@@H]3[C@@H](C)CC[C@@H]13)C2(C)C
REMARK SMILES IDX 3 1 2 2 1 3 12 4 9 5 8 6 10 7 7 8 11 9 4 11 5 12 6 13 13 14
REMARK SMILES IDX 14 16 15 17
REMARK H PARENT
REMARK Flexibility Score: 80.00
ROOT
ATOM      1  C   UNL     1       0.804  12.352   6.031  1.00  0.00     0.031 C 
ENDROOT
BRANCH   1   2
ATOM      2  C   UNL     1       1.340  13.288   4.941  1.00  0.00    -0.074 C 
ATOM      3  C   UNL     1       2.301  14.174   5.254  1.00  0.00     0.008 C 
BRANCH   2   4
ATOM      4  C   UNL     1       0.559  13.358   3.628  1.00  0.00     0.018 C 
ATOM      5  C   UNL     1      -1.909  15.625   1.930  1.00  0.00     0.008 C 
ATOM      6  C   UNL     1      -1.122  14.351   2.254  1.00  0.00    -0.010 C 
ATOM      7  C   UNL     1       0.159  14.216   1.401  1.00  0.00     0.004 C 
ATOM      8  C   UNL     1      -0.632  14.315   3.702  1.00  0.00     0.003 CG0
ATOM      9  C   UNL     1       1.283  13.763   2.348  1.00  0.00     0.008 C 
ATOM     10  G   UNL     1      -1.640  13.736   4.712  1.00  0.00     0.000 G0
ENDBRANCH   2   4
ENDBRANCH   1   2
BRANCH   1  11
ATOM     11  C   UNL     1      -0.474  12.862   6.774  1.00  0.00     0.009 C 
BRANCH  11  12
ATOM     12  C   UNL     1      -1.064  14.124   6.125  1.00  0.00    -0.001 C 
ATOM     13  C   UNL     1      -1.642  13.734   4.734  1.00  0.00     0.002 CG0
ATOM     14  C   UNL     1      -2.506  14.452   5.770  1.00  0.00    -0.029 C 
ATOM     15  G   UNL     1      -0.644  14.302   3.707  1.00  0.00     0.000 G0
ATOM     16  C   UNL     1      -3.586  13.623   6.475  1.00  0.00     0.011 C 
ATOM     17  C   UNL     1      -2.817  15.932   5.518  1.00  0.00     0.011 C 
ENDBRANCH  11  12
ENDBRANCH   1  11
TORSDOF 0
ENDMDL
MODEL 9
REMARK VINA RESULT:    -3.401      2.688      5.180
REMARK INTER + INTRA:          -1.443
REMARK INTER:                  -4.129
REMARK INTRA:                   2.686
REMARK UNBOUND:                 2.753
REMARK SMILES C=C1CC[C@H]2[C@H]([C@@H]3[C@@H](C)CC[C@@H]13)C2(C)C
REMARK SMILES IDX 3 1 2 2 1 3 12 4 9 5 8 6 10 7 7 8 11 9 4 11 5 12 6 13 13 14
REMARK SMILES IDX 14 16 15 17
REMARK H PARENT
REMARK Flexibility Score: 80.00
ROOT
ATOM      1  C   UNL     1       1.584  13.352   1.693  1.00  0.00     0.031 C 
ENDROOT
BRANCH   1   2
ATOM      2  C   UNL     1       1.305  13.560   0.200  1.00  0.00    -0.074 C 
ATOM      3  C   UNL     1       2.095  14.389  -0.504  1.00  0.00     0.008 C 
BRANCH   2   4
ATOM      4  C   UNL     1      -0.024  13.036  -0.347  1.00  0.00     0.018 C 
ATOM      5  C   UNL     1      -3.386  14.376  -1.353  1.00  0.00     0.008 C 
ATOM      6  C   UNL     1      -2.319  13.368  -0.917  1.00  0.00    -0.010 C 
ATOM      7  C   UNL     1      -1.635  12.675  -2.116  1.00  0.00     0.004 C 
ATOM      8  C   UNL     1      -1.175  14.022  -0.141  1.00  0.00     0.003 CG0
ATOM      9  C   UNL     1      -0.127  12.648  -1.818  1.00  0.00     0.008 C 
ATOM     10  G   UNL     1      -1.415  14.155   1.376  1.00  0.00     0.000 G0
ENDBRANCH   2   4
ENDBRANCH   1   2
BRANCH   1  11
ATOM     11  C   UNL     1       0.730  14.236   2.659  1.00  0.00     0.009 C 
BRANCH  11  12
ATOM     12  C   UNL     1      -0.303  15.092   1.908  1.00  0.00    -0.001 C 
ATOM     13  C   UNL     1      -1.427  14.152   1.383  1.00  0.00     0.002 CG0
ATOM     14  C   UNL     1      -1.761  15.372   2.242  1.00  0.00    -0.029 C 
ATOM     15  G   UNL     1      -1.185  14.042  -0.134  1.00  0.00     0.000 G0
ATOM     16  C   UNL     1      -2.189  15.110   3.690  1.00  0.00     0.011 C 
ATOM     17  C   UNL     1      -2.394  16.575   1.534  1.00  0.00     0.011 C 
ENDBRANCH  11  12
ENDBRANCH   1  11
TORSDOF 0
ENDMDL
