MODEL 1
REMARK VINA RESULT:    -3.687      0.000      0.000
REMARK INTER + INTRA:          -4.943
REMARK INTER:                  -5.195
REMARK INTRA:                   0.252
REMARK UNBOUND:                 0.252
REMARK SMILES CC1=CCC(=C(C)C)C(=O)CC(C)=CCC1
REMARK SMILES IDX 12 1 14 2 13 3 15 4 16 5 2 6 1 7 3 8 11 10 9 11 10 12 5 13
REMARK SMILES IDX 6 14 7 15 8 16 4 17
REMARK H PARENT
REMARK Flexibility Score: 60.00
ROOT
ATOM      1  C   UNL     1      86.108  37.520  29.056  1.00  0.00    -0.070 C 
ATOM      2  C   UNL     1      85.475  38.522  29.705  1.00  0.00    -0.027 C 
ATOM      3  C   UNL     1      87.352  37.860  28.275  1.00  0.00     0.039 C 
ENDROOT
BRANCH   2   4
ATOM      4  C   UNL     1      84.276  38.365  30.614  1.00  0.00     0.032 C 
BRANCH   4   5
ATOM      5  C   UNL     1      83.131  37.508  30.036  1.00  0.00     0.034 C 
BRANCH   5   6
ATOM      6  C   UNL     1      82.532  38.090  28.767  1.00  0.00    -0.077 C 
ATOM      7  C   UNL     1      81.962  39.485  28.837  1.00  0.00     0.039 C 
ATOM      8  C   UNL     1      82.538  37.466  27.564  1.00  0.00    -0.023 CG0
ATOM      9  G   UNL     1      83.035  36.067  27.261  1.00  0.00     0.000 G0
ENDBRANCH   5   6
ENDBRANCH   4   5
ENDBRANCH   2   4
BRANCH   1  10
ATOM     10  C   UNL     1      85.683  36.068  29.150  1.00  0.00     0.111 C 
BRANCH  10  11
ATOM     11  C   UNL     1      85.466  35.463  27.789  1.00  0.00     0.163 C 
ATOM     12  O   UNL     1      86.098  34.412  27.498  1.00  0.00    -0.294 OA
BRANCH  11  13
ATOM     13  C   UNL     1      84.490  36.026  26.808  1.00  0.00    -0.002 C 
ATOM     14  C   UNL     1      84.894  36.397  25.556  1.00  0.00    -0.069 C 
ATOM     15  C   UNL     1      86.359  36.402  25.172  1.00  0.00     0.039 C 
ATOM     16  C   UNL     1      83.908  36.821  24.489  1.00  0.00     0.039 C 
BRANCH  13  17
ATOM     17  C   UNL     1      83.030  36.075  27.229  1.00  0.00     0.066 CG0
ATOM     18  G   UNL     1      82.572  37.482  27.553  1.00  0.00     0.000 G0
ENDBRANCH  13  17
ENDBRANCH  11  13
ENDBRANCH  10  11
ENDBRANCH   1  10
TORSDOF 0
ENDMDL
MODEL 2
REMARK VINA RESULT:    -3.372      7.070      9.104
REMARK INTER + INTRA:          -4.499
REMARK INTER:                  -4.624
REMARK INTRA:                   0.125
REMARK UNBOUND:                 0.252
REMARK SMILES CC1=CCC(=C(C)C)C(=O)CC(C)=CCC1
REMARK SMILES IDX 12 1 14 2 13 3 15 4 16 5 2 6 1 7 3 8 11 10 9 11 10 12 5 13
REMARK SMILES IDX 6 14 7 15 8 16 4 17
REMARK H PARENT
REMARK Flexibility Score: 60.00
ROOT
ATOM      1  C   UNL     1      81.173  41.541  25.075  1.00  0.00    -0.070 C 
ATOM      2  C   UNL     1      81.372  41.426  26.407  1.00  0.00    -0.027 C 
ATOM      3  C   UNL     1      80.839  40.291  24.301  1.00  0.00     0.039 C 
ENDROOT
BRANCH   2   4
ATOM      4  C   UNL     1      81.620  42.571  27.364  1.00  0.00     0.032 C 
BRANCH   4   5
ATOM      5  C   UNL     1      80.346  43.271  27.883  1.00  0.00     0.034 C 
BRANCH   5   6
ATOM      6  C   UNL     1      80.450  44.786  27.867  1.00  0.00    -0.077 C 
ATOM      7  C   UNL     1      81.378  45.435  28.862  1.00  0.00     0.039 C 
ATOM      8  C   UNL     1      79.816  45.585  26.974  1.00  0.00    -0.023 CG0
ATOM      9  G   UNL     1      78.829  45.160  25.905  1.00  0.00     0.000 G0
ENDBRANCH   5   6
ENDBRANCH   4   5
ENDBRANCH   2   4
BRANCH   1  10
ATOM     10  C   UNL     1      81.180  42.869  24.344  1.00  0.00     0.111 C 
BRANCH  10  11
ATOM     11  C   UNL     1      79.796  43.452  24.238  1.00  0.00     0.163 C 
ATOM     12  O   UNL     1      78.850  42.682  23.920  1.00  0.00    -0.294 OA
BRANCH  11  13
ATOM     13  C   UNL     1      79.502  44.882  24.555  1.00  0.00    -0.002 C 
ATOM     14  C   UNL     1      79.765  45.867  23.646  1.00  0.00    -0.069 C 
ATOM     15  C   UNL     1      80.503  45.571  22.357  1.00  0.00     0.039 C 
ATOM     16  C   UNL     1      79.336  47.300  23.871  1.00  0.00     0.039 C 
BRANCH  13  17
ATOM     17  C   UNL     1      78.818  45.173  25.881  1.00  0.00     0.066 CG0
ATOM     18  G   UNL     1      79.804  45.554  26.967  1.00  0.00     0.000 G0
ENDBRANCH  13  17
ENDBRANCH  11  13
ENDBRANCH  10  11
ENDBRANCH   1  10
TORSDOF 0
ENDMDL
MODEL 3
REMARK VINA RESULT:    -3.203      2.886      4.857
REMARK INTER + INTRA:          -4.261
REMARK INTER:                  -4.718
REMARK INTRA:                   0.457
REMARK UNBOUND:                 0.252
REMARK SMILES CC1=CCC(=C(C)C)C(=O)CC(C)=CCC1
REMARK SMILES IDX 12 1 14 2 13 3 15 4 16 5 2 6 1 7 3 8 11 10 9 11 10 12 5 13
REMARK SMILES IDX 6 14 7 15 8 16 4 17
REMARK H PARENT
REMARK Flexibility Score: 60.00
ROOT
ATOM      1  C   UNL     1      85.709  36.043  28.393  1.00  0.00    -0.070 C 
ATOM      2  C   UNL     1      85.709  34.833  28.995  1.00  0.00    -0.027 C 
ATOM      3  C   UNL     1      85.076  37.197  29.127  1.00  0.00     0.039 C 
ENDROOT
BRANCH   2   4
ATOM      4  C   UNL     1      86.376  33.583  28.465  1.00  0.00     0.032 C 
BRANCH   4   5
ATOM      5  C   UNL     1      85.483  32.703  27.566  1.00  0.00     0.034 C 
BRANCH   5   6
ATOM      6  C   UNL     1      86.219  32.142  26.360  1.00  0.00    -0.077 C 
ATOM      7  C   UNL     1      87.131  30.963  26.583  1.00  0.00     0.039 C 
ATOM      8  C   UNL     1      86.056  32.589  25.091  1.00  0.00    -0.023 CG0
ATOM      9  G   UNL     1      85.213  33.764  24.636  1.00  0.00     0.000 G0
ENDBRANCH   5   6
ENDBRANCH   4   5
ENDBRANCH   2   4
BRANCH   1  10
ATOM     10  C   UNL     1      86.390  36.311  27.065  1.00  0.00     0.111 C 
BRANCH  10  11
ATOM     11  C   UNL     1      85.489  35.987  25.903  1.00  0.00     0.163 C 
ATOM     12  O   UNL     1      84.356  36.537  25.858  1.00  0.00    -0.294 OA
BRANCH  11  13
ATOM     13  C   UNL     1      85.916  35.096  24.783  1.00  0.00    -0.002 C 
ATOM     14  C   UNL     1      86.966  35.439  23.979  1.00  0.00    -0.069 C 
ATOM     15  C   UNL     1      87.631  36.794  24.090  1.00  0.00     0.039 C 
ATOM     16  C   UNL     1      87.523  34.489  22.940  1.00  0.00     0.039 C 
BRANCH  13  17
ATOM     17  C   UNL     1      85.198  33.763  24.643  1.00  0.00     0.066 CG0
ATOM     18  G   UNL     1      86.056  32.597  25.092  1.00  0.00     0.000 G0
ENDBRANCH  13  17
ENDBRANCH  11  13
ENDBRANCH  10  11
ENDBRANCH   1  10
TORSDOF 0
ENDMDL
MODEL 4
REMARK VINA RESULT:    -3.098      2.769      3.706
REMARK INTER + INTRA:          -4.113
REMARK INTER:                  -4.288
REMARK INTRA:                   0.174
REMARK UNBOUND:                 0.252
REMARK SMILES CC1=CCC(=C(C)C)C(=O)CC(C)=CCC1
REMARK SMILES IDX 12 1 14 2 13 3 15 4 16 5 2 6 1 7 3 8 11 10 9 11 10 12 5 13
REMARK SMILES IDX 6 14 7 15 8 16 4 17
REMARK H PARENT
REMARK Flexibility Score: 60.00
ROOT
ATOM      1  C   UNL     1      86.763  37.286  26.440  1.00  0.00    -0.070 C 
ATOM      2  C   UNL     1      86.870  37.174  27.782  1.00  0.00    -0.027 C 
ATOM      3  C   UNL     1      87.929  37.872  25.685  1.00  0.00     0.039 C 
ENDROOT
BRANCH   2   4
ATOM      4  C   UNL     1      85.854  36.528  28.698  1.00  0.00     0.032 C 
BRANCH   4   5
ATOM      5  C   UNL     1      86.052  35.014  28.922  1.00  0.00     0.034 C 
BRANCH   5   6
ATOM      6  C   UNL     1      84.793  34.203  28.667  1.00  0.00    -0.077 C 
ATOM      7  C   UNL     1      83.722  34.221  29.728  1.00  0.00     0.039 C 
ATOM      8  C   UNL     1      84.542  33.522  27.522  1.00  0.00    -0.023 CG0
ATOM      9  G   UNL     1      85.472  33.350  26.338  1.00  0.00     0.000 G0
ENDBRANCH   5   6
ENDBRANCH   4   5
ENDBRANCH   2   4
BRANCH   1  10
ATOM     10  C   UNL     1      85.573  36.770  25.654  1.00  0.00     0.111 C 
BRANCH  10  11
ATOM     11  C   UNL     1      85.890  35.476  24.953  1.00  0.00     0.163 C 
ATOM     12  O   UNL     1      86.906  35.437  24.207  1.00  0.00    -0.294 OA
BRANCH  11  13
ATOM     13  C   UNL     1      85.084  34.235  25.158  1.00  0.00    -0.002 C 
ATOM     14  C   UNL     1      84.104  33.884  24.272  1.00  0.00    -0.069 C 
ATOM     15  C   UNL     1      83.694  34.809  23.147  1.00  0.00     0.039 C 
ATOM     16  C   UNL     1      83.380  32.558  24.364  1.00  0.00     0.039 C 
BRANCH  13  17
ATOM     17  C   UNL     1      85.465  33.345  26.331  1.00  0.00     0.066 CG0
ATOM     18  G   UNL     1      84.542  33.530  27.518  1.00  0.00     0.000 G0
ENDBRANCH  13  17
ENDBRANCH  11  13
ENDBRANCH  10  11
ENDBRANCH   1  10
TORSDOF 0
ENDMDL
MODEL 5
REMARK VINA RESULT:    -3.065      2.885      5.462
REMARK INTER + INTRA:          -4.067
REMARK INTER:                  -4.202
REMARK INTRA:                   0.135
REMARK UNBOUND:                 0.252
REMARK SMILES CC1=CCC(=C(C)C)C(=O)CC(C)=CCC1
REMARK SMILES IDX 12 1 14 2 13 3 15 4 16 5 2 6 1 7 3 8 11 10 9 11 10 12 5 13
REMARK SMILES IDX 6 14 7 15 8 16 4 17
REMARK H PARENT
REMARK Flexibility Score: 60.00
ROOT
ATOM      1  C   UNL     1      83.373  37.027  25.625  1.00  0.00    -0.070 C 
ATOM      2  C   UNL     1      83.499  36.923  24.284  1.00  0.00    -0.027 C 
ATOM      3  C   UNL     1      82.057  37.514  26.176  1.00  0.00     0.039 C 
ENDROOT
BRANCH   2   4
ATOM      4  C   UNL     1      84.699  36.366  23.551  1.00  0.00     0.032 C 
BRANCH   4   5
ATOM      5  C   UNL     1      84.655  34.844  23.296  1.00  0.00     0.034 C 
BRANCH   5   6
ATOM      6  C   UNL     1      85.916  34.127  23.748  1.00  0.00    -0.077 C 
ATOM      7  C   UNL     1      87.137  34.236  22.870  1.00  0.00     0.039 C 
ATOM      8  C   UNL     1      86.034  33.456  24.920  1.00  0.00    -0.023 CG0
ATOM      9  G   UNL     1      84.945  33.202  25.942  1.00  0.00     0.000 G0
ENDBRANCH   5   6
ENDBRANCH   4   5
ENDBRANCH   2   4
BRANCH   1  10
ATOM     10  C   UNL     1      84.452  36.592  26.598  1.00  0.00     0.111 C 
BRANCH  10  11
ATOM     11  C   UNL     1      84.125  35.268  27.235  1.00  0.00     0.163 C 
ATOM     12  O   UNL     1      83.000  35.136  27.789  1.00  0.00    -0.294 OA
BRANCH  11  13
ATOM     13  C   UNL     1      85.054  34.100  27.177  1.00  0.00    -0.002 C 
ATOM     14  C   UNL     1      85.898  33.826  28.217  1.00  0.00    -0.069 C 
ATOM     15  C   UNL     1      86.036  34.776  29.387  1.00  0.00     0.039 C 
ATOM     16  C   UNL     1      86.735  32.567  28.259  1.00  0.00     0.039 C 
BRANCH  13  17
ATOM     17  C   UNL     1      84.950  33.187  25.965  1.00  0.00     0.066 CG0
ATOM     18  G   UNL     1      86.034  33.462  24.943  1.00  0.00     0.000 G0
ENDBRANCH  13  17
ENDBRANCH  11  13
ENDBRANCH  10  11
ENDBRANCH   1  10
TORSDOF 0
ENDMDL
MODEL 6
REMARK VINA RESULT:    -3.045      1.821      3.863
REMARK INTER + INTRA:          -4.039
REMARK INTER:                  -4.290
REMARK INTRA:                   0.251
REMARK UNBOUND:                 0.252
REMARK SMILES CC1=CCC(=C(C)C)C(=O)CC(C)=CCC1
REMARK SMILES IDX 12 1 14 2 13 3 15 4 16 5 2 6 1 7 3 8 11 10 9 11 10 12 5 13
REMARK SMILES IDX 6 14 7 15 8 16 4 17
REMARK H PARENT
REMARK Flexibility Score: 60.00
ROOT
ATOM      1  C   UNL     1      86.967  37.157  27.356  1.00  0.00    -0.070 C 
ATOM      2  C   UNL     1      86.491  37.029  26.098  1.00  0.00    -0.027 C 
ATOM      3  C   UNL     1      87.978  38.244  27.621  1.00  0.00     0.039 C 
ENDROOT
BRANCH   2   4
ATOM      4  C   UNL     1      85.407  36.069  25.658  1.00  0.00     0.032 C 
BRANCH   4   5
ATOM      5  C   UNL     1      84.010  36.700  25.491  1.00  0.00     0.034 C 
BRANCH   5   6
ATOM      6  C   UNL     1      82.891  35.826  26.034  1.00  0.00    -0.077 C 
ATOM      7  C   UNL     1      82.311  34.781  25.116  1.00  0.00     0.039 C 
ATOM      8  C   UNL     1      82.431  35.880  27.307  1.00  0.00    -0.023 CG0
ATOM      9  G   UNL     1      82.849  36.854  28.391  1.00  0.00     0.000 G0
ENDBRANCH   5   6
ENDBRANCH   4   5
ENDBRANCH   2   4
BRANCH   1  10
ATOM     10  C   UNL     1      86.469  36.327  28.523  1.00  0.00     0.111 C 
BRANCH  10  11
ATOM     11  C   UNL     1      85.290  36.973  29.201  1.00  0.00     0.163 C 
ATOM     12  O   UNL     1      85.433  38.139  29.659  1.00  0.00    -0.294 OA
BRANCH  11  13
ATOM     13  C   UNL     1      83.955  36.310  29.293  1.00  0.00    -0.002 C 
ATOM     14  C   UNL     1      83.732  35.313  30.201  1.00  0.00    -0.069 C 
ATOM     15  C   UNL     1      84.859  34.740  31.032  1.00  0.00     0.039 C 
ATOM     16  C   UNL     1      82.353  34.731  30.428  1.00  0.00     0.039 C 
BRANCH  13  17
ATOM     17  C   UNL     1      82.846  36.853  28.406  1.00  0.00     0.066 CG0
ATOM     18  G   UNL     1      82.457  35.882  27.310  1.00  0.00     0.000 G0
ENDBRANCH  13  17
ENDBRANCH  11  13
ENDBRANCH  10  11
ENDBRANCH   1  10
TORSDOF 0
ENDMDL
MODEL 7
REMARK VINA RESULT:    -2.962      3.982      5.751
REMARK INTER + INTRA:          -3.922
REMARK INTER:                  -4.320
REMARK INTRA:                   0.398
REMARK UNBOUND:                 0.252
REMARK SMILES CC1=CCC(=C(C)C)C(=O)CC(C)=CCC1
REMARK SMILES IDX 12 1 14 2 13 3 15 4 16 5 2 6 1 7 3 8 11 10 9 11 10 12 5 13
REMARK SMILES IDX 6 14 7 15 8 16 4 17
REMARK H PARENT
REMARK Flexibility Score: 60.00
ROOT
ATOM      1  C   UNL     1      84.841  34.145  33.199  1.00  0.00    -0.070 C 
ATOM      2  C   UNL     1      85.839  33.243  33.326  1.00  0.00    -0.027 C 
ATOM      3  C   UNL     1      83.661  34.029  34.130  1.00  0.00     0.039 C 
ENDROOT
BRANCH   2   4
ATOM      4  C   UNL     1      87.141  33.252  32.555  1.00  0.00     0.032 C 
BRANCH   4   5
ATOM      5  C   UNL     1      87.358  32.034  31.634  1.00  0.00     0.034 C 
BRANCH   5   6
ATOM      6  C   UNL     1      86.132  31.686  30.807  1.00  0.00    -0.077 C 
ATOM      7  C   UNL     1      85.427  30.388  31.111  1.00  0.00     0.039 C 
ATOM      8  C   UNL     1      85.593  32.495  29.863  1.00  0.00    -0.023 CG0
ATOM      9  G   UNL     1      86.136  33.825  29.380  1.00  0.00     0.000 G0
ENDBRANCH   5   6
ENDBRANCH   4   5
ENDBRANCH   2   4
BRANCH   1  10
ATOM     10  C   UNL     1      84.894  35.313  32.234  1.00  0.00     0.111 C 
BRANCH  10  11
ATOM     11  C   UNL     1      84.369  34.935  30.875  1.00  0.00     0.163 C 
ATOM     12  O   UNL     1      83.156  34.605  30.776  1.00  0.00    -0.294 OA
BRANCH  11  13
ATOM     13  C   UNL     1      85.213  34.998  29.644  1.00  0.00    -0.002 C 
ATOM     14  C   UNL     1      85.203  36.109  28.847  1.00  0.00    -0.069 C 
ATOM     15  C   UNL     1      84.229  37.242  29.090  1.00  0.00     0.039 C 
ATOM     16  C   UNL     1      86.160  36.269  27.686  1.00  0.00     0.039 C 
BRANCH  13  17
ATOM     17  C   UNL     1      86.142  33.825  29.377  1.00  0.00     0.066 CG0
ATOM     18  G   UNL     1      85.572  32.513  29.877  1.00  0.00     0.000 G0
ENDBRANCH  13  17
ENDBRANCH  11  13
ENDBRANCH  10  11
ENDBRANCH   1  10
TORSDOF 0
ENDMDL
MODEL 8
REMARK VINA RESULT:    -2.959      5.620      7.624
REMARK INTER + INTRA:          -3.917
REMARK INTER:                  -4.072
REMARK INTRA:                   0.154
REMARK UNBOUND:                 0.252
REMARK SMILES CC1=CCC(=C(C)C)C(=O)CC(C)=CCC1
REMARK SMILES IDX 12 1 14 2 13 3 15 4 16 5 2 6 1 7 3 8 11 10 9 11 10 12 5 13
REMARK SMILES IDX 6 14 7 15 8 16 4 17
REMARK H PARENT
REMARK Flexibility Score: 60.00
ROOT
ATOM      1  C   UNL     1      79.859  44.624  24.287  1.00  0.00    -0.070 C 
ATOM      2  C   UNL     1      79.618  45.074  25.538  1.00  0.00    -0.027 C 
ATOM      3  C   UNL     1      80.458  45.587  23.293  1.00  0.00     0.039 C 
ENDROOT
BRANCH   2   4
ATOM      4  C   UNL     1      79.114  44.239  26.694  1.00  0.00     0.032 C 
BRANCH   4   5
ATOM      5  C   UNL     1      80.218  43.596  27.560  1.00  0.00     0.034 C 
BRANCH   5   6
ATOM      6  C   UNL     1      80.002  42.111  27.796  1.00  0.00    -0.077 C 
ATOM      7  C   UNL     1      78.984  41.706  28.831  1.00  0.00     0.039 C 
ATOM      8  C   UNL     1      80.614  41.130  27.089  1.00  0.00    -0.023 CG0
ATOM      9  G   UNL     1      81.678  41.297  26.023  1.00  0.00     0.000 G0
ENDBRANCH   5   6
ENDBRANCH   4   5
ENDBRANCH   2   4
BRANCH   1  10
ATOM     10  C   UNL     1      79.643  43.184  23.864  1.00  0.00     0.111 C 
BRANCH  10  11
ATOM     11  C   UNL     1      80.936  42.415  23.830  1.00  0.00     0.163 C 
ATOM     12  O   UNL     1      81.892  42.887  23.157  1.00  0.00    -0.294 OA
BRANCH  11  13
ATOM     13  C   UNL     1      81.141  41.157  24.609  1.00  0.00    -0.002 C 
ATOM     14  C   UNL     1      80.920  39.936  24.036  1.00  0.00    -0.069 C 
ATOM     15  C   UNL     1      80.314  39.816  22.654  1.00  0.00     0.039 C 
ATOM     16  C   UNL     1      81.269  38.645  24.743  1.00  0.00     0.039 C 
BRANCH  13  17
ATOM     17  C   UNL     1      81.692  41.294  26.020  1.00  0.00     0.066 CG0
ATOM     18  G   UNL     1      80.619  41.120  27.076  1.00  0.00     0.000 G0
ENDBRANCH  13  17
ENDBRANCH  11  13
ENDBRANCH  10  11
ENDBRANCH   1  10
TORSDOF 0
ENDMDL
MODEL 9
REMARK VINA RESULT:    -2.937      5.951      8.197
REMARK INTER + INTRA:          -3.887
REMARK INTER:                  -4.308
REMARK INTRA:                   0.421
REMARK UNBOUND:                 0.252
REMARK SMILES CC1=CCC(=C(C)C)C(=O)CC(C)=CCC1
REMARK SMILES IDX 12 1 14 2 13 3 15 4 16 5 2 6 1 7 3 8 11 10 9 11 10 12 5 13
REMARK SMILES IDX 6 14 7 15 8 16 4 17
REMARK H PARENT
REMARK Flexibility Score: 60.00
ROOT
ATOM      1  C   UNL     1      81.227  40.895  25.124  1.00  0.00    -0.070 C 
ATOM      2  C   UNL     1      81.430  40.430  26.376  1.00  0.00    -0.027 C 
ATOM      3  C   UNL     1      80.917  39.894  24.041  1.00  0.00     0.039 C 
ENDROOT
BRANCH   2   4
ATOM      4  C   UNL     1      81.656  41.280  27.608  1.00  0.00     0.032 C 
BRANCH   4   5
ATOM      5  C   UNL     1      80.551  41.175  28.680  1.00  0.00     0.034 C 
BRANCH   5   6
ATOM      6  C   UNL     1      79.150  41.313  28.109  1.00  0.00    -0.077 C 
ATOM      7  C   UNL     1      78.236  40.118  28.200  1.00  0.00     0.039 C 
ATOM      8  C   UNL     1      78.648  42.459  27.587  1.00  0.00    -0.023 CG0
ATOM      9  G   UNL     1      79.382  43.768  27.378  1.00  0.00     0.000 G0
ENDBRANCH   5   6
ENDBRANCH   4   5
ENDBRANCH   2   4
BRANCH   1  10
ATOM     10  C   UNL     1      81.207  42.371  24.778  1.00  0.00     0.111 C 
BRANCH  10  11
ATOM     11  C   UNL     1      79.839  42.968  24.970  1.00  0.00     0.163 C 
ATOM     12  O   UNL     1      78.869  42.442  24.359  1.00  0.00    -0.294 OA
BRANCH  11  13
ATOM     13  C   UNL     1      79.586  44.110  25.898  1.00  0.00    -0.002 C 
ATOM     14  C   UNL     1      79.464  45.385  25.420  1.00  0.00    -0.069 C 
ATOM     15  C   UNL     1      79.733  45.708  23.966  1.00  0.00     0.039 C 
ATOM     16  C   UNL     1      79.052  46.538  26.310  1.00  0.00     0.039 C 
BRANCH  13  17
ATOM     17  C   UNL     1      79.380  43.780  27.368  1.00  0.00     0.066 CG0
ATOM     18  G   UNL     1      78.659  42.461  27.566  1.00  0.00     0.000 G0
ENDBRANCH  13  17
ENDBRANCH  11  13
ENDBRANCH  10  11
ENDBRANCH   1  10
TORSDOF 0
ENDMDL
