MODEL 1
REMARK VINA RESULT:     2.088      0.000      0.000
REMARK INTER + INTRA:           2.801
REMARK INTER:                   2.820
REMARK INTRA:                  -0.019
REMARK UNBOUND:                -0.019
REMARK SMILES CC(C)=CCC[C@@H](C(=O)[O-])[C@H]1[C@H](O)C[C@]2(C)C3=CC[C@@H]4C(C)(C)[C@H](O)CC[C@]4(C)C3=CC[C@]12C
REMARK SMILES IDX 6 1 7 2 8 3 9 4 10 5 11 6 12 7 33 8 14 9 15 10 32 11 34 12
REMARK SMILES IDX 16 13 17 14 31 15 30 16 18 17 28 18 19 19 20 20 27 21 29 22
REMARK SMILES IDX 21 23 26 24 24 25 22 26 23 27 13 28 25 30 5 32 4 33 2 34
REMARK SMILES IDX 1 35 3 36
REMARK H PARENT 13 29 25 31
REMARK Flexibility Score: inf
ROOT
ATOM      1  C   UNL     1       8.513 -56.745 567.540  1.00  0.00     0.014 C 
ENDROOT
BRANCH   1   2
ATOM      2  C   UNL     1       8.474 -55.279 568.086  1.00  0.00     0.042 C 
BRANCH   2   3
ATOM      3  C   UNL     1       8.562 -54.224 566.995  1.00  0.00     0.045 C 
ATOM      4  O   UNL     1       8.477 -54.534 565.782  1.00  0.00    -0.550 OA
ATOM      5  O   UNL     1       8.781 -52.889 567.340  1.00  0.00    -0.550 OA
ENDBRANCH   2   3
BRANCH   2   6
ATOM      6  C   UNL     1       7.354 -55.008 569.161  1.00  0.00     0.034 C 
ATOM      7  C   UNL     1       6.400 -56.232 569.326  1.00  0.00     0.119 C 
ATOM      8  C   UNL     1       7.709 -54.563 570.625  1.00  0.00    -0.014 C 
ATOM      9  C   UNL     1       6.569 -56.768 570.752  1.00  0.00     0.044 C 
ATOM     10  C   UNL     1       7.575 -55.858 571.530  1.00  0.00     0.001 C 
ATOM     11  C   UNL     1       6.639 -53.519 571.105  1.00  0.00     0.035 C 
ATOM     12  C   UNL     1       9.094 -53.871 570.762  1.00  0.00     0.013 C 
ATOM     13  C   UNL     1       8.890 -56.633 571.788  1.00  0.00     0.017 C 
ATOM     14  C   UNL     1       7.051 -55.481 572.926  1.00  0.00    -0.042 C 
ATOM     15  C   UNL     1       6.857 -53.124 572.553  1.00  0.00    -0.022 C 
ATOM     16  C   UNL     1       7.248 -54.096 573.413  1.00  0.00    -0.042 C 
ATOM     17  C   UNL     1       6.602 -56.379 573.797  1.00  0.00    -0.022 C 
ATOM     18  C   UNL     1       7.657 -53.904 574.886  1.00  0.00    -0.004 C 
ATOM     19  C   UNL     1       5.903 -55.907 575.047  1.00  0.00     0.032 C 
ATOM     20  C   UNL     1       6.751 -54.844 575.833  1.00  0.00     0.011 C 
ATOM     21  C   UNL     1       7.643 -52.388 575.305  1.00  0.00     0.014 C 
ATOM     22  C   UNL     1       9.125 -54.398 575.004  1.00  0.00     0.017 C 
ATOM     23  C   UNL     1       5.889 -54.036 576.878  1.00  0.00    -0.005 C 
ATOM     24  C   UNL     1       7.724 -52.147 576.834  1.00  0.00     0.033 C 
ATOM     25  C   UNL     1       6.883 -53.134 577.696  1.00  0.00     0.120 C 
ATOM     26  C   UNL     1       5.227 -55.012 577.880  1.00  0.00     0.014 C 
ATOM     27  C   UNL     1       4.784 -53.174 576.182  1.00  0.00     0.014 C 
BRANCH   7  28
ATOM     28  O   UNL     1       5.043 -55.953 569.050  1.00  0.00    -0.393 OA
ATOM     29  H   UNL     1       4.652 -56.692 568.524  1.00  0.00     0.210 HD
ENDBRANCH   7  28
BRANCH  25  30
ATOM     30  O   UNL     1       6.251 -52.524 578.806  1.00  0.00    -0.393 OA
ATOM     31  H   UNL     1       6.360 -53.133 579.594  1.00  0.00     0.210 HD
ENDBRANCH  25  30
ENDBRANCH   2   6
ENDBRANCH   1   2
BRANCH   1  32
ATOM     32  C   UNL     1       7.444 -57.011 566.449  1.00  0.00     0.028 C 
BRANCH  32  33
ATOM     33  C   UNL     1       7.766 -58.246 565.628  1.00  0.00    -0.028 C 
ATOM     34  C   UNL     1       8.322 -58.232 564.400  1.00  0.00    -0.080 C 
ATOM     35  C   UNL     1       8.934 -56.998 563.805  1.00  0.00     0.039 C 
ATOM     36  C   UNL     1       8.304 -59.518 563.596  1.00  0.00     0.039 C 
ENDBRANCH  32  33
ENDBRANCH   1  32
TORSDOF 7
ENDMDL
MODEL 2
REMARK VINA RESULT:     3.346      1.934      9.141
REMARK INTER + INTRA:           4.500
REMARK INTER:                   4.740
REMARK INTRA:                  -0.240
REMARK UNBOUND:                -0.019
REMARK SMILES CC(C)=CCC[C@@H](C(=O)[O-])[C@H]1[C@H](O)C[C@]2(C)C3=CC[C@@H]4C(C)(C)[C@H](O)CC[C@]4(C)C3=CC[C@]12C
REMARK SMILES IDX 6 1 7 2 8 3 9 4 10 5 11 6 12 7 33 8 14 9 15 10 32 11 34 12
REMARK SMILES IDX 16 13 17 14 31 15 30 16 18 17 28 18 19 19 20 20 27 21 29 22
REMARK SMILES IDX 21 23 26 24 24 25 22 26 23 27 13 28 25 30 5 32 4 33 2 34
REMARK SMILES IDX 1 35 3 36
REMARK H PARENT 13 29 25 31
REMARK Flexibility Score: inf
ROOT
ATOM      1  C   UNL     1       5.827 -53.315 576.758  1.00  0.00     0.014 C 
ENDROOT
BRANCH   1   2
ATOM      2  C   UNL     1       7.307 -53.813 576.857  1.00  0.00     0.042 C 
BRANCH   2   3
ATOM      3  C   UNL     1       7.710 -54.241 578.259  1.00  0.00     0.045 C 
ATOM      4  O   UNL     1       8.829 -53.935 578.737  1.00  0.00    -0.550 OA
ATOM      5  O   UNL     1       6.838 -55.022 579.021  1.00  0.00    -0.550 OA
ENDBRANCH   2   3
BRANCH   2   6
ATOM      6  C   UNL     1       7.739 -54.820 575.723  1.00  0.00     0.034 C 
ATOM      7  C   UNL     1       6.864 -56.113 575.733  1.00  0.00     0.119 C 
ATOM      8  C   UNL     1       7.808 -54.382 574.216  1.00  0.00    -0.014 C 
ATOM      9  C   UNL     1       6.080 -56.158 574.417  1.00  0.00     0.044 C 
ATOM     10  C   UNL     1       6.491 -54.938 573.530  1.00  0.00     0.001 C 
ATOM     11  C   UNL     1       9.041 -55.083 573.546  1.00  0.00     0.035 C 
ATOM     12  C   UNL     1       8.000 -52.854 574.005  1.00  0.00     0.013 C 
ATOM     13  C   UNL     1       5.312 -53.938 573.434  1.00  0.00     0.017 C 
ATOM     14  C   UNL     1       6.783 -55.354 572.077  1.00  0.00    -0.042 C 
ATOM     15  C   UNL     1       9.109 -54.791 572.059  1.00  0.00    -0.022 C 
ATOM     16  C   UNL     1       7.938 -54.746 571.378  1.00  0.00    -0.042 C 
ATOM     17  C   UNL     1       5.942 -56.083 571.352  1.00  0.00    -0.022 C 
ATOM     18  C   UNL     1       7.752 -54.336 569.905  1.00  0.00    -0.004 C 
ATOM     19  C   UNL     1       6.400 -56.632 570.024  1.00  0.00     0.032 C 
ATOM     20  C   UNL     1       7.002 -55.515 569.098  1.00  0.00     0.011 C 
ATOM     21  C   UNL     1       9.108 -53.886 569.247  1.00  0.00     0.014 C 
ATOM     22  C   UNL     1       6.811 -53.100 569.906  1.00  0.00     0.017 C 
ATOM     23  C   UNL     1       7.860 -56.108 567.915  1.00  0.00    -0.005 C 
ATOM     24  C   UNL     1       9.061 -53.774 567.702  1.00  0.00     0.033 C 
ATOM     25  C   UNL     1       8.261 -54.903 566.988  1.00  0.00     0.120 C 
ATOM     26  C   UNL     1       6.992 -57.068 567.066  1.00  0.00     0.014 C 
ATOM     27  C   UNL     1       9.124 -56.869 568.434  1.00  0.00     0.014 C 
BRANCH   7  28
ATOM     28  O   UNL     1       7.595 -57.307 575.925  1.00  0.00    -0.393 OA
ATOM     29  H   UNL     1       8.559 -57.100 575.984  1.00  0.00     0.210 HD
ENDBRANCH   7  28
BRANCH  25  30
ATOM     30  O   UNL     1       8.851 -55.341 565.778  1.00  0.00    -0.393 OA
ATOM     31  H   UNL     1       8.913 -56.340 565.811  1.00  0.00     0.210 HD
ENDBRANCH  25  30
ENDBRANCH   2   6
ENDBRANCH   1   2
BRANCH   1  32
ATOM     32  C   UNL     1       5.622 -51.909 577.378  1.00  0.00     0.028 C 
BRANCH  32  33
ATOM     33  C   UNL     1       6.630 -50.903 576.851  1.00  0.00    -0.028 C 
ATOM     34  C   UNL     1       7.728 -50.491 577.516  1.00  0.00    -0.080 C 
ATOM     35  C   UNL     1       8.227 -51.179 578.753  1.00  0.00     0.039 C 
ATOM     36  C   UNL     1       8.464 -49.274 576.990  1.00  0.00     0.039 C 
ENDBRANCH  32  33
ENDBRANCH   1  32
TORSDOF 7
ENDMDL
MODEL 3
REMARK VINA RESULT:     4.008      2.217      9.165
REMARK INTER + INTRA:           5.395
REMARK INTER:                   3.878
REMARK INTRA:                   1.517
REMARK UNBOUND:                -0.019
REMARK SMILES CC(C)=CCC[C@@H](C(=O)[O-])[C@H]1[C@H](O)C[C@]2(C)C3=CC[C@@H]4C(C)(C)[C@H](O)CC[C@]4(C)C3=CC[C@]12C
REMARK SMILES IDX 6 1 7 2 8 3 9 4 10 5 11 6 12 7 33 8 14 9 15 10 32 11 34 12
REMARK SMILES IDX 16 13 17 14 31 15 30 16 18 17 28 18 19 19 20 20 27 21 29 22
REMARK SMILES IDX 21 23 26 24 24 25 22 26 23 27 13 28 25 30 5 32 4 33 2 34
REMARK SMILES IDX 1 35 3 36
REMARK H PARENT 13 29 25 31
REMARK Flexibility Score: inf
ROOT
ATOM      1  C   UNL     1       7.855 -51.572 578.154  1.00  0.00     0.014 C 
ENDROOT
BRANCH   1   2
ATOM      2  C   UNL     1       6.989 -52.875 578.190  1.00  0.00     0.042 C 
BRANCH   2   3
ATOM      3  C   UNL     1       5.492 -52.609 578.171  1.00  0.00     0.045 C 
ATOM      4  O   UNL     1       4.704 -53.275 578.883  1.00  0.00    -0.550 OA
ATOM      5  O   UNL     1       4.975 -51.632 577.317  1.00  0.00    -0.550 OA
ENDBRANCH   2   3
BRANCH   2   6
ATOM      6  C   UNL     1       7.460 -54.004 577.196  1.00  0.00     0.034 C 
ATOM      7  C   UNL     1       6.583 -55.289 577.321  1.00  0.00     0.119 C 
ATOM      8  C   UNL     1       7.586 -53.741 575.652  1.00  0.00    -0.014 C 
ATOM      9  C   UNL     1       5.848 -55.485 575.991  1.00  0.00     0.044 C 
ATOM     10  C   UNL     1       6.294 -54.374 574.985  1.00  0.00     0.001 C 
ATOM     11  C   UNL     1       8.842 -54.512 575.113  1.00  0.00     0.035 C 
ATOM     12  C   UNL     1       7.789 -52.247 575.276  1.00  0.00     0.013 C 
ATOM     13  C   UNL     1       5.122 -53.394 574.732  1.00  0.00     0.017 C 
ATOM     14  C   UNL     1       6.639 -54.953 573.602  1.00  0.00    -0.042 C 
ATOM     15  C   UNL     1       8.966 -54.391 573.606  1.00  0.00    -0.022 C 
ATOM     16  C   UNL     1       7.821 -54.427 572.882  1.00  0.00    -0.042 C 
ATOM     17  C   UNL     1       5.824 -55.762 572.934  1.00  0.00    -0.022 C 
ATOM     18  C   UNL     1       7.691 -54.188 571.365  1.00  0.00    -0.004 C 
ATOM     19  C   UNL     1       6.330 -56.459 571.695  1.00  0.00     0.032 C 
ATOM     20  C   UNL     1       6.969 -55.453 570.671  1.00  0.00     0.011 C 
ATOM     21  C   UNL     1       9.071 -53.813 570.710  1.00  0.00     0.014 C 
ATOM     22  C   UNL     1       6.753 -52.962 571.190  1.00  0.00     0.017 C 
ATOM     23  C   UNL     1       7.868 -56.176 569.596  1.00  0.00    -0.005 C 
ATOM     24  C   UNL     1       9.082 -53.879 569.162  1.00  0.00     0.033 C 
ATOM     25  C   UNL     1       8.307 -55.085 568.553  1.00  0.00     0.120 C 
ATOM     26  C   UNL     1       7.031 -57.229 568.831  1.00  0.00     0.014 C 
ATOM     27  C   UNL     1       9.111 -56.870 570.245  1.00  0.00     0.014 C 
BRANCH   7  28
ATOM     28  O   UNL     1       7.304 -56.452 577.675  1.00  0.00    -0.393 OA
ATOM     29  H   UNL     1       7.005 -57.210 577.118  1.00  0.00     0.210 HD
ENDBRANCH   7  28
BRANCH  25  30
ATOM     30  O   UNL     1       8.939 -55.657 567.424  1.00  0.00    -0.393 OA
ATOM     31  H   UNL     1       8.606 -55.178 566.610  1.00  0.00     0.210 HD
ENDBRANCH  25  30
ENDBRANCH   2   6
ENDBRANCH   1   2
BRANCH   1  32
ATOM     32  C   UNL     1       7.252 -50.473 577.242  1.00  0.00     0.028 C 
BRANCH  32  33
ATOM     33  C   UNL     1       7.823 -49.101 577.552  1.00  0.00    -0.028 C 
ATOM     34  C   UNL     1       8.326 -48.250 576.635  1.00  0.00    -0.080 C 
ATOM     35  C   UNL     1       8.140 -48.451 575.160  1.00  0.00     0.039 C 
ATOM     36  C   UNL     1       9.123 -47.059 577.132  1.00  0.00     0.039 C 
ENDBRANCH  32  33
ENDBRANCH   1  32
TORSDOF 7
ENDMDL
MODEL 4
REMARK VINA RESULT:     4.872      1.760      3.082
REMARK INTER + INTRA:           6.562
REMARK INTER:                   4.149
REMARK INTRA:                   2.413
REMARK UNBOUND:                -0.019
REMARK SMILES CC(C)=CCC[C@@H](C(=O)[O-])[C@H]1[C@H](O)C[C@]2(C)C3=CC[C@@H]4C(C)(C)[C@H](O)CC[C@]4(C)C3=CC[C@]12C
REMARK SMILES IDX 6 1 7 2 8 3 9 4 10 5 11 6 12 7 33 8 14 9 15 10 32 11 34 12
REMARK SMILES IDX 16 13 17 14 31 15 30 16 18 17 28 18 19 19 20 20 27 21 29 22
REMARK SMILES IDX 21 23 26 24 24 25 22 26 23 27 13 28 25 30 5 32 4 33 2 34
REMARK SMILES IDX 1 35 3 36
REMARK H PARENT 13 29 25 31
REMARK Flexibility Score: inf
ROOT
ATOM      1  C   UNL     1       6.927 -54.977 566.776  1.00  0.00     0.014 C 
ENDROOT
BRANCH   1   2
ATOM      2  C   UNL     1       7.545 -55.917 567.863  1.00  0.00     0.042 C 
BRANCH   2   3
ATOM      3  C   UNL     1       8.422 -57.017 567.286  1.00  0.00     0.045 C 
ATOM      4  O   UNL     1       8.534 -57.176 566.046  1.00  0.00    -0.550 OA
ATOM      5  O   UNL     1       9.089 -57.893 568.145  1.00  0.00    -0.550 OA
ENDBRANCH   2   3
BRANCH   2   6
ATOM      6  C   UNL     1       8.175 -55.167 569.099  1.00  0.00     0.034 C 
ATOM      7  C   UNL     1       7.939 -53.627 569.023  1.00  0.00     0.119 C 
ATOM      8  C   UNL     1       7.814 -55.567 570.575  1.00  0.00    -0.014 C 
ATOM      9  C   UNL     1       7.049 -53.231 570.207  1.00  0.00     0.044 C 
ATOM     10  C   UNL     1       6.763 -54.494 571.083  1.00  0.00     0.001 C 
ATOM     11  C   UNL     1       9.106 -55.442 571.457  1.00  0.00     0.035 C 
ATOM     12  C   UNL     1       7.310 -57.028 570.734  1.00  0.00     0.013 C 
ATOM     13  C   UNL     1       5.275 -54.899 570.949  1.00  0.00     0.017 C 
ATOM     14  C   UNL     1       6.970 -54.214 572.582  1.00  0.00    -0.042 C 
ATOM     15  C   UNL     1       8.809 -55.709 572.921  1.00  0.00    -0.022 C 
ATOM     16  C   UNL     1       7.636 -55.242 573.415  1.00  0.00    -0.042 C 
ATOM     17  C   UNL     1       6.411 -53.185 573.209  1.00  0.00    -0.022 C 
ATOM     18  C   UNL     1       7.065 -55.509 574.821  1.00  0.00    -0.004 C 
ATOM     19  C   UNL     1       6.841 -52.858 574.617  1.00  0.00     0.032 C 
ATOM     20  C   UNL     1       6.764 -54.109 575.564  1.00  0.00     0.011 C 
ATOM     21  C   UNL     1       7.983 -56.478 575.652  1.00  0.00     0.014 C 
ATOM     22  C   UNL     1       5.705 -56.230 574.615  1.00  0.00     0.017 C 
ATOM     23  C   UNL     1       7.592 -53.913 576.892  1.00  0.00    -0.005 C 
ATOM     24  C   UNL     1       7.651 -56.532 577.164  1.00  0.00     0.033 C 
ATOM     25  C   UNL     1       7.298 -55.158 577.806  1.00  0.00     0.120 C 
ATOM     26  C   UNL     1       7.087 -52.661 577.648  1.00  0.00     0.014 C 
ATOM     27  C   UNL     1       9.124 -53.769 576.609  1.00  0.00     0.014 C 
BRANCH   7  28
ATOM     28  O   UNL     1       9.124 -52.858 569.005  1.00  0.00    -0.393 OA
ATOM     29  H   UNL     1       9.228 -52.387 569.867  1.00  0.00     0.210 HD
ENDBRANCH   7  28
BRANCH  25  30
ATOM     30  O   UNL     1       7.818 -54.989 579.112  1.00  0.00    -0.393 OA
ATOM     31  H   UNL     1       7.162 -55.386 579.756  1.00  0.00     0.210 HD
ENDBRANCH  25  30
ENDBRANCH   2   6
ENDBRANCH   1   2
BRANCH   1  32
ATOM     32  C   UNL     1       7.981 -54.437 565.776  1.00  0.00     0.028 C 
BRANCH  32  33
ATOM     33  C   UNL     1       8.393 -55.490 564.762  1.00  0.00    -0.028 C 
ATOM     34  C   UNL     1       8.750 -55.235 563.488  1.00  0.00    -0.080 C 
ATOM     35  C   UNL     1       9.038 -53.848 562.993  1.00  0.00     0.039 C 
ATOM     36  C   UNL     1       8.843 -56.404 562.527  1.00  0.00     0.039 C 
ENDBRANCH  32  33
ENDBRANCH   1  32
TORSDOF 7
ENDMDL
