MODEL 1
REMARK VINA RESULT:    -3.869      0.000      0.000
REMARK INTER + INTRA:          -4.589
REMARK INTER:                  -4.548
REMARK INTRA:                  -0.041
REMARK UNBOUND:                -0.041
REMARK SMILES O=C([O-])CCC(=O)[O-]
REMARK SMILES IDX 4 1 2 2 1 3 3 4 5 5 6 6 7 7 8 8
REMARK H PARENT
REMARK Flexibility Score: inf
ROOT
ATOM      1  C   UNL     1      -2.053 -15.330 -26.206  1.00  0.00     0.059 C 
ENDROOT
BRANCH   1   2
ATOM      2  C   UNL     1      -1.434 -13.994 -26.480  1.00  0.00     0.042 C 
ATOM      3  O   UNL     1      -1.782 -12.985 -25.812  1.00  0.00    -0.550 OA
ATOM      4  O   UNL     1      -0.504 -13.856 -27.502  1.00  0.00    -0.550 OA
ENDBRANCH   1   2
BRANCH   1   5
ATOM      5  C   UNL     1      -1.148 -16.477 -26.670  1.00  0.00     0.059 C 
BRANCH   5   6
ATOM      6  C   UNL     1      -1.283 -17.678 -25.787  1.00  0.00     0.042 C 
ATOM      7  O   UNL     1      -2.117 -17.682 -24.844  1.00  0.00    -0.550 OA
ATOM      8  O   UNL     1      -0.457 -18.779 -25.980  1.00  0.00    -0.550 OA
ENDBRANCH   5   6
ENDBRANCH   1   5
TORSDOF 3
ENDMDL
MODEL 2
REMARK VINA RESULT:    -3.864      0.168      4.079
REMARK INTER + INTRA:          -4.583
REMARK INTER:                  -4.543
REMARK INTRA:                  -0.040
REMARK UNBOUND:                -0.041
REMARK SMILES O=C([O-])CCC(=O)[O-]
REMARK SMILES IDX 4 1 2 2 1 3 3 4 5 5 6 6 7 7 8 8
REMARK H PARENT
REMARK Flexibility Score: inf
ROOT
ATOM      1  C   UNL     1      -1.004 -16.595 -26.553  1.00  0.00     0.059 C 
ENDROOT
BRANCH   1   2
ATOM      2  C   UNL     1      -1.280 -17.789 -25.691  1.00  0.00     0.042 C 
ATOM      3  O   UNL     1      -2.125 -17.717 -24.760  1.00  0.00    -0.550 OA
ATOM      4  O   UNL     1      -0.574 -18.968 -25.891  1.00  0.00    -0.550 OA
ENDBRANCH   1   2
BRANCH   1   5
ATOM      5  C   UNL     1      -2.008 -15.467 -26.293  1.00  0.00     0.059 C 
BRANCH   5   6
ATOM      6  C   UNL     1      -1.403 -14.121 -26.547  1.00  0.00     0.042 C 
ATOM      7  O   UNL     1      -1.744 -13.130 -25.849  1.00  0.00    -0.550 OA
ATOM      8  O   UNL     1      -0.491 -13.953 -27.582  1.00  0.00    -0.550 OA
ENDBRANCH   5   6
ENDBRANCH   1   5
TORSDOF 3
ENDMDL
MODEL 3
REMARK VINA RESULT:    -3.639      1.624      2.110
REMARK INTER + INTRA:          -4.318
REMARK INTER:                  -4.249
REMARK INTRA:                  -0.069
REMARK UNBOUND:                -0.041
REMARK SMILES O=C([O-])CCC(=O)[O-]
REMARK SMILES IDX 4 1 2 2 1 3 3 4 5 5 6 6 7 7 8 8
REMARK H PARENT
REMARK Flexibility Score: inf
ROOT
ATOM      1  C   UNL     1      -0.224 -14.148 -27.736  1.00  0.00     0.059 C 
ENDROOT
BRANCH   1   2
ATOM      2  C   UNL     1      -0.774 -12.803 -27.373  1.00  0.00     0.042 C 
ATOM      3  O   UNL     1      -0.472 -11.789 -28.055  1.00  0.00    -0.550 OA
ATOM      4  O   UNL     1      -1.587 -12.664 -26.255  1.00  0.00    -0.550 OA
ENDBRANCH   1   2
BRANCH   1   5
ATOM      5  C   UNL     1      -1.336 -15.194 -27.872  1.00  0.00     0.059 C 
BRANCH   5   6
ATOM      6  C   UNL     1      -1.400 -16.090 -26.673  1.00  0.00     0.042 C 
ATOM      7  O   UNL     1      -2.125 -15.783 -25.690  1.00  0.00    -0.550 OA
ATOM      8  O   UNL     1      -0.628 -17.244 -26.626  1.00  0.00    -0.550 OA
ENDBRANCH   5   6
ENDBRANCH   1   5
TORSDOF 3
ENDMDL
MODEL 4
REMARK VINA RESULT:    -3.624      1.744      4.347
REMARK INTER + INTRA:          -4.301
REMARK INTER:                  -4.229
REMARK INTRA:                  -0.072
REMARK UNBOUND:                -0.041
REMARK SMILES O=C([O-])CCC(=O)[O-]
REMARK SMILES IDX 4 1 2 2 1 3 3 4 5 5 6 6 7 7 8 8
REMARK H PARENT
REMARK Flexibility Score: inf
ROOT
ATOM      1  C   UNL     1      -0.527 -15.020 -27.644  1.00  0.00     0.059 C 
ENDROOT
BRANCH   1   2
ATOM      2  C   UNL     1      -1.273 -15.893 -26.682  1.00  0.00     0.042 C 
ATOM      3  O   UNL     1      -2.125 -15.393 -25.901  1.00  0.00    -0.550 OA
ATOM      4  O   UNL     1      -0.996 -17.252 -26.619  1.00  0.00    -0.550 OA
ENDBRANCH   1   2
BRANCH   1   5
ATOM      5  C   UNL     1      -1.364 -13.810 -28.074  1.00  0.00     0.059 C 
BRANCH   5   6
ATOM      6  C   UNL     1      -0.912 -12.557 -27.391  1.00  0.00     0.042 C 
ATOM      7  O   UNL     1      -1.368 -12.251 -26.258  1.00  0.00    -0.550 OA
ATOM      8  O   UNL     1      -0.015 -11.705 -28.025  1.00  0.00    -0.550 OA
ENDBRANCH   5   6
ENDBRANCH   1   5
TORSDOF 3
ENDMDL
MODEL 5
REMARK VINA RESULT:    -3.584      0.733      1.731
REMARK INTER + INTRA:          -4.253
REMARK INTER:                  -4.192
REMARK INTRA:                  -0.062
REMARK UNBOUND:                -0.041
REMARK SMILES O=C([O-])CCC(=O)[O-]
REMARK SMILES IDX 4 1 2 2 1 3 3 4 5 5 6 6 7 7 8 8
REMARK H PARENT
REMARK Flexibility Score: inf
ROOT
ATOM      1  C   UNL     1      -1.218 -15.537 -27.279  1.00  0.00     0.059 C 
ENDROOT
BRANCH   1   2
ATOM      2  C   UNL     1      -0.906 -14.100 -26.999  1.00  0.00     0.042 C 
ATOM      3  O   UNL     1      -0.135 -13.458 -27.760  1.00  0.00    -0.550 OA
ATOM      4  O   UNL     1      -1.433 -13.481 -25.872  1.00  0.00    -0.550 OA
ENDBRANCH   1   2
BRANCH   1   5
ATOM      5  C   UNL     1      -2.100 -16.147 -26.185  1.00  0.00     0.059 C 
BRANCH   5   6
ATOM      6  C   UNL     1      -1.529 -17.431 -25.668  1.00  0.00     0.042 C 
ATOM      7  O   UNL     1      -0.560 -17.978 -26.257  1.00  0.00    -0.550 OA
ATOM      8  O   UNL     1      -2.094 -18.045 -24.556  1.00  0.00    -0.550 OA
ENDBRANCH   5   6
ENDBRANCH   1   5
TORSDOF 3
ENDMDL
MODEL 6
REMARK VINA RESULT:    -3.122      2.119      4.994
REMARK INTER + INTRA:          -3.711
REMARK INTER:                  -3.669
REMARK INTRA:                  -0.042
REMARK UNBOUND:                -0.041
REMARK SMILES O=C([O-])CCC(=O)[O-]
REMARK SMILES IDX 4 1 2 2 1 3 3 4 5 5 6 6 7 7 8 8
REMARK H PARENT
REMARK Flexibility Score: inf
ROOT
ATOM      1  C   UNL     1      -0.155 -18.909 -25.895  1.00  0.00     0.059 C 
ENDROOT
BRANCH   1   2
ATOM      2  C   UNL     1      -0.379 -20.390 -25.878  1.00  0.00     0.042 C 
ATOM      3  O   UNL     1      -1.247 -20.909 -26.627  1.00  0.00    -0.550 OA
ATOM      4  O   UNL     1       0.344 -21.191 -25.004  1.00  0.00    -0.550 OA
ENDBRANCH   1   2
BRANCH   1   5
ATOM      5  C   UNL     1      -1.451 -18.140 -25.617  1.00  0.00     0.059 C 
BRANCH   5   6
ATOM      6  C   UNL     1      -1.411 -16.762 -26.202  1.00  0.00     0.042 C 
ATOM      7  O   UNL     1      -2.122 -15.844 -25.714  1.00  0.00    -0.550 OA
ATOM      8  O   UNL     1      -0.618 -16.502 -27.313  1.00  0.00    -0.550 OA
ENDBRANCH   5   6
ENDBRANCH   1   5
TORSDOF 3
ENDMDL
MODEL 7
REMARK VINA RESULT:    -3.007      2.111      5.093
REMARK INTER + INTRA:          -3.576
REMARK INTER:                  -3.537
REMARK INTRA:                  -0.039
REMARK UNBOUND:                -0.041
REMARK SMILES O=C([O-])CCC(=O)[O-]
REMARK SMILES IDX 4 1 2 2 1 3 3 4 5 5 6 6 7 7 8 8
REMARK H PARENT
REMARK Flexibility Score: inf
ROOT
ATOM      1  C   UNL     1      -0.221 -18.905 -25.858  1.00  0.00     0.059 C 
ENDROOT
BRANCH   1   2
ATOM      2  C   UNL     1      -0.418 -20.390 -25.887  1.00  0.00     0.042 C 
ATOM      3  O   UNL     1       0.259 -21.135 -25.131  1.00  0.00    -0.550 OA
ATOM      4  O   UNL     1      -1.321 -20.953 -26.780  1.00  0.00    -0.550 OA
ENDBRANCH   1   2
BRANCH   1   5
ATOM      5  C   UNL     1      -1.558 -18.160 -25.792  1.00  0.00     0.059 C 
BRANCH   5   6
ATOM      6  C   UNL     1      -1.422 -16.740 -26.248  1.00  0.00     0.042 C 
ATOM      7  O   UNL     1      -0.643 -16.450 -27.194  1.00  0.00    -0.550 OA
ATOM      8  O   UNL     1      -2.125 -15.732 -25.600  1.00  0.00    -0.550 OA
ENDBRANCH   5   6
ENDBRANCH   1   5
TORSDOF 3
ENDMDL
MODEL 8
REMARK VINA RESULT:    -2.970      2.002      2.754
REMARK INTER + INTRA:          -3.532
REMARK INTER:                  -3.493
REMARK INTRA:                  -0.040
REMARK UNBOUND:                -0.041
REMARK SMILES O=C([O-])CCC(=O)[O-]
REMARK SMILES IDX 4 1 2 2 1 3 3 4 5 5 6 6 7 7 8 8
REMARK H PARENT
REMARK Flexibility Score: inf
ROOT
ATOM      1  C   UNL     1      -1.580 -17.991 -25.891  1.00  0.00     0.059 C 
ENDROOT
BRANCH   1   2
ATOM      2  C   UNL     1      -1.451 -16.576 -26.365  1.00  0.00     0.042 C 
ATOM      3  O   UNL     1      -2.125 -15.662 -25.821  1.00  0.00    -0.550 OA
ATOM      4  O   UNL     1      -0.618 -16.275 -27.434  1.00  0.00    -0.550 OA
ENDBRANCH   1   2
BRANCH   1   5
ATOM      5  C   UNL     1      -0.225 -18.706 -25.875  1.00  0.00     0.059 C 
BRANCH   5   6
ATOM      6  C   UNL     1      -0.386 -20.195 -25.892  1.00  0.00     0.042 C 
ATOM      7  O   UNL     1      -1.231 -20.733 -26.655  1.00  0.00    -0.550 OA
ATOM      8  O   UNL     1       0.370 -20.986 -25.035  1.00  0.00    -0.550 OA
ENDBRANCH   5   6
ENDBRANCH   1   5
TORSDOF 3
ENDMDL
MODEL 9
REMARK VINA RESULT:    -2.405      2.657      4.104
REMARK INTER + INTRA:          -2.868
REMARK INTER:                  -2.810
REMARK INTRA:                  -0.058
REMARK UNBOUND:                -0.041
REMARK SMILES O=C([O-])CCC(=O)[O-]
REMARK SMILES IDX 4 1 2 2 1 3 3 4 5 5 6 6 7 7 8 8
REMARK H PARENT
REMARK Flexibility Score: inf
ROOT
ATOM      1  C   UNL     1      -0.045 -18.912 -25.882  1.00  0.00     0.059 C 
ENDROOT
BRANCH   1   2
ATOM      2  C   UNL     1      -1.105 -17.855 -25.841  1.00  0.00     0.042 C 
ATOM      3  O   UNL     1      -1.057 -16.877 -26.633  1.00  0.00    -0.550 OA
ATOM      4  O   UNL     1      -2.124 -17.929 -24.900  1.00  0.00    -0.550 OA
ENDBRANCH   1   2
BRANCH   1   5
ATOM      5  C   UNL     1      -0.600 -20.247 -26.391  1.00  0.00     0.059 C 
BRANCH   5   6
ATOM      6  C   UNL     1      -0.402 -21.344 -25.391  1.00  0.00     0.042 C 
ATOM      7  O   UNL     1      -1.332 -22.156 -25.147  1.00  0.00    -0.550 OA
ATOM      8  O   UNL     1       0.799 -21.443 -24.698  1.00  0.00    -0.550 OA
ENDBRANCH   5   6
ENDBRANCH   1   5
TORSDOF 3
ENDMDL
