MODEL 1
REMARK VINA RESULT:    -4.267      0.000      0.000
REMARK INTER + INTRA:          -9.069
REMARK INTER:                  -7.760
REMARK INTRA:                  -1.309
REMARK UNBOUND:                -1.309
REMARK SMILES CCCCCCCCCCCCCC[C@@H](C)C(=O)[O-]
REMARK SMILES IDX 9 1 10 2 11 3 12 4 13 5 14 6 15 7 16 8 17 9 18 10 19 11 8 12
REMARK SMILES IDX 7 13 6 14 5 15 4 16 3 17 2 18 1 19
REMARK H PARENT
REMARK Flexibility Score: inf
ROOT
ATOM      1  C   UNL     1      21.751  -7.046  53.130  1.00  0.00     0.000 C 
ENDROOT
BRANCH   1   2
ATOM      2  C   UNL     1      20.777  -6.130  53.888  1.00  0.00     0.000 C 
BRANCH   2   3
ATOM      3  C   UNL     1      20.417  -6.665  55.287  1.00  0.00     0.000 C 
BRANCH   3   4
ATOM      4  C   UNL     1      20.957  -5.836  56.470  1.00  0.00     0.000 C 
BRANCH   4   5
ATOM      5  C   UNL     1      21.628  -4.506  56.084  1.00  0.00     0.001 C 
BRANCH   5   6
ATOM      6  C   UNL     1      22.387  -3.860  57.260  1.00  0.00     0.009 C 
BRANCH   6   7
ATOM      7  C   UNL     1      23.371  -2.745  56.843  1.00  0.00     0.032 C 
ATOM      8  C   UNL     1      24.653  -3.299  56.205  1.00  0.00     0.014 C 
BRANCH   7   9
ATOM      9  C   UNL     1      22.710  -1.718  55.962  1.00  0.00     0.044 C 
ATOM     10  O   UNL     1      23.025  -1.643  54.745  1.00  0.00    -0.550 OA
ATOM     11  O   UNL     1      21.793  -0.814  56.485  1.00  0.00    -0.550 OA
ENDBRANCH   7   9
ENDBRANCH   6   7
ENDBRANCH   5   6
ENDBRANCH   4   5
ENDBRANCH   3   4
ENDBRANCH   2   3
ENDBRANCH   1   2
BRANCH   1  12
ATOM     12  C   UNL     1      23.215  -6.850  53.561  1.00  0.00     0.000 C 
BRANCH  12  13
ATOM     13  C   UNL     1      23.836  -5.488  53.189  1.00  0.00    -0.000 C 
BRANCH  13  14
ATOM     14  C   UNL     1      25.267  -5.555  52.626  1.00  0.00    -0.000 C 
BRANCH  14  15
ATOM     15  C   UNL     1      26.342  -5.511  53.722  1.00  0.00    -0.000 C 
BRANCH  15  16
ATOM     16  C   UNL     1      27.458  -6.526  53.437  1.00  0.00    -0.000 C 
BRANCH  16  17
ATOM     17  C   UNL     1      28.169  -6.275  52.095  1.00  0.00    -0.000 C 
BRANCH  17  18
ATOM     18  C   UNL     1      29.700  -6.432  52.136  1.00  0.00    -0.003 C 
ATOM     19  C   UNL     1      30.161  -7.547  53.074  1.00  0.00     0.004 C 
ENDBRANCH  17  18
ENDBRANCH  16  17
ENDBRANCH  15  16
ENDBRANCH  14  15
ENDBRANCH  13  14
ENDBRANCH  12  13
ENDBRANCH   1  12
TORSDOF 14
ENDMDL
MODEL 2
REMARK VINA RESULT:    -4.208      2.836      6.182
REMARK INTER + INTRA:          -8.962
REMARK INTER:                  -6.486
REMARK INTRA:                  -2.476
REMARK UNBOUND:                -1.309
REMARK SMILES CCCCCCCCCCCCCC[C@@H](C)C(=O)[O-]
REMARK SMILES IDX 9 1 10 2 11 3 12 4 13 5 14 6 15 7 16 8 17 9 18 10 19 11 8 12
REMARK SMILES IDX 7 13 6 14 5 15 4 16 3 17 2 18 1 19
REMARK H PARENT
REMARK Flexibility Score: inf
ROOT
ATOM      1  C   UNL     1      21.009  -4.460  57.362  1.00  0.00     0.000 C 
ENDROOT
BRANCH   1   2
ATOM      2  C   UNL     1      20.665  -5.911  56.988  1.00  0.00     0.000 C 
BRANCH   2   3
ATOM      3  C   UNL     1      20.272  -6.070  55.507  1.00  0.00     0.000 C 
BRANCH   3   4
ATOM      4  C   UNL     1      21.088  -7.113  54.717  1.00  0.00     0.000 C 
BRANCH   4   5
ATOM      5  C   UNL     1      22.172  -6.531  53.792  1.00  0.00     0.001 C 
BRANCH   5   6
ATOM      6  C   UNL     1      22.240  -4.992  53.852  1.00  0.00     0.009 C 
BRANCH   6   7
ATOM      7  C   UNL     1      23.439  -4.380  53.094  1.00  0.00     0.032 C 
ATOM      8  C   UNL     1      24.453  -5.441  52.642  1.00  0.00     0.014 C 
BRANCH   7   9
ATOM      9  C   UNL     1      22.991  -3.514  51.946  1.00  0.00     0.044 C 
ATOM     10  O   UNL     1      21.773  -3.479  51.628  1.00  0.00    -0.550 OA
ATOM     11  O   UNL     1      23.912  -2.791  51.198  1.00  0.00    -0.550 OA
ENDBRANCH   7   9
ENDBRANCH   6   7
ENDBRANCH   5   6
ENDBRANCH   4   5
ENDBRANCH   3   4
ENDBRANCH   2   3
ENDBRANCH   1   2
BRANCH   1  12
ATOM     12  C   UNL     1      22.508  -4.256  57.648  1.00  0.00     0.000 C 
BRANCH  12  13
ATOM     13  C   UNL     1      23.000  -2.796  57.577  1.00  0.00    -0.000 C 
BRANCH  13  14
ATOM     14  C   UNL     1      23.687  -2.401  56.258  1.00  0.00    -0.000 C 
BRANCH  14  15
ATOM     15  C   UNL     1      22.773  -1.585  55.331  1.00  0.00    -0.000 C 
BRANCH  15  16
ATOM     16  C   UNL     1      21.814  -0.703  56.143  1.00  0.00    -0.000 C 
BRANCH  16  17
ATOM     17  C   UNL     1      20.332  -1.004  55.855  1.00  0.00    -0.000 C 
BRANCH  17  18
ATOM     18  C   UNL     1      20.089  -2.074  54.776  1.00  0.00    -0.003 C 
ATOM     19  C   UNL     1      18.732  -2.763  54.913  1.00  0.00     0.004 C 
ENDBRANCH  17  18
ENDBRANCH  16  17
ENDBRANCH  15  16
ENDBRANCH  14  15
ENDBRANCH  13  14
ENDBRANCH  12  13
ENDBRANCH   1  12
TORSDOF 14
ENDMDL
MODEL 3
REMARK VINA RESULT:    -4.174     14.060     15.331
REMARK INTER + INTRA:          -8.899
REMARK INTER:                  -7.168
REMARK INTRA:                  -1.732
REMARK UNBOUND:                -1.309
REMARK SMILES CCCCCCCCCCCCCC[C@@H](C)C(=O)[O-]
REMARK SMILES IDX 9 1 10 2 11 3 12 4 13 5 14 6 15 7 16 8 17 9 18 10 19 11 8 12
REMARK SMILES IDX 7 13 6 14 5 15 4 16 3 17 2 18 1 19
REMARK H PARENT
REMARK Flexibility Score: inf
ROOT
ATOM      1  C   UNL     1      21.520   3.970  42.896  1.00  0.00     0.000 C 
ENDROOT
BRANCH   1   2
ATOM      2  C   UNL     1      21.102   4.162  41.430  1.00  0.00     0.000 C 
BRANCH   2   3
ATOM      3  C   UNL     1      19.923   3.261  41.020  1.00  0.00     0.000 C 
BRANCH   3   4
ATOM      4  C   UNL     1      18.566   3.617  41.661  1.00  0.00     0.000 C 
BRANCH   4   5
ATOM      5  C   UNL     1      17.836   2.444  42.339  1.00  0.00     0.001 C 
BRANCH   5   6
ATOM      6  C   UNL     1      18.437   2.083  43.712  1.00  0.00     0.009 C 
BRANCH   6   7
ATOM      7  C   UNL     1      18.589   0.566  43.959  1.00  0.00     0.032 C 
ATOM      8  C   UNL     1      17.822  -0.277  42.931  1.00  0.00     0.014 C 
BRANCH   7   9
ATOM      9  C   UNL     1      20.036   0.157  44.044  1.00  0.00     0.044 C 
ATOM     10  O   UNL     1      20.896   0.981  44.453  1.00  0.00    -0.550 OA
ATOM     11  O   UNL     1      20.445  -1.106  43.629  1.00  0.00    -0.550 OA
ENDBRANCH   7   9
ENDBRANCH   6   7
ENDBRANCH   5   6
ENDBRANCH   4   5
ENDBRANCH   3   4
ENDBRANCH   2   3
ENDBRANCH   1   2
BRANCH   1  12
ATOM     12  C   UNL     1      23.040   3.798  43.067  1.00  0.00     0.000 C 
BRANCH  12  13
ATOM     13  C   UNL     1      23.911   4.655  42.126  1.00  0.00    -0.000 C 
BRANCH  13  14
ATOM     14  C   UNL     1      25.095   3.916  41.477  1.00  0.00    -0.000 C 
BRANCH  14  15
ATOM     15  C   UNL     1      25.129   4.072  39.949  1.00  0.00    -0.000 C 
BRANCH  15  16
ATOM     16  C   UNL     1      24.932   2.717  39.254  1.00  0.00    -0.000 C 
BRANCH  16  17
ATOM     17  C   UNL     1      23.504   2.164  39.410  1.00  0.00    -0.000 C 
BRANCH  17  18
ATOM     18  C   UNL     1      23.405   0.848  40.202  1.00  0.00    -0.003 C 
ATOM     19  C   UNL     1      23.840  -0.372  39.391  1.00  0.00     0.004 C 
ENDBRANCH  17  18
ENDBRANCH  16  17
ENDBRANCH  15  16
ENDBRANCH  14  15
ENDBRANCH  13  14
ENDBRANCH  12  13
ENDBRANCH   1  12
TORSDOF 14
ENDMDL
MODEL 4
REMARK VINA RESULT:    -4.152     14.390     16.272
REMARK INTER + INTRA:          -8.860
REMARK INTER:                  -7.542
REMARK INTRA:                  -1.318
REMARK UNBOUND:                -1.309
REMARK SMILES CCCCCCCCCCCCCC[C@@H](C)C(=O)[O-]
REMARK SMILES IDX 9 1 10 2 11 3 12 4 13 5 14 6 15 7 16 8 17 9 18 10 19 11 8 12
REMARK SMILES IDX 7 13 6 14 5 15 4 16 3 17 2 18 1 19
REMARK H PARENT
REMARK Flexibility Score: inf
ROOT
ATOM      1  C   UNL     1      27.605   4.123  43.530  1.00  0.00     0.000 C 
ENDROOT
BRANCH   1   2
ATOM      2  C   UNL     1      28.226   4.061  42.126  1.00  0.00     0.000 C 
BRANCH   2   3
ATOM      3  C   UNL     1      27.347   4.728  41.052  1.00  0.00     0.000 C 
BRANCH   3   4
ATOM      4  C   UNL     1      26.061   5.399  41.575  1.00  0.00     0.000 C 
BRANCH   4   5
ATOM      5  C   UNL     1      24.787   5.086  40.770  1.00  0.00     0.001 C 
BRANCH   5   6
ATOM      6  C   UNL     1      24.945   3.848  39.865  1.00  0.00     0.009 C 
BRANCH   6   7
ATOM      7  C   UNL     1      24.284   2.567  40.422  1.00  0.00     0.032 C 
ATOM      8  C   UNL     1      23.312   2.859  41.574  1.00  0.00     0.014 C 
BRANCH   7   9
ATOM      9  C   UNL     1      23.629   1.759  39.333  1.00  0.00     0.044 C 
ATOM     10  O   UNL     1      22.870   2.326  38.503  1.00  0.00    -0.550 OA
ATOM     11  O   UNL     1      23.809   0.382  39.261  1.00  0.00    -0.550 OA
ENDBRANCH   7   9
ENDBRANCH   6   7
ENDBRANCH   5   6
ENDBRANCH   4   5
ENDBRANCH   3   4
ENDBRANCH   2   3
ENDBRANCH   1   2
BRANCH   1  12
ATOM     12  C   UNL     1      28.660   4.239  44.646  1.00  0.00     0.000 C 
BRANCH  12  13
ATOM     13  C   UNL     1      30.123   4.318  44.164  1.00  0.00    -0.000 C 
BRANCH  13  14
ATOM     14  C   UNL     1      30.946   5.473  44.762  1.00  0.00    -0.000 C 
BRANCH  14  15
ATOM     15  C   UNL     1      31.457   5.170  46.179  1.00  0.00    -0.000 C 
BRANCH  15  16
ATOM     16  C   UNL     1      31.242   6.372  47.109  1.00  0.00    -0.000 C 
BRANCH  16  17
ATOM     17  C   UNL     1      29.761   6.595  47.468  1.00  0.00    -0.000 C 
BRANCH  17  18
ATOM     18  C   UNL     1      29.067   5.387  48.123  1.00  0.00    -0.003 C 
ATOM     19  C   UNL     1      29.722   4.960  49.436  1.00  0.00     0.004 C 
ENDBRANCH  17  18
ENDBRANCH  16  17
ENDBRANCH  15  16
ENDBRANCH  14  15
ENDBRANCH  13  14
ENDBRANCH  12  13
ENDBRANCH   1  12
TORSDOF 14
ENDMDL
MODEL 5
REMARK VINA RESULT:    -4.152      3.964      7.190
REMARK INTER + INTRA:          -8.860
REMARK INTER:                  -7.438
REMARK INTRA:                  -1.422
REMARK UNBOUND:                -1.309
REMARK SMILES CCCCCCCCCCCCCC[C@@H](C)C(=O)[O-]
REMARK SMILES IDX 9 1 10 2 11 3 12 4 13 5 14 6 15 7 16 8 17 9 18 10 19 11 8 12
REMARK SMILES IDX 7 13 6 14 5 15 4 16 3 17 2 18 1 19
REMARK H PARENT
REMARK Flexibility Score: inf
ROOT
ATOM      1  C   UNL     1      23.035  -4.402  53.993  1.00  0.00     0.000 C 
ENDROOT
BRANCH   1   2
ATOM      2  C   UNL     1      24.247  -5.065  53.318  1.00  0.00     0.000 C 
BRANCH   2   3
ATOM      3  C   UNL     1      24.075  -5.217  51.795  1.00  0.00     0.000 C 
BRANCH   3   4
ATOM      4  C   UNL     1      22.680  -4.853  51.248  1.00  0.00     0.000 C 
BRANCH   4   5
ATOM      5  C   UNL     1      22.665  -3.736  50.189  1.00  0.00     0.001 C 
BRANCH   5   6
ATOM      6  C   UNL     1      23.690  -2.623  50.485  1.00  0.00     0.009 C 
BRANCH   6   7
ATOM      7  C   UNL     1      23.644  -1.439  49.494  1.00  0.00     0.032 C 
ATOM      8  C   UNL     1      24.797  -0.448  49.706  1.00  0.00     0.014 C 
BRANCH   7   9
ATOM      9  C   UNL     1      23.573  -1.911  48.065  1.00  0.00     0.044 C 
ATOM     10  O   UNL     1      22.530  -1.705  47.389  1.00  0.00    -0.550 OA
ATOM     11  O   UNL     1      24.625  -2.618  47.495  1.00  0.00    -0.550 OA
ENDBRANCH   7   9
ENDBRANCH   6   7
ENDBRANCH   5   6
ENDBRANCH   4   5
ENDBRANCH   3   4
ENDBRANCH   2   3
ENDBRANCH   1   2
BRANCH   1  12
ATOM     12  C   UNL     1      23.119  -2.865  53.996  1.00  0.00     0.000 C 
BRANCH  12  13
ATOM     13  C   UNL     1      23.771  -2.243  55.247  1.00  0.00    -0.000 C 
BRANCH  13  14
ATOM     14  C   UNL     1      24.308  -3.254  56.276  1.00  0.00    -0.000 C 
BRANCH  14  15
ATOM     15  C   UNL     1      23.623  -3.132  57.646  1.00  0.00    -0.000 C 
BRANCH  15  16
ATOM     16  C   UNL     1      22.298  -3.907  57.668  1.00  0.00    -0.000 C 
BRANCH  16  17
ATOM     17  C   UNL     1      21.066  -2.993  57.541  1.00  0.00    -0.000 C 
BRANCH  17  18
ATOM     18  C   UNL     1      21.270  -1.558  58.059  1.00  0.00    -0.003 C 
ATOM     19  C   UNL     1      21.045  -0.497  56.983  1.00  0.00     0.004 C 
ENDBRANCH  17  18
ENDBRANCH  16  17
ENDBRANCH  15  16
ENDBRANCH  14  15
ENDBRANCH  13  14
ENDBRANCH  12  13
ENDBRANCH   1  12
TORSDOF 14
ENDMDL
MODEL 6
REMARK VINA RESULT:    -4.140      4.320      7.231
REMARK INTER + INTRA:          -8.838
REMARK INTER:                  -7.243
REMARK INTRA:                  -1.595
REMARK UNBOUND:                -1.309
REMARK SMILES CCCCCCCCCCCCCC[C@@H](C)C(=O)[O-]
REMARK SMILES IDX 9 1 10 2 11 3 12 4 13 5 14 6 15 7 16 8 17 9 18 10 19 11 8 12
REMARK SMILES IDX 7 13 6 14 5 15 4 16 3 17 2 18 1 19
REMARK H PARENT
REMARK Flexibility Score: inf
ROOT
ATOM      1  C   UNL     1      24.385  -5.104  52.110  1.00  0.00     0.000 C 
ENDROOT
BRANCH   1   2
ATOM      2  C   UNL     1      23.380  -4.727  51.010  1.00  0.00     0.000 C 
BRANCH   2   3
ATOM      3  C   UNL     1      22.898  -3.268  51.113  1.00  0.00     0.000 C 
BRANCH   3   4
ATOM      4  C   UNL     1      24.001  -2.198  50.987  1.00  0.00     0.000 C 
BRANCH   4   5
ATOM      5  C   UNL     1      23.853  -1.244  49.788  1.00  0.00     0.001 C 
BRANCH   5   6
ATOM      6  C   UNL     1      25.156  -1.102  48.977  1.00  0.00     0.009 C 
BRANCH   6   7
ATOM      7  C   UNL     1      25.016  -1.463  47.482  1.00  0.00     0.032 C 
ATOM      8  C   UNL     1      26.344  -1.912  46.857  1.00  0.00     0.014 C 
BRANCH   7   9
ATOM      9  C   UNL     1      23.924  -2.474  47.252  1.00  0.00     0.044 C 
ATOM     10  O   UNL     1      22.827  -2.108  46.752  1.00  0.00    -0.550 OA
ATOM     11  O   UNL     1      24.089  -3.801  47.634  1.00  0.00    -0.550 OA
ENDBRANCH   7   9
ENDBRANCH   6   7
ENDBRANCH   5   6
ENDBRANCH   4   5
ENDBRANCH   3   4
ENDBRANCH   2   3
ENDBRANCH   1   2
BRANCH   1  12
ATOM     12  C   UNL     1      23.800  -6.082  53.144  1.00  0.00     0.000 C 
BRANCH  12  13
ATOM     13  C   UNL     1      22.295  -6.382  52.991  1.00  0.00    -0.000 C 
BRANCH  13  14
ATOM     14  C   UNL     1      21.415  -5.927  54.169  1.00  0.00    -0.000 C 
BRANCH  14  15
ATOM     15  C   UNL     1      21.483  -4.412  54.414  1.00  0.00    -0.000 C 
BRANCH  15  16
ATOM     16  C   UNL     1      22.132  -4.103  55.770  1.00  0.00    -0.000 C 
BRANCH  16  17
ATOM     17  C   UNL     1      23.375  -3.202  55.649  1.00  0.00    -0.000 C 
BRANCH  17  18
ATOM     18  C   UNL     1      23.118  -1.834  54.991  1.00  0.00    -0.003 C 
ATOM     19  C   UNL     1      22.181  -0.945  55.807  1.00  0.00     0.004 C 
ENDBRANCH  17  18
ENDBRANCH  16  17
ENDBRANCH  15  16
ENDBRANCH  14  15
ENDBRANCH  13  14
ENDBRANCH  12  13
ENDBRANCH   1  12
TORSDOF 14
ENDMDL
MODEL 7
REMARK VINA RESULT:    -4.101     13.220     14.955
REMARK INTER + INTRA:          -8.767
REMARK INTER:                  -7.194
REMARK INTRA:                  -1.572
REMARK UNBOUND:                -1.309
REMARK SMILES CCCCCCCCCCCCCC[C@@H](C)C(=O)[O-]
REMARK SMILES IDX 9 1 10 2 11 3 12 4 13 5 14 6 15 7 16 8 17 9 18 10 19 11 8 12
REMARK SMILES IDX 7 13 6 14 5 15 4 16 3 17 2 18 1 19
REMARK H PARENT
REMARK Flexibility Score: inf
ROOT
ATOM      1  C   UNL     1      26.433   3.485  45.398  1.00  0.00     0.000 C 
ENDROOT
BRANCH   1   2
ATOM      2  C   UNL     1      27.675   4.013  44.662  1.00  0.00     0.000 C 
BRANCH   2   3
ATOM      3  C   UNL     1      27.644   5.539  44.453  1.00  0.00     0.000 C 
BRANCH   3   4
ATOM      4  C   UNL     1      27.645   6.004  42.983  1.00  0.00     0.000 C 
BRANCH   4   5
ATOM      5  C   UNL     1      27.332   4.906  41.950  1.00  0.00     0.001 C 
BRANCH   5   6
ATOM      6  C   UNL     1      25.893   4.995  41.406  1.00  0.00     0.009 C 
BRANCH   6   7
ATOM      7  C   UNL     1      25.047   3.723  41.638  1.00  0.00     0.032 C 
ATOM      8  C   UNL     1      23.937   3.935  42.677  1.00  0.00     0.014 C 
BRANCH   7   9
ATOM      9  C   UNL     1      24.502   3.172  40.347  1.00  0.00     0.044 C 
ATOM     10  O   UNL     1      25.244   3.107  39.331  1.00  0.00    -0.550 OA
ATOM     11  O   UNL     1      23.172   2.780  40.245  1.00  0.00    -0.550 OA
ENDBRANCH   7   9
ENDBRANCH   6   7
ENDBRANCH   5   6
ENDBRANCH   4   5
ENDBRANCH   3   4
ENDBRANCH   2   3
ENDBRANCH   1   2
BRANCH   1  12
ATOM     12  C   UNL     1      25.782   4.542  46.308  1.00  0.00     0.000 C 
BRANCH  12  13
ATOM     13  C   UNL     1      25.404   4.053  47.721  1.00  0.00    -0.000 C 
BRANCH  13  14
ATOM     14  C   UNL     1      26.549   4.077  48.749  1.00  0.00    -0.000 C 
BRANCH  14  15
ATOM     15  C   UNL     1      27.642   5.099  48.400  1.00  0.00    -0.000 C 
BRANCH  15  16
ATOM     16  C   UNL     1      28.930   4.814  49.186  1.00  0.00    -0.000 C 
BRANCH  16  17
ATOM     17  C   UNL     1      30.170   5.491  48.572  1.00  0.00    -0.000 C 
BRANCH  17  18
ATOM     18  C   UNL     1      31.514   4.852  48.965  1.00  0.00    -0.003 C 
ATOM     19  C   UNL     1      31.363   3.715  49.975  1.00  0.00     0.004 C 
ENDBRANCH  17  18
ENDBRANCH  16  17
ENDBRANCH  15  16
ENDBRANCH  14  15
ENDBRANCH  13  14
ENDBRANCH  12  13
ENDBRANCH   1  12
TORSDOF 14
ENDMDL
MODEL 8
REMARK VINA RESULT:    -4.092     14.197     15.401
REMARK INTER + INTRA:          -8.750
REMARK INTER:                  -6.302
REMARK INTRA:                  -2.448
REMARK UNBOUND:                -1.309
REMARK SMILES CCCCCCCCCCCCCC[C@@H](C)C(=O)[O-]
REMARK SMILES IDX 9 1 10 2 11 3 12 4 13 5 14 6 15 7 16 8 17 9 18 10 19 11 8 12
REMARK SMILES IDX 7 13 6 14 5 15 4 16 3 17 2 18 1 19
REMARK H PARENT
REMARK Flexibility Score: inf
ROOT
ATOM      1  C   UNL     1      21.473   5.072  43.536  1.00  0.00     0.000 C 
ENDROOT
BRANCH   1   2
ATOM      2  C   UNL     1      19.975   5.230  43.232  1.00  0.00     0.000 C 
BRANCH   2   3
ATOM      3  C   UNL     1      19.549   4.519  41.935  1.00  0.00     0.000 C 
BRANCH   3   4
ATOM      4  C   UNL     1      18.111   3.962  41.929  1.00  0.00     0.000 C 
BRANCH   4   5
ATOM      5  C   UNL     1      18.005   2.426  41.930  1.00  0.00     0.001 C 
BRANCH   5   6
ATOM      6  C   UNL     1      18.142   1.821  43.341  1.00  0.00     0.009 C 
BRANCH   6   7
ATOM      7  C   UNL     1      19.537   1.232  43.646  1.00  0.00     0.032 C 
ATOM      8  C   UNL     1      20.129   1.767  44.957  1.00  0.00     0.014 C 
BRANCH   7   9
ATOM      9  C   UNL     1      19.526  -0.274  43.615  1.00  0.00     0.044 C 
ATOM     10  O   UNL     1      20.610  -0.906  43.509  1.00  0.00    -0.550 OA
ATOM     11  O   UNL     1      18.327  -0.978  43.650  1.00  0.00    -0.550 OA
ENDBRANCH   7   9
ENDBRANCH   6   7
ENDBRANCH   5   6
ENDBRANCH   4   5
ENDBRANCH   3   4
ENDBRANCH   2   3
ENDBRANCH   1   2
BRANCH   1  12
ATOM     12  C   UNL     1      22.263   4.478  42.356  1.00  0.00     0.000 C 
BRANCH  12  13
ATOM     13  C   UNL     1      22.782   3.041  42.565  1.00  0.00    -0.000 C 
BRANCH  13  14
ATOM     14  C   UNL     1      22.410   2.044  41.453  1.00  0.00    -0.000 C 
BRANCH  14  15
ATOM     15  C   UNL     1      22.113   2.731  40.111  1.00  0.00    -0.000 C 
BRANCH  15  16
ATOM     16  C   UNL     1      22.963   2.126  38.985  1.00  0.00    -0.000 C 
BRANCH  16  17
ATOM     17  C   UNL     1      24.472   2.162  39.287  1.00  0.00    -0.000 C 
BRANCH  17  18
ATOM     18  C   UNL     1      25.096   3.569  39.290  1.00  0.00    -0.003 C 
ATOM     19  C   UNL     1      25.823   3.898  40.593  1.00  0.00     0.004 C 
ENDBRANCH  17  18
ENDBRANCH  16  17
ENDBRANCH  15  16
ENDBRANCH  14  15
ENDBRANCH  13  14
ENDBRANCH  12  13
ENDBRANCH   1  12
TORSDOF 14
ENDMDL
MODEL 9
REMARK VINA RESULT:    -4.054     13.521     15.088
REMARK INTER + INTRA:          -8.681
REMARK INTER:                  -6.340
REMARK INTRA:                  -2.341
REMARK UNBOUND:                -1.309
REMARK SMILES CCCCCCCCCCCCCC[C@@H](C)C(=O)[O-]
REMARK SMILES IDX 9 1 10 2 11 3 12 4 13 5 14 6 15 7 16 8 17 9 18 10 19 11 8 12
REMARK SMILES IDX 7 13 6 14 5 15 4 16 3 17 2 18 1 19
REMARK H PARENT
REMARK Flexibility Score: inf
ROOT
ATOM      1  C   UNL     1      17.326   1.905  43.112  1.00  0.00     0.000 C 
ENDROOT
BRANCH   1   2
ATOM      2  C   UNL     1      17.454   3.003  42.043  1.00  0.00     0.000 C 
BRANCH   2   3
ATOM      3  C   UNL     1      18.884   3.135  41.489  1.00  0.00     0.000 C 
BRANCH   3   4
ATOM      4  C   UNL     1      19.704   4.315  42.050  1.00  0.00     0.000 C 
BRANCH   4   5
ATOM      5  C   UNL     1      21.168   4.375  41.581  1.00  0.00     0.001 C 
BRANCH   5   6
ATOM      6  C   UNL     1      21.537   3.217  40.633  1.00  0.00     0.009 C 
BRANCH   6   7
ATOM      7  C   UNL     1      22.824   2.459  41.027  1.00  0.00     0.032 C 
ATOM      8  C   UNL     1      23.326   1.531  39.912  1.00  0.00     0.014 C 
BRANCH   7   9
ATOM      9  C   UNL     1      23.903   3.399  41.497  1.00  0.00     0.044 C 
ATOM     10  O   UNL     1      24.250   3.400  42.707  1.00  0.00    -0.550 OA
ATOM     11  O   UNL     1      24.489   4.306  40.620  1.00  0.00    -0.550 OA
ENDBRANCH   7   9
ENDBRANCH   6   7
ENDBRANCH   5   6
ENDBRANCH   4   5
ENDBRANCH   3   4
ENDBRANCH   2   3
ENDBRANCH   1   2
BRANCH   1  12
ATOM     12  C   UNL     1      18.008   0.588  42.700  1.00  0.00     0.000 C 
BRANCH  12  13
ATOM     13  C   UNL     1      17.626  -0.645  43.545  1.00  0.00    -0.000 C 
BRANCH  13  14
ATOM     14  C   UNL     1      18.595  -0.974  44.694  1.00  0.00    -0.000 C 
BRANCH  14  15
ATOM     15  C   UNL     1      20.009  -1.320  44.201  1.00  0.00    -0.000 C 
BRANCH  15  16
ATOM     16  C   UNL     1      21.047  -0.357  44.795  1.00  0.00    -0.000 C 
BRANCH  16  17
ATOM     17  C   UNL     1      21.371   0.825  43.863  1.00  0.00    -0.000 C 
BRANCH  17  18
ATOM     18  C   UNL     1      21.413   2.199  44.555  1.00  0.00    -0.003 C 
ATOM     19  C   UNL     1      20.170   2.483  45.397  1.00  0.00     0.004 C 
ENDBRANCH  17  18
ENDBRANCH  16  17
ENDBRANCH  15  16
ENDBRANCH  14  15
ENDBRANCH  13  14
ENDBRANCH  12  13
ENDBRANCH   1  12
TORSDOF 14
ENDMDL
