MODEL 1
REMARK VINA RESULT:    -4.490      0.000      0.000
REMARK INTER + INTRA:          -7.663
REMARK INTER:                  -6.852
REMARK INTRA:                  -0.811
REMARK UNBOUND:                -0.811
REMARK SMILES CCCCCCCCCCC(=O)[O-]
REMARK SMILES IDX 7 1 8 2 9 3 10 4 11 5 12 6 13 7 6 8 5 9 4 10 3 11 2 12 1 13
REMARK H PARENT
REMARK Flexibility Score: inf
ROOT
ATOM      1  C   UNL     1      42.608  48.068  12.010  1.00  0.00     0.000 C 
ENDROOT
BRANCH   1   2
ATOM      2  C   UNL     1      42.731  48.558  13.464  1.00  0.00     0.000 C 
BRANCH   2   3
ATOM      3  C   UNL     1      42.205  49.986  13.718  1.00  0.00     0.006 C 
BRANCH   3   4
ATOM      4  C   UNL     1      40.758  50.224  13.259  1.00  0.00     0.053 C 
BRANCH   4   5
ATOM      5  C   UNL     1      40.006  51.107  14.207  1.00  0.00     0.041 C 
ATOM      6  O   UNL     1      40.447  51.308  15.370  1.00  0.00    -0.550 OA
ATOM      7  O   UNL     1      38.802  51.678  13.819  1.00  0.00    -0.550 OA
ENDBRANCH   4   5
ENDBRANCH   3   4
ENDBRANCH   2   3
ENDBRANCH   1   2
BRANCH   1   8
ATOM      8  C   UNL     1      43.941  48.115  11.248  1.00  0.00     0.000 C 
BRANCH   8   9
ATOM      9  C   UNL     1      43.993  49.328  10.307  1.00  0.00    -0.000 C 
BRANCH   9  10
ATOM     10  C   UNL     1      44.592  50.580  10.975  1.00  0.00    -0.000 C 
BRANCH  10  11
ATOM     11  C   UNL     1      45.955  50.364  11.657  1.00  0.00    -0.000 C 
BRANCH  11  12
ATOM     12  C   UNL     1      47.100  50.160  10.656  1.00  0.00    -0.003 C 
ATOM     13  C   UNL     1      47.595  48.717  10.674  1.00  0.00     0.004 C 
ENDBRANCH  11  12
ENDBRANCH  10  11
ENDBRANCH   9  10
ENDBRANCH   8   9
ENDBRANCH   1   8
TORSDOF 9
ENDMDL
MODEL 2
REMARK VINA RESULT:    -4.481      0.891      2.033
REMARK INTER + INTRA:          -7.650
REMARK INTER:                  -6.878
REMARK INTRA:                  -0.772
REMARK UNBOUND:                -0.811
REMARK SMILES CCCCCCCCCCC(=O)[O-]
REMARK SMILES IDX 7 1 8 2 9 3 10 4 11 5 12 6 13 7 6 8 5 9 4 10 3 11 2 12 1 13
REMARK H PARENT
REMARK Flexibility Score: inf
ROOT
ATOM      1  C   UNL     1      43.604  49.688  10.759  1.00  0.00     0.000 C 
ENDROOT
BRANCH   1   2
ATOM      2  C   UNL     1      43.387  49.068  12.152  1.00  0.00     0.000 C 
BRANCH   2   3
ATOM      3  C   UNL     1      42.439  49.858  13.076  1.00  0.00     0.006 C 
BRANCH   3   4
ATOM      4  C   UNL     1      40.952  49.762  12.698  1.00  0.00     0.053 C 
BRANCH   4   5
ATOM      5  C   UNL     1      40.104  50.692  13.510  1.00  0.00     0.041 C 
ATOM      6  O   UNL     1      38.999  51.096  13.061  1.00  0.00    -0.550 OA
ATOM      7  O   UNL     1      40.551  51.142  14.745  1.00  0.00    -0.550 OA
ENDBRANCH   4   5
ENDBRANCH   3   4
ENDBRANCH   2   3
ENDBRANCH   1   2
BRANCH   1   8
ATOM      8  C   UNL     1      44.474  50.953  10.796  1.00  0.00     0.000 C 
BRANCH   8   9
ATOM      9  C   UNL     1      45.648  50.784  11.772  1.00  0.00    -0.000 C 
BRANCH   9  10
ATOM     10  C   UNL     1      47.021  50.866  11.081  1.00  0.00    -0.000 C 
BRANCH  10  11
ATOM     11  C   UNL     1      47.302  49.750  10.058  1.00  0.00    -0.000 C 
BRANCH  11  12
ATOM     12  C   UNL     1      47.583  48.392  10.717  1.00  0.00    -0.003 C 
ATOM     13  C   UNL     1      46.567  47.345  10.271  1.00  0.00     0.004 C 
ENDBRANCH  11  12
ENDBRANCH  10  11
ENDBRANCH   9  10
ENDBRANCH   8   9
ENDBRANCH   1   8
TORSDOF 9
ENDMDL
MODEL 3
REMARK VINA RESULT:    -4.462      1.491      2.845
REMARK INTER + INTRA:          -7.621
REMARK INTER:                  -6.468
REMARK INTRA:                  -1.153
REMARK UNBOUND:                -0.811
REMARK SMILES CCCCCCCCCCC(=O)[O-]
REMARK SMILES IDX 7 1 8 2 9 3 10 4 11 5 12 6 13 7 6 8 5 9 4 10 3 11 2 12 1 13
REMARK H PARENT
REMARK Flexibility Score: inf
ROOT
ATOM      1  C   UNL     1      44.414  50.459  10.510  1.00  0.00     0.000 C 
ENDROOT
BRANCH   1   2
ATOM      2  C   UNL     1      43.300  49.405  10.639  1.00  0.00     0.000 C 
BRANCH   2   3
ATOM      3  C   UNL     1      43.504  48.376  11.770  1.00  0.00     0.006 C 
BRANCH   3   4
ATOM      4  C   UNL     1      42.323  48.257  12.745  1.00  0.00     0.053 C 
BRANCH   4   5
ATOM      5  C   UNL     1      41.810  49.598  13.174  1.00  0.00     0.041 C 
ATOM      6  O   UNL     1      42.482  50.308  13.968  1.00  0.00    -0.550 OA
ATOM      7  O   UNL     1      40.575  50.047  12.726  1.00  0.00    -0.550 OA
ENDBRANCH   4   5
ENDBRANCH   3   4
ENDBRANCH   2   3
ENDBRANCH   1   2
BRANCH   1   8
ATOM      8  C   UNL     1      45.301  50.551  11.762  1.00  0.00     0.000 C 
BRANCH   8   9
ATOM      9  C   UNL     1      46.750  50.892  11.383  1.00  0.00    -0.000 C 
BRANCH   9  10
ATOM     10  C   UNL     1      47.314  49.977  10.281  1.00  0.00    -0.000 C 
BRANCH  10  11
ATOM     11  C   UNL     1      47.521  48.509  10.697  1.00  0.00    -0.000 C 
BRANCH  11  12
ATOM     12  C   UNL     1      46.728  47.524   9.828  1.00  0.00    -0.003 C 
ATOM     13  C   UNL     1      46.378  46.260  10.609  1.00  0.00     0.004 C 
ENDBRANCH  11  12
ENDBRANCH  10  11
ENDBRANCH   9  10
ENDBRANCH   8   9
ENDBRANCH   1   8
TORSDOF 9
ENDMDL
MODEL 4
REMARK VINA RESULT:    -4.442      1.616      3.324
REMARK INTER + INTRA:          -7.591
REMARK INTER:                  -6.600
REMARK INTRA:                  -0.990
REMARK UNBOUND:                -0.811
REMARK SMILES CCCCCCCCCCC(=O)[O-]
REMARK SMILES IDX 7 1 8 2 9 3 10 4 11 5 12 6 13 7 6 8 5 9 4 10 3 11 2 12 1 13
REMARK H PARENT
REMARK Flexibility Score: inf
ROOT
ATOM      1  C   UNL     1      45.445  50.494  11.769  1.00  0.00     0.000 C 
ENDROOT
BRANCH   1   2
ATOM      2  C   UNL     1      44.178  50.505  10.895  1.00  0.00     0.000 C 
BRANCH   2   3
ATOM      3  C   UNL     1      43.249  49.287  11.079  1.00  0.00     0.006 C 
BRANCH   3   4
ATOM      4  C   UNL     1      43.020  48.874  12.541  1.00  0.00     0.053 C 
BRANCH   4   5
ATOM      5  C   UNL     1      42.045  49.776  13.233  1.00  0.00     0.041 C 
ATOM      6  O   UNL     1      42.349  50.313  14.331  1.00  0.00    -0.550 OA
ATOM      7  O   UNL     1      40.787  49.992  12.685  1.00  0.00    -0.550 OA
ENDBRANCH   4   5
ENDBRANCH   3   4
ENDBRANCH   2   3
ENDBRANCH   1   2
BRANCH   1   8
ATOM      8  C   UNL     1      46.661  51.122  11.069  1.00  0.00     0.000 C 
BRANCH   8   9
ATOM      9  C   UNL     1      47.306  50.126  10.093  1.00  0.00    -0.000 C 
BRANCH   9  10
ATOM     10  C   UNL     1      47.413  48.703  10.670  1.00  0.00    -0.000 C 
BRANCH  10  11
ATOM     11  C   UNL     1      46.751  47.604   9.819  1.00  0.00    -0.000 C 
BRANCH  11  12
ATOM     12  C   UNL     1      46.509  46.305  10.601  1.00  0.00    -0.003 C 
ATOM     13  C   UNL     1      45.017  46.011  10.729  1.00  0.00     0.004 C 
ENDBRANCH  11  12
ENDBRANCH  10  11
ENDBRANCH   9  10
ENDBRANCH   8   9
ENDBRANCH   1   8
TORSDOF 9
ENDMDL
MODEL 5
REMARK VINA RESULT:    -4.432     12.892     14.473
REMARK INTER + INTRA:          -7.575
REMARK INTER:                  -6.701
REMARK INTRA:                  -0.874
REMARK UNBOUND:                -0.811
REMARK SMILES CCCCCCCCCCC(=O)[O-]
REMARK SMILES IDX 7 1 8 2 9 3 10 4 11 5 12 6 13 7 6 8 5 9 4 10 3 11 2 12 1 13
REMARK H PARENT
REMARK Flexibility Score: inf
ROOT
ATOM      1  C   UNL     1      44.275  39.561  21.326  1.00  0.00     0.000 C 
ENDROOT
BRANCH   1   2
ATOM      2  C   UNL     1      44.816  40.655  20.387  1.00  0.00     0.000 C 
BRANCH   2   3
ATOM      3  C   UNL     1      46.323  40.558  20.074  1.00  0.00     0.006 C 
BRANCH   3   4
ATOM      4  C   UNL     1      46.652  40.331  18.590  1.00  0.00     0.053 C 
BRANCH   4   5
ATOM      5  C   UNL     1      48.128  40.247  18.349  1.00  0.00     0.041 C 
ATOM      6  O   UNL     1      48.924  40.929  19.047  1.00  0.00    -0.550 OA
ATOM      7  O   UNL     1      48.622  39.444  17.329  1.00  0.00    -0.550 OA
ENDBRANCH   4   5
ENDBRANCH   3   4
ENDBRANCH   2   3
ENDBRANCH   1   2
BRANCH   1   8
ATOM      8  C   UNL     1      44.950  38.198  21.110  1.00  0.00     0.000 C 
BRANCH   8   9
ATOM      9  C   UNL     1      43.909  37.112  20.801  1.00  0.00    -0.000 C 
BRANCH   9  10
ATOM     10  C   UNL     1      44.324  36.195  19.637  1.00  0.00    -0.000 C 
BRANCH  10  11
ATOM     11  C   UNL     1      45.173  36.872  18.546  1.00  0.00    -0.000 C 
BRANCH  11  12
ATOM     12  C   UNL     1      46.526  36.182  18.326  1.00  0.00    -0.003 C 
ATOM     13  C   UNL     1      46.574  34.829  19.029  1.00  0.00     0.004 C 
ENDBRANCH  11  12
ENDBRANCH  10  11
ENDBRANCH   9  10
ENDBRANCH   8   9
ENDBRANCH   1   8
TORSDOF 9
ENDMDL
MODEL 6
REMARK VINA RESULT:    -4.423      3.099      5.154
REMARK INTER + INTRA:          -7.561
REMARK INTER:                  -7.081
REMARK INTRA:                  -0.481
REMARK UNBOUND:                -0.811
REMARK SMILES CCCCCCCCCCC(=O)[O-]
REMARK SMILES IDX 7 1 8 2 9 3 10 4 11 5 12 6 13 7 6 8 5 9 4 10 3 11 2 12 1 13
REMARK H PARENT
REMARK Flexibility Score: inf
ROOT
ATOM      1  C   UNL     1      42.582  47.648  12.372  1.00  0.00     0.000 C 
ENDROOT
BRANCH   1   2
ATOM      2  C   UNL     1      42.530  49.183  12.279  1.00  0.00     0.000 C 
BRANCH   2   3
ATOM      3  C   UNL     1      41.768  49.880  13.424  1.00  0.00     0.006 C 
BRANCH   3   4
ATOM      4  C   UNL     1      40.348  50.341  13.060  1.00  0.00     0.053 C 
BRANCH   4   5
ATOM      5  C   UNL     1      39.740  51.193  14.132  1.00  0.00     0.041 C 
ATOM      6  O   UNL     1      40.279  51.260  15.268  1.00  0.00    -0.550 OA
ATOM      7  O   UNL     1      38.560  51.882  13.887  1.00  0.00    -0.550 OA
ENDBRANCH   4   5
ENDBRANCH   3   4
ENDBRANCH   2   3
ENDBRANCH   1   2
BRANCH   1   8
ATOM      8  C   UNL     1      41.630  46.956  11.384  1.00  0.00     0.000 C 
BRANCH   8   9
ATOM      9  C   UNL     1      40.274  46.664  12.042  1.00  0.00    -0.000 C 
BRANCH   9  10
ATOM     10  C   UNL     1      39.349  45.805  11.160  1.00  0.00    -0.000 C 
BRANCH  10  11
ATOM     11  C   UNL     1      39.680  45.829   9.656  1.00  0.00    -0.000 C 
BRANCH  11  12
ATOM     12  C   UNL     1      38.441  45.654   8.768  1.00  0.00    -0.003 C 
ATOM     13  C   UNL     1      38.835  45.456   7.307  1.00  0.00     0.004 C 
ENDBRANCH  11  12
ENDBRANCH  10  11
ENDBRANCH   9  10
ENDBRANCH   8   9
ENDBRANCH   1   8
TORSDOF 9
ENDMDL
MODEL 7
REMARK VINA RESULT:    -4.418      3.010      4.165
REMARK INTER + INTRA:          -7.553
REMARK INTER:                  -6.458
REMARK INTRA:                  -1.095
REMARK UNBOUND:                -0.811
REMARK SMILES CCCCCCCCCCC(=O)[O-]
REMARK SMILES IDX 7 1 8 2 9 3 10 4 11 5 12 6 13 7 6 8 5 9 4 10 3 11 2 12 1 13
REMARK H PARENT
REMARK Flexibility Score: inf
ROOT
ATOM      1  C   UNL     1      44.931  51.004  11.138  1.00  0.00     0.000 C 
ENDROOT
BRANCH   1   2
ATOM      2  C   UNL     1      44.261  49.876  11.944  1.00  0.00     0.000 C 
BRANCH   2   3
ATOM      3  C   UNL     1      43.003  49.267  11.292  1.00  0.00     0.006 C 
BRANCH   3   4
ATOM      4  C   UNL     1      43.202  47.856  10.717  1.00  0.00     0.053 C 
BRANCH   4   5
ATOM      5  C   UNL     1      42.813  46.790  11.695  1.00  0.00     0.041 C 
ATOM      6  O   UNL     1      43.654  45.928  12.060  1.00  0.00    -0.550 OA
ATOM      7  O   UNL     1      41.511  46.729  12.176  1.00  0.00    -0.550 OA
ENDBRANCH   4   5
ENDBRANCH   3   4
ENDBRANCH   2   3
ENDBRANCH   1   2
BRANCH   1   8
ATOM      8  C   UNL     1      46.379  51.273  11.575  1.00  0.00     0.000 C 
BRANCH   8   9
ATOM      9  C   UNL     1      47.348  50.292  10.896  1.00  0.00    -0.000 C 
BRANCH   9  10
ATOM     10  C   UNL     1      46.920  49.920   9.465  1.00  0.00    -0.000 C 
BRANCH  10  11
ATOM     11  C   UNL     1      46.666  48.419   9.232  1.00  0.00    -0.000 C 
BRANCH  11  12
ATOM     12  C   UNL     1      46.957  47.563  10.472  1.00  0.00    -0.003 C 
ATOM     13  C   UNL     1      46.581  46.104  10.234  1.00  0.00     0.004 C 
ENDBRANCH  11  12
ENDBRANCH  10  11
ENDBRANCH   9  10
ENDBRANCH   8   9
ENDBRANCH   1   8
TORSDOF 9
ENDMDL
MODEL 8
REMARK VINA RESULT:    -4.378      4.303      6.598
REMARK INTER + INTRA:          -7.492
REMARK INTER:                  -6.523
REMARK INTRA:                  -0.969
REMARK UNBOUND:                -0.811
REMARK SMILES CCCCCCCCCCC(=O)[O-]
REMARK SMILES IDX 7 1 8 2 9 3 10 4 11 5 12 6 13 7 6 8 5 9 4 10 3 11 2 12 1 13
REMARK H PARENT
REMARK Flexibility Score: inf
ROOT
ATOM      1  C   UNL     1      46.930  50.835  11.247  1.00  0.00     0.000 C 
ENDROOT
BRANCH   1   2
ATOM      2  C   UNL     1      47.147  49.782  10.144  1.00  0.00     0.000 C 
BRANCH   2   3
ATOM      3  C   UNL     1      47.321  48.336  10.650  1.00  0.00     0.006 C 
BRANCH   3   4
ATOM      4  C   UNL     1      46.247  47.354  10.156  1.00  0.00     0.053 C 
BRANCH   4   5
ATOM      5  C   UNL     1      46.801  45.980   9.935  1.00  0.00     0.041 C 
ATOM      6  O   UNL     1      46.557  45.059  10.759  1.00  0.00    -0.550 OA
ATOM      7  O   UNL     1      47.615  45.726   8.839  1.00  0.00    -0.550 OA
ENDBRANCH   4   5
ENDBRANCH   3   4
ENDBRANCH   2   3
ENDBRANCH   1   2
BRANCH   1   8
ATOM      8  C   UNL     1      45.498  50.835  11.802  1.00  0.00     0.000 C 
BRANCH   8   9
ATOM      9  C   UNL     1      44.468  50.778  10.663  1.00  0.00    -0.000 C 
BRANCH   9  10
ATOM     10  C   UNL     1      43.320  49.791  10.940  1.00  0.00    -0.000 C 
BRANCH  10  11
ATOM     11  C   UNL     1      43.511  48.903  12.183  1.00  0.00    -0.000 C 
BRANCH  11  12
ATOM     12  C   UNL     1      42.311  48.946  13.139  1.00  0.00    -0.003 C 
ATOM     13  C   UNL     1      42.396  50.146  14.077  1.00  0.00     0.004 C 
ENDBRANCH  11  12
ENDBRANCH  10  11
ENDBRANCH   9  10
ENDBRANCH   8   9
ENDBRANCH   1   8
TORSDOF 9
ENDMDL
MODEL 9
REMARK VINA RESULT:    -4.365      2.490      4.174
REMARK INTER + INTRA:          -7.473
REMARK INTER:                  -6.686
REMARK INTRA:                  -0.787
REMARK UNBOUND:                -0.811
REMARK SMILES CCCCCCCCCCC(=O)[O-]
REMARK SMILES IDX 7 1 8 2 9 3 10 4 11 5 12 6 13 7 6 8 5 9 4 10 3 11 2 12 1 13
REMARK H PARENT
REMARK Flexibility Score: inf
ROOT
ATOM      1  C   UNL     1      46.116  51.131  10.057  1.00  0.00     0.000 C 
ENDROOT
BRANCH   1   2
ATOM      2  C   UNL     1      45.453  50.860  11.420  1.00  0.00     0.000 C 
BRANCH   2   3
ATOM      3  C   UNL     1      44.002  50.342  11.348  1.00  0.00     0.006 C 
BRANCH   3   4
ATOM      4  C   UNL     1      43.842  48.846  11.660  1.00  0.00     0.053 C 
BRANCH   4   5
ATOM      5  C   UNL     1      42.895  48.607  12.795  1.00  0.00     0.041 C 
ATOM      6  O   UNL     1      42.748  47.447  13.263  1.00  0.00    -0.550 OA
ATOM      7  O   UNL     1      42.149  49.658  13.312  1.00  0.00    -0.550 OA
ENDBRANCH   4   5
ENDBRANCH   3   4
ENDBRANCH   2   3
ENDBRANCH   1   2
BRANCH   1   8
ATOM      8  C   UNL     1      46.859  49.908   9.499  1.00  0.00     0.000 C 
BRANCH   8   9
ATOM      9  C   UNL     1      47.571  49.139  10.622  1.00  0.00    -0.000 C 
BRANCH   9  10
ATOM     10  C   UNL     1      47.230  47.638  10.631  1.00  0.00    -0.000 C 
BRANCH  10  11
ATOM     11  C   UNL     1      46.736  47.075   9.286  1.00  0.00    -0.000 C 
BRANCH  11  12
ATOM     12  C   UNL     1      46.797  45.542   9.220  1.00  0.00    -0.003 C 
ATOM     13  C   UNL     1      47.583  45.075   7.999  1.00  0.00     0.004 C 
ENDBRANCH  11  12
ENDBRANCH  10  11
ENDBRANCH   9  10
ENDBRANCH   8   9
ENDBRANCH   1   8
TORSDOF 9
ENDMDL
