MODEL 1
REMARK VINA RESULT:    16.032      0.000      0.000
REMARK INTER + INTRA:          23.475
REMARK INTER:                  23.529
REMARK INTRA:                  -0.054
REMARK UNBOUND:                -0.054
REMARK SMILES CC(C)COC(=O)c1ccccc1C(=O)OCC(C)C
REMARK SMILES IDX 8 1 9 2 10 3 11 4 12 5 13 6 6 7 7 8 5 9 4 10 2 11 1 12 3 13
REMARK SMILES IDX 14 14 15 15 16 16 17 17 18 18 19 19 20 20
REMARK H PARENT
REMARK Flexibility Score: inf
ROOT
ATOM      1  C   UNL     1      90.818   7.995 108.199  1.00  0.00     0.074 A 
ATOM      2  C   UNL     1      91.810   7.237 108.850  1.00  0.00     0.016 A 
ATOM      3  C   UNL     1      92.982   6.875 108.185  1.00  0.00     0.001 A 
ATOM      4  C   UNL     1      93.183   7.262 106.862  1.00  0.00     0.001 A 
ATOM      5  C   UNL     1      92.221   8.031 106.204  1.00  0.00     0.016 A 
ATOM      6  C   UNL     1      91.044   8.426 106.864  1.00  0.00     0.074 A 
ENDROOT
BRANCH   1   7
ATOM      7  C   UNL     1      89.542   8.240 108.912  1.00  0.00     0.339 C 
ATOM      8  O   UNL     1      89.184   9.422 109.166  1.00  0.00    -0.246 OA
BRANCH   7   9
ATOM      9  O   UNL     1      88.766   7.157 109.345  1.00  0.00    -0.462 OA
BRANCH   9  10
ATOM     10  C   UNL     1      88.469   6.883 110.715  1.00  0.00     0.236 C 
BRANCH  10  11
ATOM     11  C   UNL     1      87.390   7.835 111.262  1.00  0.00     0.021 C 
ATOM     12  C   UNL     1      87.151   7.630 112.762  1.00  0.00     0.011 C 
ATOM     13  C   UNL     1      86.077   7.693 110.481  1.00  0.00     0.011 C 
ENDBRANCH  10  11
ENDBRANCH   9  10
ENDBRANCH   7   9
ENDBRANCH   1   7
BRANCH   6  14
ATOM     14  C   UNL     1      90.120   9.329 106.145  1.00  0.00     0.339 C 
ATOM     15  O   UNL     1      89.544   8.943 105.090  1.00  0.00    -0.246 OA
BRANCH  14  16
ATOM     16  O   UNL     1      89.851  10.597 106.669  1.00  0.00    -0.462 OA
BRANCH  16  17
ATOM     17  C   UNL     1      88.795  11.423 106.186  1.00  0.00     0.236 C 
BRANCH  17  18
ATOM     18  C   UNL     1      89.338  12.814 105.830  1.00  0.00     0.021 C 
ATOM     19  C   UNL     1      88.893  13.846 106.872  1.00  0.00     0.011 C 
ATOM     20  C   UNL     1      88.881  13.241 104.429  1.00  0.00     0.011 C 
ENDBRANCH  17  18
ENDBRANCH  16  17
ENDBRANCH  14  16
ENDBRANCH   6  14
TORSDOF 8
ENDMDL
