MODEL 1
REMARK VINA RESULT:    -7.252      0.000      0.000
REMARK INTER + INTRA:          -9.055
REMARK INTER:                  -8.735
REMARK INTRA:                  -0.319
REMARK UNBOUND:                -0.319
REMARK SMILES O=c1c(O)c(-c2ccc(O)c(O)c2)oc2cc(O)cc(O)c12
REMARK SMILES IDX 5 1 3 2 2 3 1 4 22 5 20 6 19 7 17 8 16 9 15 10 14 11 6 12
REMARK SMILES IDX 7 13 8 14 9 15 13 16 11 17 10 18 12 20 4 22 21 24 18 26
REMARK H PARENT 10 19 12 21 4 23 21 25 18 27
REMARK Flexibility Score: inf
ROOT
ATOM      1  C   UNL     1     -24.464  81.608  77.957  1.00  0.00     0.180 A 
ATOM      2  C   UNL     1     -25.685  81.346  77.303  1.00  0.00     0.208 A 
ATOM      3  C   UNL     1     -26.156  82.265  76.354  1.00  0.00     0.238 A 
ATOM      4  O   UNL     1     -27.254  82.047  75.771  1.00  0.00    -0.285 OA
ATOM      5  C   UNL     1     -25.397  83.415  76.059  1.00  0.00     0.111 A 
ATOM      6  C   UNL     1     -25.800  84.388  75.113  1.00  0.00     0.134 A 
ATOM      7  C   UNL     1     -24.982  85.501  74.868  1.00  0.00     0.093 A 
ATOM      8  C   UNL     1     -23.772  85.660  75.548  1.00  0.00     0.123 A 
ATOM      9  C   UNL     1     -23.369  84.703  76.485  1.00  0.00     0.094 A 
ATOM     10  C   UNL     1     -24.171  83.587  76.744  1.00  0.00     0.146 A 
ATOM     11  O   UNL     1     -23.767  82.695  77.641  1.00  0.00    -0.452 OA
ENDROOT
BRANCH   1  12
ATOM     12  C   UNL     1     -23.910  80.696  78.983  1.00  0.00     0.025 A 
ATOM     13  C   UNL     1     -23.128  79.583  78.628  1.00  0.00     0.016 A 
ATOM     14  C   UNL     1     -22.636  78.723  79.612  1.00  0.00     0.051 A 
ATOM     15  C   UNL     1     -22.928  78.952  80.963  1.00  0.00     0.157 A 
ATOM     16  C   UNL     1     -24.218  80.910  80.337  1.00  0.00     0.062 A 
ATOM     17  C   UNL     1     -23.726  80.050  81.325  1.00  0.00     0.158 A 
BRANCH  15  18
ATOM     18  O   UNL     1     -22.434  78.092  81.943  1.00  0.00    -0.504 OA
ATOM     19  H   UNL     1     -22.125  78.438  82.845  1.00  0.00     0.293 HD
ENDBRANCH  15  18
BRANCH  17  20
ATOM     20  O   UNL     1     -24.041  80.303  82.660  1.00  0.00    -0.504 OA
ATOM     21  H   UNL     1     -24.927  80.025  83.066  1.00  0.00     0.293 HD
ENDBRANCH  17  20
ENDBRANCH   1  12
BRANCH   2  22
ATOM     22  O   UNL     1     -26.395  80.174  77.578  1.00  0.00    -0.502 OA
ATOM     23  H   UNL     1     -26.081  79.497  78.264  1.00  0.00     0.293 HD
ENDBRANCH   2  22
BRANCH   6  24
ATOM     24  O   UNL     1     -27.002  84.258  74.416  1.00  0.00    -0.507 OA
ATOM     25  H   UNL     1     -27.712  84.981  74.439  1.00  0.00     0.293 HD
ENDBRANCH   6  24
BRANCH   8  26
ATOM     26  O   UNL     1     -22.978  86.774  75.286  1.00  0.00    -0.508 OA
ATOM     27  H   UNL     1     -22.031  86.845  75.640  1.00  0.00     0.293 HD
ENDBRANCH   8  26
TORSDOF 6
ENDMDL
MODEL 2
REMARK VINA RESULT:    -6.927      1.307      3.064
REMARK INTER + INTRA:          -8.664
REMARK INTER:                  -8.332
REMARK INTRA:                  -0.332
REMARK UNBOUND:                -0.319
REMARK SMILES O=c1c(O)c(-c2ccc(O)c(O)c2)oc2cc(O)cc(O)c12
REMARK SMILES IDX 5 1 3 2 2 3 1 4 22 5 20 6 19 7 17 8 16 9 15 10 14 11 6 12
REMARK SMILES IDX 7 13 8 14 9 15 13 16 11 17 10 18 12 20 4 22 21 24 18 26
REMARK H PARENT 10 19 12 21 4 23 21 25 18 27
REMARK Flexibility Score: inf
ROOT
ATOM      1  C   UNL     1     -24.573  81.462  78.152  1.00  0.00     0.180 A 
ATOM      2  C   UNL     1     -23.855  82.547  77.613  1.00  0.00     0.208 A 
ATOM      3  C   UNL     1     -24.460  83.333  76.619  1.00  0.00     0.238 A 
ATOM      4  O   UNL     1     -23.821  84.301  76.121  1.00  0.00    -0.285 OA
ATOM      5  C   UNL     1     -25.771  83.037  76.197  1.00  0.00     0.111 A 
ATOM      6  C   UNL     1     -26.453  83.782  75.205  1.00  0.00     0.134 A 
ATOM      7  C   UNL     1     -27.762  83.429  74.846  1.00  0.00     0.093 A 
ATOM      8  C   UNL     1     -28.403  82.349  75.459  1.00  0.00     0.123 A 
ATOM      9  C   UNL     1     -27.734  81.609  76.439  1.00  0.00     0.094 A 
ATOM     10  C   UNL     1     -26.428  81.944  76.810  1.00  0.00     0.146 A 
ATOM     11  O   UNL     1     -25.814  81.221  77.740  1.00  0.00    -0.452 OA
ENDROOT
BRANCH   1  12
ATOM     12  C   UNL     1     -23.998  80.575  79.189  1.00  0.00     0.025 A 
ATOM     13  C   UNL     1     -23.268  79.424  78.846  1.00  0.00     0.016 A 
ATOM     14  C   UNL     1     -22.756  78.590  79.842  1.00  0.00     0.051 A 
ATOM     15  C   UNL     1     -22.976  78.883  81.194  1.00  0.00     0.157 A 
ATOM     16  C   UNL     1     -24.235  80.854  80.545  1.00  0.00     0.062 A 
ATOM     17  C   UNL     1     -23.722  80.020  81.546  1.00  0.00     0.158 A 
BRANCH  15  18
ATOM     18  O   UNL     1     -22.462  78.049  82.186  1.00  0.00    -0.504 OA
ATOM     19  H   UNL     1     -22.831  77.118  82.340  1.00  0.00     0.293 HD
ENDBRANCH  15  18
BRANCH  17  20
ATOM     20  O   UNL     1     -23.965  80.338  82.881  1.00  0.00    -0.504 OA
ATOM     21  H   UNL     1     -24.428  79.694  83.512  1.00  0.00     0.293 HD
ENDBRANCH  17  20
ENDBRANCH   1  12
BRANCH   2  22
ATOM     22  O   UNL     1     -22.575  82.850  78.083  1.00  0.00    -0.502 OA
ATOM     23  H   UNL     1     -22.069  82.238  78.712  1.00  0.00     0.293 HD
ENDBRANCH   2  22
BRANCH   6  24
ATOM     24  O   UNL     1     -25.841  84.866  74.574  1.00  0.00    -0.507 OA
ATOM     25  H   UNL     1     -25.009  84.754  74.007  1.00  0.00     0.293 HD
ENDBRANCH   6  24
BRANCH   8  26
ATOM     26  O   UNL     1     -29.703  82.020  75.085  1.00  0.00    -0.508 OA
ATOM     27  H   UNL     1     -29.973  81.949  74.111  1.00  0.00     0.293 HD
ENDBRANCH   8  26
TORSDOF 6
ENDMDL
MODEL 3
REMARK VINA RESULT:    -6.625      1.590      6.881
REMARK INTER + INTRA:          -8.300
REMARK INTER:                  -7.968
REMARK INTRA:                  -0.332
REMARK UNBOUND:                -0.319
REMARK SMILES O=c1c(O)c(-c2ccc(O)c(O)c2)oc2cc(O)cc(O)c12
REMARK SMILES IDX 5 1 3 2 2 3 1 4 22 5 20 6 19 7 17 8 16 9 15 10 14 11 6 12
REMARK SMILES IDX 7 13 8 14 9 15 13 16 11 17 10 18 12 20 4 22 21 24 18 26
REMARK H PARENT 10 19 12 21 4 23 21 25 18 27
REMARK Flexibility Score: inf
ROOT
ATOM      1  C   UNL     1     -24.259  81.761  77.638  1.00  0.00     0.180 A 
ATOM      2  C   UNL     1     -24.934  81.631  78.867  1.00  0.00     0.208 A 
ATOM      3  C   UNL     1     -24.508  80.648  79.773  1.00  0.00     0.238 A 
ATOM      4  O   UNL     1     -25.113  80.515  80.873  1.00  0.00    -0.285 OA
ATOM      5  C   UNL     1     -23.409  79.828  79.448  1.00  0.00     0.111 A 
ATOM      6  C   UNL     1     -22.915  78.817  80.307  1.00  0.00     0.134 A 
ATOM      7  C   UNL     1     -21.809  78.049  79.914  1.00  0.00     0.093 A 
ATOM      8  C   UNL     1     -21.187  78.272  78.683  1.00  0.00     0.123 A 
ATOM      9  C   UNL     1     -21.672  79.269  77.829  1.00  0.00     0.094 A 
ATOM     10  C   UNL     1     -22.773  80.044  78.202  1.00  0.00     0.146 A 
ATOM     11  O   UNL     1     -23.216  80.981  77.371  1.00  0.00    -0.452 OA
ENDROOT
BRANCH   1  12
ATOM     12  C   UNL     1     -24.660  82.761  76.622  1.00  0.00     0.025 A 
ATOM     13  C   UNL     1     -25.666  82.486  75.679  1.00  0.00     0.016 A 
ATOM     14  C   UNL     1     -26.009  83.436  74.716  1.00  0.00     0.051 A 
ATOM     15  C   UNL     1     -25.346  84.669  74.668  1.00  0.00     0.157 A 
ATOM     16  C   UNL     1     -23.982  83.991  76.558  1.00  0.00     0.062 A 
ATOM     17  C   UNL     1     -24.325  84.945  75.593  1.00  0.00     0.158 A 
BRANCH  15  18
ATOM     18  O   UNL     1     -25.693  85.616  73.706  1.00  0.00    -0.504 OA
ATOM     19  H   UNL     1     -24.990  86.088  73.149  1.00  0.00     0.293 HD
ENDBRANCH  15  18
BRANCH  17  20
ATOM     20  O   UNL     1     -23.640  86.159  75.570  1.00  0.00    -0.504 OA
ATOM     21  H   UNL     1     -22.974  86.415  76.289  1.00  0.00     0.293 HD
ENDBRANCH  17  20
ENDBRANCH   1  12
BRANCH   2  22
ATOM     22  O   UNL     1     -25.990  82.489  79.187  1.00  0.00    -0.502 OA
ATOM     23  H   UNL     1     -26.290  83.234  78.570  1.00  0.00     0.293 HD
ENDBRANCH   2  22
BRANCH   6  24
ATOM     24  O   UNL     1     -23.512  78.571  81.544  1.00  0.00    -0.507 OA
ATOM     25  H   UNL     1     -23.988  79.301  82.062  1.00  0.00     0.293 HD
ENDBRANCH   6  24
BRANCH   8  26
ATOM     26  O   UNL     1     -20.090  77.496  78.317  1.00  0.00    -0.508 OA
ATOM     27  H   UNL     1     -20.198  76.649  77.770  1.00  0.00     0.293 HD
ENDBRANCH   8  26
TORSDOF 6
ENDMDL
MODEL 4
REMARK VINA RESULT:    -6.522      3.103      4.559
REMARK INTER + INTRA:          -8.176
REMARK INTER:                  -8.030
REMARK INTRA:                  -0.145
REMARK UNBOUND:                -0.319
REMARK SMILES O=c1c(O)c(-c2ccc(O)c(O)c2)oc2cc(O)cc(O)c12
REMARK SMILES IDX 5 1 3 2 2 3 1 4 22 5 20 6 19 7 17 8 16 9 15 10 14 11 6 12
REMARK SMILES IDX 7 13 8 14 9 15 13 16 11 17 10 18 12 20 4 22 21 24 18 26
REMARK H PARENT 10 19 12 21 4 23 21 25 18 27
REMARK Flexibility Score: inf
ROOT
ATOM      1  C   UNL     1     -25.585  84.342  77.114  1.00  0.00     0.180 A 
ATOM      2  C   UNL     1     -25.253  84.930  75.878  1.00  0.00     0.208 A 
ATOM      3  C   UNL     1     -25.339  86.325  75.746  1.00  0.00     0.238 A 
ATOM      4  O   UNL     1     -25.056  86.862  74.640  1.00  0.00    -0.285 OA
ATOM      5  C   UNL     1     -25.734  87.106  76.850  1.00  0.00     0.111 A 
ATOM      6  C   UNL     1     -25.842  88.517  76.801  1.00  0.00     0.134 A 
ATOM      7  C   UNL     1     -26.232  89.225  77.948  1.00  0.00     0.093 A 
ATOM      8  C   UNL     1     -26.515  88.553  79.140  1.00  0.00     0.123 A 
ATOM      9  C   UNL     1     -26.410  87.159  79.193  1.00  0.00     0.094 A 
ATOM     10  C   UNL     1     -26.024  86.435  78.061  1.00  0.00     0.146 A 
ATOM     11  O   UNL     1     -25.938  85.112  78.138  1.00  0.00    -0.452 OA
ENDROOT
BRANCH   1  12
ATOM     12  C   UNL     1     -25.536  82.877  77.326  1.00  0.00     0.025 A 
ATOM     13  C   UNL     1     -26.691  82.146  77.654  1.00  0.00     0.016 A 
ATOM     14  C   UNL     1     -26.615  80.768  77.874  1.00  0.00     0.051 A 
ATOM     15  C   UNL     1     -25.387  80.103  77.783  1.00  0.00     0.157 A 
ATOM     16  C   UNL     1     -24.302  82.209  77.256  1.00  0.00     0.062 A 
ATOM     17  C   UNL     1     -24.224  80.829  77.476  1.00  0.00     0.158 A 
BRANCH  15  18
ATOM     18  O   UNL     1     -25.315  78.728  78.001  1.00  0.00    -0.504 OA
ATOM     19  H   UNL     1     -25.026  78.347  78.895  1.00  0.00     0.293 HD
ENDBRANCH  15  18
BRANCH  17  20
ATOM     20  O   UNL     1     -22.983  80.199  77.383  1.00  0.00    -0.504 OA
ATOM     21  H   UNL     1     -22.646  79.568  78.101  1.00  0.00     0.293 HD
ENDBRANCH  17  20
ENDBRANCH   1  12
BRANCH   2  22
ATOM     22  O   UNL     1     -24.818  84.137  74.812  1.00  0.00    -0.502 OA
ATOM     23  H   UNL     1     -25.063  83.158  74.729  1.00  0.00     0.293 HD
ENDBRANCH   2  22
BRANCH   6  24
ATOM     24  O   UNL     1     -25.566  89.219  75.627  1.00  0.00    -0.507 OA
ATOM     25  H   UNL     1     -26.306  89.563  75.025  1.00  0.00     0.293 HD
ENDBRANCH   6  24
BRANCH   8  26
ATOM     26  O   UNL     1     -26.900  89.279  80.264  1.00  0.00    -0.508 OA
ATOM     27  H   UNL     1     -27.359  90.178  80.182  1.00  0.00     0.293 HD
ENDBRANCH   8  26
TORSDOF 6
ENDMDL
MODEL 5
REMARK VINA RESULT:    -6.507     12.167     13.104
REMARK INTER + INTRA:          -8.157
REMARK INTER:                  -7.830
REMARK INTRA:                  -0.327
REMARK UNBOUND:                -0.319
REMARK SMILES O=c1c(O)c(-c2ccc(O)c(O)c2)oc2cc(O)cc(O)c12
REMARK SMILES IDX 5 1 3 2 2 3 1 4 22 5 20 6 19 7 17 8 16 9 15 10 14 11 6 12
REMARK SMILES IDX 7 13 8 14 9 15 13 16 11 17 10 18 12 20 4 22 21 24 18 26
REMARK H PARENT 10 19 12 21 4 23 21 25 18 27
REMARK Flexibility Score: inf
ROOT
ATOM      1  C   UNL     1     -27.520  90.940  85.483  1.00  0.00     0.180 A 
ATOM      2  C   UNL     1     -27.191  91.394  86.775  1.00  0.00     0.208 A 
ATOM      3  C   UNL     1     -27.770  92.584  87.243  1.00  0.00     0.238 A 
ATOM      4  O   UNL     1     -27.473  93.008  88.394  1.00  0.00    -0.285 OA
ATOM      5  C   UNL     1     -28.679  93.286  86.426  1.00  0.00     0.111 A 
ATOM      6  C   UNL     1     -29.309  94.490  86.824  1.00  0.00     0.134 A 
ATOM      7  C   UNL     1     -30.210  95.123  85.956  1.00  0.00     0.093 A 
ATOM      8  C   UNL     1     -30.495  94.578  84.701  1.00  0.00     0.123 A 
ATOM      9  C   UNL     1     -29.874  93.390  84.302  1.00  0.00     0.094 A 
ATOM     10  C   UNL     1     -28.972  92.744  85.152  1.00  0.00     0.146 A 
ATOM     11  O   UNL     1     -28.393  91.619  84.747  1.00  0.00    -0.452 OA
ENDROOT
BRANCH   1  12
ATOM     12  C   UNL     1     -26.937  89.704  84.912  1.00  0.00     0.025 A 
ATOM     13  C   UNL     1     -25.784  89.742  84.109  1.00  0.00     0.016 A 
ATOM     14  C   UNL     1     -25.266  88.566  83.561  1.00  0.00     0.051 A 
ATOM     15  C   UNL     1     -25.899  87.338  83.794  1.00  0.00     0.157 A 
ATOM     16  C   UNL     1     -27.580  88.473  85.126  1.00  0.00     0.062 A 
ATOM     17  C   UNL     1     -27.063  87.294  84.578  1.00  0.00     0.158 A 
BRANCH  15  18
ATOM     18  O   UNL     1     -25.379  86.166  83.247  1.00  0.00    -0.504 OA
ATOM     19  H   UNL     1     -24.646  85.642  83.713  1.00  0.00     0.293 HD
ENDBRANCH  15  18
BRANCH  17  20
ATOM     20  O   UNL     1     -27.721  86.089  84.824  1.00  0.00    -0.504 OA
ATOM     21  H   UNL     1     -28.405  85.708  84.181  1.00  0.00     0.293 HD
ENDBRANCH  17  20
ENDBRANCH   1  12
BRANCH   2  22
ATOM     22  O   UNL     1     -26.324  90.655  87.584  1.00  0.00    -0.502 OA
ATOM     23  H   UNL     1     -25.324  90.630  87.427  1.00  0.00     0.293 HD
ENDBRANCH   2  22
BRANCH   6  24
ATOM     24  O   UNL     1     -29.047  95.059  88.070  1.00  0.00    -0.507 OA
ATOM     25  H   UNL     1     -28.997  96.063  88.198  1.00  0.00     0.293 HD
ENDBRANCH   6  24
BRANCH   8  26
ATOM     26  O   UNL     1     -31.394  95.227  83.858  1.00  0.00    -0.508 OA
ATOM     27  H   UNL     1     -32.238  94.770  83.531  1.00  0.00     0.293 HD
ENDBRANCH   8  26
TORSDOF 6
ENDMDL
MODEL 6
REMARK VINA RESULT:    -6.504     11.079     13.056
REMARK INTER + INTRA:          -8.154
REMARK INTER:                  -7.830
REMARK INTRA:                  -0.324
REMARK UNBOUND:                -0.319
REMARK SMILES O=c1c(O)c(-c2ccc(O)c(O)c2)oc2cc(O)cc(O)c12
REMARK SMILES IDX 5 1 3 2 2 3 1 4 22 5 20 6 19 7 17 8 16 9 15 10 14 11 6 12
REMARK SMILES IDX 7 13 8 14 9 15 13 16 11 17 10 18 12 20 4 22 21 24 18 26
REMARK H PARENT 10 19 12 21 4 23 21 25 18 27
REMARK Flexibility Score: inf
ROOT
ATOM      1  C   UNL     1     -23.252  93.349  82.836  1.00  0.00     0.180 A 
ATOM      2  C   UNL     1     -23.657  93.652  81.522  1.00  0.00     0.208 A 
ATOM      3  C   UNL     1     -22.964  94.644  80.811  1.00  0.00     0.238 A 
ATOM      4  O   UNL     1     -23.326  94.932  79.637  1.00  0.00    -0.285 OA
ATOM      5  C   UNL     1     -21.871  95.299  81.412  1.00  0.00     0.111 A 
ATOM      6  C   UNL     1     -21.118  96.306  80.762  1.00  0.00     0.134 A 
ATOM      7  C   UNL     1     -20.037  96.904  81.426  1.00  0.00     0.093 A 
ATOM      8  C   UNL     1     -19.693  96.516  82.723  1.00  0.00     0.123 A 
ATOM      9  C   UNL     1     -20.434  95.522  83.371  1.00  0.00     0.094 A 
ATOM     10  C   UNL     1     -21.516  94.915  82.727  1.00  0.00     0.146 A 
ATOM     11  O   UNL     1     -22.206  93.976  83.366  1.00  0.00    -0.452 OA
ENDROOT
BRANCH   1  12
ATOM     12  C   UNL     1     -23.943  92.329  83.658  1.00  0.00     0.025 A 
ATOM     13  C   UNL     1     -25.111  92.637  84.377  1.00  0.00     0.016 A 
ATOM     14  C   UNL     1     -25.732  91.664  85.165  1.00  0.00     0.051 A 
ATOM     15  C   UNL     1     -25.190  90.376  85.257  1.00  0.00     0.157 A 
ATOM     16  C   UNL     1     -23.391  91.042  83.770  1.00  0.00     0.062 A 
ATOM     17  C   UNL     1     -24.011  90.066  84.558  1.00  0.00     0.158 A 
BRANCH  15  18
ATOM     18  O   UNL     1     -25.813  89.408  86.043  1.00  0.00    -0.504 OA
ATOM     19  H   UNL     1     -26.033  88.489  85.676  1.00  0.00     0.293 HD
ENDBRANCH  15  18
BRANCH  17  20
ATOM     20  O   UNL     1     -23.442  88.795  84.633  1.00  0.00    -0.504 OA
ATOM     21  H   UNL     1     -23.103  88.408  85.506  1.00  0.00     0.293 HD
ENDBRANCH  17  20
ENDBRANCH   1  12
BRANCH   2  22
ATOM     22  O   UNL     1     -24.713  92.954  80.931  1.00  0.00    -0.502 OA
ATOM     23  H   UNL     1     -25.232  93.321  80.142  1.00  0.00     0.293 HD
ENDBRANCH   2  22
BRANCH   6  24
ATOM     24  O   UNL     1     -21.435  96.716  79.467  1.00  0.00    -0.507 OA
ATOM     25  H   UNL     1     -22.300  97.202  79.257  1.00  0.00     0.293 HD
ENDBRANCH   6  24
BRANCH   8  26
ATOM     26  O   UNL     1     -18.614  97.125  83.360  1.00  0.00    -0.508 OA
ATOM     27  H   UNL     1     -17.836  96.583  83.718  1.00  0.00     0.293 HD
ENDBRANCH   8  26
TORSDOF 6
ENDMDL
MODEL 7
REMARK VINA RESULT:    -6.498      1.972      2.526
REMARK INTER + INTRA:          -8.147
REMARK INTER:                  -7.817
REMARK INTRA:                  -0.330
REMARK UNBOUND:                -0.319
REMARK SMILES O=c1c(O)c(-c2ccc(O)c(O)c2)oc2cc(O)cc(O)c12
REMARK SMILES IDX 5 1 3 2 2 3 1 4 22 5 20 6 19 7 17 8 16 9 15 10 14 11 6 12
REMARK SMILES IDX 7 13 8 14 9 15 13 16 11 17 10 18 12 20 4 22 21 24 18 26
REMARK H PARENT 10 19 12 21 4 23 21 25 18 27
REMARK Flexibility Score: inf
ROOT
ATOM      1  C   UNL     1     -25.929  82.331  77.325  1.00  0.00     0.180 A 
ATOM      2  C   UNL     1     -27.033  82.654  76.512  1.00  0.00     0.208 A 
ATOM      3  C   UNL     1     -26.938  83.755  75.647  1.00  0.00     0.238 A 
ATOM      4  O   UNL     1     -27.925  84.060  74.922  1.00  0.00    -0.285 OA
ATOM      5  C   UNL     1     -25.742  84.499  75.593  1.00  0.00     0.111 A 
ATOM      6  C   UNL     1     -25.565  85.619  74.745  1.00  0.00     0.134 A 
ATOM      7  C   UNL     1     -24.339  86.301  74.743  1.00  0.00     0.093 A 
ATOM      8  C   UNL     1     -23.290  85.888  75.568  1.00  0.00     0.123 A 
ATOM      9  C   UNL     1     -23.461  84.782  76.408  1.00  0.00     0.094 A 
ATOM     10  C   UNL     1     -24.675  84.089  76.426  1.00  0.00     0.146 A 
ATOM     11  O   UNL     1     -24.812  83.046  77.236  1.00  0.00    -0.452 OA
ENDROOT
BRANCH   1  12
ATOM     12  C   UNL     1     -25.958  81.196  78.277  1.00  0.00     0.025 A 
ATOM     13  C   UNL     1     -26.446  81.351  79.586  1.00  0.00     0.016 A 
ATOM     14  C   UNL     1     -26.441  80.272  80.473  1.00  0.00     0.051 A 
ATOM     15  C   UNL     1     -25.936  79.028  80.073  1.00  0.00     0.157 A 
ATOM     16  C   UNL     1     -25.433  79.953  77.886  1.00  0.00     0.062 A 
ATOM     17  C   UNL     1     -25.427  78.871  78.773  1.00  0.00     0.158 A 
BRANCH  15  18
ATOM     18  O   UNL     1     -25.933  77.953  80.960  1.00  0.00    -0.504 OA
ATOM     19  H   UNL     1     -25.452  77.088  80.744  1.00  0.00     0.293 HD
ENDBRANCH  15  18
BRANCH  17  20
ATOM     20  O   UNL     1     -24.911  77.648  78.344  1.00  0.00    -0.504 OA
ATOM     21  H   UNL     1     -24.312  77.572  77.530  1.00  0.00     0.293 HD
ENDBRANCH  17  20
ENDBRANCH   1  12
BRANCH   2  22
ATOM     22  O   UNL     1     -28.190  81.871  76.548  1.00  0.00    -0.502 OA
ATOM     23  H   UNL     1     -28.589  81.453  75.716  1.00  0.00     0.293 HD
ENDBRANCH   2  22
BRANCH   6  24
ATOM     24  O   UNL     1     -26.592  86.057  73.909  1.00  0.00    -0.507 OA
ATOM     25  H   UNL     1     -27.479  85.569  73.852  1.00  0.00     0.293 HD
ENDBRANCH   6  24
BRANCH   8  26
ATOM     26  O   UNL     1     -22.084  86.583  75.546  1.00  0.00    -0.508 OA
ATOM     27  H   UNL     1     -22.050  87.590  75.647  1.00  0.00     0.293 HD
ENDBRANCH   8  26
TORSDOF 6
ENDMDL
MODEL 8
REMARK VINA RESULT:    -6.373     10.983     12.642
REMARK INTER + INTRA:          -7.997
REMARK INTER:                  -7.681
REMARK INTRA:                  -0.316
REMARK UNBOUND:                -0.319
REMARK SMILES O=c1c(O)c(-c2ccc(O)c(O)c2)oc2cc(O)cc(O)c12
REMARK SMILES IDX 5 1 3 2 2 3 1 4 22 5 20 6 19 7 17 8 16 9 15 10 14 11 6 12
REMARK SMILES IDX 7 13 8 14 9 15 13 16 11 17 10 18 12 20 4 22 21 24 18 26
REMARK H PARENT 10 19 12 21 4 23 21 25 18 27
REMARK Flexibility Score: inf
ROOT
ATOM      1  C   UNL     1     -24.279  92.728  83.310  1.00  0.00     0.180 A 
ATOM      2  C   UNL     1     -24.872  92.998  82.062  1.00  0.00     0.208 A 
ATOM      3  C   UNL     1     -24.283  93.958  81.225  1.00  0.00     0.238 A 
ATOM      4  O   UNL     1     -24.813  94.217  80.109  1.00  0.00    -0.285 OA
ATOM      5  C   UNL     1     -23.106  94.615  81.637  1.00  0.00     0.111 A 
ATOM      6  C   UNL     1     -22.448  95.592  80.852  1.00  0.00     0.134 A 
ATOM      7  C   UNL     1     -21.274  96.193  81.329  1.00  0.00     0.093 A 
ATOM      8  C   UNL     1     -20.746  95.838  82.573  1.00  0.00     0.123 A 
ATOM      9  C   UNL     1     -21.392  94.874  83.354  1.00  0.00     0.094 A 
ATOM     10  C   UNL     1     -22.564  94.264  82.896  1.00  0.00     0.146 A 
ATOM     11  O   UNL     1     -23.161  93.355  83.659  1.00  0.00    -0.452 OA
ENDROOT
BRANCH   1  12
ATOM     12  C   UNL     1     -24.851  91.742  84.256  1.00  0.00     0.025 A 
ATOM     13  C   UNL     1     -24.564  90.371  84.147  1.00  0.00     0.016 A 
ATOM     14  C   UNL     1     -25.135  89.457  85.036  1.00  0.00     0.051 A 
ATOM     15  C   UNL     1     -26.011  89.896  86.037  1.00  0.00     0.157 A 
ATOM     16  C   UNL     1     -25.747  92.176  85.248  1.00  0.00     0.062 A 
ATOM     17  C   UNL     1     -26.320  91.263  86.140  1.00  0.00     0.158 A 
BRANCH  15  18
ATOM     18  O   UNL     1     -26.578  88.982  86.924  1.00  0.00    -0.504 OA
ATOM     19  H   UNL     1     -26.897  89.263  87.844  1.00  0.00     0.293 HD
ENDBRANCH  15  18
BRANCH  17  20
ATOM     20  O   UNL     1     -27.194  91.732  87.121  1.00  0.00    -0.504 OA
ATOM     21  H   UNL     1     -28.011  92.286  86.893  1.00  0.00     0.293 HD
ENDBRANCH  17  20
ENDBRANCH   1  12
BRANCH   2  22
ATOM     22  O   UNL     1     -26.012  92.298  81.655  1.00  0.00    -0.502 OA
ATOM     23  H   UNL     1     -26.827  92.764  81.275  1.00  0.00     0.293 HD
ENDBRANCH   2  22
BRANCH   6  24
ATOM     24  O   UNL     1     -22.949  95.968  79.605  1.00  0.00    -0.507 OA
ATOM     25  H   UNL     1     -22.341  96.285  78.859  1.00  0.00     0.293 HD
ENDBRANCH   6  24
BRANCH   8  26
ATOM     26  O   UNL     1     -19.578  96.449  83.023  1.00  0.00    -0.508 OA
ATOM     27  H   UNL     1     -18.692  95.958  83.031  1.00  0.00     0.293 HD
ENDBRANCH   8  26
TORSDOF 6
ENDMDL
MODEL 9
REMARK VINA RESULT:    -6.370      2.315      2.917
REMARK INTER + INTRA:          -7.993
REMARK INTER:                  -7.769
REMARK INTRA:                  -0.224
REMARK UNBOUND:                -0.319
REMARK SMILES O=c1c(O)c(-c2ccc(O)c(O)c2)oc2cc(O)cc(O)c12
REMARK SMILES IDX 5 1 3 2 2 3 1 4 22 5 20 6 19 7 17 8 16 9 15 10 14 11 6 12
REMARK SMILES IDX 7 13 8 14 9 15 13 16 11 17 10 18 12 20 4 22 21 24 18 26
REMARK H PARENT 10 19 12 21 4 23 21 25 18 27
REMARK Flexibility Score: inf
ROOT
ATOM      1  C   UNL     1     -25.145  82.924  77.412  1.00  0.00     0.180 A 
ATOM      2  C   UNL     1     -26.109  83.485  78.272  1.00  0.00     0.208 A 
ATOM      3  C   UNL     1     -26.813  84.623  77.849  1.00  0.00     0.238 A 
ATOM      4  O   UNL     1     -27.671  85.142  78.616  1.00  0.00    -0.285 OA
ATOM      5  C   UNL     1     -26.559  85.168  76.575  1.00  0.00     0.111 A 
ATOM      6  C   UNL     1     -27.227  86.310  76.072  1.00  0.00     0.134 A 
ATOM      7  C   UNL     1     -26.924  86.785  74.788  1.00  0.00     0.093 A 
ATOM      8  C   UNL     1     -25.968  86.143  73.997  1.00  0.00     0.123 A 
ATOM      9  C   UNL     1     -25.304  85.014  74.489  1.00  0.00     0.094 A 
ATOM     10  C   UNL     1     -25.591  84.526  75.766  1.00  0.00     0.146 A 
ATOM     11  O   UNL     1     -24.942  83.455  76.211  1.00  0.00    -0.452 OA
ENDROOT
BRANCH   1  12
ATOM     12  C   UNL     1     -24.348  81.735  77.793  1.00  0.00     0.025 A 
ATOM     13  C   UNL     1     -22.970  81.830  78.056  1.00  0.00     0.016 A 
ATOM     14  C   UNL     1     -22.235  80.690  78.389  1.00  0.00     0.051 A 
ATOM     15  C   UNL     1     -22.860  79.438  78.452  1.00  0.00     0.157 A 
ATOM     16  C   UNL     1     -24.966  80.474  77.836  1.00  0.00     0.062 A 
ATOM     17  C   UNL     1     -24.232  79.331  78.170  1.00  0.00     0.158 A 
BRANCH  15  18
ATOM     18  O   UNL     1     -22.123  78.303  78.787  1.00  0.00    -0.504 OA
ATOM     19  H   UNL     1     -22.577  77.436  79.052  1.00  0.00     0.293 HD
ENDBRANCH  15  18
BRANCH  17  20
ATOM     20  O   UNL     1     -24.883  78.098  78.217  1.00  0.00    -0.504 OA
ATOM     21  H   UNL     1     -25.335  77.697  77.404  1.00  0.00     0.293 HD
ENDBRANCH  17  20
ENDBRANCH   1  12
BRANCH   2  22
ATOM     22  O   UNL     1     -26.378  82.898  79.511  1.00  0.00    -0.502 OA
ATOM     23  H   UNL     1     -27.318  82.663  79.808  1.00  0.00     0.293 HD
ENDBRANCH   2  22
BRANCH   6  24
ATOM     24  O   UNL     1     -28.187  86.974  76.837  1.00  0.00    -0.507 OA
ATOM     25  H   UNL     1     -28.116  87.037  77.846  1.00  0.00     0.293 HD
ENDBRANCH   6  24
BRANCH   8  26
ATOM     26  O   UNL     1     -25.686  86.634  72.725  1.00  0.00    -0.508 OA
ATOM     27  H   UNL     1     -25.563  86.015  71.933  1.00  0.00     0.293 HD
ENDBRANCH   8  26
TORSDOF 6
ENDMDL
