MODEL 1
REMARK VINA RESULT:    -3.154      0.000      0.000
REMARK INTER + INTRA:          -5.249
REMARK INTER:                  -4.814
REMARK INTRA:                  -0.435
REMARK UNBOUND:                -0.435
REMARK SMILES O=C([O-])CCCCCCCCC(=O)[O-]
REMARK SMILES IDX 7 1 6 2 5 3 4 4 2 5 1 6 3 7 8 8 9 9 10 10 11 11 12 12 13 13
REMARK SMILES IDX 14 14
REMARK H PARENT
REMARK Flexibility Score: inf
ROOT
ATOM      1  C   UNL     1       7.303 -22.758 -18.660  1.00  0.00     0.000 C 
ENDROOT
BRANCH   1   2
ATOM      2  C   UNL     1       7.152 -23.124 -20.144  1.00  0.00     0.000 C 
BRANCH   2   3
ATOM      3  C   UNL     1       8.500 -23.031 -20.873  1.00  0.00     0.006 C 
BRANCH   3   4
ATOM      4  C   UNL     1       8.356 -22.464 -22.291  1.00  0.00     0.053 C 
BRANCH   4   5
ATOM      5  C   UNL     1       9.361 -21.386 -22.563  1.00  0.00     0.041 C 
ATOM      6  O   UNL     1      10.248 -21.554 -23.440  1.00  0.00    -0.550 OA
ATOM      7  O   UNL     1       9.337 -20.210 -21.824  1.00  0.00    -0.550 OA
ENDBRANCH   4   5
ENDBRANCH   3   4
ENDBRANCH   2   3
ENDBRANCH   1   2
BRANCH   1   8
ATOM      8  C   UNL     1       6.059 -23.117 -17.833  1.00  0.00     0.000 C 
BRANCH   8   9
ATOM      9  C   UNL     1       5.877 -22.202 -16.609  1.00  0.00     0.000 C 
BRANCH   9  10
ATOM     10  C   UNL     1       6.624 -20.867 -16.755  1.00  0.00     0.006 C 
BRANCH  10  11
ATOM     11  C   UNL     1       7.151 -20.337 -15.414  1.00  0.00     0.053 C 
BRANCH  11  12
ATOM     12  C   UNL     1       8.534 -20.848 -15.158  1.00  0.00     0.041 C 
ATOM     13  O   UNL     1       9.216 -21.327 -16.102  1.00  0.00    -0.550 OA
ATOM     14  O   UNL     1       9.051 -20.840 -13.869  1.00  0.00    -0.550 OA
ENDBRANCH  11  12
ENDBRANCH  10  11
ENDBRANCH   9  10
ENDBRANCH   8   9
ENDBRANCH   1   8
TORSDOF 9
ENDMDL
MODEL 2
REMARK VINA RESULT:    -3.063      0.747      6.055
REMARK INTER + INTRA:          -5.110
REMARK INTER:                  -4.603
REMARK INTRA:                  -0.508
REMARK UNBOUND:                -0.435
REMARK SMILES O=C([O-])CCCCCCCCC(=O)[O-]
REMARK SMILES IDX 7 1 6 2 5 3 4 4 2 5 1 6 3 7 8 8 9 9 10 10 11 11 12 12 13 13
REMARK SMILES IDX 14 14
REMARK H PARENT
REMARK Flexibility Score: inf
ROOT
ATOM      1  C   UNL     1       5.448 -22.812 -17.055  1.00  0.00     0.000 C 
ENDROOT
BRANCH   1   2
ATOM      2  C   UNL     1       5.483 -21.658 -16.043  1.00  0.00     0.000 C 
BRANCH   2   3
ATOM      3  C   UNL     1       6.577 -20.642 -16.407  1.00  0.00     0.006 C 
BRANCH   3   4
ATOM      4  C   UNL     1       7.344 -20.148 -15.174  1.00  0.00     0.053 C 
BRANCH   4   5
ATOM      5  C   UNL     1       8.688 -20.801 -15.058  1.00  0.00     0.041 C 
ATOM      6  O   UNL     1       9.268 -20.864 -13.943  1.00  0.00    -0.550 OA
ATOM      7  O   UNL     1       9.313 -21.311 -16.189  1.00  0.00    -0.550 OA
ENDBRANCH   4   5
ENDBRANCH   3   4
ENDBRANCH   2   3
ENDBRANCH   1   2
BRANCH   1   8
ATOM      8  C   UNL     1       6.833 -23.125 -17.643  1.00  0.00     0.000 C 
BRANCH   8   9
ATOM      9  C   UNL     1       6.836 -23.125 -19.182  1.00  0.00     0.000 C 
BRANCH   9  10
ATOM     10  C   UNL     1       8.144 -22.571 -19.769  1.00  0.00     0.006 C 
BRANCH  10  11
ATOM     11  C   UNL     1       8.084 -22.411 -21.294  1.00  0.00     0.053 C 
BRANCH  11  12
ATOM     12  C   UNL     1       9.141 -21.461 -21.761  1.00  0.00     0.041 C 
ATOM     13  O   UNL     1       9.670 -20.655 -20.951  1.00  0.00    -0.550 OA
ATOM     14  O   UNL     1       9.508 -21.431 -23.100  1.00  0.00    -0.550 OA
ENDBRANCH  11  12
ENDBRANCH  10  11
ENDBRANCH   9  10
ENDBRANCH   8   9
ENDBRANCH   1   8
TORSDOF 9
ENDMDL
MODEL 3
REMARK VINA RESULT:    -2.931      1.197      6.320
REMARK INTER + INTRA:          -4.909
REMARK INTER:                  -4.362
REMARK INTRA:                  -0.546
REMARK UNBOUND:                -0.435
REMARK SMILES O=C([O-])CCCCCCCCC(=O)[O-]
REMARK SMILES IDX 7 1 6 2 5 3 4 4 2 5 1 6 3 7 8 8 9 9 10 10 11 11 12 12 13 13
REMARK SMILES IDX 14 14
REMARK H PARENT
REMARK Flexibility Score: inf
ROOT
ATOM      1  C   UNL     1       7.832 -22.243 -18.734  1.00  0.00     0.000 C 
ENDROOT
BRANCH   1   2
ATOM      2  C   UNL     1       6.724 -23.024 -18.012  1.00  0.00     0.000 C 
BRANCH   2   3
ATOM      3  C   UNL     1       6.378 -22.369 -16.667  1.00  0.00     0.006 C 
BRANCH   3   4
ATOM      4  C   UNL     1       7.593 -22.279 -15.735  1.00  0.00     0.053 C 
BRANCH   4   5
ATOM      5  C   UNL     1       7.825 -20.878 -15.258  1.00  0.00     0.041 C 
ATOM      6  O   UNL     1       6.883 -20.042 -15.266  1.00  0.00    -0.550 OA
ATOM      7  O   UNL     1       9.089 -20.487 -14.835  1.00  0.00    -0.550 OA
ENDBRANCH   4   5
ENDBRANCH   3   4
ENDBRANCH   2   3
ENDBRANCH   1   2
BRANCH   1   8
ATOM      8  C   UNL     1       9.039 -23.124 -19.092  1.00  0.00     0.000 C 
BRANCH   8   9
ATOM      9  C   UNL     1       9.344 -23.125 -20.600  1.00  0.00     0.000 C 
BRANCH   9  10
ATOM     10  C   UNL     1       8.118 -22.761 -21.451  1.00  0.00     0.006 C 
BRANCH  10  11
ATOM     11  C   UNL     1       8.498 -22.080 -22.773  1.00  0.00     0.053 C 
BRANCH  11  12
ATOM     12  C   UNL     1       9.355 -20.882 -22.515  1.00  0.00     0.041 C 
ATOM     13  O   UNL     1       8.868 -19.862 -21.959  1.00  0.00    -0.550 OA
ATOM     14  O   UNL     1      10.680 -20.871 -22.932  1.00  0.00    -0.550 OA
ENDBRANCH  11  12
ENDBRANCH  10  11
ENDBRANCH   9  10
ENDBRANCH   8   9
ENDBRANCH   1   8
TORSDOF 9
ENDMDL
MODEL 4
REMARK VINA RESULT:    -2.873      2.170      6.433
REMARK INTER + INTRA:          -4.819
REMARK INTER:                  -4.158
REMARK INTRA:                  -0.661
REMARK UNBOUND:                -0.435
REMARK SMILES O=C([O-])CCCCCCCCC(=O)[O-]
REMARK SMILES IDX 7 1 6 2 5 3 4 4 2 5 1 6 3 7 8 8 9 9 10 10 11 11 12 12 13 13
REMARK SMILES IDX 14 14
REMARK H PARENT
REMARK Flexibility Score: inf
ROOT
ATOM      1  C   UNL     1       9.062 -21.792 -18.548  1.00  0.00     0.000 C 
ENDROOT
BRANCH   1   2
ATOM      2  C   UNL     1       8.132 -22.991 -18.318  1.00  0.00     0.000 C 
BRANCH   2   3
ATOM      3  C   UNL     1       7.700 -23.077 -16.846  1.00  0.00     0.006 C 
BRANCH   3   4
ATOM      4  C   UNL     1       7.844 -21.733 -16.120  1.00  0.00     0.053 C 
BRANCH   4   5
ATOM      5  C   UNL     1       6.519 -21.057 -15.936  1.00  0.00     0.041 C 
ATOM      6  O   UNL     1       6.467 -19.843 -15.605  1.00  0.00    -0.550 OA
ATOM      7  O   UNL     1       5.342 -21.777 -16.100  1.00  0.00    -0.550 OA
ENDBRANCH   4   5
ENDBRANCH   3   4
ENDBRANCH   2   3
ENDBRANCH   1   2
BRANCH   1   8
ATOM      8  C   UNL     1      10.432 -22.206 -19.111  1.00  0.00     0.000 C 
BRANCH   8   9
ATOM      9  C   UNL     1      10.780 -21.473 -20.418  1.00  0.00     0.000 C 
BRANCH   9  10
ATOM     10  C   UNL     1       9.652 -20.544 -20.893  1.00  0.00     0.006 C 
BRANCH  10  11
ATOM     11  C   UNL     1       9.328 -20.722 -22.382  1.00  0.00     0.053 C 
BRANCH  11  12
ATOM     12  C   UNL     1       8.586 -22.003 -22.604  1.00  0.00     0.041 C 
ATOM     13  O   UNL     1       7.714 -22.381 -21.779  1.00  0.00    -0.550 OA
ATOM     14  O   UNL     1       8.892 -22.804 -23.697  1.00  0.00    -0.550 OA
ENDBRANCH  11  12
ENDBRANCH  10  11
ENDBRANCH   9  10
ENDBRANCH   8   9
ENDBRANCH   1   8
TORSDOF 9
ENDMDL
MODEL 5
REMARK VINA RESULT:    -2.792      1.721      2.437
REMARK INTER + INTRA:          -4.696
REMARK INTER:                  -4.044
REMARK INTRA:                  -0.651
REMARK UNBOUND:                -0.435
REMARK SMILES O=C([O-])CCCCCCCCC(=O)[O-]
REMARK SMILES IDX 7 1 6 2 5 3 4 4 2 5 1 6 3 7 8 8 9 9 10 10 11 11 12 12 13 13
REMARK SMILES IDX 14 14
REMARK H PARENT
REMARK Flexibility Score: inf
ROOT
ATOM      1  C   UNL     1       9.608 -21.920 -18.759  1.00  0.00     0.000 C 
ENDROOT
BRANCH   1   2
ATOM      2  C   UNL     1      10.876 -21.881 -19.624  1.00  0.00     0.000 C 
BRANCH   2   3
ATOM      3  C   UNL     1      10.702 -22.729 -20.892  1.00  0.00     0.006 C 
BRANCH   3   4
ATOM      4  C   UNL     1      10.786 -21.885 -22.171  1.00  0.00     0.053 C 
BRANCH   4   5
ATOM      5  C   UNL     1       9.438 -21.386 -22.595  1.00  0.00     0.041 C 
ATOM      6  O   UNL     1       9.055 -20.234 -22.260  1.00  0.00    -0.550 OA
ATOM      7  O   UNL     1       8.594 -22.205 -23.334  1.00  0.00    -0.550 OA
ENDBRANCH   4   5
ENDBRANCH   3   4
ENDBRANCH   2   3
ENDBRANCH   1   2
BRANCH   1   8
ATOM      8  C   UNL     1       8.521 -22.834 -19.347  1.00  0.00     0.000 C 
BRANCH   8   9
ATOM      9  C   UNL     1       7.179 -22.711 -18.604  1.00  0.00     0.000 C 
BRANCH   9  10
ATOM     10  C   UNL     1       7.317 -22.944 -17.092  1.00  0.00     0.006 C 
BRANCH  10  11
ATOM     11  C   UNL     1       6.376 -22.054 -16.269  1.00  0.00     0.053 C 
BRANCH  11  12
ATOM     12  C   UNL     1       7.106 -20.851 -15.762  1.00  0.00     0.041 C 
ATOM     13  O   UNL     1       6.510 -19.747 -15.656  1.00  0.00    -0.550 OA
ATOM     14  O   UNL     1       8.458 -20.936 -15.454  1.00  0.00    -0.550 OA
ENDBRANCH  11  12
ENDBRANCH  10  11
ENDBRANCH   9  10
ENDBRANCH   8   9
ENDBRANCH   1   8
TORSDOF 9
ENDMDL
MODEL 6
REMARK VINA RESULT:    -2.779      1.612      5.740
REMARK INTER + INTRA:          -4.677
REMARK INTER:                  -3.873
REMARK INTRA:                  -0.804
REMARK UNBOUND:                -0.435
REMARK SMILES O=C([O-])CCCCCCCCC(=O)[O-]
REMARK SMILES IDX 7 1 6 2 5 3 4 4 2 5 1 6 3 7 8 8 9 9 10 10 11 11 12 12 13 13
REMARK SMILES IDX 14 14
REMARK H PARENT
REMARK Flexibility Score: inf
ROOT
ATOM      1  C   UNL     1       5.937 -22.120 -16.109  1.00  0.00     0.000 C 
ENDROOT
BRANCH   1   2
ATOM      2  C   UNL     1       6.478 -20.706 -16.370  1.00  0.00     0.000 C 
BRANCH   2   3
ATOM      3  C   UNL     1       7.460 -20.282 -15.268  1.00  0.00     0.006 C 
BRANCH   3   4
ATOM      4  C   UNL     1       8.641 -21.253 -15.139  1.00  0.00     0.053 C 
BRANCH   4   5
ATOM      5  C   UNL     1       9.925 -20.531 -14.861  1.00  0.00     0.041 C 
ATOM      6  O   UNL     1      10.033 -19.800 -13.841  1.00  0.00    -0.550 OA
ATOM      7  O   UNL     1      10.990 -20.640 -15.746  1.00  0.00    -0.550 OA
ENDBRANCH   4   5
ENDBRANCH   3   4
ENDBRANCH   2   3
ENDBRANCH   1   2
BRANCH   1   8
ATOM      8  C   UNL     1       6.364 -23.125 -17.192  1.00  0.00     0.000 C 
BRANCH   8   9
ATOM      9  C   UNL     1       7.109 -22.456 -18.360  1.00  0.00     0.000 C 
BRANCH   9  10
ATOM     10  C   UNL     1       8.530 -23.010 -18.548  1.00  0.00     0.006 C 
BRANCH  10  11
ATOM     11  C   UNL     1       9.568 -21.905 -18.782  1.00  0.00     0.053 C 
BRANCH  11  12
ATOM     12  C   UNL     1       9.847 -21.752 -20.244  1.00  0.00     0.041 C 
ATOM     13  O   UNL     1       9.619 -20.656 -20.821  1.00  0.00    -0.550 OA
ATOM     14  O   UNL     1      10.312 -22.834 -20.981  1.00  0.00    -0.550 OA
ENDBRANCH  11  12
ENDBRANCH  10  11
ENDBRANCH   9  10
ENDBRANCH   8   9
ENDBRANCH   1   8
TORSDOF 9
ENDMDL
MODEL 7
REMARK VINA RESULT:    -2.593      2.048      6.183
REMARK INTER + INTRA:          -4.392
REMARK INTER:                  -3.654
REMARK INTRA:                  -0.738
REMARK UNBOUND:                -0.435
REMARK SMILES O=C([O-])CCCCCCCCC(=O)[O-]
REMARK SMILES IDX 7 1 6 2 5 3 4 4 2 5 1 6 3 7 8 8 9 9 10 10 11 11 12 12 13 13
REMARK SMILES IDX 14 14
REMARK H PARENT
REMARK Flexibility Score: inf
ROOT
ATOM      1  C   UNL     1       9.467 -21.514 -16.705  1.00  0.00     0.000 C 
ENDROOT
BRANCH   1   2
ATOM      2  C   UNL     1       8.576 -21.636 -15.461  1.00  0.00     0.000 C 
BRANCH   2   3
ATOM      3  C   UNL     1       7.447 -20.595 -15.489  1.00  0.00     0.006 C 
BRANCH   3   4
ATOM      4  C   UNL     1       6.582 -20.710 -16.751  1.00  0.00     0.053 C 
BRANCH   4   5
ATOM      5  C   UNL     1       5.754 -21.959 -16.743  1.00  0.00     0.041 C 
ATOM      6  O   UNL     1       4.725 -22.032 -16.022  1.00  0.00    -0.550 OA
ATOM      7  O   UNL     1       6.137 -23.053 -17.509  1.00  0.00    -0.550 OA
ENDBRANCH   4   5
ENDBRANCH   3   4
ENDBRANCH   2   3
ENDBRANCH   1   2
BRANCH   1   8
ATOM      8  C   UNL     1       9.572 -22.832 -17.489  1.00  0.00     0.000 C 
BRANCH   8   9
ATOM      9  C   UNL     1       9.859 -22.611 -18.984  1.00  0.00     0.000 C 
BRANCH   9  10
ATOM     10  C   UNL     1       8.717 -21.873 -19.701  1.00  0.00     0.006 C 
BRANCH  10  11
ATOM     11  C   UNL     1       8.288 -22.570 -20.999  1.00  0.00     0.053 C 
BRANCH  11  12
ATOM     12  C   UNL     1       8.691 -21.755 -22.187  1.00  0.00     0.041 C 
ATOM     13  O   UNL     1       8.666 -22.261 -23.340  1.00  0.00    -0.550 OA
ATOM     14  O   UNL     1       9.141 -20.452 -22.017  1.00  0.00    -0.550 OA
ENDBRANCH  11  12
ENDBRANCH  10  11
ENDBRANCH   9  10
ENDBRANCH   8   9
ENDBRANCH   1   8
TORSDOF 9
ENDMDL
MODEL 8
REMARK VINA RESULT:    -2.589      2.338      3.072
REMARK INTER + INTRA:          -4.386
REMARK INTER:                  -3.775
REMARK INTRA:                  -0.611
REMARK UNBOUND:                -0.435
REMARK SMILES O=C([O-])CCCCCCCCC(=O)[O-]
REMARK SMILES IDX 7 1 6 2 5 3 4 4 2 5 1 6 3 7 8 8 9 9 10 10 11 11 12 12 13 13
REMARK SMILES IDX 14 14
REMARK H PARENT
REMARK Flexibility Score: inf
ROOT
ATOM      1  C   UNL     1      10.721 -22.489 -18.117  1.00  0.00     0.000 C 
ENDROOT
BRANCH   1   2
ATOM      2  C   UNL     1      10.918 -21.883 -19.514  1.00  0.00     0.000 C 
BRANCH   2   3
ATOM      3  C   UNL     1      10.206 -22.726 -20.583  1.00  0.00     0.006 C 
BRANCH   3   4
ATOM      4  C   UNL     1       8.847 -22.134 -20.978  1.00  0.00     0.053 C 
BRANCH   4   5
ATOM      5  C   UNL     1       8.918 -21.406 -22.286  1.00  0.00     0.041 C 
ATOM      6  O   UNL     1       8.049 -20.543 -22.580  1.00  0.00    -0.550 OA
ATOM      7  O   UNL     1       9.925 -21.706 -23.195  1.00  0.00    -0.550 OA
ENDBRANCH   4   5
ENDBRANCH   3   4
ENDBRANCH   2   3
ENDBRANCH   1   2
BRANCH   1   8
ATOM      8  C   UNL     1       9.428 -22.005 -17.440  1.00  0.00     0.000 C 
BRANCH   8   9
ATOM      9  C   UNL     1       8.382 -23.123 -17.292  1.00  0.00     0.000 C 
BRANCH   9  10
ATOM     10  C   UNL     1       6.991 -22.699 -17.789  1.00  0.00     0.006 C 
BRANCH  10  11
ATOM     11  C   UNL     1       5.873 -23.084 -16.810  1.00  0.00     0.053 C 
BRANCH  11  12
ATOM     12  C   UNL     1       5.304 -21.862 -16.162  1.00  0.00     0.041 C 
ATOM     13  O   UNL     1       4.061 -21.761 -15.982  1.00  0.00    -0.550 OA
ATOM     14  O   UNL     1       6.139 -20.812 -15.801  1.00  0.00    -0.550 OA
ENDBRANCH  11  12
ENDBRANCH  10  11
ENDBRANCH   9  10
ENDBRANCH   8   9
ENDBRANCH   1   8
TORSDOF 9
ENDMDL
MODEL 9
REMARK VINA RESULT:    -2.481     13.135     15.558
REMARK INTER + INTRA:          -4.222
REMARK INTER:                  -3.578
REMARK INTRA:                  -0.644
REMARK UNBOUND:                -0.435
REMARK SMILES O=C([O-])CCCCCCCCC(=O)[O-]
REMARK SMILES IDX 7 1 6 2 5 3 4 4 2 5 1 6 3 7 8 8 9 9 10 10 11 11 12 12 13 13
REMARK SMILES IDX 14 14
REMARK H PARENT
REMARK Flexibility Score: inf
ROOT
ATOM      1  C   UNL     1      -7.561 -21.255 -15.667  1.00  0.00     0.000 C 
ENDROOT
BRANCH   1   2
ATOM      2  C   UNL     1      -8.727 -22.245 -15.529  1.00  0.00     0.000 C 
BRANCH   2   3
ATOM      3  C   UNL     1      -8.647 -23.005 -14.197  1.00  0.00     0.006 C 
BRANCH   3   4
ATOM      4  C   UNL     1      -8.625 -22.059 -12.989  1.00  0.00     0.053 C 
BRANCH   4   5
ATOM      5  C   UNL     1      -7.466 -22.343 -12.082  1.00  0.00     0.041 C 
ATOM      6  O   UNL     1      -7.658 -22.560 -10.857  1.00  0.00    -0.550 OA
ATOM      7  O   UNL     1      -6.171 -22.336 -12.586  1.00  0.00    -0.550 OA
ENDBRANCH   4   5
ENDBRANCH   3   4
ENDBRANCH   2   3
ENDBRANCH   1   2
BRANCH   1   8
ATOM      8  C   UNL     1      -6.950 -21.255 -17.077  1.00  0.00     0.000 C 
BRANCH   8   9
ATOM      9  C   UNL     1      -5.577 -21.949 -17.127  1.00  0.00     0.000 C 
BRANCH   9  10
ATOM     10  C   UNL     1      -4.889 -21.996 -15.754  1.00  0.00     0.006 C 
BRANCH  10  11
ATOM     11  C   UNL     1      -3.855 -23.125 -15.651  1.00  0.00     0.053 C 
BRANCH  11  12
ATOM     12  C   UNL     1      -2.725 -22.718 -14.759  1.00  0.00     0.041 C 
ATOM     13  O   UNL     1      -1.583 -22.499 -15.242  1.00  0.00    -0.550 OA
ATOM     14  O   UNL     1      -2.920 -22.628 -13.386  1.00  0.00    -0.550 OA
ENDBRANCH  11  12
ENDBRANCH  10  11
ENDBRANCH   9  10
ENDBRANCH   8   9
ENDBRANCH   1   8
TORSDOF 9
ENDMDL
