MODEL 1
REMARK VINA RESULT:    -3.396      0.000      0.000
REMARK INTER + INTRA:          -4.220
REMARK INTER:                  -3.992
REMARK INTRA:                  -0.228
REMARK UNBOUND:                -0.228
REMARK SMILES [NH3+][C@H](CO)C(=O)[O-]
REMARK SMILES IDX 3 1 2 2 1 3 5 7 6 8 7 9 4 10
REMARK H PARENT 1 4 1 5 1 6 4 11
REMARK Flexibility Score: inf
ROOT
ATOM      1  C   UNL     1      21.636  -3.467  -0.100  1.00  0.00     0.227 C 
ENDROOT
BRANCH   1   2
ATOM      2  C   UNL     1      23.032  -3.493  -0.750  1.00  0.00     0.253 C 
BRANCH   2   3
ATOM      3  N   UNL     1      22.959  -3.058  -2.150  1.00  0.00    -0.348 N 
ATOM      4  H   UNL     1      22.367  -2.199  -2.222  1.00  0.00     0.345 HD
ATOM      5  H   UNL     1      22.520  -3.808  -2.732  1.00  0.00     0.345 HD
ATOM      6  H   UNL     1      23.914  -2.846  -2.521  1.00  0.00     0.345 HD
ENDBRANCH   2   3
BRANCH   2   7
ATOM      7  C   UNL     1      23.998  -2.629   0.019  1.00  0.00     0.102 C 
ATOM      8  O   UNL     1      24.989  -3.142   0.603  1.00  0.00    -0.544 OA
ATOM      9  O   UNL     1      23.805  -1.254   0.074  1.00  0.00    -0.544 OA
ENDBRANCH   2   7
ENDBRANCH   1   2
BRANCH   1  10
ATOM     10  O   UNL     1      21.028  -2.216  -0.286  1.00  0.00    -0.390 OA
ATOM     11  H   UNL     1      20.235  -2.365  -0.864  1.00  0.00     0.210 HD
ENDBRANCH   1  10
TORSDOF 4
ENDMDL
MODEL 2
REMARK VINA RESULT:    -3.301     14.181     15.040
REMARK INTER + INTRA:          -4.108
REMARK INTER:                  -3.780
REMARK INTRA:                  -0.328
REMARK UNBOUND:                -0.228
REMARK SMILES [NH3+][C@H](CO)C(=O)[O-]
REMARK SMILES IDX 3 1 2 2 1 3 5 7 6 8 7 9 4 10
REMARK H PARENT 1 4 1 5 1 6 4 11
REMARK Flexibility Score: inf
ROOT
ATOM      1  C   UNL     1      34.120  -3.474  11.179  1.00  0.00     0.227 C 
ENDROOT
BRANCH   1   2
ATOM      2  C   UNL     1      33.092  -3.604  10.041  1.00  0.00     0.253 C 
BRANCH   2   3
ATOM      3  N   UNL     1      33.617  -3.023   8.800  1.00  0.00    -0.348 N 
ATOM      4  H   UNL     1      34.460  -2.441   9.012  1.00  0.00     0.345 HD
ATOM      5  H   UNL     1      32.895  -2.404   8.364  1.00  0.00     0.345 HD
ATOM      6  H   UNL     1      33.883  -3.774   8.122  1.00  0.00     0.345 HD
ENDBRANCH   2   3
BRANCH   2   7
ATOM      7  C   UNL     1      32.712  -5.046   9.824  1.00  0.00     0.102 C 
ATOM      8  O   UNL     1      33.136  -5.675   8.818  1.00  0.00    -0.544 OA
ATOM      9  O   UNL     1      31.898  -5.695  10.745  1.00  0.00    -0.544 OA
ENDBRANCH   2   7
ENDBRANCH   1   2
BRANCH   1  10
ATOM     10  O   UNL     1      34.874  -4.651  11.302  1.00  0.00    -0.390 OA
ATOM     11  H   UNL     1      35.124  -4.734  12.259  1.00  0.00     0.210 HD
ENDBRANCH   1  10
TORSDOF 4
ENDMDL
MODEL 3
REMARK VINA RESULT:    -3.260      2.073      2.434
REMARK INTER + INTRA:          -4.059
REMARK INTER:                  -3.714
REMARK INTRA:                  -0.345
REMARK UNBOUND:                -0.228
REMARK SMILES [NH3+][C@H](CO)C(=O)[O-]
REMARK SMILES IDX 3 1 2 2 1 3 5 7 6 8 7 9 4 10
REMARK H PARENT 1 4 1 5 1 6 4 11
REMARK Flexibility Score: inf
ROOT
ATOM      1  C   UNL     1      23.469  -3.733  -0.746  1.00  0.00     0.227 C 
ENDROOT
BRANCH   1   2
ATOM      2  C   UNL     1      23.792  -2.857   0.477  1.00  0.00     0.253 C 
BRANCH   2   3
ATOM      3  N   UNL     1      25.237  -2.615   0.573  1.00  0.00    -0.348 N 
ATOM      4  H   UNL     1      25.508  -2.486   1.575  1.00  0.00     0.345 HD
ATOM      5  H   UNL     1      25.486  -1.743   0.053  1.00  0.00     0.345 HD
ATOM      6  H   UNL     1      25.774  -3.420   0.175  1.00  0.00     0.345 HD
ENDBRANCH   2   3
BRANCH   2   7
ATOM      7  C   UNL     1      23.046  -1.549   0.413  1.00  0.00     0.102 C 
ATOM      8  O   UNL     1      21.859  -1.470   0.829  1.00  0.00    -0.544 OA
ATOM      9  O   UNL     1      23.671  -0.418  -0.095  1.00  0.00    -0.544 OA
ENDBRANCH   2   7
ENDBRANCH   1   2
BRANCH   1  10
ATOM     10  O   UNL     1      22.996  -2.946  -1.807  1.00  0.00    -0.390 OA
ATOM     11  H   UNL     1      22.071  -2.674  -1.575  1.00  0.00     0.210 HD
ENDBRANCH   1  10
TORSDOF 4
ENDMDL
MODEL 4
REMARK VINA RESULT:    -3.228      1.140      2.830
REMARK INTER + INTRA:          -4.022
REMARK INTER:                  -3.987
REMARK INTRA:                  -0.035
REMARK UNBOUND:                -0.228
REMARK SMILES [NH3+][C@H](CO)C(=O)[O-]
REMARK SMILES IDX 3 1 2 2 1 3 5 7 6 8 7 9 4 10
REMARK H PARENT 1 4 1 5 1 6 4 11
REMARK Flexibility Score: inf
ROOT
ATOM      1  C   UNL     1      24.456  -3.383   0.262  1.00  0.00     0.227 C 
ENDROOT
BRANCH   1   2
ATOM      2  C   UNL     1      23.354  -2.606  -0.480  1.00  0.00     0.253 C 
BRANCH   2   3
ATOM      3  N   UNL     1      23.115  -3.187  -1.807  1.00  0.00    -0.348 N 
ATOM      4  H   UNL     1      23.926  -2.978  -2.434  1.00  0.00     0.345 HD
ATOM      5  H   UNL     1      22.257  -2.764  -2.230  1.00  0.00     0.345 HD
ATOM      6  H   UNL     1      22.993  -4.224  -1.740  1.00  0.00     0.345 HD
ENDBRANCH   2   3
BRANCH   2   7
ATOM      7  C   UNL     1      22.078  -2.587   0.321  1.00  0.00     0.102 C 
ATOM      8  O   UNL     1      22.073  -2.157   1.505  1.00  0.00    -0.544 OA
ATOM      9  O   UNL     1      20.894  -3.035  -0.251  1.00  0.00    -0.544 OA
ENDBRANCH   2   7
ENDBRANCH   1   2
BRANCH   1  10
ATOM     10  O   UNL     1      25.512  -2.528   0.615  1.00  0.00    -0.390 OA
ATOM     11  H   UNL     1      26.345  -2.939   0.266  1.00  0.00     0.210 HD
ENDBRANCH   1  10
TORSDOF 4
ENDMDL
MODEL 5
REMARK VINA RESULT:    -3.213      1.579      1.749
REMARK INTER + INTRA:          -4.004
REMARK INTER:                  -3.996
REMARK INTRA:                  -0.008
REMARK UNBOUND:                -0.228
REMARK SMILES [NH3+][C@H](CO)C(=O)[O-]
REMARK SMILES IDX 3 1 2 2 1 3 5 7 6 8 7 9 4 10
REMARK H PARENT 1 4 1 5 1 6 4 11
REMARK Flexibility Score: inf
ROOT
ATOM      1  C   UNL     1      22.255  -3.546  -0.707  1.00  0.00     0.227 C 
ENDROOT
BRANCH   1   2
ATOM      2  C   UNL     1      23.657  -2.938  -0.520  1.00  0.00     0.253 C 
BRANCH   2   3
ATOM      3  N   UNL     1      23.680  -1.542  -0.975  1.00  0.00    -0.348 N 
ATOM      4  H   UNL     1      24.124  -0.941  -0.243  1.00  0.00     0.345 HD
ATOM      5  H   UNL     1      22.703  -1.203  -1.129  1.00  0.00     0.345 HD
ATOM      6  H   UNL     1      24.222  -1.453  -1.865  1.00  0.00     0.345 HD
ENDBRANCH   2   3
BRANCH   2   7
ATOM      7  C   UNL     1      24.093  -3.028   0.919  1.00  0.00     0.102 C 
ATOM      8  O   UNL     1      25.242  -2.643   1.264  1.00  0.00    -0.544 OA
ATOM      9  O   UNL     1      23.221  -3.527   1.878  1.00  0.00    -0.544 OA
ENDBRANCH   2   7
ENDBRANCH   1   2
BRANCH   1  10
ATOM     10  O   UNL     1      21.841  -3.433  -2.043  1.00  0.00    -0.390 OA
ATOM     11  H   UNL     1      22.456  -2.790  -2.482  1.00  0.00     0.210 HD
ENDBRANCH   1  10
TORSDOF 4
ENDMDL
MODEL 6
REMARK VINA RESULT:    -3.179     14.427     15.408
REMARK INTER + INTRA:          -3.964
REMARK INTER:                  -3.753
REMARK INTRA:                  -0.211
REMARK UNBOUND:                -0.228
REMARK SMILES [NH3+][C@H](CO)C(=O)[O-]
REMARK SMILES IDX 3 1 2 2 1 3 5 7 6 8 7 9 4 10
REMARK H PARENT 1 4 1 5 1 6 4 11
REMARK Flexibility Score: inf
ROOT
ATOM      1  C   UNL     1      32.806  -3.953   9.399  1.00  0.00     0.227 C 
ENDROOT
BRANCH   1   2
ATOM      2  C   UNL     1      33.180  -4.340  10.841  1.00  0.00     0.253 C 
BRANCH   2   3
ATOM      3  N   UNL     1      34.489  -5.005  10.876  1.00  0.00    -0.348 N 
ATOM      4  H   UNL     1      35.209  -4.348  11.255  1.00  0.00     0.345 HD
ATOM      5  H   UNL     1      34.773  -5.279   9.908  1.00  0.00     0.345 HD
ATOM      6  H   UNL     1      34.454  -5.859  11.480  1.00  0.00     0.345 HD
ENDBRANCH   2   3
BRANCH   2   7
ATOM      7  C   UNL     1      33.184  -3.129  11.738  1.00  0.00     0.102 C 
ATOM      8  O   UNL     1      34.243  -2.472  11.920  1.00  0.00    -0.544 OA
ATOM      9  O   UNL     1      32.010  -2.723  12.360  1.00  0.00    -0.544 OA
ENDBRANCH   2   7
ENDBRANCH   1   2
BRANCH   1  10
ATOM     10  O   UNL     1      33.708  -3.005   8.892  1.00  0.00    -0.390 OA
ATOM     11  H   UNL     1      33.960  -2.414   9.648  1.00  0.00     0.210 HD
ENDBRANCH   1  10
TORSDOF 4
ENDMDL
MODEL 7
REMARK VINA RESULT:    -3.132     14.031     14.866
REMARK INTER + INTRA:          -3.910
REMARK INTER:                  -3.727
REMARK INTRA:                  -0.183
REMARK UNBOUND:                -0.228
REMARK SMILES [NH3+][C@H](CO)C(=O)[O-]
REMARK SMILES IDX 3 1 2 2 1 3 5 7 6 8 7 9 4 10
REMARK H PARENT 1 4 1 5 1 6 4 11
REMARK Flexibility Score: inf
ROOT
ATOM      1  C   UNL     1      32.751  -3.539   9.578  1.00  0.00     0.227 C 
ENDROOT
BRANCH   1   2
ATOM      2  C   UNL     1      32.795  -5.076   9.499  1.00  0.00     0.253 C 
BRANCH   2   3
ATOM      3  N   UNL     1      33.234  -5.514   8.168  1.00  0.00    -0.348 N 
ATOM      4  H   UNL     1      33.338  -4.684   7.541  1.00  0.00     0.345 HD
ATOM      5  H   UNL     1      32.518  -6.152   7.751  1.00  0.00     0.345 HD
ATOM      6  H   UNL     1      34.151  -6.014   8.228  1.00  0.00     0.345 HD
ENDBRANCH   2   3
BRANCH   2   7
ATOM      7  C   UNL     1      33.700  -5.643  10.562  1.00  0.00     0.102 C 
ATOM      8  O   UNL     1      33.785  -6.888  10.732  1.00  0.00    -0.544 OA
ATOM      9  O   UNL     1      34.458  -4.789  11.355  1.00  0.00    -0.544 OA
ENDBRANCH   2   7
ENDBRANCH   1   2
BRANCH   1  10
ATOM     10  O   UNL     1      33.807  -2.976   8.845  1.00  0.00    -0.390 OA
ATOM     11  H   UNL     1      34.360  -2.461   9.487  1.00  0.00     0.210 HD
ENDBRANCH   1  10
TORSDOF 4
ENDMDL
MODEL 8
REMARK VINA RESULT:    -3.111      1.848      2.242
REMARK INTER + INTRA:          -3.885
REMARK INTER:                  -3.502
REMARK INTRA:                  -0.383
REMARK UNBOUND:                -0.228
REMARK SMILES [NH3+][C@H](CO)C(=O)[O-]
REMARK SMILES IDX 3 1 2 2 1 3 5 7 6 8 7 9 4 10
REMARK H PARENT 1 4 1 5 1 6 4 11
REMARK Flexibility Score: inf
ROOT
ATOM      1  C   UNL     1      22.108  -3.601  -1.084  1.00  0.00     0.227 C 
ENDROOT
BRANCH   1   2
ATOM      2  C   UNL     1      22.464  -3.013   0.293  1.00  0.00     0.253 C 
BRANCH   2   3
ATOM      3  N   UNL     1      22.403  -4.050   1.330  1.00  0.00    -0.348 N 
ATOM      4  H   UNL     1      23.058  -3.809   2.110  1.00  0.00     0.345 HD
ATOM      5  H   UNL     1      22.697  -4.970   0.929  1.00  0.00     0.345 HD
ATOM      6  H   UNL     1      21.433  -4.134   1.713  1.00  0.00     0.345 HD
ENDBRANCH   2   3
BRANCH   2   7
ATOM      7  C   UNL     1      23.830  -2.377   0.268  1.00  0.00     0.102 C 
ATOM      8  O   UNL     1      23.957  -1.144   0.047  1.00  0.00    -0.544 OA
ATOM      9  O   UNL     1      24.960  -3.151   0.504  1.00  0.00    -0.544 OA
ENDBRANCH   2   7
ENDBRANCH   1   2
BRANCH   1  10
ATOM     10  O   UNL     1      23.067  -3.236  -2.041  1.00  0.00    -0.390 OA
ATOM     11  H   UNL     1      22.792  -2.356  -2.404  1.00  0.00     0.210 HD
ENDBRANCH   1  10
TORSDOF 4
ENDMDL
MODEL 9
REMARK VINA RESULT:    -3.058     14.280     15.156
REMARK INTER + INTRA:          -3.823
REMARK INTER:                  -3.472
REMARK INTRA:                  -0.351
REMARK UNBOUND:                -0.228
REMARK SMILES [NH3+][C@H](CO)C(=O)[O-]
REMARK SMILES IDX 3 1 2 2 1 3 5 7 6 8 7 9 4 10
REMARK H PARENT 1 4 1 5 1 6 4 11
REMARK Flexibility Score: inf
ROOT
ATOM      1  C   UNL     1      31.665  -3.779  10.302  1.00  0.00     0.227 C 
ENDROOT
BRANCH   1   2
ATOM      2  C   UNL     1      33.154  -3.977   9.964  1.00  0.00     0.253 C 
BRANCH   2   3
ATOM      3  N   UNL     1      33.581  -3.025   8.931  1.00  0.00    -0.348 N 
ATOM      4  H   UNL     1      33.433  -2.047   9.270  1.00  0.00     0.345 HD
ATOM      5  H   UNL     1      33.010  -3.162   8.065  1.00  0.00     0.345 HD
ATOM      6  H   UNL     1      34.593  -3.158   8.702  1.00  0.00     0.345 HD
ENDBRANCH   2   3
BRANCH   2   7
ATOM      7  C   UNL     1      34.008  -3.831  11.197  1.00  0.00     0.102 C 
ATOM      8  O   UNL     1      34.565  -4.837  11.711  1.00  0.00    -0.544 OA
ATOM      9  O   UNL     1      34.197  -2.578  11.765  1.00  0.00    -0.544 OA
ENDBRANCH   2   7
ENDBRANCH   1   2
BRANCH   1  10
ATOM     10  O   UNL     1      31.465  -3.811  11.690  1.00  0.00    -0.390 OA
ATOM     11  H   UNL     1      31.620  -2.890  12.025  1.00  0.00     0.210 HD
ENDBRANCH   1  10
TORSDOF 4
ENDMDL
