MODEL 1
REMARK VINA RESULT:    -3.334      0.000      0.000
REMARK INTER + INTRA:          -5.151
REMARK INTER:                  -4.503
REMARK INTRA:                  -0.648
REMARK UNBOUND:                -0.648
REMARK SMILES CCCCCCCC(=O)[O-]
REMARK SMILES IDX 5 1 6 2 7 3 8 4 9 5 10 6 4 7 3 8 2 9 1 10
REMARK H PARENT
REMARK Flexibility Score: inf
ROOT
ATOM      1  C   UNL     1     127.030 145.371 107.465  1.00  0.00     0.000 C 
ENDROOT
BRANCH   1   2
ATOM      2  C   UNL     1     128.189 145.974 108.277  1.00  0.00     0.006 C 
BRANCH   2   3
ATOM      3  C   UNL     1     129.468 145.133 108.172  1.00  0.00     0.053 C 
BRANCH   3   4
ATOM      4  C   UNL     1     130.543 145.846 107.410  1.00  0.00     0.041 C 
ATOM      5  O   UNL     1     130.460 145.966 106.160  1.00  0.00    -0.550 OA
ATOM      6  O   UNL     1     131.622 146.403 108.084  1.00  0.00    -0.550 OA
ENDBRANCH   3   4
ENDBRANCH   2   3
ENDBRANCH   1   2
BRANCH   1   7
ATOM      7  C   UNL     1     126.879 146.021 106.080  1.00  0.00     0.000 C 
BRANCH   7   8
ATOM      8  C   UNL     1     127.302 145.082 104.936  1.00  0.00    -0.000 C 
BRANCH   8   9
ATOM      9  C   UNL     1     127.456 143.625 105.397  1.00  0.00    -0.003 C 
ATOM     10  C   UNL     1     128.860 143.073 105.152  1.00  0.00     0.004 C 
ENDBRANCH   8   9
ENDBRANCH   7   8
ENDBRANCH   1   7
TORSDOF 6
ENDMDL
MODEL 2
REMARK VINA RESULT:    -3.253      1.627      2.941
REMARK INTER + INTRA:          -5.042
REMARK INTER:                  -4.716
REMARK INTRA:                  -0.326
REMARK UNBOUND:                -0.648
REMARK SMILES CCCCCCCC(=O)[O-]
REMARK SMILES IDX 5 1 6 2 7 3 8 4 9 5 10 6 4 7 3 8 2 9 1 10
REMARK H PARENT
REMARK Flexibility Score: inf
ROOT
ATOM      1  C   UNL     1     130.409 144.439 105.898  1.00  0.00     0.000 C 
ENDROOT
BRANCH   1   2
ATOM      2  C   UNL     1     130.751 145.921 106.126  1.00  0.00     0.006 C 
BRANCH   2   3
ATOM      3  C   UNL     1     132.265 146.169 106.146  1.00  0.00     0.053 C 
BRANCH   3   4
ATOM      4  C   UNL     1     132.759 146.492 107.523  1.00  0.00     0.041 C 
ATOM      5  O   UNL     1     133.963 146.811 107.705  1.00  0.00    -0.550 OA
ATOM      6  O   UNL     1     131.883 146.468 108.601  1.00  0.00    -0.550 OA
ENDBRANCH   3   4
ENDBRANCH   2   3
ENDBRANCH   1   2
BRANCH   1   7
ATOM      7  C   UNL     1     128.974 144.091 106.329  1.00  0.00     0.000 C 
BRANCH   7   8
ATOM      8  C   UNL     1     128.020 143.925 105.133  1.00  0.00    -0.000 C 
BRANCH   8   9
ATOM      9  C   UNL     1     127.298 145.232 104.771  1.00  0.00    -0.003 C 
ATOM     10  C   UNL     1     126.879 146.036 106.002  1.00  0.00     0.004 C 
ENDBRANCH   8   9
ENDBRANCH   7   8
ENDBRANCH   1   7
TORSDOF 6
ENDMDL
MODEL 3
REMARK VINA RESULT:    -3.243      1.689      2.561
REMARK INTER + INTRA:          -5.029
REMARK INTER:                  -4.450
REMARK INTRA:                  -0.579
REMARK UNBOUND:                -0.648
REMARK SMILES CCCCCCCC(=O)[O-]
REMARK SMILES IDX 5 1 6 2 7 3 8 4 9 5 10 6 4 7 3 8 2 9 1 10
REMARK H PARENT
REMARK Flexibility Score: inf
ROOT
ATOM      1  C   UNL     1     127.832 145.357 105.231  1.00  0.00     0.000 C 
ENDROOT
BRANCH   1   2
ATOM      2  C   UNL     1     127.096 145.995 106.422  1.00  0.00     0.006 C 
BRANCH   2   3
ATOM      3  C   UNL     1     127.162 145.118 107.679  1.00  0.00     0.053 C 
BRANCH   3   4
ATOM      4  C   UNL     1     128.447 145.310 108.426  1.00  0.00     0.041 C 
ATOM      5  O   UNL     1     129.275 144.366 108.513  1.00  0.00    -0.550 OA
ATOM      6  O   UNL     1     128.743 146.540 108.999  1.00  0.00    -0.550 OA
ENDBRANCH   3   4
ENDBRANCH   2   3
ENDBRANCH   1   2
BRANCH   1   7
ATOM      7  C   UNL     1     127.528 143.857 105.084  1.00  0.00     0.000 C 
BRANCH   7   8
ATOM      8  C   UNL     1     128.778 142.978 105.272  1.00  0.00    -0.000 C 
BRANCH   8   9
ATOM      9  C   UNL     1     128.508 141.756 106.161  1.00  0.00    -0.003 C 
ATOM     10  C   UNL     1     127.026 141.579 106.489  1.00  0.00     0.004 C 
ENDBRANCH   8   9
ENDBRANCH   7   8
ENDBRANCH   1   7
TORSDOF 6
ENDMDL
MODEL 4
REMARK VINA RESULT:    -3.202      1.193      1.818
REMARK INTER + INTRA:          -4.973
REMARK INTER:                  -4.409
REMARK INTRA:                  -0.564
REMARK UNBOUND:                -0.648
REMARK SMILES CCCCCCCC(=O)[O-]
REMARK SMILES IDX 5 1 6 2 7 3 8 4 9 5 10 6 4 7 3 8 2 9 1 10
REMARK H PARENT
REMARK Flexibility Score: inf
ROOT
ATOM      1  C   UNL     1     126.932 145.911 105.965  1.00  0.00     0.000 C 
ENDROOT
BRANCH   1   2
ATOM      2  C   UNL     1     126.998 145.259 107.357  1.00  0.00     0.006 C 
BRANCH   2   3
ATOM      3  C   UNL     1     127.957 146.001 108.298  1.00  0.00     0.053 C 
BRANCH   3   4
ATOM      4  C   UNL     1     129.352 145.463 108.208  1.00  0.00     0.041 C 
ATOM      5  O   UNL     1     130.242 146.110 107.595  1.00  0.00    -0.550 OA
ATOM      6  O   UNL     1     129.678 144.263 108.828  1.00  0.00    -0.550 OA
ENDBRANCH   3   4
ENDBRANCH   2   3
ENDBRANCH   1   2
BRANCH   1   7
ATOM      7  C   UNL     1     127.453 144.985 104.854  1.00  0.00     0.000 C 
BRANCH   7   8
ATOM      8  C   UNL     1     127.652 143.536 105.335  1.00  0.00    -0.000 C 
BRANCH   8   9
ATOM      9  C   UNL     1     129.126 143.103 105.303  1.00  0.00    -0.003 C 
ATOM     10  C   UNL     1     129.406 141.893 106.193  1.00  0.00     0.004 C 
ENDBRANCH   8   9
ENDBRANCH   7   8
ENDBRANCH   1   7
TORSDOF 6
ENDMDL
MODEL 5
REMARK VINA RESULT:    -3.201      2.858      3.832
REMARK INTER + INTRA:          -4.971
REMARK INTER:                  -4.349
REMARK INTRA:                  -0.623
REMARK UNBOUND:                -0.648
REMARK SMILES CCCCCCCC(=O)[O-]
REMARK SMILES IDX 5 1 6 2 7 3 8 4 9 5 10 6 4 7 3 8 2 9 1 10
REMARK H PARENT
REMARK Flexibility Score: inf
ROOT
ATOM      1  C   UNL     1     128.113 143.082 105.411  1.00  0.00     0.000 C 
ENDROOT
BRANCH   1   2
ATOM      2  C   UNL     1     127.252 142.442 106.514  1.00  0.00     0.006 C 
BRANCH   2   3
ATOM      3  C   UNL     1     128.053 142.187 107.798  1.00  0.00     0.053 C 
BRANCH   3   4
ATOM      4  C   UNL     1     127.538 142.999 108.947  1.00  0.00     0.041 C 
ATOM      5  O   UNL     1     127.524 142.514 110.109  1.00  0.00    -0.550 OA
ATOM      6  O   UNL     1     127.100 144.300 108.739  1.00  0.00    -0.550 OA
ENDBRANCH   3   4
ENDBRANCH   2   3
ENDBRANCH   1   2
BRANCH   1   7
ATOM      7  C   UNL     1     127.575 144.451 104.962  1.00  0.00     0.000 C 
BRANCH   7   8
ATOM      8  C   UNL     1     128.247 145.623 105.700  1.00  0.00    -0.000 C 
BRANCH   8   9
ATOM      9  C   UNL     1     129.719 145.338 106.036  1.00  0.00    -0.003 C 
ATOM     10  C   UNL     1     130.063 145.650 107.492  1.00  0.00     0.004 C 
ENDBRANCH   8   9
ENDBRANCH   7   8
ENDBRANCH   1   7
TORSDOF 6
ENDMDL
MODEL 6
REMARK VINA RESULT:    -3.151      3.648      4.963
REMARK INTER + INTRA:          -4.904
REMARK INTER:                  -4.593
REMARK INTRA:                  -0.312
REMARK UNBOUND:                -0.648
REMARK SMILES CCCCCCCC(=O)[O-]
REMARK SMILES IDX 5 1 6 2 7 3 8 4 9 5 10 6 4 7 3 8 2 9 1 10
REMARK H PARENT
REMARK Flexibility Score: inf
ROOT
ATOM      1  C   UNL     1     128.221 143.074 105.498  1.00  0.00     0.000 C 
ENDROOT
BRANCH   1   2
ATOM      2  C   UNL     1     127.308 142.399 106.535  1.00  0.00     0.006 C 
BRANCH   2   3
ATOM      3  C   UNL     1     127.183 140.888 106.300  1.00  0.00     0.053 C 
BRANCH   3   4
ATOM      4  C   UNL     1     127.618 140.100 107.498  1.00  0.00     0.041 C 
ATOM      5  O   UNL     1     128.299 140.648 108.403  1.00  0.00    -0.550 OA
ATOM      6  O   UNL     1     127.245 138.768 107.627  1.00  0.00    -0.550 OA
ENDBRANCH   3   4
ENDBRANCH   2   3
ENDBRANCH   1   2
BRANCH   1   7
ATOM      7  C   UNL     1     127.635 144.392 104.964  1.00  0.00     0.000 C 
BRANCH   7   8
ATOM      8  C   UNL     1     128.055 145.611 105.806  1.00  0.00    -0.000 C 
BRANCH   8   9
ATOM      9  C   UNL     1     126.875 146.232 106.569  1.00  0.00    -0.003 C 
ATOM     10  C   UNL     1     126.939 145.967 108.072  1.00  0.00     0.004 C 
ENDBRANCH   8   9
ENDBRANCH   7   8
ENDBRANCH   1   7
TORSDOF 6
ENDMDL
MODEL 7
REMARK VINA RESULT:    -3.118      1.380      2.229
REMARK INTER + INTRA:          -4.859
REMARK INTER:                  -4.270
REMARK INTRA:                  -0.590
REMARK UNBOUND:                -0.648
REMARK SMILES CCCCCCCC(=O)[O-]
REMARK SMILES IDX 5 1 6 2 7 3 8 4 9 5 10 6 4 7 3 8 2 9 1 10
REMARK H PARENT
REMARK Flexibility Score: inf
ROOT
ATOM      1  C   UNL     1     127.454 144.958 104.905  1.00  0.00     0.000 C 
ENDROOT
BRANCH   1   2
ATOM      2  C   UNL     1     128.133 145.673 106.086  1.00  0.00     0.006 C 
BRANCH   2   3
ATOM      3  C   UNL     1     129.660 145.696 105.948  1.00  0.00     0.053 C 
BRANCH   3   4
ATOM      4  C   UNL     1     130.341 145.737 107.282  1.00  0.00     0.041 C 
ATOM      5  O   UNL     1     131.319 146.505 107.471  1.00  0.00    -0.550 OA
ATOM      6  O   UNL     1     129.874 144.948 108.326  1.00  0.00    -0.550 OA
ENDBRANCH   3   4
ENDBRANCH   2   3
ENDBRANCH   1   2
BRANCH   1   7
ATOM      7  C   UNL     1     127.825 143.468 104.825  1.00  0.00     0.000 C 
BRANCH   7   8
ATOM      8  C   UNL     1     127.342 142.670 106.050  1.00  0.00    -0.000 C 
BRANCH   8   9
ATOM      9  C   UNL     1     128.492 141.958 106.778  1.00  0.00    -0.003 C 
ATOM     10  C   UNL     1     129.818 142.054 106.024  1.00  0.00     0.004 C 
ENDBRANCH   8   9
ENDBRANCH   7   8
ENDBRANCH   1   7
TORSDOF 6
ENDMDL
MODEL 8
REMARK VINA RESULT:    -3.064      2.293      2.724
REMARK INTER + INTRA:          -4.787
REMARK INTER:                  -4.273
REMARK INTRA:                  -0.514
REMARK UNBOUND:                -0.648
REMARK SMILES CCCCCCCC(=O)[O-]
REMARK SMILES IDX 5 1 6 2 7 3 8 4 9 5 10 6 4 7 3 8 2 9 1 10
REMARK H PARENT
REMARK Flexibility Score: inf
ROOT
ATOM      1  C   UNL     1     129.599 145.234 106.274  1.00  0.00     0.000 C 
ENDROOT
BRANCH   1   2
ATOM      2  C   UNL     1     129.717 145.644 107.752  1.00  0.00     0.006 C 
BRANCH   2   3
ATOM      3  C   UNL     1     128.355 145.993 108.366  1.00  0.00     0.053 C 
BRANCH   3   4
ATOM      4  C   UNL     1     127.994 145.065 109.486  1.00  0.00     0.041 C 
ATOM      5  O   UNL     1     127.030 144.266 109.359  1.00  0.00    -0.550 OA
ATOM      6  O   UNL     1     128.741 145.063 110.657  1.00  0.00    -0.550 OA
ENDBRANCH   3   4
ENDBRANCH   2   3
ENDBRANCH   1   2
BRANCH   1   7
ATOM      7  C   UNL     1     128.233 145.595 105.669  1.00  0.00     0.000 C 
BRANCH   7   8
ATOM      8  C   UNL     1     127.566 144.404 104.957  1.00  0.00    -0.000 C 
BRANCH   8   9
ATOM      9  C   UNL     1     128.119 143.052 105.432  1.00  0.00    -0.003 C 
ATOM     10  C   UNL     1     127.177 142.336 106.399  1.00  0.00     0.004 C 
ENDBRANCH   8   9
ENDBRANCH   7   8
ENDBRANCH   1   7
TORSDOF 6
ENDMDL
MODEL 9
REMARK VINA RESULT:    -2.657      1.657      2.573
REMARK INTER + INTRA:          -4.237
REMARK INTER:                  -3.880
REMARK INTRA:                  -0.357
REMARK UNBOUND:                -0.648
REMARK SMILES CCCCCCCC(=O)[O-]
REMARK SMILES IDX 5 1 6 2 7 3 8 4 9 5 10 6 4 7 3 8 2 9 1 10
REMARK H PARENT
REMARK Flexibility Score: inf
ROOT
ATOM      1  C   UNL     1     129.890 145.648 107.458  1.00  0.00     0.000 C 
ENDROOT
BRANCH   1   2
ATOM      2  C   UNL     1     130.791 145.507 106.219  1.00  0.00     0.006 C 
BRANCH   2   3
ATOM      3  C   UNL     1     131.698 146.728 106.021  1.00  0.00     0.053 C 
BRANCH   3   4
ATOM      4  C   UNL     1     132.922 146.658 106.882  1.00  0.00     0.041 C 
ATOM      5  O   UNL     1     132.902 147.125 108.051  1.00  0.00    -0.550 OA
ATOM      6  O   UNL     1     134.077 146.050 106.404  1.00  0.00    -0.550 OA
ENDBRANCH   3   4
ENDBRANCH   2   3
ENDBRANCH   1   2
BRANCH   1   7
ATOM      7  C   UNL     1     128.438 145.222 107.184  1.00  0.00     0.000 C 
BRANCH   7   8
ATOM      8  C   UNL     1     127.916 145.734 105.829  1.00  0.00    -0.000 C 
BRANCH   8   9
ATOM      9  C   UNL     1     127.387 144.601 104.937  1.00  0.00    -0.003 C 
ATOM     10  C   UNL     1     127.864 143.222 105.388  1.00  0.00     0.004 C 
ENDBRANCH   8   9
ENDBRANCH   7   8
ENDBRANCH   1   7
TORSDOF 6
ENDMDL
