MODEL 1
REMARK VINA RESULT:    -6.933      0.000      0.000
REMARK INTER + INTRA:          -8.342
REMARK INTER:                  -8.149
REMARK INTRA:                  -0.194
REMARK UNBOUND:                -0.194
REMARK SMILES O=c1c(O)c(-c2ccc(O)c(O)c2)oc2cc(O)ccc12
REMARK SMILES IDX 5 1 3 2 2 3 1 4 21 5 15 6 14 7 16 8 17 9 19 10 20 11 6 12
REMARK SMILES IDX 7 13 8 14 9 15 13 16 11 17 10 18 12 20 4 22 18 24
REMARK H PARENT 10 19 12 21 4 23 18 25
REMARK Flexibility Score: inf
ROOT
ATOM      1  C   UNL     1     -11.875 -16.396  31.727  1.00  0.00     0.180 A 
ATOM      2  C   UNL     1     -11.627 -17.751  31.425  1.00  0.00     0.208 A 
ATOM      3  C   UNL     1     -11.972 -18.235  30.154  1.00  0.00     0.235 A 
ATOM      4  O   UNL     1     -11.750 -19.440  29.856  1.00  0.00    -0.285 OA
ATOM      5  C   UNL     1     -12.571 -17.369  29.225  1.00  0.00     0.069 A 
ATOM      6  C   UNL     1     -12.808 -16.032  29.613  1.00  0.00     0.142 A 
ATOM      7  O   UNL     1     -12.457 -15.612  30.822  1.00  0.00    -0.452 OA
ATOM      8  C   UNL     1     -13.412 -15.141  28.718  1.00  0.00     0.094 A 
ATOM      9  C   UNL     1     -13.783 -15.568  27.439  1.00  0.00     0.119 A 
ATOM     10  C   UNL     1     -13.547 -16.894  27.050  1.00  0.00     0.047 A 
ATOM     11  C   UNL     1     -12.945 -17.793  27.936  1.00  0.00     0.020 A 
ENDROOT
BRANCH   1  12
ATOM     12  C   UNL     1     -11.523 -15.805  33.039  1.00  0.00     0.025 A 
ATOM     13  C   UNL     1     -10.185 -15.688  33.453  1.00  0.00     0.016 A 
ATOM     14  C   UNL     1      -9.875 -15.105  34.684  1.00  0.00     0.051 A 
ATOM     15  C   UNL     1     -10.895 -14.619  35.514  1.00  0.00     0.157 A 
ATOM     16  C   UNL     1     -12.540 -15.298  33.863  1.00  0.00     0.062 A 
ATOM     17  C   UNL     1     -12.234 -14.715  35.098  1.00  0.00     0.158 A 
BRANCH  15  18
ATOM     18  O   UNL     1     -10.584 -14.041  36.743  1.00  0.00    -0.504 OA
ATOM     19  H   UNL     1     -11.157 -14.197  37.564  1.00  0.00     0.293 HD
ENDBRANCH  15  18
BRANCH  17  20
ATOM     20  O   UNL     1     -13.272 -14.235  35.897  1.00  0.00    -0.504 OA
ATOM     21  H   UNL     1     -13.473 -14.623  36.810  1.00  0.00     0.293 HD
ENDBRANCH  17  20
ENDBRANCH   1  12
BRANCH   2  22
ATOM     22  O   UNL     1     -11.075 -18.600  32.387  1.00  0.00    -0.502 OA
ATOM     23  H   UNL     1     -10.234 -18.363  32.900  1.00  0.00     0.293 HD
ENDBRANCH   2  22
BRANCH   9  24
ATOM     24  O   UNL     1     -14.382 -14.667  26.562  1.00  0.00    -0.508 OA
ATOM     25  H   UNL     1     -14.736 -13.772  26.882  1.00  0.00     0.293 HD
ENDBRANCH   9  24
TORSDOF 5
ENDMDL
MODEL 2
REMARK VINA RESULT:    -6.768      1.070      1.714
REMARK INTER + INTRA:          -8.149
REMARK INTER:                  -8.366
REMARK INTRA:                   0.217
REMARK UNBOUND:                -0.194
REMARK SMILES O=c1c(O)c(-c2ccc(O)c(O)c2)oc2cc(O)ccc12
REMARK SMILES IDX 5 1 3 2 2 3 1 4 21 5 15 6 14 7 16 8 17 9 19 10 20 11 6 12
REMARK SMILES IDX 7 13 8 14 9 15 13 16 11 17 10 18 12 20 4 22 18 24
REMARK H PARENT 10 19 12 21 4 23 18 25
REMARK Flexibility Score: inf
ROOT
ATOM      1  C   UNL     1     -11.797 -16.058  31.907  1.00  0.00     0.180 A 
ATOM      2  C   UNL     1     -10.856 -17.082  31.673  1.00  0.00     0.208 A 
ATOM      3  C   UNL     1     -10.718 -17.591  30.373  1.00  0.00     0.235 A 
ATOM      4  O   UNL     1      -9.875 -18.500  30.137  1.00  0.00    -0.285 OA
ATOM      5  C   UNL     1     -11.529 -17.086  29.344  1.00  0.00     0.069 A 
ATOM      6  C   UNL     1     -12.464 -16.077  29.664  1.00  0.00     0.142 A 
ATOM      7  O   UNL     1     -12.556 -15.616  30.906  1.00  0.00    -0.452 OA
ATOM      8  C   UNL     1     -13.297 -15.556  28.668  1.00  0.00     0.094 A 
ATOM      9  C   UNL     1     -13.209 -16.027  27.355  1.00  0.00     0.119 A 
ATOM     10  C   UNL     1     -12.281 -17.027  27.034  1.00  0.00     0.047 A 
ATOM     11  C   UNL     1     -11.444 -17.557  28.021  1.00  0.00     0.020 A 
ENDROOT
BRANCH   1  12
ATOM     12  C   UNL     1     -11.989 -15.456  33.246  1.00  0.00     0.025 A 
ATOM     13  C   UNL     1     -13.268 -15.122  33.722  1.00  0.00     0.016 A 
ATOM     14  C   UNL     1     -13.427 -14.578  34.999  1.00  0.00     0.051 A 
ATOM     15  C   UNL     1     -12.313 -14.372  35.824  1.00  0.00     0.157 A 
ATOM     16  C   UNL     1     -10.878 -15.267  34.084  1.00  0.00     0.062 A 
ATOM     17  C   UNL     1     -11.032 -14.722  35.363  1.00  0.00     0.158 A 
BRANCH  15  18
ATOM     18  O   UNL     1     -12.475 -13.826  37.096  1.00  0.00    -0.504 OA
ATOM     19  H   UNL     1     -11.688 -13.697  37.723  1.00  0.00     0.293 HD
ENDBRANCH  15  18
BRANCH  17  20
ATOM     20  O   UNL     1      -9.905 -14.535  36.162  1.00  0.00    -0.504 OA
ATOM     21  H   UNL     1      -9.630 -15.205  36.871  1.00  0.00     0.293 HD
ENDBRANCH  17  20
ENDBRANCH   1  12
BRANCH   2  22
ATOM     22  O   UNL     1     -10.097 -17.599  32.727  1.00  0.00    -0.502 OA
ATOM     23  H   UNL     1     -10.101 -17.183  33.651  1.00  0.00     0.293 HD
ENDBRANCH   2  22
BRANCH   9  24
ATOM     24  O   UNL     1     -14.046 -15.495  26.377  1.00  0.00    -0.508 OA
ATOM     25  H   UNL     1     -15.006 -15.242  26.582  1.00  0.00     0.293 HD
ENDBRANCH   9  24
TORSDOF 5
ENDMDL
MODEL 3
REMARK VINA RESULT:    -5.588      1.776      2.598
REMARK INTER + INTRA:          -6.762
REMARK INTER:                  -6.667
REMARK INTRA:                  -0.094
REMARK UNBOUND:                -0.194
REMARK SMILES O=c1c(O)c(-c2ccc(O)c(O)c2)oc2cc(O)ccc12
REMARK SMILES IDX 5 1 3 2 2 3 1 4 21 5 15 6 14 7 16 8 17 9 19 10 20 11 6 12
REMARK SMILES IDX 7 13 8 14 9 15 13 16 11 17 10 18 12 20 4 22 18 24
REMARK H PARENT 10 19 12 21 4 23 18 25
REMARK Flexibility Score: inf
ROOT
ATOM      1  C   UNL     1     -11.512 -16.304  31.946  1.00  0.00     0.180 A 
ATOM      2  C   UNL     1     -10.818 -15.822  30.817  1.00  0.00     0.208 A 
ATOM      3  C   UNL     1     -11.069 -16.407  29.566  1.00  0.00     0.235 A 
ATOM      4  O   UNL     1     -10.469 -15.986  28.540  1.00  0.00    -0.285 OA
ATOM      5  C   UNL     1     -11.986 -17.466  29.473  1.00  0.00     0.069 A 
ATOM      6  C   UNL     1     -12.623 -17.907  30.654  1.00  0.00     0.142 A 
ATOM      7  O   UNL     1     -12.363 -17.319  31.816  1.00  0.00    -0.452 OA
ATOM      8  C   UNL     1     -13.536 -18.967  30.602  1.00  0.00     0.094 A 
ATOM      9  C   UNL     1     -13.823 -19.593  29.386  1.00  0.00     0.119 A 
ATOM     10  C   UNL     1     -13.195 -19.156  28.211  1.00  0.00     0.047 A 
ATOM     11  C   UNL     1     -12.280 -18.100  28.251  1.00  0.00     0.020 A 
ENDROOT
BRANCH   1  12
ATOM     12  C   UNL     1     -11.316 -15.727  33.295  1.00  0.00     0.025 A 
ATOM     13  C   UNL     1     -10.050 -15.709  33.906  1.00  0.00     0.016 A 
ATOM     14  C   UNL     1      -9.884 -15.137  35.170  1.00  0.00     0.051 A 
ATOM     15  C   UNL     1     -10.975 -14.563  35.836  1.00  0.00     0.157 A 
ATOM     16  C   UNL     1     -12.402 -15.132  33.957  1.00  0.00     0.062 A 
ATOM     17  C   UNL     1     -12.240 -14.559  35.223  1.00  0.00     0.158 A 
BRANCH  15  18
ATOM     18  O   UNL     1     -10.807 -13.996  37.098  1.00  0.00    -0.504 OA
ATOM     19  H   UNL     1     -10.868 -12.994  37.243  1.00  0.00     0.293 HD
ENDBRANCH  15  18
BRANCH  17  20
ATOM     20  O   UNL     1     -13.344 -13.990  35.857  1.00  0.00    -0.504 OA
ATOM     21  H   UNL     1     -13.550 -14.156  36.835  1.00  0.00     0.293 HD
ENDBRANCH  17  20
ENDBRANCH   1  12
BRANCH   2  22
ATOM     22  O   UNL     1      -9.875 -14.799  30.950  1.00  0.00    -0.502 OA
ATOM     23  H   UNL     1      -9.703 -14.332  31.833  1.00  0.00     0.293 HD
ENDBRANCH   2  22
BRANCH   9  24
ATOM     24  O   UNL     1     -14.735 -20.645  29.354  1.00  0.00    -0.508 OA
ATOM     25  H   UNL     1     -15.670 -20.547  29.734  1.00  0.00     0.293 HD
ENDBRANCH   9  24
TORSDOF 5
ENDMDL
MODEL 4
REMARK VINA RESULT:    -5.356      2.042      6.968
REMARK INTER + INTRA:          -6.489
REMARK INTER:                  -6.289
REMARK INTRA:                  -0.201
REMARK UNBOUND:                -0.194
REMARK SMILES O=c1c(O)c(-c2ccc(O)c(O)c2)oc2cc(O)ccc12
REMARK SMILES IDX 5 1 3 2 2 3 1 4 21 5 15 6 14 7 16 8 17 9 19 10 20 11 6 12
REMARK SMILES IDX 7 13 8 14 9 15 13 16 11 17 10 18 12 20 4 22 18 24
REMARK H PARENT 10 19 12 21 4 23 18 25
REMARK Flexibility Score: inf
ROOT
ATOM      1  C   UNL     1     -13.121 -16.460  32.491  1.00  0.00     0.180 A 
ATOM      2  C   UNL     1     -14.279 -15.659  32.569  1.00  0.00     0.208 A 
ATOM      3  C   UNL     1     -14.321 -14.620  33.512  1.00  0.00     0.235 A 
ATOM      4  O   UNL     1     -15.341 -13.883  33.593  1.00  0.00    -0.285 OA
ATOM      5  C   UNL     1     -13.224 -14.416  34.363  1.00  0.00     0.069 A 
ATOM      6  C   UNL     1     -12.111 -15.277  34.238  1.00  0.00     0.142 A 
ATOM      7  O   UNL     1     -12.108 -16.242  33.326  1.00  0.00    -0.452 OA
ATOM      8  C   UNL     1     -11.002 -15.112  35.075  1.00  0.00     0.094 A 
ATOM      9  C   UNL     1     -10.988 -14.097  36.037  1.00  0.00     0.119 A 
ATOM     10  C   UNL     1     -12.090 -13.240  36.163  1.00  0.00     0.047 A 
ATOM     11  C   UNL     1     -13.204 -13.396  35.332  1.00  0.00     0.020 A 
ENDROOT
BRANCH   1  12
ATOM     12  C   UNL     1     -12.993 -17.563  31.511  1.00  0.00     0.025 A 
ATOM     13  C   UNL     1     -13.015 -18.908  31.917  1.00  0.00     0.016 A 
ATOM     14  C   UNL     1     -12.917 -19.933  30.972  1.00  0.00     0.051 A 
ATOM     15  C   UNL     1     -12.809 -19.630  29.608  1.00  0.00     0.157 A 
ATOM     16  C   UNL     1     -12.906 -17.264  30.142  1.00  0.00     0.062 A 
ATOM     17  C   UNL     1     -12.807 -18.288  29.193  1.00  0.00     0.158 A 
BRANCH  15  18
ATOM     18  O   UNL     1     -12.708 -20.654  28.668  1.00  0.00    -0.504 OA
ATOM     19  H   UNL     1     -12.201 -21.509  28.867  1.00  0.00     0.293 HD
ENDBRANCH  15  18
BRANCH  17  20
ATOM     20  O   UNL     1     -12.708 -17.953  27.843  1.00  0.00    -0.504 OA
ATOM     21  H   UNL     1     -13.129 -18.517  27.115  1.00  0.00     0.293 HD
ENDBRANCH  17  20
ENDBRANCH   1  12
BRANCH   2  22
ATOM     22  O   UNL     1     -15.375 -15.917  31.742  1.00  0.00    -0.502 OA
ATOM     23  H   UNL     1     -16.331 -15.811  32.061  1.00  0.00     0.293 HD
ENDBRANCH   2  22
BRANCH   9  24
ATOM     24  O   UNL     1      -9.875 -13.947  36.861  1.00  0.00    -0.508 OA
ATOM     25  H   UNL     1      -9.313 -13.103  36.843  1.00  0.00     0.293 HD
ENDBRANCH   9  24
TORSDOF 5
ENDMDL
MODEL 5
REMARK VINA RESULT:    -5.047      1.958      3.010
REMARK INTER + INTRA:          -6.126
REMARK INTER:                  -6.678
REMARK INTRA:                   0.552
REMARK UNBOUND:                -0.194
REMARK SMILES O=c1c(O)c(-c2ccc(O)c(O)c2)oc2cc(O)ccc12
REMARK SMILES IDX 5 1 3 2 2 3 1 4 21 5 15 6 14 7 16 8 17 9 19 10 20 11 6 12
REMARK SMILES IDX 7 13 8 14 9 15 13 16 11 17 10 18 12 20 4 22 18 24
REMARK H PARENT 10 19 12 21 4 23 18 25
REMARK Flexibility Score: inf
ROOT
ATOM      1  C   UNL     1     -12.202 -15.275  33.238  1.00  0.00     0.180 A 
ATOM      2  C   UNL     1     -13.525 -14.924  32.899  1.00  0.00     0.208 A 
ATOM      3  C   UNL     1     -13.955 -15.104  31.575  1.00  0.00     0.235 A 
ATOM      4  O   UNL     1     -15.137 -14.808  31.250  1.00  0.00    -0.285 OA
ATOM      5  C   UNL     1     -13.057 -15.609  30.621  1.00  0.00     0.069 A 
ATOM      6  C   UNL     1     -11.742 -15.914  31.035  1.00  0.00     0.142 A 
ATOM      7  O   UNL     1     -11.378 -15.738  32.300  1.00  0.00    -0.452 OA
ATOM      8  C   UNL     1     -10.816 -16.410  30.111  1.00  0.00     0.094 A 
ATOM      9  C   UNL     1     -11.185 -16.606  28.777  1.00  0.00     0.119 A 
ATOM     10  C   UNL     1     -12.490 -16.305  28.362  1.00  0.00     0.047 A 
ATOM     11  C   UNL     1     -13.424 -15.809  29.277  1.00  0.00     0.020 A 
ENDROOT
BRANCH   1  12
ATOM     12  C   UNL     1     -11.679 -15.132  34.616  1.00  0.00     0.025 A 
ATOM     13  C   UNL     1     -10.354 -15.476  34.936  1.00  0.00     0.016 A 
ATOM     14  C   UNL     1      -9.875 -15.309  36.238  1.00  0.00     0.051 A 
ATOM     15  C   UNL     1     -10.708 -14.784  37.236  1.00  0.00     0.157 A 
ATOM     16  C   UNL     1     -12.502 -14.587  35.614  1.00  0.00     0.062 A 
ATOM     17  C   UNL     1     -12.027 -14.419  36.920  1.00  0.00     0.158 A 
BRANCH  15  18
ATOM     18  O   UNL     1     -10.228 -14.622  38.534  1.00  0.00    -0.504 OA
ATOM     19  H   UNL     1      -9.335 -14.178  38.719  1.00  0.00     0.293 HD
ENDBRANCH  15  18
BRANCH  17  20
ATOM     20  O   UNL     1     -12.878 -13.887  37.888  1.00  0.00    -0.504 OA
ATOM     21  H   UNL     1     -12.540 -13.288  38.632  1.00  0.00     0.293 HD
ENDBRANCH  17  20
ENDBRANCH   1  12
BRANCH   2  22
ATOM     22  O   UNL     1     -14.380 -14.378  33.860  1.00  0.00    -0.502 OA
ATOM     23  H   UNL     1     -15.351 -14.658  33.942  1.00  0.00     0.293 HD
ENDBRANCH   2  22
BRANCH   9  24
ATOM     24  O   UNL     1     -10.250 -17.101  27.871  1.00  0.00    -0.508 OA
ATOM     25  H   UNL     1     -10.525 -17.695  27.097  1.00  0.00     0.293 HD
ENDBRANCH   9  24
TORSDOF 5
ENDMDL
MODEL 6
REMARK VINA RESULT:    -4.581      2.793      3.895
REMARK INTER + INTRA:          -5.579
REMARK INTER:                  -6.009
REMARK INTRA:                   0.430
REMARK UNBOUND:                -0.194
REMARK SMILES O=c1c(O)c(-c2ccc(O)c(O)c2)oc2cc(O)ccc12
REMARK SMILES IDX 5 1 3 2 2 3 1 4 21 5 15 6 14 7 16 8 17 9 19 10 20 11 6 12
REMARK SMILES IDX 7 13 8 14 9 15 13 16 11 17 10 18 12 20 4 22 18 24
REMARK H PARENT 10 19 12 21 4 23 18 25
REMARK Flexibility Score: inf
ROOT
ATOM      1  C   UNL     1     -12.110 -15.085  33.852  1.00  0.00     0.180 A 
ATOM      2  C   UNL     1     -13.487 -15.306  33.648  1.00  0.00     0.208 A 
ATOM      3  C   UNL     1     -13.888 -16.345  32.793  1.00  0.00     0.235 A 
ATOM      4  O   UNL     1     -15.114 -16.570  32.603  1.00  0.00    -0.285 OA
ATOM      5  C   UNL     1     -12.912 -17.123  32.149  1.00  0.00     0.069 A 
ATOM      6  C   UNL     1     -11.552 -16.823  32.387  1.00  0.00     0.142 A 
ATOM      7  O   UNL     1     -11.217 -15.837  33.211  1.00  0.00    -0.452 OA
ATOM      8  C   UNL     1     -10.551 -17.569  31.756  1.00  0.00     0.094 A 
ATOM      9  C   UNL     1     -10.888 -18.613  30.890  1.00  0.00     0.119 A 
ATOM     10  C   UNL     1     -12.236 -18.915  30.653  1.00  0.00     0.047 A 
ATOM     11  C   UNL     1     -13.245 -18.175  31.277  1.00  0.00     0.020 A 
ENDROOT
BRANCH   1  12
ATOM     12  C   UNL     1     -11.609 -14.022  34.752  1.00  0.00     0.025 A 
ATOM     13  C   UNL     1     -10.318 -13.486  34.605  1.00  0.00     0.016 A 
ATOM     14  C   UNL     1      -9.875 -12.466  35.451  1.00  0.00     0.051 A 
ATOM     15  C   UNL     1     -10.720 -11.957  36.447  1.00  0.00     0.157 A 
ATOM     16  C   UNL     1     -12.459 -13.494  35.737  1.00  0.00     0.062 A 
ATOM     17  C   UNL     1     -12.020 -12.472  36.587  1.00  0.00     0.158 A 
BRANCH  15  18
ATOM     18  O   UNL     1     -10.275 -10.941  37.291  1.00  0.00    -0.504 OA
ATOM     19  H   UNL     1     -10.526  -9.971  37.133  1.00  0.00     0.293 HD
ENDBRANCH  15  18
BRANCH  17  20
ATOM     20  O   UNL     1     -12.886 -11.982  37.563  1.00  0.00    -0.504 OA
ATOM     21  H   UNL     1     -13.122 -12.515  38.392  1.00  0.00     0.293 HD
ENDBRANCH  17  20
ENDBRANCH   1  12
BRANCH   2  22
ATOM     22  O   UNL     1     -14.435 -14.485  34.264  1.00  0.00    -0.502 OA
ATOM     23  H   UNL     1     -15.019 -14.809  35.026  1.00  0.00     0.293 HD
ENDBRANCH   2  22
BRANCH   9  24
ATOM     24  O   UNL     1      -9.877 -19.346  30.271  1.00  0.00    -0.508 OA
ATOM     25  H   UNL     1      -9.830 -20.355  30.352  1.00  0.00     0.293 HD
ENDBRANCH   9  24
TORSDOF 5
ENDMDL
MODEL 7
REMARK VINA RESULT:    -4.459      1.795      3.345
REMARK INTER + INTRA:          -5.434
REMARK INTER:                  -5.719
REMARK INTRA:                   0.284
REMARK UNBOUND:                -0.194
REMARK SMILES O=c1c(O)c(-c2ccc(O)c(O)c2)oc2cc(O)ccc12
REMARK SMILES IDX 5 1 3 2 2 3 1 4 21 5 15 6 14 7 16 8 17 9 19 10 20 11 6 12
REMARK SMILES IDX 7 13 8 14 9 15 13 16 11 17 10 18 12 20 4 22 18 24
REMARK H PARENT 10 19 12 21 4 23 18 25
REMARK Flexibility Score: inf
ROOT
ATOM      1  C   UNL     1     -13.016 -15.355  30.927  1.00  0.00     0.180 A 
ATOM      2  C   UNL     1     -14.051 -14.736  30.194  1.00  0.00     0.208 A 
ATOM      3  C   UNL     1     -14.100 -14.921  28.804  1.00  0.00     0.235 A 
ATOM      4  O   UNL     1     -15.021 -14.387  28.128  1.00  0.00    -0.285 OA
ATOM      5  C   UNL     1     -13.112 -15.698  28.176  1.00  0.00     0.069 A 
ATOM      6  C   UNL     1     -12.097 -16.264  28.977  1.00  0.00     0.142 A 
ATOM      7  O   UNL     1     -12.092 -16.072  30.291  1.00  0.00    -0.452 OA
ATOM      8  C   UNL     1     -11.090 -17.036  28.386  1.00  0.00     0.094 A 
ATOM      9  C   UNL     1     -11.083 -17.251  27.005  1.00  0.00     0.119 A 
ATOM     10  C   UNL     1     -12.091 -16.692  26.207  1.00  0.00     0.047 A 
ATOM     11  C   UNL     1     -13.102 -15.918  26.786  1.00  0.00     0.020 A 
ENDROOT
BRANCH   1  12
ATOM     12  C   UNL     1     -12.907 -15.223  32.398  1.00  0.00     0.025 A 
ATOM     13  C   UNL     1     -14.038 -14.991  33.198  1.00  0.00     0.016 A 
ATOM     14  C   UNL     1     -13.914 -14.894  34.586  1.00  0.00     0.051 A 
ATOM     15  C   UNL     1     -12.661 -15.040  35.196  1.00  0.00     0.157 A 
ATOM     16  C   UNL     1     -11.657 -15.390  33.015  1.00  0.00     0.062 A 
ATOM     17  C   UNL     1     -11.528 -15.293  34.405  1.00  0.00     0.158 A 
BRANCH  15  18
ATOM     18  O   UNL     1     -12.540 -14.940  36.581  1.00  0.00    -0.504 OA
ATOM     19  H   UNL     1     -11.730 -15.304  37.071  1.00  0.00     0.293 HD
ENDBRANCH  15  18
BRANCH  17  20
ATOM     20  O   UNL     1     -10.268 -15.451  34.982  1.00  0.00    -0.504 OA
ATOM     21  H   UNL     1     -10.095 -15.256  35.961  1.00  0.00     0.293 HD
ENDBRANCH  17  20
ENDBRANCH   1  12
BRANCH   2  22
ATOM     22  O   UNL     1     -14.990 -13.929  30.840  1.00  0.00    -0.502 OA
ATOM     23  H   UNL     1     -15.988 -14.090  30.762  1.00  0.00     0.293 HD
ENDBRANCH   2  22
BRANCH   9  24
ATOM     24  O   UNL     1     -10.073 -18.023  26.435  1.00  0.00    -0.508 OA
ATOM     25  H   UNL     1      -9.188 -18.168  26.907  1.00  0.00     0.293 HD
ENDBRANCH   9  24
TORSDOF 5
ENDMDL
MODEL 8
REMARK VINA RESULT:    -4.156      1.561      6.642
REMARK INTER + INTRA:          -5.078
REMARK INTER:                  -5.032
REMARK INTRA:                  -0.047
REMARK UNBOUND:                -0.194
REMARK SMILES O=c1c(O)c(-c2ccc(O)c(O)c2)oc2cc(O)ccc12
REMARK SMILES IDX 5 1 3 2 2 3 1 4 21 5 15 6 14 7 16 8 17 9 19 10 20 11 6 12
REMARK SMILES IDX 7 13 8 14 9 15 13 16 11 17 10 18 12 20 4 22 18 24
REMARK H PARENT 10 19 12 21 4 23 18 25
REMARK Flexibility Score: inf
ROOT
ATOM      1  C   UNL     1     -12.441 -15.886  31.393  1.00  0.00     0.180 A 
ATOM      2  C   UNL     1     -11.262 -16.442  31.931  1.00  0.00     0.208 A 
ATOM      3  C   UNL     1     -10.919 -16.148  33.260  1.00  0.00     0.235 A 
ATOM      4  O   UNL     1      -9.875 -16.642  33.767  1.00  0.00    -0.285 OA
ATOM      5  C   UNL     1     -11.744 -15.297  34.012  1.00  0.00     0.069 A 
ATOM      6  C   UNL     1     -12.895 -14.762  33.394  1.00  0.00     0.142 A 
ATOM      7  O   UNL     1     -13.188 -15.073  32.137  1.00  0.00    -0.452 OA
ATOM      8  C   UNL     1     -13.737 -13.902  34.109  1.00  0.00     0.094 A 
ATOM      9  C   UNL     1     -13.445 -13.569  35.435  1.00  0.00     0.119 A 
ATOM     10  C   UNL     1     -12.304 -14.100  36.052  1.00  0.00     0.047 A 
ATOM     11  C   UNL     1     -11.455 -14.959  35.348  1.00  0.00     0.020 A 
ENDROOT
BRANCH   1  12
ATOM     12  C   UNL     1     -12.880 -16.163  30.006  1.00  0.00     0.025 A 
ATOM     13  C   UNL     1     -13.076 -15.125  29.080  1.00  0.00     0.016 A 
ATOM     14  C   UNL     1     -13.467 -15.411  27.769  1.00  0.00     0.051 A 
ATOM     15  C   UNL     1     -13.653 -16.739  27.361  1.00  0.00     0.157 A 
ATOM     16  C   UNL     1     -13.047 -17.493  29.587  1.00  0.00     0.062 A 
ATOM     17  C   UNL     1     -13.439 -17.784  28.276  1.00  0.00     0.158 A 
BRANCH  15  18
ATOM     18  O   UNL     1     -14.045 -17.022  26.054  1.00  0.00    -0.504 OA
ATOM     19  H   UNL     1     -13.959 -17.953  25.663  1.00  0.00     0.293 HD
ENDBRANCH  15  18
BRANCH  17  20
ATOM     20  O   UNL     1     -13.609 -19.116  27.899  1.00  0.00    -0.504 OA
ATOM     21  H   UNL     1     -14.510 -19.488  27.623  1.00  0.00     0.293 HD
ENDBRANCH  17  20
ENDBRANCH   1  12
BRANCH   2  22
ATOM     22  O   UNL     1     -10.435 -17.246  31.142  1.00  0.00    -0.502 OA
ATOM     23  H   UNL     1     -10.749 -17.653  30.269  1.00  0.00     0.293 HD
ENDBRANCH   2  22
BRANCH   9  24
ATOM     24  O   UNL     1     -14.295 -12.712  36.131  1.00  0.00    -0.508 OA
ATOM     25  H   UNL     1     -14.318 -11.717  35.936  1.00  0.00     0.293 HD
ENDBRANCH   9  24
TORSDOF 5
ENDMDL
