MODEL 1
REMARK VINA RESULT:    -4.370      0.000      0.000
REMARK INTER + INTRA:          -8.336
REMARK INTER:                  -7.690
REMARK INTRA:                  -0.645
REMARK UNBOUND:                -0.645
REMARK SMILES CCCCCCCCCCCCCCC(=O)[O-]
REMARK SMILES IDX 9 1 10 2 11 3 12 4 13 5 14 6 15 7 16 8 17 9 8 10 7 11 6 12
REMARK SMILES IDX 5 13 4 14 3 15 2 16 1 17
REMARK H PARENT
REMARK Flexibility Score: inf
ROOT
ATOM      1  C   UNL     1     -32.880  -8.583  34.194  1.00  0.00     0.000 C 
ENDROOT
BRANCH   1   2
ATOM      2  C   UNL     1     -31.792  -7.497  34.189  1.00  0.00     0.000 C 
BRANCH   2   3
ATOM      3  C   UNL     1     -30.634  -7.813  33.226  1.00  0.00     0.000 C 
BRANCH   3   4
ATOM      4  C   UNL     1     -29.931  -9.160  33.468  1.00  0.00     0.000 C 
BRANCH   4   5
ATOM      5  C   UNL     1     -28.527  -9.002  34.079  1.00  0.00     0.006 C 
BRANCH   5   6
ATOM      6  C   UNL     1     -28.276 -10.000  35.217  1.00  0.00     0.053 C 
BRANCH   6   7
ATOM      7  C   UNL     1     -27.625 -11.255  34.723  1.00  0.00     0.041 C 
ATOM      8  O   UNL     1     -27.815 -12.347  35.322  1.00  0.00    -0.550 OA
ATOM      9  O   UNL     1     -26.830 -11.224  33.585  1.00  0.00    -0.550 OA
ENDBRANCH   6   7
ENDBRANCH   5   6
ENDBRANCH   4   5
ENDBRANCH   3   4
ENDBRANCH   2   3
ENDBRANCH   1   2
BRANCH   1  10
ATOM     10  C   UNL     1     -33.552  -8.693  32.820  1.00  0.00     0.000 C 
BRANCH  10  11
ATOM     11  C   UNL     1     -34.012  -7.318  32.321  1.00  0.00    -0.000 C 
BRANCH  11  12
ATOM     12  C   UNL     1     -35.479  -7.358  31.875  1.00  0.00    -0.000 C 
BRANCH  12  13
ATOM     13  C   UNL     1     -36.422  -7.158  33.068  1.00  0.00    -0.000 C 
BRANCH  13  14
ATOM     14  C   UNL     1     -37.865  -6.925  32.595  1.00  0.00    -0.000 C 
BRANCH  14  15
ATOM     15  C   UNL     1     -38.826  -6.587  33.748  1.00  0.00    -0.000 C 
BRANCH  15  16
ATOM     16  C   UNL     1     -38.990  -5.084  34.035  1.00  0.00    -0.003 C 
ATOM     17  C   UNL     1     -39.057  -4.764  35.528  1.00  0.00     0.004 C 
ENDBRANCH  15  16
ENDBRANCH  14  15
ENDBRANCH  13  14
ENDBRANCH  12  13
ENDBRANCH  11  12
ENDBRANCH  10  11
ENDBRANCH   1  10
TORSDOF 13
ENDMDL
MODEL 2
REMARK VINA RESULT:    -4.262     11.706     14.754
REMARK INTER + INTRA:          -8.146
REMARK INTER:                  -6.087
REMARK INTRA:                  -2.059
REMARK UNBOUND:                -0.645
REMARK SMILES CCCCCCCCCCCCCCC(=O)[O-]
REMARK SMILES IDX 9 1 10 2 11 3 12 4 13 5 14 6 15 7 16 8 17 9 8 10 7 11 6 12
REMARK SMILES IDX 5 13 4 14 3 15 2 16 1 17
REMARK H PARENT
REMARK Flexibility Score: inf
ROOT
ATOM      1  C   UNL     1     -20.043 -11.678  39.364  1.00  0.00     0.000 C 
ENDROOT
BRANCH   1   2
ATOM      2  C   UNL     1     -21.206 -11.146  40.215  1.00  0.00     0.000 C 
BRANCH   2   3
ATOM      3  C   UNL     1     -22.484 -10.893  39.394  1.00  0.00     0.000 C 
BRANCH   3   4
ATOM      4  C   UNL     1     -23.438 -12.095  39.283  1.00  0.00     0.000 C 
BRANCH   4   5
ATOM      5  C   UNL     1     -23.468 -12.707  37.872  1.00  0.00     0.006 C 
BRANCH   5   6
ATOM      6  C   UNL     1     -22.647 -11.888  36.868  1.00  0.00     0.053 C 
BRANCH   6   7
ATOM      7  C   UNL     1     -23.012 -12.215  35.452  1.00  0.00     0.041 C 
ATOM      8  O   UNL     1     -23.987 -11.640  34.899  1.00  0.00    -0.550 OA
ATOM      9  O   UNL     1     -22.257 -13.133  34.735  1.00  0.00    -0.550 OA
ENDBRANCH   6   7
ENDBRANCH   5   6
ENDBRANCH   4   5
ENDBRANCH   3   4
ENDBRANCH   2   3
ENDBRANCH   1   2
BRANCH   1  10
ATOM     10  C   UNL     1     -19.103 -12.553  40.204  1.00  0.00     0.000 C 
BRANCH  10  11
ATOM     11  C   UNL     1     -19.035 -13.980  39.647  1.00  0.00    -0.000 C 
BRANCH  11  12
ATOM     12  C   UNL     1     -20.249 -14.283  38.761  1.00  0.00    -0.000 C 
BRANCH  12  13
ATOM     13  C   UNL     1     -21.232 -15.219  39.475  1.00  0.00    -0.000 C 
BRANCH  13  14
ATOM     14  C   UNL     1     -20.575 -15.875  40.698  1.00  0.00    -0.000 C 
BRANCH  14  15
ATOM     15  C   UNL     1     -21.326 -15.582  42.010  1.00  0.00    -0.000 C 
BRANCH  15  16
ATOM     16  C   UNL     1     -22.152 -14.284  42.007  1.00  0.00    -0.003 C 
ATOM     17  C   UNL     1     -23.496 -14.429  42.720  1.00  0.00     0.004 C 
ENDBRANCH  15  16
ENDBRANCH  14  15
ENDBRANCH  13  14
ENDBRANCH  12  13
ENDBRANCH  11  12
ENDBRANCH  10  11
ENDBRANCH   1  10
TORSDOF 13
ENDMDL
MODEL 3
REMARK VINA RESULT:    -4.231      4.514      9.439
REMARK INTER + INTRA:          -8.092
REMARK INTER:                  -7.515
REMARK INTRA:                  -0.577
REMARK UNBOUND:                -0.645
REMARK SMILES CCCCCCCCCCCCCCC(=O)[O-]
REMARK SMILES IDX 9 1 10 2 11 3 12 4 13 5 14 6 15 7 16 8 17 9 8 10 7 11 6 12
REMARK SMILES IDX 5 13 4 14 3 15 2 16 1 17
REMARK H PARENT
REMARK Flexibility Score: inf
ROOT
ATOM      1  C   UNL     1     -33.497  -7.591  33.815  1.00  0.00     0.000 C 
ENDROOT
BRANCH   1   2
ATOM      2  C   UNL     1     -34.512  -7.513  32.664  1.00  0.00     0.000 C 
BRANCH   2   3
ATOM      3  C   UNL     1     -35.941  -7.203  33.144  1.00  0.00     0.000 C 
BRANCH   3   4
ATOM      4  C   UNL     1     -36.972  -6.977  32.025  1.00  0.00     0.000 C 
BRANCH   4   5
ATOM      5  C   UNL     1     -38.425  -7.012  32.532  1.00  0.00     0.006 C 
BRANCH   5   6
ATOM      6  C   UNL     1     -38.888  -5.647  33.056  1.00  0.00     0.053 C 
BRANCH   6   7
ATOM      7  C   UNL     1     -38.787  -5.560  34.548  1.00  0.00     0.041 C 
ATOM      8  O   UNL     1     -38.719  -4.438  35.115  1.00  0.00    -0.550 OA
ATOM      9  O   UNL     1     -38.797  -6.718  35.314  1.00  0.00    -0.550 OA
ENDBRANCH   6   7
ENDBRANCH   5   6
ENDBRANCH   4   5
ENDBRANCH   3   4
ENDBRANCH   2   3
ENDBRANCH   1   2
BRANCH   1  10
ATOM     10  C   UNL     1     -32.281  -6.700  33.535  1.00  0.00     0.000 C 
BRANCH  10  11
ATOM     11  C   UNL     1     -31.344  -7.353  32.511  1.00  0.00    -0.000 C 
BRANCH  11  12
ATOM     12  C   UNL     1     -30.890  -8.738  32.986  1.00  0.00    -0.000 C 
BRANCH  12  13
ATOM     13  C   UNL     1     -29.977  -8.628  34.214  1.00  0.00    -0.000 C 
BRANCH  13  14
ATOM     14  C   UNL     1     -28.643  -9.350  33.973  1.00  0.00    -0.000 C 
BRANCH  14  15
ATOM     15  C   UNL     1     -28.241 -10.269  35.141  1.00  0.00    -0.000 C 
BRANCH  15  16
ATOM     16  C   UNL     1     -27.323 -11.442  34.756  1.00  0.00    -0.003 C 
ATOM     17  C   UNL     1     -27.203 -11.637  33.245  1.00  0.00     0.004 C 
ENDBRANCH  15  16
ENDBRANCH  14  15
ENDBRANCH  13  14
ENDBRANCH  12  13
ENDBRANCH  11  12
ENDBRANCH  10  11
ENDBRANCH   1  10
TORSDOF 13
ENDMDL
MODEL 4
REMARK VINA RESULT:    -4.221     11.844     13.742
REMARK INTER + INTRA:          -8.075
REMARK INTER:                  -5.848
REMARK INTRA:                  -2.227
REMARK UNBOUND:                -0.645
REMARK SMILES CCCCCCCCCCCCCCC(=O)[O-]
REMARK SMILES IDX 9 1 10 2 11 3 12 4 13 5 14 6 15 7 16 8 17 9 8 10 7 11 6 12
REMARK SMILES IDX 5 13 4 14 3 15 2 16 1 17
REMARK H PARENT
REMARK Flexibility Score: inf
ROOT
ATOM      1  C   UNL     1     -19.985 -11.602  39.005  1.00  0.00     0.000 C 
ENDROOT
BRANCH   1   2
ATOM      2  C   UNL     1     -19.331 -12.992  39.059  1.00  0.00     0.000 C 
BRANCH   2   3
ATOM      3  C   UNL     1     -19.775 -13.910  37.906  1.00  0.00     0.000 C 
BRANCH   3   4
ATOM      4  C   UNL     1     -20.227 -13.182  36.628  1.00  0.00     0.000 C 
BRANCH   4   5
ATOM      5  C   UNL     1     -21.441 -13.847  35.957  1.00  0.00     0.006 C 
BRANCH   5   6
ATOM      6  C   UNL     1     -22.070 -12.953  34.881  1.00  0.00     0.053 C 
BRANCH   6   7
ATOM      7  C   UNL     1     -21.643 -13.355  33.503  1.00  0.00     0.041 C 
ATOM      8  O   UNL     1     -22.435 -13.981  32.750  1.00  0.00    -0.550 OA
ATOM      9  O   UNL     1     -20.379 -13.015  33.040  1.00  0.00    -0.550 OA
ENDBRANCH   6   7
ENDBRANCH   5   6
ENDBRANCH   4   5
ENDBRANCH   3   4
ENDBRANCH   2   3
ENDBRANCH   1   2
BRANCH   1  10
ATOM     10  C   UNL     1     -20.739 -11.300  40.306  1.00  0.00     0.000 C 
BRANCH  10  11
ATOM     11  C   UNL     1     -22.150 -10.773  40.014  1.00  0.00    -0.000 C 
BRANCH  11  12
ATOM     12  C   UNL     1     -22.609 -11.178  38.609  1.00  0.00    -0.000 C 
BRANCH  12  13
ATOM     13  C   UNL     1     -23.931 -11.954  38.664  1.00  0.00    -0.000 C 
BRANCH  13  14
ATOM     14  C   UNL     1     -23.725 -13.420  38.256  1.00  0.00    -0.000 C 
BRANCH  14  15
ATOM     15  C   UNL     1     -23.818 -14.391  39.447  1.00  0.00    -0.000 C 
BRANCH  15  16
ATOM     16  C   UNL     1     -22.549 -14.480  40.311  1.00  0.00    -0.003 C 
ATOM     17  C   UNL     1     -22.785 -14.073  41.765  1.00  0.00     0.004 C 
ENDBRANCH  15  16
ENDBRANCH  14  15
ENDBRANCH  13  14
ENDBRANCH  12  13
ENDBRANCH  11  12
ENDBRANCH  10  11
ENDBRANCH   1  10
TORSDOF 13
ENDMDL
MODEL 5
REMARK VINA RESULT:    -4.131     12.229     14.534
REMARK INTER + INTRA:          -7.915
REMARK INTER:                  -6.022
REMARK INTRA:                  -1.893
REMARK UNBOUND:                -0.645
REMARK SMILES CCCCCCCCCCCCCCC(=O)[O-]
REMARK SMILES IDX 9 1 10 2 11 3 12 4 13 5 14 6 15 7 16 8 17 9 8 10 7 11 6 12
REMARK SMILES IDX 5 13 4 14 3 15 2 16 1 17
REMARK H PARENT
REMARK Flexibility Score: inf
ROOT
ATOM      1  C   UNL     1     -22.163 -11.458  40.044  1.00  0.00     0.000 C 
ENDROOT
BRANCH   1   2
ATOM      2  C   UNL     1     -22.679 -11.088  38.645  1.00  0.00     0.000 C 
BRANCH   2   3
ATOM      3  C   UNL     1     -23.113 -12.315  37.822  1.00  0.00     0.000 C 
BRANCH   3   4
ATOM      4  C   UNL     1     -22.642 -12.319  36.357  1.00  0.00     0.000 C 
BRANCH   4   5
ATOM      5  C   UNL     1     -21.866 -13.594  35.981  1.00  0.00     0.006 C 
BRANCH   5   6
ATOM      6  C   UNL     1     -20.651 -13.291  35.095  1.00  0.00     0.053 C 
BRANCH   6   7
ATOM      7  C   UNL     1     -20.995 -13.354  33.638  1.00  0.00     0.041 C 
ATOM      8  O   UNL     1     -20.212 -12.867  32.780  1.00  0.00    -0.550 OA
ATOM      9  O   UNL     1     -22.166 -13.976  33.227  1.00  0.00    -0.550 OA
ENDBRANCH   6   7
ENDBRANCH   5   6
ENDBRANCH   4   5
ENDBRANCH   3   4
ENDBRANCH   2   3
ENDBRANCH   1   2
BRANCH   1  10
ATOM     10  C   UNL     1     -20.660 -11.172  40.168  1.00  0.00     0.000 C 
BRANCH  10  11
ATOM     11  C   UNL     1     -19.885 -11.795  39.001  1.00  0.00    -0.000 C 
BRANCH  11  12
ATOM     12  C   UNL     1     -19.221 -13.112  39.422  1.00  0.00    -0.000 C 
BRANCH  12  13
ATOM     13  C   UNL     1     -19.894 -14.310  38.741  1.00  0.00    -0.000 C 
BRANCH  13  14
ATOM     14  C   UNL     1     -20.416 -15.312  39.782  1.00  0.00    -0.000 C 
BRANCH  14  15
ATOM     15  C   UNL     1     -21.801 -14.932  40.337  1.00  0.00    -0.000 C 
BRANCH  15  16
ATOM     16  C   UNL     1     -21.846 -14.691  41.855  1.00  0.00    -0.003 C 
ATOM     17  C   UNL     1     -23.244 -14.343  42.364  1.00  0.00     0.004 C 
ENDBRANCH  15  16
ENDBRANCH  14  15
ENDBRANCH  13  14
ENDBRANCH  12  13
ENDBRANCH  11  12
ENDBRANCH  10  11
ENDBRANCH   1  10
TORSDOF 13
ENDMDL
MODEL 6
REMARK VINA RESULT:    -4.072      4.346      8.147
REMARK INTER + INTRA:          -7.812
REMARK INTER:                  -7.215
REMARK INTRA:                  -0.597
REMARK UNBOUND:                -0.645
REMARK SMILES CCCCCCCCCCCCCCC(=O)[O-]
REMARK SMILES IDX 9 1 10 2 11 3 12 4 13 5 14 6 15 7 16 8 17 9 8 10 7 11 6 12
REMARK SMILES IDX 5 13 4 14 3 15 2 16 1 17
REMARK H PARENT
REMARK Flexibility Score: inf
ROOT
ATOM      1  C   UNL     1     -25.081 -11.598  33.104  1.00  0.00     0.000 C 
ENDROOT
BRANCH   1   2
ATOM      2  C   UNL     1     -24.730 -12.452  31.875  1.00  0.00     0.000 C 
BRANCH   2   3
ATOM      3  C   UNL     1     -23.623 -13.484  32.158  1.00  0.00     0.000 C 
BRANCH   3   4
ATOM      4  C   UNL     1     -22.368 -12.923  32.849  1.00  0.00     0.000 C 
BRANCH   4   5
ATOM      5  C   UNL     1     -21.805 -13.867  33.927  1.00  0.00     0.006 C 
BRANCH   5   6
ATOM      6  C   UNL     1     -21.130 -13.100  35.071  1.00  0.00     0.053 C 
BRANCH   6   7
ATOM      7  C   UNL     1     -21.940 -13.151  36.329  1.00  0.00     0.041 C 
ATOM      8  O   UNL     1     -22.600 -12.144  36.700  1.00  0.00    -0.550 OA
ATOM      9  O   UNL     1     -21.989 -14.319  37.078  1.00  0.00    -0.550 OA
ENDBRANCH   6   7
ENDBRANCH   5   6
ENDBRANCH   4   5
ENDBRANCH   3   4
ENDBRANCH   2   3
ENDBRANCH   1   2
BRANCH   1  10
ATOM     10  C   UNL     1     -26.596 -11.585  33.348  1.00  0.00     0.000 C 
BRANCH  10  11
ATOM     11  C   UNL     1     -26.911 -11.575  34.849  1.00  0.00    -0.000 C 
BRANCH  11  12
ATOM     12  C   UNL     1     -28.253 -10.887  35.125  1.00  0.00    -0.000 C 
BRANCH  12  13
ATOM     13  C   UNL     1     -28.154  -9.374  34.898  1.00  0.00    -0.000 C 
BRANCH  13  14
ATOM     14  C   UNL     1     -29.017  -8.939  33.704  1.00  0.00    -0.000 C 
BRANCH  14  15
ATOM     15  C   UNL     1     -30.486  -8.688  34.087  1.00  0.00    -0.000 C 
BRANCH  15  16
ATOM     16  C   UNL     1     -31.260  -7.774  33.122  1.00  0.00    -0.003 C 
ATOM     17  C   UNL     1     -32.241  -8.536  32.233  1.00  0.00     0.004 C 
ENDBRANCH  15  16
ENDBRANCH  14  15
ENDBRANCH  13  14
ENDBRANCH  12  13
ENDBRANCH  11  12
ENDBRANCH  10  11
ENDBRANCH   1  10
TORSDOF 13
ENDMDL
MODEL 7
REMARK VINA RESULT:    -4.016     12.354     14.573
REMARK INTER + INTRA:          -7.713
REMARK INTER:                  -5.777
REMARK INTRA:                  -1.936
REMARK UNBOUND:                -0.645
REMARK SMILES CCCCCCCCCCCCCCC(=O)[O-]
REMARK SMILES IDX 9 1 10 2 11 3 12 4 13 5 14 6 15 7 16 8 17 9 8 10 7 11 6 12
REMARK SMILES IDX 5 13 4 14 3 15 2 16 1 17
REMARK H PARENT
REMARK Flexibility Score: inf
ROOT
ATOM      1  C   UNL     1     -21.066 -10.999  40.213  1.00  0.00     0.000 C 
ENDROOT
BRANCH   1   2
ATOM      2  C   UNL     1     -19.962 -11.845  39.559  1.00  0.00     0.000 C 
BRANCH   2   3
ATOM      3  C   UNL     1     -19.711 -13.175  40.292  1.00  0.00     0.000 C 
BRANCH   3   4
ATOM      4  C   UNL     1     -20.364 -14.410  39.647  1.00  0.00     0.000 C 
BRANCH   4   5
ATOM      5  C   UNL     1     -21.264 -15.190  40.622  1.00  0.00     0.006 C 
BRANCH   5   6
ATOM      6  C   UNL     1     -21.470 -14.441  41.944  1.00  0.00     0.053 C 
BRANCH   6   7
ATOM      7  C   UNL     1     -22.641 -14.974  42.710  1.00  0.00     0.041 C 
ATOM      8  O   UNL     1     -23.760 -14.398  42.642  1.00  0.00    -0.550 OA
ATOM      9  O   UNL     1     -22.505 -16.124  43.476  1.00  0.00    -0.550 OA
ENDBRANCH   6   7
ENDBRANCH   5   6
ENDBRANCH   4   5
ENDBRANCH   3   4
ENDBRANCH   2   3
ENDBRANCH   1   2
BRANCH   1  10
ATOM     10  C   UNL     1     -22.294 -10.898  39.300  1.00  0.00     0.000 C 
BRANCH  10  11
ATOM     11  C   UNL     1     -23.237 -12.088  39.513  1.00  0.00    -0.000 C 
BRANCH  11  12
ATOM     12  C   UNL     1     -23.399 -12.899  38.222  1.00  0.00    -0.000 C 
BRANCH  12  13
ATOM     13  C   UNL     1     -22.972 -12.078  36.999  1.00  0.00    -0.000 C 
BRANCH  13  14
ATOM     14  C   UNL     1     -22.232 -12.957  35.979  1.00  0.00    -0.000 C 
BRANCH  14  15
ATOM     15  C   UNL     1     -20.723 -13.065  36.266  1.00  0.00    -0.000 C 
BRANCH  15  16
ATOM     16  C   UNL     1     -19.858 -13.437  35.050  1.00  0.00    -0.003 C 
ATOM     17  C   UNL     1     -20.595 -13.282  33.721  1.00  0.00     0.004 C 
ENDBRANCH  15  16
ENDBRANCH  14  15
ENDBRANCH  13  14
ENDBRANCH  12  13
ENDBRANCH  11  12
ENDBRANCH  10  11
ENDBRANCH   1  10
TORSDOF 13
ENDMDL
MODEL 8
REMARK VINA RESULT:    -3.996     12.713     15.380
REMARK INTER + INTRA:          -7.677
REMARK INTER:                  -5.804
REMARK INTRA:                  -1.874
REMARK UNBOUND:                -0.645
REMARK SMILES CCCCCCCCCCCCCCC(=O)[O-]
REMARK SMILES IDX 9 1 10 2 11 3 12 4 13 5 14 6 15 7 16 8 17 9 8 10 7 11 6 12
REMARK SMILES IDX 5 13 4 14 3 15 2 16 1 17
REMARK H PARENT
REMARK Flexibility Score: inf
ROOT
ATOM      1  C   UNL     1     -20.083 -12.759  41.472  1.00  0.00     0.000 C 
ENDROOT
BRANCH   1   2
ATOM      2  C   UNL     1     -19.843 -14.276  41.465  1.00  0.00     0.000 C 
BRANCH   2   3
ATOM      3  C   UNL     1     -21.024 -15.073  42.050  1.00  0.00     0.000 C 
BRANCH   3   4
ATOM      4  C   UNL     1     -22.306 -14.258  42.291  1.00  0.00     0.000 C 
BRANCH   4   5
ATOM      5  C   UNL     1     -23.191 -14.849  43.404  1.00  0.00     0.006 C 
BRANCH   5   6
ATOM      6  C   UNL     1     -22.409 -15.797  44.322  1.00  0.00     0.053 C 
BRANCH   6   7
ATOM      7  C   UNL     1     -22.042 -15.141  45.618  1.00  0.00     0.041 C 
ATOM      8  O   UNL     1     -20.877 -15.259  46.081  1.00  0.00    -0.550 OA
ATOM      9  O   UNL     1     -22.979 -14.376  46.299  1.00  0.00    -0.550 OA
ENDBRANCH   6   7
ENDBRANCH   5   6
ENDBRANCH   4   5
ENDBRANCH   3   4
ENDBRANCH   2   3
ENDBRANCH   1   2
BRANCH   1  10
ATOM     10  C   UNL     1     -19.363 -12.084  40.298  1.00  0.00     0.000 C 
BRANCH  10  11
ATOM     11  C   UNL     1     -20.364 -11.397  39.360  1.00  0.00    -0.000 C 
BRANCH  11  12
ATOM     12  C   UNL     1     -21.720 -11.205  40.049  1.00  0.00    -0.000 C 
BRANCH  12  13
ATOM     13  C   UNL     1     -22.821 -10.903  39.024  1.00  0.00    -0.000 C 
BRANCH  13  14
ATOM     14  C   UNL     1     -22.949 -12.045  38.005  1.00  0.00    -0.000 C 
BRANCH  14  15
ATOM     15  C   UNL     1     -24.020 -13.079  38.396  1.00  0.00    -0.000 C 
BRANCH  15  16
ATOM     16  C   UNL     1     -23.468 -14.417  38.919  1.00  0.00    -0.003 C 
ATOM     17  C   UNL     1     -22.034 -14.690  38.468  1.00  0.00     0.004 C 
ENDBRANCH  15  16
ENDBRANCH  14  15
ENDBRANCH  13  14
ENDBRANCH  12  13
ENDBRANCH  11  12
ENDBRANCH  10  11
ENDBRANCH   1  10
TORSDOF 13
ENDMDL
MODEL 9
REMARK VINA RESULT:    -3.986     12.001     13.921
REMARK INTER + INTRA:          -7.661
REMARK INTER:                  -5.520
REMARK INTRA:                  -2.141
REMARK UNBOUND:                -0.645
REMARK SMILES CCCCCCCCCCCCCCC(=O)[O-]
REMARK SMILES IDX 9 1 10 2 11 3 12 4 13 5 14 6 15 7 16 8 17 9 8 10 7 11 6 12
REMARK SMILES IDX 5 13 4 14 3 15 2 16 1 17
REMARK H PARENT
REMARK Flexibility Score: inf
ROOT
ATOM      1  C   UNL     1     -19.936 -12.156  40.411  1.00  0.00     0.000 C 
ENDROOT
BRANCH   1   2
ATOM      2  C   UNL     1     -19.165 -13.042  39.421  1.00  0.00     0.000 C 
BRANCH   2   3
ATOM      3  C   UNL     1     -19.299 -12.570  37.962  1.00  0.00     0.000 C 
BRANCH   3   4
ATOM      4  C   UNL     1     -19.696 -13.664  36.955  1.00  0.00     0.000 C 
BRANCH   4   5
ATOM      5  C   UNL     1     -20.177 -13.094  35.609  1.00  0.00     0.006 C 
BRANCH   5   6
ATOM      6  C   UNL     1     -21.533 -13.673  35.186  1.00  0.00     0.053 C 
BRANCH   6   7
ATOM      7  C   UNL     1     -21.719 -13.628  33.701  1.00  0.00     0.041 C 
ATOM      8  O   UNL     1     -20.984 -14.321  32.948  1.00  0.00    -0.550 OA
ATOM      9  O   UNL     1     -22.722 -12.843  33.150  1.00  0.00    -0.550 OA
ENDBRANCH   6   7
ENDBRANCH   5   6
ENDBRANCH   4   5
ENDBRANCH   3   4
ENDBRANCH   2   3
ENDBRANCH   1   2
BRANCH   1  10
ATOM     10  C   UNL     1     -20.746 -13.009  41.396  1.00  0.00     0.000 C 
BRANCH  10  11
ATOM     11  C   UNL     1     -21.431 -14.177  40.677  1.00  0.00    -0.000 C 
BRANCH  11  12
ATOM     12  C   UNL     1     -22.945 -14.162  40.921  1.00  0.00    -0.000 C 
BRANCH  12  13
ATOM     13  C   UNL     1     -23.717 -14.365  39.612  1.00  0.00    -0.000 C 
BRANCH  13  14
ATOM     14  C   UNL     1     -22.958 -13.750  38.426  1.00  0.00    -0.000 C 
BRANCH  14  15
ATOM     15  C   UNL     1     -23.504 -12.371  38.015  1.00  0.00    -0.000 C 
BRANCH  15  16
ATOM     16  C   UNL     1     -22.685 -11.172  38.523  1.00  0.00    -0.003 C 
ATOM     17  C   UNL     1     -23.335 -10.463  39.710  1.00  0.00     0.004 C 
ENDBRANCH  15  16
ENDBRANCH  14  15
ENDBRANCH  13  14
ENDBRANCH  12  13
ENDBRANCH  11  12
ENDBRANCH  10  11
ENDBRANCH   1  10
TORSDOF 13
ENDMDL
