MODEL 1
REMARK VINA RESULT:    -2.119      0.000      0.000
REMARK INTER + INTRA:          -2.119
REMARK INTER:                  -2.119
REMARK INTRA:                   0.000
REMARK UNBOUND:                 0.000
REMARK SMILES CC(=O)[O-]
REMARK SMILES IDX 1 1 2 2 3 3 4 4
REMARK H PARENT
REMARK Flexibility Score: inf
ROOT
ATOM      1  C   UNL     1      22.916  43.059 273.241  1.00  0.00     0.063 C 
ATOM      2  C   UNL     1      21.669  43.745 273.685  1.00  0.00     0.038 C 
ATOM      3  O   UNL     1      20.654  43.756 272.941  1.00  0.00    -0.550 OA
ATOM      4  O   UNL     1      21.641  44.421 274.899  1.00  0.00    -0.550 OA
ENDROOT
TORSDOF 0
ENDMDL
MODEL 2
REMARK VINA RESULT:    -2.080      1.459      1.747
REMARK INTER + INTRA:          -2.080
REMARK INTER:                  -2.080
REMARK INTRA:                   0.000
REMARK UNBOUND:                 0.000
REMARK SMILES CC(=O)[O-]
REMARK SMILES IDX 1 1 2 2 3 3 4 4
REMARK H PARENT
REMARK Flexibility Score: inf
ROOT
ATOM      1  C   UNL     1      20.830  43.730 273.000  1.00  0.00     0.063 C 
ATOM      2  C   UNL     1      22.144  43.630 273.697  1.00  0.00     0.038 C 
ATOM      3  O   UNL     1      23.123  43.084 273.125  1.00  0.00    -0.550 OA
ATOM      4  O   UNL     1      22.278  44.093 275.000  1.00  0.00    -0.550 OA
ENDROOT
TORSDOF 0
ENDMDL
MODEL 3
REMARK VINA RESULT:    -1.992      2.592      2.774
REMARK INTER + INTRA:          -1.992
REMARK INTER:                  -1.992
REMARK INTRA:                   0.000
REMARK UNBOUND:                 0.000
REMARK SMILES CC(=O)[O-]
REMARK SMILES IDX 1 1 2 2 3 3 4 4
REMARK H PARENT
REMARK Flexibility Score: inf
ROOT
ATOM      1  C   UNL     1      20.913  43.768 273.083  1.00  0.00     0.063 C 
ATOM      2  C   UNL     1      21.527  43.367 271.786  1.00  0.00     0.038 C 
ATOM      3  O   UNL     1      21.698  44.221 270.876  1.00  0.00    -0.550 OA
ATOM      4  O   UNL     1      21.865  42.039 271.556  1.00  0.00    -0.550 OA
ENDROOT
TORSDOF 0
ENDMDL
MODEL 4
REMARK VINA RESULT:    -1.967      1.226      1.861
REMARK INTER + INTRA:          -1.967
REMARK INTER:                  -1.967
REMARK INTRA:                   0.000
REMARK UNBOUND:                 0.000
REMARK SMILES CC(=O)[O-]
REMARK SMILES IDX 1 1 2 2 3 3 4 4
REMARK H PARENT
REMARK Flexibility Score: inf
ROOT
ATOM      1  C   UNL     1      22.739  43.421 273.842  1.00  0.00     0.063 C 
ATOM      2  C   UNL     1      21.688  43.677 272.817  1.00  0.00     0.038 C 
ATOM      3  O   UNL     1      20.491  43.850 273.169  1.00  0.00    -0.550 OA
ATOM      4  O   UNL     1      22.015  43.675 271.466  1.00  0.00    -0.550 OA
ENDROOT
TORSDOF 0
ENDMDL
MODEL 5
REMARK VINA RESULT:    -1.779     21.889     22.388
REMARK INTER + INTRA:          -1.779
REMARK INTER:                  -1.779
REMARK INTRA:                   0.000
REMARK UNBOUND:                 0.000
REMARK SMILES CC(=O)[O-]
REMARK SMILES IDX 1 1 2 2 3 3 4 4
REMARK H PARENT
REMARK Flexibility Score: inf
ROOT
ATOM      1  C   UNL     1       5.861  50.519 286.984  1.00  0.00     0.063 C 
ATOM      2  C   UNL     1       4.523  50.046 286.527  1.00  0.00     0.038 C 
ATOM      3  O   UNL     1       3.604  49.849 287.364  1.00  0.00    -0.550 OA
ATOM      4  O   UNL     1       4.303  49.772 285.183  1.00  0.00    -0.550 OA
ENDROOT
TORSDOF 0
ENDMDL
MODEL 6
REMARK VINA RESULT:    -1.711     18.352     18.645
REMARK INTER + INTRA:          -1.711
REMARK INTER:                  -1.711
REMARK INTRA:                   0.000
REMARK UNBOUND:                 0.000
REMARK SMILES CC(=O)[O-]
REMARK SMILES IDX 1 1 2 2 3 3 4 4
REMARK H PARENT
REMARK Flexibility Score: inf
ROOT
ATOM      1  C   UNL     1       5.154  48.659 277.210  1.00  0.00     0.063 C 
ATOM      2  C   UNL     1       4.620  49.394 278.392  1.00  0.00     0.038 C 
ATOM      3  O   UNL     1       4.295  48.764 279.433  1.00  0.00    -0.550 OA
ATOM      4  O   UNL     1       4.430  50.769 278.331  1.00  0.00    -0.550 OA
ENDROOT
TORSDOF 0
ENDMDL
MODEL 7
REMARK VINA RESULT:    -1.704     18.451     18.887
REMARK INTER + INTRA:          -1.704
REMARK INTER:                  -1.704
REMARK INTRA:                   0.000
REMARK UNBOUND:                 0.000
REMARK SMILES CC(=O)[O-]
REMARK SMILES IDX 1 1 2 2 3 3 4 4
REMARK H PARENT
REMARK Flexibility Score: inf
ROOT
ATOM      1  C   UNL     1       4.057  48.884 279.759  1.00  0.00     0.063 C 
ATOM      2  C   UNL     1       4.498  49.534 278.492  1.00  0.00     0.038 C 
ATOM      3  O   UNL     1       4.982  48.839 277.561  1.00  0.00    -0.550 OA
ATOM      4  O   UNL     1       4.424  50.915 278.356  1.00  0.00    -0.550 OA
ENDROOT
TORSDOF 0
ENDMDL
MODEL 8
REMARK VINA RESULT:    -1.698     18.379     18.639
REMARK INTER + INTRA:          -1.698
REMARK INTER:                  -1.698
REMARK INTRA:                   0.000
REMARK UNBOUND:                 0.000
REMARK SMILES CC(=O)[O-]
REMARK SMILES IDX 1 1 2 2 3 3 4 4
REMARK H PARENT
REMARK Flexibility Score: inf
ROOT
ATOM      1  C   UNL     1       5.155  48.658 277.203  1.00  0.00     0.063 C 
ATOM      2  C   UNL     1       4.584  49.396 278.366  1.00  0.00     0.038 C 
ATOM      3  O   UNL     1       4.447  50.647 278.315  1.00  0.00    -0.550 OA
ATOM      4  O   UNL     1       4.249  48.714 279.529  1.00  0.00    -0.550 OA
ENDROOT
TORSDOF 0
ENDMDL
MODEL 9
REMARK VINA RESULT:    -1.617     18.667     19.097
REMARK INTER + INTRA:          -1.617
REMARK INTER:                  -1.617
REMARK INTRA:                   0.000
REMARK UNBOUND:                 0.000
REMARK SMILES CC(=O)[O-]
REMARK SMILES IDX 1 1 2 2 3 3 4 4
REMARK H PARENT
REMARK Flexibility Score: inf
ROOT
ATOM      1  C   UNL     1       4.449  50.684 279.821  1.00  0.00     0.063 C 
ATOM      2  C   UNL     1       4.427  49.329 279.201  1.00  0.00     0.038 C 
ATOM      3  O   UNL     1       4.093  48.327 279.885  1.00  0.00    -0.550 OA
ATOM      4  O   UNL     1       4.826  49.160 277.881  1.00  0.00    -0.550 OA
ENDROOT
TORSDOF 0
ENDMDL
