MODEL 1
REMARK VINA RESULT:    -5.590      0.000      0.000
REMARK INTER + INTRA:          -5.590
REMARK INTER:                  -5.590
REMARK INTRA:                   0.000
REMARK UNBOUND:                 0.000
REMARK SMILES C=C1[C@H]2CC[C@H](C2)C1(C)C
REMARK SMILES IDX 9 1 8 2 6 3 5 4 4 5 3 6 7 7 2 8 1 9 10 10
REMARK H PARENT
REMARK Flexibility Score: inf
ROOT
ATOM      1  C   UNL     1       4.265   7.546  13.913  1.00  0.00     0.016 C 
ATOM      2  C   UNL     1       5.157   6.841  12.866  1.00  0.00    -0.012 C 
ATOM      3  C   UNL     1       6.490   6.258  13.455  1.00  0.00    -0.001 C 
ATOM      4  C   UNL     1       7.221   7.308  14.326  1.00  0.00     0.005 C 
ATOM      5  C   UNL     1       7.672   8.361  13.290  1.00  0.00     0.008 C 
ATOM      6  C   UNL     1       7.241   7.733  11.953  1.00  0.00     0.015 C 
ATOM      7  C   UNL     1       7.415   6.259  12.243  1.00  0.00     0.012 C 
ATOM      8  C   UNL     1       5.741   7.819  11.875  1.00  0.00    -0.068 C 
ATOM      9  C   UNL     1       5.056   8.665  11.095  1.00  0.00     0.008 C 
ATOM     10  C   UNL     1       4.330   5.744  12.158  1.00  0.00     0.016 C 
ENDROOT
TORSDOF 0
ENDMDL
MODEL 2
REMARK VINA RESULT:    -5.255      0.799      2.455
REMARK INTER + INTRA:          -5.255
REMARK INTER:                  -5.255
REMARK INTRA:                   0.000
REMARK UNBOUND:                 0.000
REMARK SMILES C=C1[C@H]2CC[C@H](C2)C1(C)C
REMARK SMILES IDX 9 1 8 2 6 3 5 4 4 5 3 6 7 7 2 8 1 9 10 10
REMARK H PARENT
REMARK Flexibility Score: inf
ROOT
ATOM      1  C   UNL     1       4.752   7.823  11.369  1.00  0.00     0.016 C 
ATOM      2  C   UNL     1       5.151   7.304  12.770  1.00  0.00    -0.012 C 
ATOM      3  C   UNL     1       6.575   7.769  13.238  1.00  0.00    -0.001 C 
ATOM      4  C   UNL     1       7.633   7.527  12.134  1.00  0.00     0.005 C 
ATOM      5  C   UNL     1       7.718   5.987  12.071  1.00  0.00     0.008 C 
ATOM      6  C   UNL     1       6.788   5.544  13.214  1.00  0.00     0.015 C 
ATOM      7  C   UNL     1       6.980   6.666  14.210  1.00  0.00     0.012 C 
ATOM      8  C   UNL     1       5.373   5.811  12.774  1.00  0.00    -0.068 C 
ATOM      9  C   UNL     1       4.492   4.875  12.400  1.00  0.00     0.008 C 
ATOM     10  C   UNL     1       4.064   7.718  13.787  1.00  0.00     0.016 C 
ENDROOT
TORSDOF 0
ENDMDL
MODEL 3
REMARK VINA RESULT:    -4.802      0.804      2.989
REMARK INTER + INTRA:          -4.802
REMARK INTER:                  -4.802
REMARK INTRA:                   0.000
REMARK UNBOUND:                 0.000
REMARK SMILES C=C1[C@H]2CC[C@H](C2)C1(C)C
REMARK SMILES IDX 9 1 8 2 6 3 5 4 4 5 3 6 7 7 2 8 1 9 10 10
REMARK H PARENT
REMARK Flexibility Score: inf
ROOT
ATOM      1  C   UNL     1       8.053   6.393  11.638  1.00  0.00     0.016 C 
ATOM      2  C   UNL     1       7.202   7.181  12.661  1.00  0.00    -0.012 C 
ATOM      3  C   UNL     1       6.525   6.281  13.753  1.00  0.00    -0.001 C 
ATOM      4  C   UNL     1       5.808   5.068  13.112  1.00  0.00     0.005 C 
ATOM      5  C   UNL     1       4.633   5.724  12.355  1.00  0.00     0.008 C 
ATOM      6  C   UNL     1       4.759   7.208  12.745  1.00  0.00     0.015 C 
ATOM      7  C   UNL     1       5.305   7.104  14.151  1.00  0.00     0.012 C 
ATOM      8  C   UNL     1       5.960   7.762  12.028  1.00  0.00    -0.068 C 
ATOM      9  C   UNL     1       5.916   8.587  10.973  1.00  0.00     0.008 C 
ATOM     10  C   UNL     1       8.077   8.280  13.303  1.00  0.00     0.016 C 
ENDROOT
TORSDOF 0
ENDMDL
MODEL 4
REMARK VINA RESULT:    -4.552      1.071      2.711
REMARK INTER + INTRA:          -4.552
REMARK INTER:                  -4.552
REMARK INTRA:                   0.000
REMARK UNBOUND:                 0.000
REMARK SMILES C=C1[C@H]2CC[C@H](C2)C1(C)C
REMARK SMILES IDX 9 1 8 2 6 3 5 4 4 5 3 6 7 7 2 8 1 9 10 10
REMARK H PARENT
REMARK Flexibility Score: inf
ROOT
ATOM      1  C   UNL     1       5.085   4.962  12.649  1.00  0.00     0.016 C 
ATOM      2  C   UNL     1       6.231   5.672  13.407  1.00  0.00    -0.012 C 
ATOM      3  C   UNL     1       5.939   7.180  13.731  1.00  0.00    -0.001 C 
ATOM      4  C   UNL     1       5.427   7.932  12.480  1.00  0.00     0.005 C 
ATOM      5  C   UNL     1       6.669   7.957  11.562  1.00  0.00     0.008 C 
ATOM      6  C   UNL     1       7.759   7.317  12.440  1.00  0.00     0.015 C 
ATOM      7  C   UNL     1       7.340   7.775  13.820  1.00  0.00     0.012 C 
ATOM      8  C   UNL     1       7.454   5.847  12.539  1.00  0.00    -0.068 C 
ATOM      9  C   UNL     1       8.129   4.876  11.912  1.00  0.00     0.008 C 
ATOM     10  C   UNL     1       6.555   4.875  14.689  1.00  0.00     0.016 C 
ENDROOT
TORSDOF 0
ENDMDL
MODEL 5
REMARK VINA RESULT:    -3.951      1.070      1.814
REMARK INTER + INTRA:          -3.951
REMARK INTER:                  -3.951
REMARK INTRA:                   0.000
REMARK UNBOUND:                 0.000
REMARK SMILES C=C1[C@H]2CC[C@H](C2)C1(C)C
REMARK SMILES IDX 9 1 8 2 6 3 5 4 4 5 3 6 7 7 2 8 1 9 10 10
REMARK H PARENT
REMARK Flexibility Score: inf
ROOT
ATOM      1  C   UNL     1       6.624   5.691  14.613  1.00  0.00     0.016 C 
ATOM      2  C   UNL     1       6.410   6.071  13.129  1.00  0.00    -0.012 C 
ATOM      3  C   UNL     1       7.714   6.554  12.401  1.00  0.00    -0.001 C 
ATOM      4  C   UNL     1       8.460   7.619  13.240  1.00  0.00     0.005 C 
ATOM      5  C   UNL     1       7.504   8.831  13.186  1.00  0.00     0.008 C 
ATOM      6  C   UNL     1       6.390   8.348  12.240  1.00  0.00     0.015 C 
ATOM      7  C   UNL     1       7.163   7.451  11.299  1.00  0.00     0.012 C 
ATOM      8  C   UNL     1       5.578   7.322  12.984  1.00  0.00    -0.068 C 
ATOM      9  C   UNL     1       4.349   7.522  13.476  1.00  0.00     0.008 C 
ATOM     10  C   UNL     1       5.766   4.875  12.392  1.00  0.00     0.016 C 
ENDROOT
TORSDOF 0
ENDMDL
MODEL 6
REMARK VINA RESULT:    -3.584      1.000      3.192
REMARK INTER + INTRA:          -3.584
REMARK INTER:                  -3.584
REMARK INTRA:                   0.000
REMARK UNBOUND:                 0.000
REMARK SMILES C=C1[C@H]2CC[C@H](C2)C1(C)C
REMARK SMILES IDX 9 1 8 2 6 3 5 4 4 5 3 6 7 7 2 8 1 9 10 10
REMARK H PARENT
REMARK Flexibility Score: inf
ROOT
ATOM      1  C   UNL     1       7.510   7.704  13.901  1.00  0.00     0.016 C 
ATOM      2  C   UNL     1       6.829   7.138  12.633  1.00  0.00    -0.012 C 
ATOM      3  C   UNL     1       5.810   8.125  11.964  1.00  0.00    -0.001 C 
ATOM      4  C   UNL     1       4.836   8.717  13.011  1.00  0.00     0.005 C 
ATOM      5  C   UNL     1       3.989   7.493  13.424  1.00  0.00     0.008 C 
ATOM      6  C   UNL     1       4.508   6.386  12.490  1.00  0.00     0.015 C 
ATOM      7  C   UNL     1       4.854   7.178  11.248  1.00  0.00     0.012 C 
ATOM      8  C   UNL     1       5.886   6.006  12.960  1.00  0.00    -0.068 C 
ATOM      9  C   UNL     1       6.195   4.875  13.608  1.00  0.00     0.008 C 
ATOM     10  C   UNL     1       7.920   6.695  11.633  1.00  0.00     0.016 C 
ENDROOT
TORSDOF 0
ENDMDL
MODEL 7
REMARK VINA RESULT:    -3.530      0.975      3.063
REMARK INTER + INTRA:          -3.530
REMARK INTER:                  -3.530
REMARK INTRA:                   0.000
REMARK UNBOUND:                 0.000
REMARK SMILES C=C1[C@H]2CC[C@H](C2)C1(C)C
REMARK SMILES IDX 9 1 8 2 6 3 5 4 4 5 3 6 7 7 2 8 1 9 10 10
REMARK H PARENT
REMARK Flexibility Score: inf
ROOT
ATOM      1  C   UNL     1       7.633   5.887  11.836  1.00  0.00     0.016 C 
ATOM      2  C   UNL     1       6.537   6.068  12.913  1.00  0.00    -0.012 C 
ATOM      3  C   UNL     1       5.094   6.255  12.326  1.00  0.00    -0.001 C 
ATOM      4  C   UNL     1       5.081   7.321  11.204  1.00  0.00     0.005 C 
ATOM      5  C   UNL     1       5.370   8.630  11.970  1.00  0.00     0.008 C 
ATOM      6  C   UNL     1       5.404   8.169  13.438  1.00  0.00     0.015 C 
ATOM      7  C   UNL     1       4.391   7.046  13.423  1.00  0.00     0.012 C 
ATOM      8  C   UNL     1       6.673   7.386  13.637  1.00  0.00    -0.068 C 
ATOM      9  C   UNL     1       7.753   7.822  14.298  1.00  0.00     0.008 C 
ATOM     10  C   UNL     1       6.594   4.875  13.893  1.00  0.00     0.016 C 
ENDROOT
TORSDOF 0
ENDMDL
MODEL 8
REMARK VINA RESULT:    -3.517      5.142      6.894
REMARK INTER + INTRA:          -3.517
REMARK INTER:                  -3.517
REMARK INTRA:                   0.000
REMARK UNBOUND:                 0.000
REMARK SMILES C=C1[C@H]2CC[C@H](C2)C1(C)C
REMARK SMILES IDX 9 1 8 2 6 3 5 4 4 5 3 6 7 7 2 8 1 9 10 10
REMARK H PARENT
REMARK Flexibility Score: inf
ROOT
ATOM      1  C   UNL     1       2.067  13.922  10.983  1.00  0.00     0.016 C 
ATOM      2  C   UNL     1       2.770  12.648  11.508  1.00  0.00    -0.012 C 
ATOM      3  C   UNL     1       1.951  11.329  11.278  1.00  0.00    -0.001 C 
ATOM      4  C   UNL     1       0.483  11.495  11.740  1.00  0.00     0.005 C 
ATOM      5  C   UNL     1       0.617  11.617  13.274  1.00  0.00     0.008 C 
ATOM      6  C   UNL     1       2.122  11.397  13.506  1.00  0.00     0.015 C 
ATOM      7  C   UNL     1       2.459  10.426  12.396  1.00  0.00     0.012 C 
ATOM      8  C   UNL     1       2.839  12.626  13.017  1.00  0.00    -0.068 C 
ATOM      9  C   UNL     1       3.390  13.561  13.801  1.00  0.00     0.008 C 
ATOM     10  C   UNL     1       4.176  12.553  10.876  1.00  0.00     0.016 C 
ENDROOT
TORSDOF 0
ENDMDL
