MODEL 1
REMARK VINA RESULT:    -3.073      0.000      0.000
REMARK INTER + INTRA:          -3.443
REMARK INTER:                  -3.432
REMARK INTRA:                  -0.011
REMARK UNBOUND:                -0.011
REMARK SMILES CCCC(=O)[O-]
REMARK SMILES IDX 3 1 4 2 5 3 6 4 2 5 1 6
REMARK H PARENT
REMARK Flexibility Score: inf
ROOT
ATOM      1  C   UNL     1      40.824  19.896  16.514  1.00  0.00     0.052 C 
ENDROOT
BRANCH   1   2
ATOM      2  C   UNL     1      41.963  19.318  17.297  1.00  0.00     0.041 C 
ATOM      3  O   UNL     1      43.037  19.010  16.718  1.00  0.00    -0.550 OA
ATOM      4  O   UNL     1      41.826  19.088  18.660  1.00  0.00    -0.550 OA
ENDBRANCH   1   2
BRANCH   1   5
ATOM      5  C   UNL     1      41.316  20.679  15.289  1.00  0.00     0.003 C 
ATOM      6  C   UNL     1      40.172  21.087  14.362  1.00  0.00     0.004 C 
ENDBRANCH   1   5
TORSDOF 2
ENDMDL
MODEL 2
REMARK VINA RESULT:    -3.059      3.479      4.472
REMARK INTER + INTRA:          -3.427
REMARK INTER:                  -3.415
REMARK INTRA:                  -0.012
REMARK UNBOUND:                -0.011
REMARK SMILES CCCC(=O)[O-]
REMARK SMILES IDX 3 1 4 2 5 3 6 4 2 5 1 6
REMARK H PARENT
REMARK Flexibility Score: inf
ROOT
ATOM      1  C   UNL     1      40.589  20.705  14.644  1.00  0.00     0.052 C 
ENDROOT
BRANCH   1   2
ATOM      2  C   UNL     1      39.574  21.520  13.903  1.00  0.00     0.041 C 
ATOM      3  O   UNL     1      38.512  21.879  14.474  1.00  0.00    -0.550 OA
ATOM      4  O   UNL     1      39.787  21.854  12.571  1.00  0.00    -0.550 OA
ENDBRANCH   1   2
BRANCH   1   5
ATOM      5  C   UNL     1      40.365  20.760  16.161  1.00  0.00     0.003 C 
ATOM      6  C   UNL     1      41.179  19.705  16.908  1.00  0.00     0.004 C 
ENDBRANCH   1   5
TORSDOF 2
ENDMDL
MODEL 3
REMARK VINA RESULT:    -3.037     14.872     15.064
REMARK INTER + INTRA:          -3.403
REMARK INTER:                  -3.389
REMARK INTRA:                  -0.014
REMARK UNBOUND:                -0.011
REMARK SMILES CCCC(=O)[O-]
REMARK SMILES IDX 3 1 4 2 5 3 6 4 2 5 1 6
REMARK H PARENT
REMARK Flexibility Score: inf
ROOT
ATOM      1  C   UNL     1      35.784   7.540  11.122  1.00  0.00     0.052 C 
ENDROOT
BRANCH   1   2
ATOM      2  C   UNL     1      34.686   7.488  12.140  1.00  0.00     0.041 C 
ATOM      3  O   UNL     1      33.847   8.423  12.215  1.00  0.00    -0.550 OA
ATOM      4  O   UNL     1      34.610   6.422  13.029  1.00  0.00    -0.550 OA
ENDBRANCH   1   2
BRANCH   1   5
ATOM      5  C   UNL     1      36.655   6.277  11.159  1.00  0.00     0.003 C 
ATOM      6  C   UNL     1      38.112   6.565  10.801  1.00  0.00     0.004 C 
ENDBRANCH   1   5
TORSDOF 2
ENDMDL
MODEL 4
REMARK VINA RESULT:    -3.012     14.907     15.155
REMARK INTER + INTRA:          -3.375
REMARK INTER:                  -3.363
REMARK INTRA:                  -0.011
REMARK UNBOUND:                -0.011
REMARK SMILES CCCC(=O)[O-]
REMARK SMILES IDX 3 1 4 2 5 3 6 4 2 5 1 6
REMARK H PARENT
REMARK Flexibility Score: inf
ROOT
ATOM      1  C   UNL     1      34.315   7.958  11.972  1.00  0.00     0.052 C 
ENDROOT
BRANCH   1   2
ATOM      2  C   UNL     1      35.252   7.595  10.860  1.00  0.00     0.041 C 
ATOM      3  O   UNL     1      34.798   7.261   9.735  1.00  0.00    -0.550 OA
ATOM      4  O   UNL     1      36.624   7.593  11.078  1.00  0.00    -0.550 OA
ENDBRANCH   1   2
BRANCH   1   5
ATOM      5  C   UNL     1      32.874   8.123  11.471  1.00  0.00     0.003 C 
ATOM      6  C   UNL     1      31.885   8.357  12.612  1.00  0.00     0.004 C 
ENDBRANCH   1   5
TORSDOF 2
ENDMDL
MODEL 5
REMARK VINA RESULT:    -2.999     15.232     15.411
REMARK INTER + INTRA:          -3.360
REMARK INTER:                  -3.317
REMARK INTRA:                  -0.042
REMARK UNBOUND:                -0.011
REMARK SMILES CCCC(=O)[O-]
REMARK SMILES IDX 3 1 4 2 5 3 6 4 2 5 1 6
REMARK H PARENT
REMARK Flexibility Score: inf
ROOT
ATOM      1  C   UNL     1      34.702   7.867  11.821  1.00  0.00     0.052 C 
ENDROOT
BRANCH   1   2
ATOM      2  C   UNL     1      35.423   6.604  12.183  1.00  0.00     0.041 C 
ATOM      3  O   UNL     1      35.054   5.928  13.178  1.00  0.00    -0.550 OA
ATOM      4  O   UNL     1      36.523   6.193  11.441  1.00  0.00    -0.550 OA
ENDBRANCH   1   2
BRANCH   1   5
ATOM      5  C   UNL     1      33.526   7.598  10.872  1.00  0.00     0.003 C 
ATOM      6  C   UNL     1      33.950   7.607   9.404  1.00  0.00     0.004 C 
ENDBRANCH   1   5
TORSDOF 2
ENDMDL
MODEL 6
REMARK VINA RESULT:    -2.990     15.645     15.906
REMARK INTER + INTRA:          -3.350
REMARK INTER:                  -3.298
REMARK INTRA:                  -0.053
REMARK UNBOUND:                -0.011
REMARK SMILES CCCC(=O)[O-]
REMARK SMILES IDX 3 1 4 2 5 3 6 4 2 5 1 6
REMARK H PARENT
REMARK Flexibility Score: inf
ROOT
ATOM      1  C   UNL     1      35.133   7.649  11.152  1.00  0.00     0.052 C 
ENDROOT
BRANCH   1   2
ATOM      2  C   UNL     1      34.157   7.175  10.119  1.00  0.00     0.041 C 
ATOM      3  O   UNL     1      33.591   6.058  10.247  1.00  0.00    -0.550 OA
ATOM      4  O   UNL     1      33.898   7.952   8.996  1.00  0.00    -0.550 OA
ENDBRANCH   1   2
BRANCH   1   5
ATOM      5  C   UNL     1      36.252   6.627  11.388  1.00  0.00     0.003 C 
ATOM      6  C   UNL     1      37.376   6.745  10.359  1.00  0.00     0.004 C 
ENDBRANCH   1   5
TORSDOF 2
ENDMDL
MODEL 7
REMARK VINA RESULT:    -2.981      2.412      3.369
REMARK INTER + INTRA:          -3.340
REMARK INTER:                  -3.334
REMARK INTRA:                  -0.005
REMARK UNBOUND:                -0.011
REMARK SMILES CCCC(=O)[O-]
REMARK SMILES IDX 3 1 4 2 5 3 6 4 2 5 1 6
REMARK H PARENT
REMARK Flexibility Score: inf
ROOT
ATOM      1  C   UNL     1      42.385  20.536  15.602  1.00  0.00     0.052 C 
ENDROOT
BRANCH   1   2
ATOM      2  C   UNL     1      40.919  20.722  15.359  1.00  0.00     0.041 C 
ATOM      3  O   UNL     1      40.466  20.710  14.185  1.00  0.00    -0.550 OA
ATOM      4  O   UNL     1      40.058  20.943  16.427  1.00  0.00    -0.550 OA
ENDBRANCH   1   2
BRANCH   1   5
ATOM      5  C   UNL     1      42.653  19.469  16.672  1.00  0.00     0.003 C 
ATOM      6  C   UNL     1      44.077  18.920  16.601  1.00  0.00     0.004 C 
ENDBRANCH   1   5
TORSDOF 2
ENDMDL
MODEL 8
REMARK VINA RESULT:    -2.960     15.193     15.353
REMARK INTER + INTRA:          -3.316
REMARK INTER:                  -3.278
REMARK INTRA:                  -0.038
REMARK UNBOUND:                -0.011
REMARK SMILES CCCC(=O)[O-]
REMARK SMILES IDX 3 1 4 2 5 3 6 4 2 5 1 6
REMARK H PARENT
REMARK Flexibility Score: inf
ROOT
ATOM      1  C   UNL     1      35.523   7.499  11.469  1.00  0.00     0.052 C 
ENDROOT
BRANCH   1   2
ATOM      2  C   UNL     1      34.750   6.761  12.518  1.00  0.00     0.041 C 
ATOM      3  O   UNL     1      35.338   5.966  13.297  1.00  0.00    -0.550 OA
ATOM      4  O   UNL     1      33.373   6.925  12.614  1.00  0.00    -0.550 OA
ENDBRANCH   1   2
BRANCH   1   5
ATOM      5  C   UNL     1      36.255   6.539  10.521  1.00  0.00     0.003 C 
ATOM      6  C   UNL     1      37.772   6.601  10.689  1.00  0.00     0.004 C 
ENDBRANCH   1   5
TORSDOF 2
ENDMDL
MODEL 9
REMARK VINA RESULT:    -2.950     15.660     15.919
REMARK INTER + INTRA:          -3.305
REMARK INTER:                  -3.237
REMARK INTRA:                  -0.068
REMARK UNBOUND:                -0.011
REMARK SMILES CCCC(=O)[O-]
REMARK SMILES IDX 3 1 4 2 5 3 6 4 2 5 1 6
REMARK H PARENT
REMARK Flexibility Score: inf
ROOT
ATOM      1  C   UNL     1      35.075   7.577  10.768  1.00  0.00     0.052 C 
ENDROOT
BRANCH   1   2
ATOM      2  C   UNL     1      34.142   7.176   9.666  1.00  0.00     0.041 C 
ATOM      3  O   UNL     1      33.854   7.992   8.752  1.00  0.00    -0.550 OA
ATOM      4  O   UNL     1      33.564   5.912   9.668  1.00  0.00    -0.550 OA
ENDBRANCH   1   2
BRANCH   1   5
ATOM      5  C   UNL     1      34.384   7.548  12.137  1.00  0.00     0.003 C 
ATOM      6  C   UNL     1      33.154   8.454  12.188  1.00  0.00     0.004 C 
ENDBRANCH   1   5
TORSDOF 2
ENDMDL
