MODEL 1
REMARK VINA RESULT:    -3.558      0.000      0.000
REMARK INTER + INTRA:          -5.994
REMARK INTER:                  -5.430
REMARK INTRA:                  -0.564
REMARK UNBOUND:                -0.564
REMARK SMILES CCCCCCCCCCC(=O)[O-]
REMARK SMILES IDX 7 1 8 2 9 3 10 4 11 5 12 6 13 7 6 8 5 9 4 10 3 11 2 12 1 13
REMARK H PARENT
REMARK Flexibility Score: inf
ROOT
ATOM      1  C   UNL     1     113.468  54.767 230.430  1.00  0.00     0.000 C 
ENDROOT
BRANCH   1   2
ATOM      2  C   UNL     1     113.343  54.879 228.900  1.00  0.00     0.000 C 
BRANCH   2   3
ATOM      3  C   UNL     1     112.987  53.537 228.233  1.00  0.00     0.006 C 
BRANCH   3   4
ATOM      4  C   UNL     1     113.495  53.390 226.790  1.00  0.00     0.053 C 
BRANCH   4   5
ATOM      5  C   UNL     1     112.382  53.465 225.791  1.00  0.00     0.041 C 
ATOM      6  O   UNL     1     111.238  53.030 226.083  1.00  0.00    -0.550 OA
ATOM      7  O   UNL     1     112.618  53.986 224.524  1.00  0.00    -0.550 OA
ENDBRANCH   4   5
ENDBRANCH   3   4
ENDBRANCH   2   3
ENDBRANCH   1   2
BRANCH   1   8
ATOM      8  C   UNL     1     112.659  53.592 231.001  1.00  0.00     0.000 C 
BRANCH   8   9
ATOM      9  C   UNL     1     113.276  53.016 232.287  1.00  0.00    -0.000 C 
BRANCH   9  10
ATOM     10  C   UNL     1     112.440  53.332 233.542  1.00  0.00    -0.000 C 
BRANCH  10  11
ATOM     11  C   UNL     1     111.021  53.865 233.260  1.00  0.00    -0.000 C 
BRANCH  11  12
ATOM     12  C   UNL     1     109.878  52.916 233.663  1.00  0.00    -0.003 C 
ATOM     13  C   UNL     1     109.611  51.830 232.621  1.00  0.00     0.004 C 
ENDBRANCH  11  12
ENDBRANCH  10  11
ENDBRANCH   9  10
ENDBRANCH   8   9
ENDBRANCH   1   8
TORSDOF 9
ENDMDL
MODEL 2
REMARK VINA RESULT:    -3.505      3.269      6.060
REMARK INTER + INTRA:          -5.913
REMARK INTER:                  -5.204
REMARK INTRA:                  -0.709
REMARK UNBOUND:                -0.564
REMARK SMILES CCCCCCCCCCC(=O)[O-]
REMARK SMILES IDX 7 1 8 2 9 3 10 4 11 5 12 6 13 7 6 8 5 9 4 10 3 11 2 12 1 13
REMARK H PARENT
REMARK Flexibility Score: inf
ROOT
ATOM      1  C   UNL     1     113.740  54.227 231.757  1.00  0.00     0.000 C 
ENDROOT
BRANCH   1   2
ATOM      2  C   UNL     1     112.655  53.145 231.614  1.00  0.00     0.000 C 
BRANCH   2   3
ATOM      3  C   UNL     1     111.749  53.044 232.855  1.00  0.00     0.006 C 
BRANCH   3   4
ATOM      4  C   UNL     1     110.271  53.371 232.591  1.00  0.00     0.053 C 
BRANCH   4   5
ATOM      5  C   UNL     1     109.365  52.249 232.996  1.00  0.00     0.041 C 
ATOM      6  O   UNL     1     108.415  52.458 233.795  1.00  0.00    -0.550 OA
ATOM      7  O   UNL     1     109.592  50.964 232.518  1.00  0.00    -0.550 OA
ENDBRANCH   4   5
ENDBRANCH   3   4
ENDBRANCH   2   3
ENDBRANCH   1   2
BRANCH   1   8
ATOM      8  C   UNL     1     113.729  55.229 230.591  1.00  0.00     0.000 C 
BRANCH   8   9
ATOM      9  C   UNL     1     112.310  55.518 230.071  1.00  0.00    -0.000 C 
BRANCH   9  10
ATOM     10  C   UNL     1     112.125  55.118 228.595  1.00  0.00    -0.000 C 
BRANCH  10  11
ATOM     11  C   UNL     1     113.391  54.569 227.907  1.00  0.00    -0.000 C 
BRANCH  11  12
ATOM     12  C   UNL     1     113.176  53.298 227.067  1.00  0.00    -0.003 C 
ATOM     13  C   UNL     1     112.042  53.439 226.052  1.00  0.00     0.004 C 
ENDBRANCH  11  12
ENDBRANCH  10  11
ENDBRANCH   9  10
ENDBRANCH   8   9
ENDBRANCH   1   8
TORSDOF 9
ENDMDL
MODEL 3
REMARK VINA RESULT:    -3.486      1.445      2.361
REMARK INTER + INTRA:          -5.884
REMARK INTER:                  -5.536
REMARK INTRA:                  -0.348
REMARK UNBOUND:                -0.564
REMARK SMILES CCCCCCCCCCC(=O)[O-]
REMARK SMILES IDX 7 1 8 2 9 3 10 4 11 5 12 6 13 7 6 8 5 9 4 10 3 11 2 12 1 13
REMARK H PARENT
REMARK Flexibility Score: inf
ROOT
ATOM      1  C   UNL     1     112.818  54.370 228.238  1.00  0.00     0.000 C 
ENDROOT
BRANCH   1   2
ATOM      2  C   UNL     1     113.249  53.309 227.210  1.00  0.00     0.000 C 
BRANCH   2   3
ATOM      3  C   UNL     1     112.415  53.361 225.916  1.00  0.00     0.006 C 
BRANCH   3   4
ATOM      4  C   UNL     1     110.926  53.673 226.131  1.00  0.00     0.053 C 
BRANCH   4   5
ATOM      5  C   UNL     1     110.050  52.913 225.183  1.00  0.00     0.041 C 
ATOM      6  O   UNL     1     109.497  51.844 225.549  1.00  0.00    -0.550 OA
ATOM      7  O   UNL     1     109.872  53.371 223.882  1.00  0.00    -0.550 OA
ENDBRANCH   4   5
ENDBRANCH   3   4
ENDBRANCH   2   3
ENDBRANCH   1   2
BRANCH   1   8
ATOM      8  C   UNL     1     112.795  53.822 229.674  1.00  0.00     0.000 C 
BRANCH   8   9
ATOM      9  C   UNL     1     113.354  54.823 230.700  1.00  0.00    -0.000 C 
BRANCH   9  10
ATOM     10  C   UNL     1     113.639  54.175 232.068  1.00  0.00    -0.000 C 
BRANCH  10  11
ATOM     11  C   UNL     1     112.980  52.798 232.285  1.00  0.00    -0.000 C 
BRANCH  11  12
ATOM     12  C   UNL     1     111.525  52.844 232.783  1.00  0.00    -0.003 C 
ATOM     13  C   UNL     1     111.373  53.584 234.111  1.00  0.00     0.004 C 
ENDBRANCH  11  12
ENDBRANCH  10  11
ENDBRANCH   9  10
ENDBRANCH   8   9
ENDBRANCH   1   8
TORSDOF 9
ENDMDL
MODEL 4
REMARK VINA RESULT:    -3.481      3.359      6.387
REMARK INTER + INTRA:          -5.877
REMARK INTER:                  -5.426
REMARK INTRA:                  -0.450
REMARK UNBOUND:                -0.564
REMARK SMILES CCCCCCCCCCC(=O)[O-]
REMARK SMILES IDX 7 1 8 2 9 3 10 4 11 5 12 6 13 7 6 8 5 9 4 10 3 11 2 12 1 13
REMARK H PARENT
REMARK Flexibility Score: inf
ROOT
ATOM      1  C   UNL     1     112.361  54.263 230.671  1.00  0.00     0.000 C 
ENDROOT
BRANCH   1   2
ATOM      2  C   UNL     1     112.964  53.284 231.693  1.00  0.00     0.000 C 
BRANCH   2   3
ATOM      3  C   UNL     1     111.940  52.813 232.743  1.00  0.00     0.006 C 
BRANCH   3   4
ATOM      4  C   UNL     1     110.479  53.134 232.393  1.00  0.00     0.053 C 
BRANCH   4   5
ATOM      5  C   UNL     1     109.515  52.319 233.200  1.00  0.00     0.041 C 
ATOM      6  O   UNL     1     109.072  51.231 232.749  1.00  0.00    -0.550 OA
ATOM      7  O   UNL     1     109.080  52.781 234.437  1.00  0.00    -0.550 OA
ENDBRANCH   4   5
ENDBRANCH   3   4
ENDBRANCH   2   3
ENDBRANCH   1   2
BRANCH   1   8
ATOM      8  C   UNL     1     113.433  55.092 229.946  1.00  0.00     0.000 C 
BRANCH   8   9
ATOM      9  C   UNL     1     113.414  54.885 228.422  1.00  0.00    -0.000 C 
BRANCH   9  10
ATOM     10  C   UNL     1     113.162  53.419 228.023  1.00  0.00    -0.000 C 
BRANCH  10  11
ATOM     11  C   UNL     1     113.163  53.148 226.505  1.00  0.00    -0.000 C 
BRANCH  11  12
ATOM     12  C   UNL     1     112.260  54.081 225.678  1.00  0.00    -0.003 C 
ATOM     13  C   UNL     1     110.779  53.716 225.775  1.00  0.00     0.004 C 
ENDBRANCH  11  12
ENDBRANCH  10  11
ENDBRANCH   9  10
ENDBRANCH   8   9
ENDBRANCH   1   8
TORSDOF 9
ENDMDL
MODEL 5
REMARK VINA RESULT:    -3.231     19.470     20.224
REMARK INTER + INTRA:          -5.495
REMARK INTER:                  -4.297
REMARK INTRA:                  -1.198
REMARK UNBOUND:                -0.564
REMARK SMILES CCCCCCCCCCC(=O)[O-]
REMARK SMILES IDX 7 1 8 2 9 3 10 4 11 5 12 6 13 7 6 8 5 9 4 10 3 11 2 12 1 13
REMARK H PARENT
REMARK Flexibility Score: inf
ROOT
ATOM      1  C   UNL     1      96.353  65.337 223.567  1.00  0.00     0.000 C 
ENDROOT
BRANCH   1   2
ATOM      2  C   UNL     1      96.717  64.070 224.360  1.00  0.00     0.000 C 
BRANCH   2   3
ATOM      3  C   UNL     1      98.216  63.992 224.702  1.00  0.00     0.006 C 
BRANCH   3   4
ATOM      4  C   UNL     1      98.958  65.335 224.619  1.00  0.00     0.053 C 
BRANCH   4   5
ATOM      5  C   UNL     1     100.189  65.246 223.770  1.00  0.00     0.041 C 
ATOM      6  O   UNL     1     100.894  66.268 223.567  1.00  0.00    -0.550 OA
ATOM      7  O   UNL     1     100.537  64.039 223.175  1.00  0.00    -0.550 OA
ENDBRANCH   4   5
ENDBRANCH   3   4
ENDBRANCH   2   3
ENDBRANCH   1   2
BRANCH   1   8
ATOM      8  C   UNL     1      94.835  65.515 223.406  1.00  0.00     0.000 C 
BRANCH   8   9
ATOM      9  C   UNL     1      94.203  66.306 224.565  1.00  0.00    -0.000 C 
BRANCH   9  10
ATOM     10  C   UNL     1      95.139  67.395 225.121  1.00  0.00    -0.000 C 
BRANCH  10  11
ATOM     11  C   UNL     1      95.302  67.392 226.654  1.00  0.00    -0.000 C 
BRANCH  11  12
ATOM     12  C   UNL     1      96.421  66.480 227.188  1.00  0.00    -0.003 C 
ATOM     13  C   UNL     1      95.891  65.186 227.806  1.00  0.00     0.004 C 
ENDBRANCH  11  12
ENDBRANCH  10  11
ENDBRANCH   9  10
ENDBRANCH   8   9
ENDBRANCH   1   8
TORSDOF 9
ENDMDL
MODEL 6
REMARK VINA RESULT:    -3.179      1.745      2.405
REMARK INTER + INTRA:          -5.416
REMARK INTER:                  -4.852
REMARK INTRA:                  -0.563
REMARK UNBOUND:                -0.564
REMARK SMILES CCCCCCCCCCC(=O)[O-]
REMARK SMILES IDX 7 1 8 2 9 3 10 4 11 5 12 6 13 7 6 8 5 9 4 10 3 11 2 12 1 13
REMARK H PARENT
REMARK Flexibility Score: inf
ROOT
ATOM      1  C   UNL     1     113.356  54.838 229.059  1.00  0.00     0.000 C 
ENDROOT
BRANCH   1   2
ATOM      2  C   UNL     1     113.003  53.479 228.429  1.00  0.00     0.000 C 
BRANCH   2   3
ATOM      3  C   UNL     1     113.160  53.475 226.897  1.00  0.00     0.006 C 
BRANCH   3   4
ATOM      4  C   UNL     1     111.833  53.463 226.122  1.00  0.00     0.053 C 
BRANCH   4   5
ATOM      5  C   UNL     1     111.545  54.784 225.478  1.00  0.00     0.041 C 
ATOM      6  O   UNL     1     111.482  55.829 226.176  1.00  0.00    -0.550 OA
ATOM      7  O   UNL     1     111.314  54.855 224.109  1.00  0.00    -0.550 OA
ENDBRANCH   4   5
ENDBRANCH   3   4
ENDBRANCH   2   3
ENDBRANCH   1   2
BRANCH   1   8
ATOM      8  C   UNL     1     113.467  54.765 230.590  1.00  0.00     0.000 C 
BRANCH   8   9
ATOM      9  C   UNL     1     112.313  53.976 231.232  1.00  0.00    -0.000 C 
BRANCH   9  10
ATOM     10  C   UNL     1     112.806  52.855 232.166  1.00  0.00    -0.000 C 
BRANCH  10  11
ATOM     11  C   UNL     1     114.121  53.160 232.910  1.00  0.00    -0.000 C 
BRANCH  11  12
ATOM     12  C   UNL     1     113.952  53.864 234.268  1.00  0.00    -0.003 C 
ATOM     13  C   UNL     1     112.624  53.532 234.949  1.00  0.00     0.004 C 
ENDBRANCH  11  12
ENDBRANCH  10  11
ENDBRANCH   9  10
ENDBRANCH   8   9
ENDBRANCH   1   8
TORSDOF 9
ENDMDL
MODEL 7
REMARK VINA RESULT:    -3.174      1.693      2.503
REMARK INTER + INTRA:          -5.408
REMARK INTER:                  -4.563
REMARK INTRA:                  -0.844
REMARK UNBOUND:                -0.564
REMARK SMILES CCCCCCCCCCC(=O)[O-]
REMARK SMILES IDX 7 1 8 2 9 3 10 4 11 5 12 6 13 7 6 8 5 9 4 10 3 11 2 12 1 13
REMARK H PARENT
REMARK Flexibility Score: inf
ROOT
ATOM      1  C   UNL     1     112.424  53.481 231.217  1.00  0.00     0.000 C 
ENDROOT
BRANCH   1   2
ATOM      2  C   UNL     1     113.402  54.655 231.036  1.00  0.00     0.000 C 
BRANCH   2   3
ATOM      3  C   UNL     1     113.607  55.036 229.558  1.00  0.00     0.006 C 
BRANCH   3   4
ATOM      4  C   UNL     1     112.456  54.621 228.629  1.00  0.00     0.053 C 
BRANCH   4   5
ATOM      5  C   UNL     1     112.953  54.084 227.322  1.00  0.00     0.041 C 
ATOM      6  O   UNL     1     114.022  54.522 226.823  1.00  0.00    -0.550 OA
ATOM      7  O   UNL     1     112.216  53.124 226.639  1.00  0.00    -0.550 OA
ENDBRANCH   4   5
ENDBRANCH   3   4
ENDBRANCH   2   3
ENDBRANCH   1   2
BRANCH   1   8
ATOM      8  C   UNL     1     112.730  52.650 232.474  1.00  0.00     0.000 C 
BRANCH   8   9
ATOM      9  C   UNL     1     114.122  52.948 233.059  1.00  0.00    -0.000 C 
BRANCH   9  10
ATOM     10  C   UNL     1     114.057  53.497 234.496  1.00  0.00    -0.000 C 
BRANCH  10  11
ATOM     11  C   UNL     1     112.634  53.748 235.033  1.00  0.00    -0.000 C 
BRANCH  11  12
ATOM     12  C   UNL     1     112.201  55.225 235.061  1.00  0.00    -0.003 C 
ATOM     13  C   UNL     1     110.877  55.471 234.338  1.00  0.00     0.004 C 
ENDBRANCH  11  12
ENDBRANCH  10  11
ENDBRANCH   9  10
ENDBRANCH   8   9
ENDBRANCH   1   8
TORSDOF 9
ENDMDL
MODEL 8
REMARK VINA RESULT:    -3.148      3.244      6.311
REMARK INTER + INTRA:          -5.368
REMARK INTER:                  -4.579
REMARK INTRA:                  -0.789
REMARK UNBOUND:                -0.564
REMARK SMILES CCCCCCCCCCC(=O)[O-]
REMARK SMILES IDX 7 1 8 2 9 3 10 4 11 5 12 6 13 7 6 8 5 9 4 10 3 11 2 12 1 13
REMARK H PARENT
REMARK Flexibility Score: inf
ROOT
ATOM      1  C   UNL     1     113.647  55.071 228.209  1.00  0.00     0.000 C 
ENDROOT
BRANCH   1   2
ATOM      2  C   UNL     1     112.915  54.034 229.078  1.00  0.00     0.000 C 
BRANCH   2   3
ATOM      3  C   UNL     1     113.154  54.246 230.585  1.00  0.00     0.006 C 
BRANCH   3   4
ATOM      4  C   UNL     1     111.896  54.098 231.455  1.00  0.00     0.053 C 
BRANCH   4   5
ATOM      5  C   UNL     1     112.004  52.949 232.410  1.00  0.00     0.041 C 
ATOM      6  O   UNL     1     113.115  52.392 232.608  1.00  0.00    -0.550 OA
ATOM      7  O   UNL     1     110.869  52.473 233.055  1.00  0.00    -0.550 OA
ENDBRANCH   4   5
ENDBRANCH   3   4
ENDBRANCH   2   3
ENDBRANCH   1   2
BRANCH   1   8
ATOM      8  C   UNL     1     114.039  54.512 226.831  1.00  0.00     0.000 C 
BRANCH   8   9
ATOM      9  C   UNL     1     113.253  53.243 226.461  1.00  0.00    -0.000 C 
BRANCH   9  10
ATOM     10  C   UNL     1     112.250  53.477 225.316  1.00  0.00    -0.000 C 
BRANCH  10  11
ATOM     11  C   UNL     1     110.766  53.360 225.718  1.00  0.00    -0.000 C 
BRANCH  11  12
ATOM     12  C   UNL     1     110.042  54.701 225.933  1.00  0.00    -0.003 C 
ATOM     13  C   UNL     1     110.841  55.898 225.416  1.00  0.00     0.004 C 
ENDBRANCH  11  12
ENDBRANCH  10  11
ENDBRANCH   9  10
ENDBRANCH   8   9
ENDBRANCH   1   8
TORSDOF 9
ENDMDL
MODEL 9
REMARK VINA RESULT:    -3.112     19.144     19.984
REMARK INTER + INTRA:          -5.314
REMARK INTER:                  -4.128
REMARK INTRA:                  -1.186
REMARK UNBOUND:                -0.564
REMARK SMILES CCCCCCCCCCC(=O)[O-]
REMARK SMILES IDX 7 1 8 2 9 3 10 4 11 5 12 6 13 7 6 8 5 9 4 10 3 11 2 12 1 13
REMARK H PARENT
REMARK Flexibility Score: inf
ROOT
ATOM      1  C   UNL     1      96.403  64.164 226.216  1.00  0.00     0.000 C 
ENDROOT
BRANCH   1   2
ATOM      2  C   UNL     1      97.189  63.757 224.957  1.00  0.00     0.000 C 
BRANCH   2   3
ATOM      3  C   UNL     1      98.678  63.487 225.247  1.00  0.00     0.006 C 
BRANCH   3   4
ATOM      4  C   UNL     1      99.568  64.739 225.214  1.00  0.00     0.053 C 
BRANCH   4   5
ATOM      5  C   UNL     1     100.284  64.886 223.906  1.00  0.00     0.041 C 
ATOM      6  O   UNL     1     100.441  63.890 223.153  1.00  0.00    -0.550 OA
ATOM      7  O   UNL     1     100.806  66.119 223.535  1.00  0.00    -0.550 OA
ENDBRANCH   4   5
ENDBRANCH   3   4
ENDBRANCH   2   3
ENDBRANCH   1   2
BRANCH   1   8
ATOM      8  C   UNL     1      95.009  64.720 225.885  1.00  0.00     0.000 C 
BRANCH   8   9
ATOM      9  C   UNL     1      94.873  65.140 224.411  1.00  0.00    -0.000 C 
BRANCH   9  10
ATOM     10  C   UNL     1      94.959  66.666 224.218  1.00  0.00    -0.000 C 
BRANCH  10  11
ATOM     11  C   UNL     1      96.249  67.163 223.534  1.00  0.00    -0.000 C 
BRANCH  11  12
ATOM     12  C   UNL     1      97.394  67.529 224.493  1.00  0.00    -0.003 C 
ATOM     13  C   UNL     1      96.899  67.969 225.871  1.00  0.00     0.004 C 
ENDBRANCH  11  12
ENDBRANCH  10  11
ENDBRANCH   9  10
ENDBRANCH   8   9
ENDBRANCH   1   8
TORSDOF 9
ENDMDL
