MODEL 1
REMARK VINA RESULT:    -4.554      0.000      0.000
REMARK INTER + INTRA:          -4.914
REMARK INTER:                  -4.821
REMARK INTRA:                  -0.093
REMARK UNBOUND:                -0.093
REMARK SMILES C=C(C)[C@@H]1CC=C(C)C(=O)C1
REMARK SMILES IDX 8 1 7 2 6 3 5 4 4 5 11 6 9 7 10 8 2 9 1 10 3 11
REMARK H PARENT
REMARK Flexibility Score: inf
ROOT
ATOM      1  C   UNL     1      43.245 -37.172  -0.915  1.00  0.00     0.048 C 
ATOM      2  C   UNL     1      42.905 -38.178  -1.980  1.00  0.00    -0.012 C 
ATOM      3  C   UNL     1      42.917 -39.491  -1.689  1.00  0.00    -0.019 C 
ATOM      4  C   UNL     1      42.566 -40.538  -2.712  1.00  0.00     0.036 C 
ATOM      5  C   UNL     1      42.989 -40.096  -4.126  1.00  0.00     0.025 C 
ATOM      6  C   UNL     1      42.374 -38.724  -4.462  1.00  0.00     0.089 C 
ATOM      7  C   UNL     1      42.678 -37.729  -3.376  1.00  0.00     0.158 C 
ATOM      8  O   UNL     1      42.702 -36.501  -3.658  1.00  0.00    -0.295 OA
ENDROOT
BRANCH   5   9
ATOM      9  C   UNL     1      42.631 -41.143  -5.173  1.00  0.00    -0.077 C 
ATOM     10  C   UNL     1      41.365 -41.308  -5.594  1.00  0.00     0.008 C 
ATOM     11  C   UNL     1      43.705 -42.023  -5.759  1.00  0.00     0.039 C 
ENDBRANCH   5   9
TORSDOF 1
ENDMDL
MODEL 2
REMARK VINA RESULT:    -4.410      2.537      4.500
REMARK INTER + INTRA:          -4.761
REMARK INTER:                  -4.666
REMARK INTRA:                  -0.096
REMARK UNBOUND:                -0.093
REMARK SMILES C=C(C)[C@@H]1CC=C(C)C(=O)C1
REMARK SMILES IDX 8 1 7 2 6 3 5 4 4 5 11 6 9 7 10 8 2 9 1 10 3 11
REMARK H PARENT
REMARK Flexibility Score: inf
ROOT
ATOM      1  C   UNL     1      43.864 -41.677  -5.652  1.00  0.00     0.048 C 
ATOM      2  C   UNL     1      42.473 -41.279  -5.240  1.00  0.00    -0.012 C 
ATOM      3  C   UNL     1      41.421 -41.649  -5.990  1.00  0.00    -0.019 C 
ATOM      4  C   UNL     1      40.008 -41.294  -5.613  1.00  0.00     0.036 C 
ATOM      5  C   UNL     1      39.951 -39.935  -4.890  1.00  0.00     0.025 C 
ATOM      6  C   UNL     1      40.896 -39.938  -3.674  1.00  0.00     0.089 C 
ATOM      7  C   UNL     1      42.276 -40.378  -4.077  1.00  0.00     0.158 C 
ATOM      8  O   UNL     1      43.265 -39.999  -3.393  1.00  0.00    -0.295 OA
ENDROOT
BRANCH   5   9
ATOM      9  C   UNL     1      38.527 -39.567  -4.495  1.00  0.00    -0.077 C 
ATOM     10  C   UNL     1      38.243 -38.385  -3.921  1.00  0.00     0.008 C 
ATOM     11  C   UNL     1      37.400 -40.536  -4.745  1.00  0.00     0.039 C 
ENDBRANCH   5   9
TORSDOF 1
ENDMDL
MODEL 3
REMARK VINA RESULT:    -4.338      1.529      2.141
REMARK INTER + INTRA:          -4.685
REMARK INTER:                  -4.596
REMARK INTRA:                  -0.089
REMARK UNBOUND:                -0.093
REMARK SMILES C=C(C)[C@@H]1CC=C(C)C(=O)C1
REMARK SMILES IDX 8 1 7 2 6 3 5 4 4 5 11 6 9 7 10 8 2 9 1 10 3 11
REMARK H PARENT
REMARK Flexibility Score: inf
ROOT
ATOM      1  C   UNL     1      42.636 -37.114  -0.639  1.00  0.00     0.048 C 
ATOM      2  C   UNL     1      42.725 -38.102  -1.770  1.00  0.00    -0.012 C 
ATOM      3  C   UNL     1      42.578 -37.682  -3.039  1.00  0.00    -0.019 C 
ATOM      4  C   UNL     1      42.677 -38.624  -4.208  1.00  0.00     0.036 C 
ATOM      5  C   UNL     1      42.161 -40.027  -3.835  1.00  0.00     0.025 C 
ATOM      6  C   UNL     1      42.904 -40.557  -2.595  1.00  0.00     0.089 C 
ATOM      7  C   UNL     1      42.852 -39.551  -1.478  1.00  0.00     0.158 C 
ATOM      8  O   UNL     1      42.953 -39.951  -0.287  1.00  0.00    -0.295 OA
ENDROOT
BRANCH   5   9
ATOM      9  C   UNL     1      42.264 -40.994  -5.008  1.00  0.00    -0.077 C 
ATOM     10  C   UNL     1      41.177 -41.365  -5.707  1.00  0.00     0.008 C 
ATOM     11  C   UNL     1      43.603 -41.556  -5.407  1.00  0.00     0.039 C 
ENDBRANCH   5   9
TORSDOF 1
ENDMDL
MODEL 4
REMARK VINA RESULT:    -4.290      3.451      4.713
REMARK INTER + INTRA:          -4.634
REMARK INTER:                  -4.543
REMARK INTRA:                  -0.091
REMARK UNBOUND:                -0.093
REMARK SMILES C=C(C)[C@@H]1CC=C(C)C(=O)C1
REMARK SMILES IDX 8 1 7 2 6 3 5 4 4 5 11 6 9 7 10 8 2 9 1 10 3 11
REMARK H PARENT
REMARK Flexibility Score: inf
ROOT
ATOM      1  C   UNL     1      36.764 -38.497  -5.226  1.00  0.00     0.048 C 
ATOM      2  C   UNL     1      38.120 -39.072  -4.920  1.00  0.00    -0.012 C 
ATOM      3  C   UNL     1      39.193 -38.265  -4.870  1.00  0.00    -0.019 C 
ATOM      4  C   UNL     1      40.569 -38.785  -4.550  1.00  0.00     0.036 C 
ATOM      5  C   UNL     1      40.755 -40.221  -5.074  1.00  0.00     0.025 C 
ATOM      6  C   UNL     1      39.643 -41.137  -4.529  1.00  0.00     0.089 C 
ATOM      7  C   UNL     1      38.289 -40.541  -4.797  1.00  0.00     0.158 C 
ATOM      8  O   UNL     1      37.289 -41.304  -4.880  1.00  0.00    -0.295 OA
ENDROOT
BRANCH   5   9
ATOM      9  C   UNL     1      42.141 -40.764  -4.749  1.00  0.00    -0.077 C 
ATOM     10  C   UNL     1      42.800 -41.562  -5.607  1.00  0.00     0.008 C 
ATOM     11  C   UNL     1      42.802 -40.409  -3.442  1.00  0.00     0.039 C 
ENDBRANCH   5   9
TORSDOF 1
ENDMDL
MODEL 5
REMARK VINA RESULT:    -4.290      2.956      4.653
REMARK INTER + INTRA:          -4.634
REMARK INTER:                  -4.539
REMARK INTRA:                  -0.095
REMARK UNBOUND:                -0.093
REMARK SMILES C=C(C)[C@@H]1CC=C(C)C(=O)C1
REMARK SMILES IDX 8 1 7 2 6 3 5 4 4 5 11 6 9 7 10 8 2 9 1 10 3 11
REMARK H PARENT
REMARK Flexibility Score: inf
ROOT
ATOM      1  C   UNL     1      44.093 -41.991  -5.623  1.00  0.00     0.048 C 
ATOM      2  C   UNL     1      42.860 -41.284  -5.131  1.00  0.00    -0.012 C 
ATOM      3  C   UNL     1      42.938 -40.467  -4.066  1.00  0.00    -0.019 C 
ATOM      4  C   UNL     1      41.739 -39.721  -3.543  1.00  0.00     0.036 C 
ATOM      5  C   UNL     1      40.447 -40.532  -3.753  1.00  0.00     0.025 C 
ATOM      6  C   UNL     1      40.293 -40.917  -5.236  1.00  0.00     0.089 C 
ATOM      7  C   UNL     1      41.542 -41.585  -5.741  1.00  0.00     0.158 C 
ATOM      8  O   UNL     1      41.461 -42.380  -6.717  1.00  0.00    -0.295 OA
ENDROOT
BRANCH   5   9
ATOM      9  C   UNL     1      39.224 -39.785  -3.236  1.00  0.00    -0.077 C 
ATOM     10  C   UNL     1      39.252 -39.119  -2.069  1.00  0.00     0.008 C 
ATOM     11  C   UNL     1      37.948 -39.780  -4.038  1.00  0.00     0.039 C 
ENDBRANCH   5   9
TORSDOF 1
ENDMDL
MODEL 6
REMARK VINA RESULT:    -4.186      1.943      2.136
REMARK INTER + INTRA:          -4.525
REMARK INTER:                  -4.427
REMARK INTRA:                  -0.098
REMARK UNBOUND:                -0.093
REMARK SMILES C=C(C)[C@@H]1CC=C(C)C(=O)C1
REMARK SMILES IDX 8 1 7 2 6 3 5 4 4 5 11 6 9 7 10 8 2 9 1 10 3 11
REMARK H PARENT
REMARK Flexibility Score: inf
ROOT
ATOM      1  C   UNL     1      41.479 -38.454  -0.105  1.00  0.00     0.048 C 
ATOM      2  C   UNL     1      41.658 -39.316  -1.324  1.00  0.00    -0.012 C 
ATOM      3  C   UNL     1      42.892 -39.682  -1.710  1.00  0.00    -0.019 C 
ATOM      4  C   UNL     1      43.127 -40.559  -2.911  1.00  0.00     0.036 C 
ATOM      5  C   UNL     1      42.063 -40.308  -3.997  1.00  0.00     0.025 C 
ATOM      6  C   UNL     1      40.650 -40.487  -3.411  1.00  0.00     0.089 C 
ATOM      7  C   UNL     1      40.485 -39.658  -2.167  1.00  0.00     0.158 C 
ATOM      8  O   UNL     1      39.330 -39.285  -1.827  1.00  0.00    -0.295 OA
ENDROOT
BRANCH   5   9
ATOM      9  C   UNL     1      42.282 -41.196  -5.215  1.00  0.00    -0.077 C 
ATOM     10  C   UNL     1      41.255 -41.591  -5.987  1.00  0.00     0.008 C 
ATOM     11  C   UNL     1      43.672 -41.651  -5.577  1.00  0.00     0.039 C 
ENDBRANCH   5   9
TORSDOF 1
ENDMDL
MODEL 7
REMARK VINA RESULT:    -4.153      3.328      4.588
REMARK INTER + INTRA:          -4.489
REMARK INTER:                  -4.398
REMARK INTRA:                  -0.091
REMARK UNBOUND:                -0.093
REMARK SMILES C=C(C)[C@@H]1CC=C(C)C(=O)C1
REMARK SMILES IDX 8 1 7 2 6 3 5 4 4 5 11 6 9 7 10 8 2 9 1 10 3 11
REMARK H PARENT
REMARK Flexibility Score: inf
ROOT
ATOM      1  C   UNL     1      36.278 -39.945  -3.812  1.00  0.00     0.048 C 
ATOM      2  C   UNL     1      37.753 -39.983  -4.106  1.00  0.00    -0.012 C 
ATOM      3  C   UNL     1      38.179 -40.172  -5.366  1.00  0.00    -0.019 C 
ATOM      4  C   UNL     1      39.642 -40.201  -5.719  1.00  0.00     0.036 C 
ATOM      5  C   UNL     1      40.479 -40.786  -4.565  1.00  0.00     0.025 C 
ATOM      6  C   UNL     1      40.208 -40.011  -3.262  1.00  0.00     0.089 C 
ATOM      7  C   UNL     1      38.730 -39.935  -2.990  1.00  0.00     0.158 C 
ATOM      8  O   UNL     1      38.331 -39.795  -1.803  1.00  0.00    -0.295 OA
ENDROOT
BRANCH   5   9
ATOM      9  C   UNL     1      41.964 -40.811  -4.905  1.00  0.00    -0.077 C 
ATOM     10  C   UNL     1      42.461 -41.673  -5.810  1.00  0.00     0.008 C 
ATOM     11  C   UNL     1      42.911 -39.858  -4.223  1.00  0.00     0.039 C 
ENDBRANCH   5   9
TORSDOF 1
ENDMDL
MODEL 8
REMARK VINA RESULT:    -4.024      2.682      3.585
REMARK INTER + INTRA:          -4.352
REMARK INTER:                  -4.262
REMARK INTRA:                  -0.091
REMARK UNBOUND:                -0.093
REMARK SMILES C=C(C)[C@@H]1CC=C(C)C(=O)C1
REMARK SMILES IDX 8 1 7 2 6 3 5 4 4 5 11 6 9 7 10 8 2 9 1 10 3 11
REMARK H PARENT
REMARK Flexibility Score: inf
ROOT
ATOM      1  C   UNL     1      43.091 -40.505  -1.425  1.00  0.00     0.048 C 
ATOM      2  C   UNL     1      41.940 -40.338  -2.379  1.00  0.00    -0.012 C 
ATOM      3  C   UNL     1      40.700 -40.132  -1.902  1.00  0.00    -0.019 C 
ATOM      4  C   UNL     1      39.517 -39.940  -2.813  1.00  0.00     0.036 C 
ATOM      5  C   UNL     1      39.678 -40.753  -4.111  1.00  0.00     0.025 C 
ATOM      6  C   UNL     1      41.009 -40.397  -4.801  1.00  0.00     0.089 C 
ATOM      7  C   UNL     1      42.155 -40.523  -3.836  1.00  0.00     0.158 C 
ATOM      8  O   UNL     1      43.311 -40.752  -4.282  1.00  0.00    -0.295 OA
ENDROOT
BRANCH   5   9
ATOM      9  C   UNL     1      38.491 -40.560  -5.046  1.00  0.00    -0.077 C 
ATOM     10  C   UNL     1      37.298 -41.120  -4.787  1.00  0.00     0.008 C 
ATOM     11  C   UNL     1      38.640 -39.726  -6.293  1.00  0.00     0.039 C 
ENDBRANCH   5   9
TORSDOF 1
ENDMDL
MODEL 9
REMARK VINA RESULT:    -3.969      2.446      4.191
REMARK INTER + INTRA:          -4.294
REMARK INTER:                  -4.200
REMARK INTRA:                  -0.095
REMARK UNBOUND:                -0.093
REMARK SMILES C=C(C)[C@@H]1CC=C(C)C(=O)C1
REMARK SMILES IDX 8 1 7 2 6 3 5 4 4 5 11 6 9 7 10 8 2 9 1 10 3 11
REMARK H PARENT
REMARK Flexibility Score: inf
ROOT
ATOM      1  C   UNL     1      37.524 -38.967  -6.426  1.00  0.00     0.048 C 
ATOM      2  C   UNL     1      38.894 -39.300  -5.902  1.00  0.00    -0.012 C 
ATOM      3  C   UNL     1      39.422 -40.514  -6.135  1.00  0.00    -0.019 C 
ATOM      4  C   UNL     1      40.796 -40.894  -5.650  1.00  0.00     0.036 C 
ATOM      5  C   UNL     1      41.128 -40.192  -4.320  1.00  0.00     0.025 C 
ATOM      6  C   UNL     1      40.961 -38.668  -4.464  1.00  0.00     0.089 C 
ATOM      7  C   UNL     1      39.607 -38.336  -5.028  1.00  0.00     0.158 C 
ATOM      8  O   UNL     1      39.097 -37.210  -4.778  1.00  0.00    -0.295 OA
ENDROOT
BRANCH   5   9
ATOM      9  C   UNL     1      42.520 -40.560  -3.822  1.00  0.00    -0.077 C 
ATOM     10  C   UNL     1      42.916 -40.270  -2.571  1.00  0.00     0.008 C 
ATOM     11  C   UNL     1      43.488 -41.264  -4.738  1.00  0.00     0.039 C 
ENDBRANCH   5   9
TORSDOF 1
ENDMDL
