MODEL 1
REMARK VINA RESULT:    -1.039      0.000      0.000
REMARK INTER + INTRA:          -3.011
REMARK INTER:                  -1.585
REMARK INTRA:                  -1.426
REMARK UNBOUND:                -1.426
REMARK SMILES CCCCCCCCCCC(=O)[O-]
REMARK SMILES IDX 7 1 8 2 9 3 10 4 11 5 12 6 13 7 6 8 5 9 4 10 3 11 2 12 1 13
REMARK H PARENT
REMARK Flexibility Score: inf
ROOT
ATOM      1  C   UNL     1      27.082  -8.187  18.754  1.00  0.00     0.000 C 
ENDROOT
BRANCH   1   2
ATOM      2  C   UNL     1      26.538  -9.385  19.548  1.00  0.00     0.000 C 
BRANCH   2   3
ATOM      3  C   UNL     1      27.499  -9.850  20.653  1.00  0.00     0.006 C 
BRANCH   3   4
ATOM      4  C   UNL     1      28.695  -8.905  20.830  1.00  0.00     0.053 C 
BRANCH   4   5
ATOM      5  C   UNL     1      29.847  -9.631  21.451  1.00  0.00     0.041 C 
ATOM      6  O   UNL     1      30.961  -9.060  21.580  1.00  0.00    -0.550 OA
ATOM      7  O   UNL     1      29.675 -10.922  21.934  1.00  0.00    -0.550 OA
ENDBRANCH   4   5
ENDBRANCH   3   4
ENDBRANCH   2   3
ENDBRANCH   1   2
BRANCH   1   8
ATOM      8  C   UNL     1      27.067  -8.478  17.245  1.00  0.00     0.000 C 
BRANCH   8   9
ATOM      9  C   UNL     1      27.344  -9.955  16.921  1.00  0.00    -0.000 C 
BRANCH   9  10
ATOM     10  C   UNL     1      28.812 -10.211  16.540  1.00  0.00    -0.000 C 
BRANCH  10  11
ATOM     11  C   UNL     1      29.632 -10.786  17.707  1.00  0.00    -0.000 C 
BRANCH  11  12
ATOM     12  C   UNL     1      30.932 -10.008  17.958  1.00  0.00    -0.003 C 
ATOM     13  C   UNL     1      30.732  -8.513  17.724  1.00  0.00     0.004 C 
ENDBRANCH  11  12
ENDBRANCH  10  11
ENDBRANCH   9  10
ENDBRANCH   8   9
ENDBRANCH   1   8
TORSDOF 9
ENDMDL
MODEL 2
REMARK VINA RESULT:    -0.996      2.021      3.024
REMARK INTER + INTRA:          -2.945
REMARK INTER:                  -2.008
REMARK INTRA:                  -0.937
REMARK UNBOUND:                -1.426
REMARK SMILES CCCCCCCCCCC(=O)[O-]
REMARK SMILES IDX 7 1 8 2 9 3 10 4 11 5 12 6 13 7 6 8 5 9 4 10 3 11 2 12 1 13
REMARK H PARENT
REMARK Flexibility Score: inf
ROOT
ATOM      1  C   UNL     1      27.680 -10.031  20.287  1.00  0.00     0.000 C 
ENDROOT
BRANCH   1   2
ATOM      2  C   UNL     1      28.836 -10.817  20.923  1.00  0.00     0.000 C 
BRANCH   2   3
ATOM      3  C   UNL     1      28.683 -10.971  22.445  1.00  0.00     0.006 C 
BRANCH   3   4
ATOM      4  C   UNL     1      30.028 -10.916  23.182  1.00  0.00     0.053 C 
BRANCH   4   5
ATOM      5  C   UNL     1      29.811 -10.722  24.649  1.00  0.00     0.041 C 
ATOM      6  O   UNL     1      30.674 -11.119  25.475  1.00  0.00    -0.550 OA
ATOM      7  O   UNL     1      28.678 -10.057  25.102  1.00  0.00    -0.550 OA
ENDBRANCH   4   5
ENDBRANCH   3   4
ENDBRANCH   2   3
ENDBRANCH   1   2
BRANCH   1   8
ATOM      8  C   UNL     1      28.147  -8.636  19.842  1.00  0.00     0.000 C 
BRANCH   8   9
ATOM      9  C   UNL     1      29.677  -8.522  19.752  1.00  0.00    -0.000 C 
BRANCH   9  10
ATOM     10  C   UNL     1      30.189  -8.571  18.301  1.00  0.00    -0.000 C 
BRANCH  10  11
ATOM     11  C   UNL     1      30.906  -9.891  17.974  1.00  0.00    -0.000 C 
BRANCH  11  12
ATOM     12  C   UNL     1      29.981 -10.917  17.301  1.00  0.00    -0.003 C 
ATOM     13  C   UNL     1      28.885 -10.223  16.498  1.00  0.00     0.004 C 
ENDBRANCH  11  12
ENDBRANCH  10  11
ENDBRANCH   9  10
ENDBRANCH   8   9
ENDBRANCH   1   8
TORSDOF 9
ENDMDL
MODEL 3
REMARK VINA RESULT:    -0.986      3.138      5.169
REMARK INTER + INTRA:          -2.931
REMARK INTER:                  -1.957
REMARK INTRA:                  -0.974
REMARK UNBOUND:                -1.426
REMARK SMILES CCCCCCCCCCC(=O)[O-]
REMARK SMILES IDX 7 1 8 2 9 3 10 4 11 5 12 6 13 7 6 8 5 9 4 10 3 11 2 12 1 13
REMARK H PARENT
REMARK Flexibility Score: inf
ROOT
ATOM      1  C   UNL     1      28.127 -10.257  17.500  1.00  0.00     0.000 C 
ENDROOT
BRANCH   1   2
ATOM      2  C   UNL     1      28.600  -9.052  16.674  1.00  0.00     0.000 C 
BRANCH   2   3
ATOM      3  C   UNL     1      28.228  -9.170  15.187  1.00  0.00     0.006 C 
BRANCH   3   4
ATOM      4  C   UNL     1      28.915 -10.358  14.499  1.00  0.00     0.053 C 
BRANCH   4   5
ATOM      5  C   UNL     1      30.402 -10.207  14.561  1.00  0.00     0.041 C 
ATOM      6  O   UNL     1      31.108 -11.106  15.090  1.00  0.00    -0.550 OA
ATOM      7  O   UNL     1      31.012  -9.098  13.989  1.00  0.00    -0.550 OA
ENDBRANCH   4   5
ENDBRANCH   3   4
ENDBRANCH   2   3
ENDBRANCH   1   2
BRANCH   1   8
ATOM      8  C   UNL     1      29.282 -10.840  18.330  1.00  0.00     0.000 C 
BRANCH   8   9
ATOM      9  C   UNL     1      30.549  -9.970  18.279  1.00  0.00    -0.000 C 
BRANCH   9  10
ATOM     10  C   UNL     1      31.024  -9.536  19.676  1.00  0.00    -0.000 C 
BRANCH  10  11
ATOM     11  C   UNL     1      29.986  -8.671  20.410  1.00  0.00    -0.000 C 
BRANCH  11  12
ATOM     12  C   UNL     1      29.790  -9.094  21.873  1.00  0.00    -0.003 C 
ATOM     13  C   UNL     1      29.859 -10.611  22.020  1.00  0.00     0.004 C 
ENDBRANCH  11  12
ENDBRANCH  10  11
ENDBRANCH   9  10
ENDBRANCH   8   9
ENDBRANCH   1   8
TORSDOF 9
ENDMDL
MODEL 4
REMARK VINA RESULT:    -0.975      2.191      4.274
REMARK INTER + INTRA:          -2.914
REMARK INTER:                  -1.518
REMARK INTRA:                  -1.396
REMARK UNBOUND:                -1.426
REMARK SMILES CCCCCCCCCCC(=O)[O-]
REMARK SMILES IDX 7 1 8 2 9 3 10 4 11 5 12 6 13 7 6 8 5 9 4 10 3 11 2 12 1 13
REMARK H PARENT
REMARK Flexibility Score: inf
ROOT
ATOM      1  C   UNL     1      30.041  -9.689  18.275  1.00  0.00     0.000 C 
ENDROOT
BRANCH   1   2
ATOM      2  C   UNL     1      29.254 -10.958  18.634  1.00  0.00     0.000 C 
BRANCH   2   3
ATOM      3  C   UNL     1      27.810 -10.658  19.067  1.00  0.00     0.006 C 
BRANCH   3   4
ATOM      4  C   UNL     1      27.415  -9.194  18.828  1.00  0.00     0.053 C 
BRANCH   4   5
ATOM      5  C   UNL     1      26.819  -8.605  20.067  1.00  0.00     0.041 C 
ATOM      6  O   UNL     1      27.290  -7.544  20.554  1.00  0.00    -0.550 OA
ATOM      7  O   UNL     1      25.711  -9.201  20.657  1.00  0.00    -0.550 OA
ENDBRANCH   4   5
ENDBRANCH   3   4
ENDBRANCH   2   3
ENDBRANCH   1   2
BRANCH   1   8
ATOM      8  C   UNL     1      31.125  -9.402  19.326  1.00  0.00     0.000 C 
BRANCH   8   9
ATOM      9  C   UNL     1      30.769  -8.217  20.240  1.00  0.00    -0.000 C 
BRANCH   9  10
ATOM     10  C   UNL     1      30.574  -8.640  21.707  1.00  0.00    -0.000 C 
BRANCH  10  11
ATOM     11  C   UNL     1      31.100 -10.057  21.986  1.00  0.00    -0.000 C 
BRANCH  11  12
ATOM     12  C   UNL     1      30.088 -10.926  22.748  1.00  0.00    -0.003 C 
ATOM     13  C   UNL     1      28.691 -10.315  22.697  1.00  0.00     0.004 C 
ENDBRANCH  11  12
ENDBRANCH  10  11
ENDBRANCH   9  10
ENDBRANCH   8   9
ENDBRANCH   1   8
TORSDOF 9
ENDMDL
MODEL 5
REMARK VINA RESULT:    -0.967      1.803      2.493
REMARK INTER + INTRA:          -2.902
REMARK INTER:                  -2.009
REMARK INTRA:                  -0.892
REMARK UNBOUND:                -1.426
REMARK SMILES CCCCCCCCCCC(=O)[O-]
REMARK SMILES IDX 7 1 8 2 9 3 10 4 11 5 12 6 13 7 6 8 5 9 4 10 3 11 2 12 1 13
REMARK H PARENT
REMARK Flexibility Score: inf
ROOT
ATOM      1  C   UNL     1      28.549  -9.827  19.786  1.00  0.00     0.000 C 
ENDROOT
BRANCH   1   2
ATOM      2  C   UNL     1      28.077 -10.399  21.131  1.00  0.00     0.000 C 
BRANCH   2   3
ATOM      3  C   UNL     1      29.199 -11.124  21.892  1.00  0.00     0.006 C 
BRANCH   3   4
ATOM      4  C   UNL     1      30.445 -10.249  22.081  1.00  0.00     0.053 C 
BRANCH   4   5
ATOM      5  C   UNL     1      30.693 -10.002  23.536  1.00  0.00     0.041 C 
ATOM      6  O   UNL     1      31.125  -8.885  23.924  1.00  0.00    -0.550 OA
ATOM      7  O   UNL     1      30.400 -10.989  24.468  1.00  0.00    -0.550 OA
ENDBRANCH   4   5
ENDBRANCH   3   4
ENDBRANCH   2   3
ENDBRANCH   1   2
BRANCH   1   8
ATOM      8  C   UNL     1      28.362 -10.855  18.658  1.00  0.00     0.000 C 
BRANCH   8   9
ATOM      9  C   UNL     1      29.644 -11.080  17.840  1.00  0.00    -0.000 C 
BRANCH   9  10
ATOM     10  C   UNL     1      30.714 -10.007  18.111  1.00  0.00    -0.000 C 
BRANCH  10  11
ATOM     11  C   UNL     1      30.891  -9.039  16.929  1.00  0.00    -0.000 C 
BRANCH  11  12
ATOM     12  C   UNL     1      30.710  -7.569  17.335  1.00  0.00    -0.003 C 
ATOM     13  C   UNL     1      29.245  -7.152  17.251  1.00  0.00     0.004 C 
ENDBRANCH  11  12
ENDBRANCH  10  11
ENDBRANCH   9  10
ENDBRANCH   8   9
ENDBRANCH   1   8
TORSDOF 9
ENDMDL
MODEL 6
REMARK VINA RESULT:    -0.967      3.517      5.499
REMARK INTER + INTRA:          -2.901
REMARK INTER:                  -1.773
REMARK INTRA:                  -1.128
REMARK UNBOUND:                -1.426
REMARK SMILES CCCCCCCCCCC(=O)[O-]
REMARK SMILES IDX 7 1 8 2 9 3 10 4 11 5 12 6 13 7 6 8 5 9 4 10 3 11 2 12 1 13
REMARK H PARENT
REMARK Flexibility Score: inf
ROOT
ATOM      1  C   UNL     1      30.637  -8.746  17.612  1.00  0.00     0.000 C 
ENDROOT
BRANCH   1   2
ATOM      2  C   UNL     1      31.125 -10.180  17.358  1.00  0.00     0.000 C 
BRANCH   2   3
ATOM      3  C   UNL     1      30.132 -11.005  16.522  1.00  0.00     0.006 C 
BRANCH   3   4
ATOM      4  C   UNL     1      29.447 -10.172  15.430  1.00  0.00     0.053 C 
BRANCH   4   5
ATOM      5  C   UNL     1      29.805 -10.694  14.074  1.00  0.00     0.041 C 
ATOM      6  O   UNL     1      28.907 -11.125  13.304  1.00  0.00    -0.550 OA
ATOM      7  O   UNL     1      31.124 -10.658  13.642  1.00  0.00    -0.550 OA
ENDBRANCH   4   5
ENDBRANCH   3   4
ENDBRANCH   2   3
ENDBRANCH   1   2
BRANCH   1   8
ATOM      8  C   UNL     1      30.724  -8.394  19.106  1.00  0.00     0.000 C 
BRANCH   8   9
ATOM      9  C   UNL     1      30.041  -9.439  20.003  1.00  0.00    -0.000 C 
BRANCH   9  10
ATOM     10  C   UNL     1      28.519  -9.230  20.100  1.00  0.00    -0.000 C 
BRANCH  10  11
ATOM     11  C   UNL     1      27.740 -10.555  20.072  1.00  0.00    -0.000 C 
BRANCH  11  12
ATOM     12  C   UNL     1      26.663 -10.586  18.977  1.00  0.00    -0.003 C 
ATOM     13  C   UNL     1      26.875  -9.463  17.966  1.00  0.00     0.004 C 
ENDBRANCH  11  12
ENDBRANCH  10  11
ENDBRANCH   9  10
ENDBRANCH   8   9
ENDBRANCH   1   8
TORSDOF 9
ENDMDL
