MODEL 1
REMARK VINA RESULT:    -3.379      0.000      0.000
REMARK INTER + INTRA:          -8.348
REMARK INTER:                  -6.145
REMARK INTRA:                  -2.203
REMARK UNBOUND:                -2.203
REMARK SMILES CCCCCCCCCCCCCCCC(=O)[O-]
REMARK SMILES IDX 9 1 10 2 11 3 12 4 13 5 14 6 15 7 16 8 17 9 18 10 8 11 7 12
REMARK SMILES IDX 6 13 5 14 4 15 3 16 2 17 1 18
REMARK H PARENT
REMARK Flexibility Score: inf
ROOT
ATOM      1  C   UNL     1      56.694  28.090  53.222  1.00  0.00     0.000 C 
ENDROOT
BRANCH   1   2
ATOM      2  C   UNL     1      57.984  28.885  52.940  1.00  0.00     0.000 C 
BRANCH   2   3
ATOM      3  C   UNL     1      57.893  29.891  51.776  1.00  0.00     0.000 C 
BRANCH   3   4
ATOM      4  C   UNL     1      57.662  29.262  50.390  1.00  0.00     0.000 C 
BRANCH   4   5
ATOM      5  C   UNL     1      58.867  29.425  49.453  1.00  0.00     0.000 C 
BRANCH   5   6
ATOM      6  C   UNL     1      59.879  28.290  49.657  1.00  0.00     0.006 C 
BRANCH   6   7
ATOM      7  C   UNL     1      59.168  26.951  49.870  1.00  0.00     0.053 C 
BRANCH   7   8
ATOM      8  C   UNL     1      59.985  26.059  50.750  1.00  0.00     0.041 C 
ATOM      9  O   UNL     1      60.491  25.003  50.289  1.00  0.00    -0.550 OA
ATOM     10  O   UNL     1      60.230  26.422  52.069  1.00  0.00    -0.550 OA
ENDBRANCH   7   8
ENDBRANCH   6   7
ENDBRANCH   5   6
ENDBRANCH   4   5
ENDBRANCH   3   4
ENDBRANCH   2   3
ENDBRANCH   1   2
BRANCH   1  11
ATOM     11  C   UNL     1      56.756  26.598  52.851  1.00  0.00     0.000 C 
BRANCH  11  12
ATOM     12  C   UNL     1      55.492  26.110  52.127  1.00  0.00    -0.000 C 
BRANCH  12  13
ATOM     13  C   UNL     1      55.613  26.319  50.610  1.00  0.00    -0.000 C 
BRANCH  13  14
ATOM     14  C   UNL     1      54.250  26.203  49.895  1.00  0.00    -0.000 C 
BRANCH  14  15
ATOM     15  C   UNL     1      53.285  27.359  50.213  1.00  0.00    -0.000 C 
BRANCH  15  16
ATOM     16  C   UNL     1      53.998  28.716  50.328  1.00  0.00    -0.000 C 
BRANCH  16  17
ATOM     17  C   UNL     1      53.245  29.703  51.232  1.00  0.00    -0.003 C 
ATOM     18  C   UNL     1      54.181  30.582  52.062  1.00  0.00     0.004 C 
ENDBRANCH  16  17
ENDBRANCH  15  16
ENDBRANCH  14  15
ENDBRANCH  13  14
ENDBRANCH  12  13
ENDBRANCH  11  12
ENDBRANCH   1  11
TORSDOF 14
ENDMDL
MODEL 2
REMARK VINA RESULT:    -3.177      2.404      5.155
REMARK INTER + INTRA:          -7.981
REMARK INTER:                  -5.511
REMARK INTRA:                  -2.470
REMARK UNBOUND:                -2.203
REMARK SMILES CCCCCCCCCCCCCCCC(=O)[O-]
REMARK SMILES IDX 9 1 10 2 11 3 12 4 13 5 14 6 15 7 16 8 17 9 18 10 8 11 7 12
REMARK SMILES IDX 6 13 5 14 4 15 3 16 2 17 1 18
REMARK H PARENT
REMARK Flexibility Score: inf
ROOT
ATOM      1  C   UNL     1      57.313  25.894  51.587  1.00  0.00     0.000 C 
ENDROOT
BRANCH   1   2
ATOM      2  C   UNL     1      56.556  26.638  50.469  1.00  0.00     0.000 C 
BRANCH   2   3
ATOM      3  C   UNL     1      55.052  26.313  50.366  1.00  0.00     0.000 C 
BRANCH   3   4
ATOM      4  C   UNL     1      54.122  27.539  50.353  1.00  0.00     0.000 C 
BRANCH   4   5
ATOM      5  C   UNL     1      54.872  28.860  50.579  1.00  0.00     0.000 C 
BRANCH   5   6
ATOM      6  C   UNL     1      54.186  29.702  51.663  1.00  0.00     0.006 C 
BRANCH   6   7
ATOM      7  C   UNL     1      53.568  28.810  52.743  1.00  0.00     0.053 C 
BRANCH   7   8
ATOM      8  C   UNL     1      54.518  28.639  53.886  1.00  0.00     0.041 C 
ATOM      9  O   UNL     1      55.302  27.655  53.918  1.00  0.00    -0.550 OA
ATOM     10  O   UNL     1      54.573  29.596  54.892  1.00  0.00    -0.550 OA
ENDBRANCH   7   8
ENDBRANCH   6   7
ENDBRANCH   5   6
ENDBRANCH   4   5
ENDBRANCH   3   4
ENDBRANCH   2   3
ENDBRANCH   1   2
BRANCH   1  11
ATOM     11  C   UNL     1      58.823  26.182  51.652  1.00  0.00     0.000 C 
BRANCH  11  12
ATOM     12  C   UNL     1      59.451  26.392  50.266  1.00  0.00    -0.000 C 
BRANCH  12  13
ATOM     13  C   UNL     1      60.155  27.755  50.182  1.00  0.00    -0.000 C 
BRANCH  13  14
ATOM     14  C   UNL     1      59.414  28.738  49.253  1.00  0.00    -0.000 C 
BRANCH  14  15
ATOM     15  C   UNL     1      58.467  29.697  49.995  1.00  0.00    -0.000 C 
BRANCH  15  16
ATOM     16  C   UNL     1      58.936  30.008  51.426  1.00  0.00    -0.000 C 
BRANCH  16  17
ATOM     17  C   UNL     1      57.860  29.704  52.479  1.00  0.00    -0.003 C 
ATOM     18  C   UNL     1      57.451  30.937  53.284  1.00  0.00     0.004 C 
ENDBRANCH  16  17
ENDBRANCH  15  16
ENDBRANCH  14  15
ENDBRANCH  13  14
ENDBRANCH  12  13
ENDBRANCH  11  12
ENDBRANCH   1  11
TORSDOF 14
ENDMDL
MODEL 3
REMARK VINA RESULT:    -3.120      2.833      5.685
REMARK INTER + INTRA:          -7.876
REMARK INTER:                  -5.162
REMARK INTRA:                  -2.714
REMARK UNBOUND:                -2.203
REMARK SMILES CCCCCCCCCCCCCCCC(=O)[O-]
REMARK SMILES IDX 9 1 10 2 11 3 12 4 13 5 14 6 15 7 16 8 17 9 18 10 8 11 7 12
REMARK SMILES IDX 6 13 5 14 4 15 3 16 2 17 1 18
REMARK H PARENT
REMARK Flexibility Score: inf
ROOT
ATOM      1  C   UNL     1      57.757  27.178  53.471  1.00  0.00     0.000 C 
ENDROOT
BRANCH   1   2
ATOM      2  C   UNL     1      56.253  27.396  53.726  1.00  0.00     0.000 C 
BRANCH   2   3
ATOM      3  C   UNL     1      55.309  26.575  52.826  1.00  0.00     0.000 C 
BRANCH   3   4
ATOM      4  C   UNL     1      55.887  26.200  51.449  1.00  0.00     0.000 C 
BRANCH   4   5
ATOM      5  C   UNL     1      55.547  27.227  50.360  1.00  0.00     0.000 C 
BRANCH   5   6
ATOM      6  C   UNL     1      54.222  27.937  50.668  1.00  0.00     0.006 C 
BRANCH   6   7
ATOM      7  C   UNL     1      54.408  29.456  50.701  1.00  0.00     0.053 C 
BRANCH   7   8
ATOM      8  C   UNL     1      54.003  30.003  52.034  1.00  0.00     0.041 C 
ATOM      9  O   UNL     1      53.129  29.415  52.723  1.00  0.00    -0.550 OA
ATOM     10  O   UNL     1      54.629  31.137  52.538  1.00  0.00    -0.550 OA
ENDBRANCH   7   8
ENDBRANCH   6   7
ENDBRANCH   5   6
ENDBRANCH   4   5
ENDBRANCH   3   4
ENDBRANCH   2   3
ENDBRANCH   1   2
BRANCH   1  11
ATOM     11  C   UNL     1      58.567  28.463  53.219  1.00  0.00     0.000 C 
BRANCH  11  12
ATOM     12  C   UNL     1      57.798  29.498  52.384  1.00  0.00    -0.000 C 
BRANCH  12  13
ATOM     13  C   UNL     1      58.669  30.039  51.241  1.00  0.00    -0.000 C 
BRANCH  13  14
ATOM     14  C   UNL     1      58.406  29.304  49.910  1.00  0.00    -0.000 C 
BRANCH  14  15
ATOM     15  C   UNL     1      59.542  28.353  49.494  1.00  0.00    -0.000 C 
BRANCH  15  16
ATOM     16  C   UNL     1      59.250  26.886  49.850  1.00  0.00    -0.000 C 
BRANCH  16  17
ATOM     17  C   UNL     1      60.431  26.205  50.559  1.00  0.00    -0.003 C 
ATOM     18  C   UNL     1      61.457  27.203  51.095  1.00  0.00     0.004 C 
ENDBRANCH  16  17
ENDBRANCH  15  16
ENDBRANCH  14  15
ENDBRANCH  13  14
ENDBRANCH  12  13
ENDBRANCH  11  12
ENDBRANCH   1  11
TORSDOF 14
ENDMDL
MODEL 4
REMARK VINA RESULT:    -3.085      1.308      2.149
REMARK INTER + INTRA:          -7.813
REMARK INTER:                  -5.609
REMARK INTRA:                  -2.204
REMARK UNBOUND:                -2.203
REMARK SMILES CCCCCCCCCCCCCCCC(=O)[O-]
REMARK SMILES IDX 9 1 10 2 11 3 12 4 13 5 14 6 15 7 16 8 17 9 18 10 8 11 7 12
REMARK SMILES IDX 6 13 5 14 4 15 3 16 2 17 1 18
REMARK H PARENT
REMARK Flexibility Score: inf
ROOT
ATOM      1  C   UNL     1      57.771  29.339  52.453  1.00  0.00     0.000 C 
ENDROOT
BRANCH   1   2
ATOM      2  C   UNL     1      58.788  29.988  51.493  1.00  0.00     0.000 C 
BRANCH   2   3
ATOM      3  C   UNL     1      58.555  29.699  49.997  1.00  0.00     0.000 C 
BRANCH   3   4
ATOM      4  C   UNL     1      58.898  28.266  49.551  1.00  0.00     0.000 C 
BRANCH   4   5
ATOM      5  C   UNL     1      60.254  27.784  50.084  1.00  0.00     0.000 C 
BRANCH   5   6
ATOM      6  C   UNL     1      60.297  26.252  50.172  1.00  0.00     0.006 C 
BRANCH   6   7
ATOM      7  C   UNL     1      61.653  25.770  50.695  1.00  0.00     0.053 C 
BRANCH   7   8
ATOM      8  C   UNL     1      61.712  24.275  50.691  1.00  0.00     0.041 C 
ATOM      9  O   UNL     1      60.887  23.608  50.012  1.00  0.00    -0.550 OA
ATOM     10  O   UNL     1      62.712  23.617  51.397  1.00  0.00    -0.550 OA
ENDBRANCH   7   8
ENDBRANCH   6   7
ENDBRANCH   5   6
ENDBRANCH   4   5
ENDBRANCH   3   4
ENDBRANCH   2   3
ENDBRANCH   1   2
BRANCH   1  11
ATOM     11  C   UNL     1      58.302  28.127  53.239  1.00  0.00     0.000 C 
BRANCH  11  12
ATOM     12  C   UNL     1      57.241  27.035  53.439  1.00  0.00    -0.000 C 
BRANCH  12  13
ATOM     13  C   UNL     1      57.097  26.170  52.178  1.00  0.00    -0.000 C 
BRANCH  13  14
ATOM     14  C   UNL     1      55.665  26.209  51.605  1.00  0.00    -0.000 C 
BRANCH  14  15
ATOM     15  C   UNL     1      55.515  27.128  50.379  1.00  0.00    -0.000 C 
BRANCH  15  16
ATOM     16  C   UNL     1      54.210  27.940  50.401  1.00  0.00    -0.000 C 
BRANCH  16  17
ATOM     17  C   UNL     1      54.446  29.427  50.709  1.00  0.00    -0.003 C 
ATOM     18  C   UNL     1      54.216  29.774  52.179  1.00  0.00     0.004 C 
ENDBRANCH  16  17
ENDBRANCH  15  16
ENDBRANCH  14  15
ENDBRANCH  13  14
ENDBRANCH  12  13
ENDBRANCH  11  12
ENDBRANCH   1  11
TORSDOF 14
ENDMDL
MODEL 5
REMARK VINA RESULT:    -3.045      1.129      2.093
REMARK INTER + INTRA:          -7.741
REMARK INTER:                  -5.989
REMARK INTRA:                  -1.752
REMARK UNBOUND:                -2.203
REMARK SMILES CCCCCCCCCCCCCCCC(=O)[O-]
REMARK SMILES IDX 9 1 10 2 11 3 12 4 13 5 14 6 15 7 16 8 17 9 18 10 8 11 7 12
REMARK SMILES IDX 6 13 5 14 4 15 3 16 2 17 1 18
REMARK H PARENT
REMARK Flexibility Score: inf
ROOT
ATOM      1  C   UNL     1      56.927  26.619  50.959  1.00  0.00     0.000 C 
ENDROOT
BRANCH   1   2
ATOM      2  C   UNL     1      57.520  27.928  51.517  1.00  0.00     0.000 C 
BRANCH   2   3
ATOM      3  C   UNL     1      57.525  29.117  50.536  1.00  0.00     0.000 C 
BRANCH   3   4
ATOM      4  C   UNL     1      58.753  29.191  49.612  1.00  0.00     0.000 C 
BRANCH   4   5
ATOM      5  C   UNL     1      59.913  29.989  50.222  1.00  0.00     0.000 C 
BRANCH   5   6
ATOM      6  C   UNL     1      61.030  29.054  50.704  1.00  0.00     0.006 C 
BRANCH   6   7
ATOM      7  C   UNL     1      60.987  27.717  49.959  1.00  0.00     0.053 C 
BRANCH   7   8
ATOM      8  C   UNL     1      60.991  26.578  50.929  1.00  0.00     0.041 C 
ATOM      9  O   UNL     1      60.835  26.791  52.160  1.00  0.00    -0.550 OA
ATOM     10  O   UNL     1      61.115  25.273  50.467  1.00  0.00    -0.550 OA
ENDBRANCH   7   8
ENDBRANCH   6   7
ENDBRANCH   5   6
ENDBRANCH   4   5
ENDBRANCH   3   4
ENDBRANCH   2   3
ENDBRANCH   1   2
BRANCH   1  11
ATOM     11  C   UNL     1      55.444  26.382  51.294  1.00  0.00     0.000 C 
BRANCH  11  12
ATOM     12  C   UNL     1      54.562  26.257  50.043  1.00  0.00    -0.000 C 
BRANCH  12  13
ATOM     13  C   UNL     1      53.446  27.311  50.049  1.00  0.00    -0.000 C 
BRANCH  13  14
ATOM     14  C   UNL     1      53.980  28.725  50.362  1.00  0.00    -0.000 C 
BRANCH  14  15
ATOM     15  C   UNL     1      52.876  29.746  50.687  1.00  0.00    -0.000 C 
BRANCH  15  16
ATOM     16  C   UNL     1      53.242  30.665  51.864  1.00  0.00    -0.000 C 
BRANCH  16  17
ATOM     17  C   UNL     1      54.661  30.406  52.394  1.00  0.00    -0.003 C 
ATOM     18  C   UNL     1      54.669  29.800  53.797  1.00  0.00     0.004 C 
ENDBRANCH  16  17
ENDBRANCH  15  16
ENDBRANCH  14  15
ENDBRANCH  13  14
ENDBRANCH  12  13
ENDBRANCH  11  12
ENDBRANCH   1  11
TORSDOF 14
ENDMDL
MODEL 6
REMARK VINA RESULT:    -3.041      4.179      6.398
REMARK INTER + INTRA:          -7.732
REMARK INTER:                  -6.545
REMARK INTRA:                  -1.187
REMARK UNBOUND:                -2.203
REMARK SMILES CCCCCCCCCCCCCCCC(=O)[O-]
REMARK SMILES IDX 9 1 10 2 11 3 12 4 13 5 14 6 15 7 16 8 17 9 18 10 8 11 7 12
REMARK SMILES IDX 6 13 5 14 4 15 3 16 2 17 1 18
REMARK H PARENT
REMARK Flexibility Score: inf
ROOT
ATOM      1  C   UNL     1      60.125  25.182  50.995  1.00  0.00     0.000 C 
ENDROOT
BRANCH   1   2
ATOM      2  C   UNL     1      61.362  24.428  50.469  1.00  0.00     0.000 C 
BRANCH   2   3
ATOM      3  C   UNL     1      61.272  22.891  50.538  1.00  0.00     0.000 C 
BRANCH   3   4
ATOM      4  C   UNL     1      60.987  22.196  49.194  1.00  0.00     0.000 C 
BRANCH   4   5
ATOM      5  C   UNL     1      59.945  21.075  49.311  1.00  0.00     0.000 C 
BRANCH   5   6
ATOM      6  C   UNL     1      59.830  20.581  50.760  1.00  0.00     0.006 C 
BRANCH   6   7
ATOM      7  C   UNL     1      59.805  19.052  50.819  1.00  0.00     0.053 C 
BRANCH   7   8
ATOM      8  C   UNL     1      58.640  18.518  50.045  1.00  0.00     0.041 C 
ATOM      9  O   UNL     1      57.463  18.781  50.407  1.00  0.00    -0.550 OA
ATOM     10  O   UNL     1      58.855  17.772  48.893  1.00  0.00    -0.550 OA
ENDBRANCH   7   8
ENDBRANCH   6   7
ENDBRANCH   5   6
ENDBRANCH   4   5
ENDBRANCH   3   4
ENDBRANCH   2   3
ENDBRANCH   1   2
BRANCH   1  11
ATOM     11  C   UNL     1      59.557  26.246  50.039  1.00  0.00     0.000 C 
BRANCH  11  12
ATOM     12  C   UNL     1      60.017  27.669  50.390  1.00  0.00    -0.000 C 
BRANCH  12  13
ATOM     13  C   UNL     1      59.504  28.684  49.358  1.00  0.00    -0.000 C 
BRANCH  13  14
ATOM     14  C   UNL     1      58.390  29.585  49.931  1.00  0.00    -0.000 C 
BRANCH  14  15
ATOM     15  C   UNL     1      58.229  29.475  51.457  1.00  0.00    -0.000 C 
BRANCH  15  16
ATOM     16  C   UNL     1      56.831  28.990  51.875  1.00  0.00    -0.000 C 
BRANCH  16  17
ATOM     17  C   UNL     1      55.992  28.510  50.680  1.00  0.00    -0.003 C 
ATOM     18  C   UNL     1      55.867  26.989  50.614  1.00  0.00     0.004 C 
ENDBRANCH  16  17
ENDBRANCH  15  16
ENDBRANCH  14  15
ENDBRANCH  13  14
ENDBRANCH  12  13
ENDBRANCH  11  12
ENDBRANCH   1  11
TORSDOF 14
ENDMDL
MODEL 7
REMARK VINA RESULT:    -3.035      1.348      3.135
REMARK INTER + INTRA:          -7.721
REMARK INTER:                  -5.928
REMARK INTRA:                  -1.793
REMARK UNBOUND:                -2.203
REMARK SMILES CCCCCCCCCCCCCCCC(=O)[O-]
REMARK SMILES IDX 9 1 10 2 11 3 12 4 13 5 14 6 15 7 16 8 17 9 18 10 8 11 7 12
REMARK SMILES IDX 6 13 5 14 4 15 3 16 2 17 1 18
REMARK H PARENT
REMARK Flexibility Score: inf
ROOT
ATOM      1  C   UNL     1      58.729  29.907  51.748  1.00  0.00     0.000 C 
ENDROOT
BRANCH   1   2
ATOM      2  C   UNL     1      58.181  29.677  50.325  1.00  0.00     0.000 C 
BRANCH   2   3
ATOM      3  C   UNL     1      59.077  28.820  49.408  1.00  0.00     0.000 C 
BRANCH   3   4
ATOM      4  C   UNL     1      59.105  27.319  49.746  1.00  0.00     0.000 C 
BRANCH   4   5
ATOM      5  C   UNL     1      60.460  26.857  50.301  1.00  0.00     0.000 C 
BRANCH   5   6
ATOM      6  C   UNL     1      60.289  26.162  51.658  1.00  0.00     0.006 C 
BRANCH   6   7
ATOM      7  C   UNL     1      59.314  24.986  51.554  1.00  0.00     0.053 C 
BRANCH   7   8
ATOM      8  C   UNL     1      60.062  23.697  51.415  1.00  0.00     0.041 C 
ATOM      9  O   UNL     1      60.190  22.928  52.403  1.00  0.00    -0.550 OA
ATOM     10  O   UNL     1      60.574  23.322  50.179  1.00  0.00    -0.550 OA
ENDBRANCH   7   8
ENDBRANCH   6   7
ENDBRANCH   5   6
ENDBRANCH   4   5
ENDBRANCH   3   4
ENDBRANCH   2   3
ENDBRANCH   1   2
BRANCH   1  11
ATOM     11  C   UNL     1      57.863  29.323  52.879  1.00  0.00     0.000 C 
BRANCH  11  12
ATOM     12  C   UNL     1      56.476  28.873  52.397  1.00  0.00    -0.000 C 
BRANCH  12  13
ATOM     13  C   UNL     1      55.423  29.959  52.662  1.00  0.00    -0.000 C 
BRANCH  13  14
ATOM     14  C   UNL     1      54.311  29.966  51.593  1.00  0.00    -0.000 C 
BRANCH  14  15
ATOM     15  C   UNL     1      54.537  28.951  50.458  1.00  0.00    -0.000 C 
BRANCH  15  16
ATOM     16  C   UNL     1      53.397  27.926  50.341  1.00  0.00    -0.000 C 
BRANCH  16  17
ATOM     17  C   UNL     1      53.904  26.520  49.986  1.00  0.00    -0.003 C 
ATOM     18  C   UNL     1      55.409  26.358  50.201  1.00  0.00     0.004 C 
ENDBRANCH  16  17
ENDBRANCH  15  16
ENDBRANCH  14  15
ENDBRANCH  13  14
ENDBRANCH  12  13
ENDBRANCH  11  12
ENDBRANCH   1  11
TORSDOF 14
ENDMDL
MODEL 8
REMARK VINA RESULT:    -3.014      9.577     12.074
REMARK INTER + INTRA:          -7.683
REMARK INTER:                  -5.899
REMARK INTRA:                  -1.784
REMARK UNBOUND:                -2.203
REMARK SMILES CCCCCCCCCCCCCCCC(=O)[O-]
REMARK SMILES IDX 9 1 10 2 11 3 12 4 13 5 14 6 15 7 16 8 17 9 18 10 8 11 7 12
REMARK SMILES IDX 6 13 5 14 4 15 3 16 2 17 1 18
REMARK H PARENT
REMARK Flexibility Score: inf
ROOT
ATOM      1  C   UNL     1      60.296  29.812  58.493  1.00  0.00     0.000 C 
ENDROOT
BRANCH   1   2
ATOM      2  C   UNL     1      59.929  29.981  59.980  1.00  0.00     0.000 C 
BRANCH   2   3
ATOM      3  C   UNL     1      59.960  28.686  60.815  1.00  0.00     0.000 C 
BRANCH   3   4
ATOM      4  C   UNL     1      61.345  28.300  61.365  1.00  0.00     0.000 C 
BRANCH   4   5
ATOM      5  C   UNL     1      62.255  29.515  61.595  1.00  0.00     0.000 C 
BRANCH   5   6
ATOM      6  C   UNL     1      63.704  29.198  61.202  1.00  0.00     0.006 C 
BRANCH   6   7
ATOM      7  C   UNL     1      63.753  28.274  59.982  1.00  0.00     0.053 C 
BRANCH   7   8
ATOM      8  C   UNL     1      64.728  27.162  60.208  1.00  0.00     0.041 C 
ATOM      9  O   UNL     1      64.354  25.963  60.127  1.00  0.00    -0.550 OA
ATOM     10  O   UNL     1      66.064  27.451  60.457  1.00  0.00    -0.550 OA
ENDBRANCH   7   8
ENDBRANCH   6   7
ENDBRANCH   5   6
ENDBRANCH   4   5
ENDBRANCH   3   4
ENDBRANCH   2   3
ENDBRANCH   1   2
BRANCH   1  11
ATOM     11  C   UNL     1      61.314  30.833  57.954  1.00  0.00     0.000 C 
BRANCH  11  12
ATOM     12  C   UNL     1      61.648  31.935  58.970  1.00  0.00    -0.000 C 
BRANCH  12  13
ATOM     13  C   UNL     1      63.163  32.175  59.044  1.00  0.00    -0.000 C 
BRANCH  13  14
ATOM     14  C   UNL     1      63.588  32.811  60.383  1.00  0.00    -0.000 C 
BRANCH  14  15
ATOM     15  C   UNL     1      63.272  34.313  60.483  1.00  0.00    -0.000 C 
BRANCH  15  16
ATOM     16  C   UNL     1      63.752  34.936  61.804  1.00  0.00    -0.000 C 
BRANCH  16  17
ATOM     17  C   UNL     1      62.992  36.224  62.159  1.00  0.00    -0.003 C 
ATOM     18  C   UNL     1      61.670  36.361  61.406  1.00  0.00     0.004 C 
ENDBRANCH  16  17
ENDBRANCH  15  16
ENDBRANCH  14  15
ENDBRANCH  13  14
ENDBRANCH  12  13
ENDBRANCH  11  12
ENDBRANCH   1  11
TORSDOF 14
ENDMDL
MODEL 9
REMARK VINA RESULT:    -2.955      3.436      6.521
REMARK INTER + INTRA:          -7.576
REMARK INTER:                  -5.551
REMARK INTRA:                  -2.025
REMARK UNBOUND:                -2.203
REMARK SMILES CCCCCCCCCCCCCCCC(=O)[O-]
REMARK SMILES IDX 9 1 10 2 11 3 12 4 13 5 14 6 15 7 16 8 17 9 18 10 8 11 7 12
REMARK SMILES IDX 6 13 5 14 4 15 3 16 2 17 1 18
REMARK H PARENT
REMARK Flexibility Score: inf
ROOT
ATOM      1  C   UNL     1      56.166  27.073  50.672  1.00  0.00     0.000 C 
ENDROOT
BRANCH   1   2
ATOM      2  C   UNL     1      54.665  27.090  51.023  1.00  0.00     0.000 C 
BRANCH   2   3
ATOM      3  C   UNL     1      53.817  28.105  50.231  1.00  0.00     0.000 C 
BRANCH   3   4
ATOM      4  C   UNL     1      53.925  29.561  50.718  1.00  0.00     0.000 C 
BRANCH   4   5
ATOM      5  C   UNL     1      53.915  29.681  52.249  1.00  0.00     0.000 C 
BRANCH   5   6
ATOM      6  C   UNL     1      54.819  30.829  52.716  1.00  0.00     0.006 C 
BRANCH   6   7
ATOM      7  C   UNL     1      54.031  32.136  52.833  1.00  0.00     0.053 C 
BRANCH   7   8
ATOM      8  C   UNL     1      54.830  33.164  53.571  1.00  0.00     0.041 C 
ATOM      9  O   UNL     1      55.234  34.199  52.979  1.00  0.00    -0.550 OA
ATOM     10  O   UNL     1      55.084  33.003  54.927  1.00  0.00    -0.550 OA
ENDBRANCH   7   8
ENDBRANCH   6   7
ENDBRANCH   5   6
ENDBRANCH   4   5
ENDBRANCH   3   4
ENDBRANCH   2   3
ENDBRANCH   1   2
BRANCH   1  11
ATOM     11  C   UNL     1      57.111  27.397  51.843  1.00  0.00     0.000 C 
BRANCH  11  12
ATOM     12  C   UNL     1      57.759  28.784  51.721  1.00  0.00    -0.000 C 
BRANCH  12  13
ATOM     13  C   UNL     1      57.524  29.380  50.326  1.00  0.00    -0.000 C 
BRANCH  13  14
ATOM     14  C   UNL     1      58.807  29.383  49.469  1.00  0.00    -0.000 C 
BRANCH  14  15
ATOM     15  C   UNL     1      60.103  29.306  50.295  1.00  0.00    -0.000 C 
BRANCH  15  16
ATOM     16  C   UNL     1      61.016  28.146  49.863  1.00  0.00    -0.000 C 
BRANCH  16  17
ATOM     17  C   UNL     1      60.913  26.934  50.801  1.00  0.00    -0.003 C 
ATOM     18  C   UNL     1      60.011  25.831  50.250  1.00  0.00     0.004 C 
ENDBRANCH  16  17
ENDBRANCH  15  16
ENDBRANCH  14  15
ENDBRANCH  13  14
ENDBRANCH  12  13
ENDBRANCH  11  12
ENDBRANCH   1  11
TORSDOF 14
ENDMDL
