MODEL 1
REMARK VINA RESULT:    -6.727      0.000      0.000
REMARK INTER + INTRA:          -8.159
REMARK INTER:                  -7.907
REMARK INTRA:                  -0.252
REMARK UNBOUND:                -0.252
REMARK SMILES O=c1c(O)c(-c2ccc(O)c(O)c2)oc2cc(O)ccc12
REMARK SMILES IDX 5 1 3 2 2 3 1 4 21 5 15 6 14 7 16 8 17 9 19 10 20 11 6 12
REMARK SMILES IDX 7 13 8 14 9 15 13 16 11 17 10 18 12 20 4 22 18 24
REMARK H PARENT 10 19 12 21 4 23 18 25
REMARK Flexibility Score: inf
ROOT
ATOM      1  C   UNL     1     -15.683  14.833  -8.551  1.00  0.00     0.180 A 
ATOM      2  C   UNL     1     -15.036  16.040  -8.890  1.00  0.00     0.208 A 
ATOM      3  C   UNL     1     -14.259  16.686  -7.916  1.00  0.00     0.235 A 
ATOM      4  O   UNL     1     -13.680  17.773  -8.192  1.00  0.00    -0.285 OA
ATOM      5  C   UNL     1     -14.128  16.111  -6.643  1.00  0.00     0.069 A 
ATOM      6  C   UNL     1     -14.789  14.889  -6.391  1.00  0.00     0.142 A 
ATOM      7  O   UNL     1     -15.522  14.313  -7.337  1.00  0.00    -0.452 OA
ATOM      8  C   UNL     1     -14.675  14.278  -5.137  1.00  0.00     0.094 A 
ATOM      9  C   UNL     1     -13.909  14.876  -4.127  1.00  0.00     0.119 A 
ATOM     10  C   UNL     1     -13.255  16.088  -4.375  1.00  0.00     0.047 A 
ATOM     11  C   UNL     1     -13.361  16.705  -5.624  1.00  0.00     0.020 A 
ENDROOT
BRANCH   1  12
ATOM     12  C   UNL     1     -16.535  14.100  -9.517  1.00  0.00     0.025 A 
ATOM     13  C   UNL     1     -17.802  14.582  -9.888  1.00  0.00     0.016 A 
ATOM     14  C   UNL     1     -18.598  13.861 -10.783  1.00  0.00     0.051 A 
ATOM     15  C   UNL     1     -18.147  12.643 -11.307  1.00  0.00     0.157 A 
ATOM     16  C   UNL     1     -16.096  12.868 -10.028  1.00  0.00     0.062 A 
ATOM     17  C   UNL     1     -16.891  12.143 -10.925  1.00  0.00     0.158 A 
BRANCH  15  18
ATOM     18  O   UNL     1     -18.942  11.927 -12.200  1.00  0.00    -0.504 OA
ATOM     19  H   UNL     1     -19.495  12.393 -12.910  1.00  0.00     0.293 HD
ENDBRANCH  15  18
BRANCH  17  20
ATOM     20  O   UNL     1     -16.415  10.931 -11.423  1.00  0.00    -0.504 OA
ATOM     21  H   UNL     1     -17.038  10.173 -11.678  1.00  0.00     0.293 HD
ENDBRANCH  17  20
ENDBRANCH   1  12
BRANCH   2  22
ATOM     22  O   UNL     1     -15.144  16.563 -10.181  1.00  0.00    -0.502 OA
ATOM     23  H   UNL     1     -14.431  16.420 -10.885  1.00  0.00     0.293 HD
ENDBRANCH   2  22
BRANCH   9  24
ATOM     24  O   UNL     1     -13.790  14.275  -2.876  1.00  0.00    -0.508 OA
ATOM     25  H   UNL     1     -13.775  14.824  -2.024  1.00  0.00     0.293 HD
ENDBRANCH   9  24
TORSDOF 5
ENDMDL
MODEL 2
REMARK VINA RESULT:    -6.377      1.888      1.898
REMARK INTER + INTRA:          -7.747
REMARK INTER:                  -7.739
REMARK INTRA:                  -0.009
REMARK UNBOUND:                -0.252
REMARK SMILES O=c1c(O)c(-c2ccc(O)c(O)c2)oc2cc(O)ccc12
REMARK SMILES IDX 5 1 3 2 2 3 1 4 21 5 15 6 14 7 16 8 17 9 19 10 20 11 6 12
REMARK SMILES IDX 7 13 8 14 9 15 13 16 11 17 10 18 12 20 4 22 18 24
REMARK H PARENT 10 19 12 21 4 23 18 25
REMARK Flexibility Score: inf
ROOT
ATOM      1  C   UNL     1     -16.403  14.960  -8.308  1.00  0.00     0.180 A 
ATOM      2  C   UNL     1     -15.115  15.511  -8.476  1.00  0.00     0.208 A 
ATOM      3  C   UNL     1     -14.594  16.331  -7.463  1.00  0.00     0.235 A 
ATOM      4  O   UNL     1     -13.449  16.844  -7.594  1.00  0.00    -0.285 OA
ATOM      5  C   UNL     1     -15.352  16.565  -6.306  1.00  0.00     0.069 A 
ATOM      6  C   UNL     1     -16.622  15.957  -6.204  1.00  0.00     0.142 A 
ATOM      7  O   UNL     1     -17.083  15.194  -7.189  1.00  0.00    -0.452 OA
ATOM      8  C   UNL     1     -17.405  16.158  -5.062  1.00  0.00     0.094 A 
ATOM      9  C   UNL     1     -16.934  16.963  -4.016  1.00  0.00     0.119 A 
ATOM     10  C   UNL     1     -15.676  17.568  -4.116  1.00  0.00     0.047 A 
ATOM     11  C   UNL     1     -14.887  17.372  -5.252  1.00  0.00     0.020 A 
ENDROOT
BRANCH   1  12
ATOM     12  C   UNL     1     -17.030  14.100  -9.339  1.00  0.00     0.025 A 
ATOM     13  C   UNL     1     -18.321  14.366  -9.828  1.00  0.00     0.016 A 
ATOM     14  C   UNL     1     -18.901  13.527 -10.783  1.00  0.00     0.051 A 
ATOM     15  C   UNL     1     -18.208  12.403 -11.252  1.00  0.00     0.157 A 
ATOM     16  C   UNL     1     -16.347  12.960  -9.796  1.00  0.00     0.062 A 
ATOM     17  C   UNL     1     -16.927  12.118 -10.753  1.00  0.00     0.158 A 
BRANCH  15  18
ATOM     18  O   UNL     1     -18.790  11.569 -12.205  1.00  0.00    -0.504 OA
ATOM     19  H   UNL     1     -18.354  10.698 -12.485  1.00  0.00     0.293 HD
ENDBRANCH  15  18
BRANCH  17  20
ATOM     20  O   UNL     1     -16.213  11.004 -11.193  1.00  0.00    -0.504 OA
ATOM     21  H   UNL     1     -15.713  11.000 -12.075  1.00  0.00     0.293 HD
ENDBRANCH  17  20
ENDBRANCH   1  12
BRANCH   2  22
ATOM     22  O   UNL     1     -14.363  15.220  -9.617  1.00  0.00    -0.502 OA
ATOM     23  H   UNL     1     -14.342  14.296 -10.030  1.00  0.00     0.293 HD
ENDBRANCH   2  22
BRANCH   9  24
ATOM     24  O   UNL     1     -17.706  17.169  -2.875  1.00  0.00    -0.508 OA
ATOM     25  H   UNL     1     -18.063  16.393  -2.329  1.00  0.00     0.293 HD
ENDBRANCH   9  24
TORSDOF 5
ENDMDL
MODEL 3
REMARK VINA RESULT:    -6.337      2.257      7.076
REMARK INTER + INTRA:          -7.701
REMARK INTER:                  -7.398
REMARK INTRA:                  -0.303
REMARK UNBOUND:                -0.252
REMARK SMILES O=c1c(O)c(-c2ccc(O)c(O)c2)oc2cc(O)ccc12
REMARK SMILES IDX 5 1 3 2 2 3 1 4 21 5 15 6 14 7 16 8 17 9 19 10 20 11 6 12
REMARK SMILES IDX 7 13 8 14 9 15 13 16 11 17 10 18 12 20 4 22 18 24
REMARK H PARENT 10 19 12 21 4 23 18 25
REMARK Flexibility Score: inf
ROOT
ATOM      1  C   UNL     1     -16.261  14.415  -6.874  1.00  0.00     0.180 A 
ATOM      2  C   UNL     1     -17.531  13.830  -6.686  1.00  0.00     0.208 A 
ATOM      3  C   UNL     1     -18.044  12.994  -7.689  1.00  0.00     0.235 A 
ATOM      4  O   UNL     1     -19.182  12.467  -7.549  1.00  0.00    -0.285 OA
ATOM      5  C   UNL     1     -17.279  12.744  -8.838  1.00  0.00     0.069 A 
ATOM      6  C   UNL     1     -16.008  13.349  -8.940  1.00  0.00     0.142 A 
ATOM      7  O   UNL     1     -15.561  14.141  -7.972  1.00  0.00    -0.452 OA
ATOM      8  C   UNL     1     -15.211  13.117 -10.066  1.00  0.00     0.094 A 
ATOM      9  C   UNL     1     -15.669  12.286 -11.097  1.00  0.00     0.119 A 
ATOM     10  C   UNL     1     -16.930  11.688 -11.000  1.00  0.00     0.047 A 
ATOM     11  C   UNL     1     -17.734  11.912  -9.879  1.00  0.00     0.020 A 
ENDROOT
BRANCH   1  12
ATOM     12  C   UNL     1     -15.658  15.323  -5.870  1.00  0.00     0.025 A 
ATOM     13  C   UNL     1     -14.761  14.847  -4.898  1.00  0.00     0.016 A 
ATOM     14  C   UNL     1     -14.223  15.718  -3.947  1.00  0.00     0.051 A 
ATOM     15  C   UNL     1     -14.584  17.072  -3.943  1.00  0.00     0.157 A 
ATOM     16  C   UNL     1     -16.034  16.676  -5.849  1.00  0.00     0.062 A 
ATOM     17  C   UNL     1     -15.496  17.551  -4.897  1.00  0.00     0.158 A 
BRANCH  15  18
ATOM     18  O   UNL     1     -14.045  17.938  -2.993  1.00  0.00    -0.504 OA
ATOM     19  H   UNL     1     -14.578  18.241  -2.187  1.00  0.00     0.293 HD
ENDBRANCH  15  18
BRANCH  17  20
ATOM     20  O   UNL     1     -15.882  18.891  -4.917  1.00  0.00    -0.504 OA
ATOM     21  H   UNL     1     -15.206  19.645  -4.893  1.00  0.00     0.293 HD
ENDBRANCH  17  20
ENDBRANCH   1  12
BRANCH   2  22
ATOM     22  O   UNL     1     -18.248  14.057  -5.509  1.00  0.00    -0.502 OA
ATOM     23  H   UNL     1     -18.852  14.862  -5.389  1.00  0.00     0.293 HD
ENDBRANCH   2  22
BRANCH   9  24
ATOM     24  O   UNL     1     -14.882  12.050 -12.222  1.00  0.00    -0.508 OA
ATOM     25  H   UNL     1     -15.256  11.583 -13.041  1.00  0.00     0.293 HD
ENDBRANCH   9  24
TORSDOF 5
ENDMDL
MODEL 4
REMARK VINA RESULT:    -6.223      2.306      7.245
REMARK INTER + INTRA:          -7.566
REMARK INTER:                  -7.251
REMARK INTRA:                  -0.315
REMARK UNBOUND:                -0.252
REMARK SMILES O=c1c(O)c(-c2ccc(O)c(O)c2)oc2cc(O)ccc12
REMARK SMILES IDX 5 1 3 2 2 3 1 4 21 5 15 6 14 7 16 8 17 9 19 10 20 11 6 12
REMARK SMILES IDX 7 13 8 14 9 15 13 16 11 17 10 18 12 20 4 22 18 24
REMARK H PARENT 10 19 12 21 4 23 18 25
REMARK Flexibility Score: inf
ROOT
ATOM      1  C   UNL     1     -16.563  14.135  -7.241  1.00  0.00     0.180 A 
ATOM      2  C   UNL     1     -17.340  13.238  -6.478  1.00  0.00     0.208 A 
ATOM      3  C   UNL     1     -18.361  12.518  -7.118  1.00  0.00     0.235 A 
ATOM      4  O   UNL     1     -19.077  11.717  -6.455  1.00  0.00    -0.285 OA
ATOM      5  C   UNL     1     -18.571  12.690  -8.494  1.00  0.00     0.069 A 
ATOM      6  C   UNL     1     -17.734  13.589  -9.190  1.00  0.00     0.142 A 
ATOM      7  O   UNL     1     -16.784  14.258  -8.547  1.00  0.00    -0.452 OA
ATOM      8  C   UNL     1     -17.905  13.782 -10.565  1.00  0.00     0.094 A 
ATOM      9  C   UNL     1     -18.906  13.086 -11.257  1.00  0.00     0.119 A 
ATOM     10  C   UNL     1     -19.738  12.196 -10.568  1.00  0.00     0.047 A 
ATOM     11  C   UNL     1     -19.574  11.996  -9.195  1.00  0.00     0.020 A 
ENDROOT
BRANCH   1  12
ATOM     12  C   UNL     1     -15.479  14.944  -6.637  1.00  0.00     0.025 A 
ATOM     13  C   UNL     1     -14.153  14.476  -6.593  1.00  0.00     0.016 A 
ATOM     14  C   UNL     1     -13.152  15.247  -5.997  1.00  0.00     0.051 A 
ATOM     15  C   UNL     1     -13.461  16.487  -5.423  1.00  0.00     0.157 A 
ATOM     16  C   UNL     1     -15.788  16.178  -6.042  1.00  0.00     0.062 A 
ATOM     17  C   UNL     1     -14.786  16.952  -5.444  1.00  0.00     0.158 A 
BRANCH  15  18
ATOM     18  O   UNL     1     -12.459  17.254  -4.831  1.00  0.00    -0.504 OA
ATOM     19  H   UNL     1     -12.655  17.878  -4.058  1.00  0.00     0.293 HD
ENDBRANCH  15  18
BRANCH  17  20
ATOM     20  O   UNL     1     -15.128  18.179  -4.876  1.00  0.00    -0.504 OA
ATOM     21  H   UNL     1     -14.644  18.551  -4.067  1.00  0.00     0.293 HD
ENDBRANCH  17  20
ENDBRANCH   1  12
BRANCH   2  22
ATOM     22  O   UNL     1     -17.076  13.050  -5.120  1.00  0.00    -0.502 OA
ATOM     23  H   UNL     1     -16.466  13.665  -4.596  1.00  0.00     0.293 HD
ENDBRANCH   2  22
BRANCH   9  24
ATOM     24  O   UNL     1     -19.084  13.272 -12.626  1.00  0.00    -0.508 OA
ATOM     25  H   UNL     1     -19.336  14.176 -13.010  1.00  0.00     0.293 HD
ENDBRANCH   9  24
TORSDOF 5
ENDMDL
MODEL 5
REMARK VINA RESULT:    -6.143      1.840      3.038
REMARK INTER + INTRA:          -7.473
REMARK INTER:                  -7.157
REMARK INTRA:                  -0.316
REMARK UNBOUND:                -0.252
REMARK SMILES O=c1c(O)c(-c2ccc(O)c(O)c2)oc2cc(O)ccc12
REMARK SMILES IDX 5 1 3 2 2 3 1 4 21 5 15 6 14 7 16 8 17 9 19 10 20 11 6 12
REMARK SMILES IDX 7 13 8 14 9 15 13 16 11 17 10 18 12 20 4 22 18 24
REMARK H PARENT 10 19 12 21 4 23 18 25
REMARK Flexibility Score: inf
ROOT
ATOM      1  C   UNL     1     -16.988  13.894  -7.432  1.00  0.00     0.180 A 
ATOM      2  C   UNL     1     -17.506  13.339  -6.243  1.00  0.00     0.208 A 
ATOM      3  C   UNL     1     -16.900  13.675  -5.022  1.00  0.00     0.235 A 
ATOM      4  O   UNL     1     -17.338  13.183  -3.946  1.00  0.00    -0.285 OA
ATOM      5  C   UNL     1     -15.815  14.564  -5.011  1.00  0.00     0.069 A 
ATOM      6  C   UNL     1     -15.372  15.094  -6.242  1.00  0.00     0.142 A 
ATOM      7  O   UNL     1     -15.966  14.745  -7.377  1.00  0.00    -0.452 OA
ATOM      8  C   UNL     1     -14.298  15.990  -6.271  1.00  0.00     0.094 A 
ATOM      9  C   UNL     1     -13.658  16.365  -5.082  1.00  0.00     0.119 A 
ATOM     10  C   UNL     1     -14.094  15.839  -3.862  1.00  0.00     0.047 A 
ATOM     11  C   UNL     1     -15.166  14.944  -3.821  1.00  0.00     0.020 A 
ENDROOT
BRANCH   1  12
ATOM     12  C   UNL     1     -17.560  13.576  -8.762  1.00  0.00     0.025 A 
ATOM     13  C   UNL     1     -18.643  14.304  -9.286  1.00  0.00     0.016 A 
ATOM     14  C   UNL     1     -19.181  13.970 -10.532  1.00  0.00     0.051 A 
ATOM     15  C   UNL     1     -18.657  12.896 -11.264  1.00  0.00     0.157 A 
ATOM     16  C   UNL     1     -17.051  12.488  -9.489  1.00  0.00     0.062 A 
ATOM     17  C   UNL     1     -17.589  12.151 -10.738  1.00  0.00     0.158 A 
BRANCH  15  18
ATOM     18  O   UNL     1     -19.195  12.567 -12.507  1.00  0.00    -0.504 OA
ATOM     19  H   UNL     1     -19.586  13.273 -13.120  1.00  0.00     0.293 HD
ENDBRANCH  15  18
BRANCH  17  20
ATOM     20  O   UNL     1     -17.048  11.073 -11.438  1.00  0.00    -0.504 OA
ATOM     21  H   UNL     1     -17.135  10.987 -12.444  1.00  0.00     0.293 HD
ENDBRANCH  17  20
ENDBRANCH   1  12
BRANCH   2  22
ATOM     22  O   UNL     1     -18.619  12.496  -6.280  1.00  0.00    -0.502 OA
ATOM     23  H   UNL     1     -18.613  11.612  -6.774  1.00  0.00     0.293 HD
ENDBRANCH   2  22
BRANCH   9  24
ATOM     24  O   UNL     1     -12.588  17.257  -5.103  1.00  0.00    -0.508 OA
ATOM     25  H   UNL     1     -11.778  17.100  -5.692  1.00  0.00     0.293 HD
ENDBRANCH   9  24
TORSDOF 5
ENDMDL
MODEL 6
REMARK VINA RESULT:    -6.121      2.579      3.819
REMARK INTER + INTRA:          -7.446
REMARK INTER:                  -7.144
REMARK INTRA:                  -0.303
REMARK UNBOUND:                -0.252
REMARK SMILES O=c1c(O)c(-c2ccc(O)c(O)c2)oc2cc(O)ccc12
REMARK SMILES IDX 5 1 3 2 2 3 1 4 21 5 15 6 14 7 16 8 17 9 19 10 20 11 6 12
REMARK SMILES IDX 7 13 8 14 9 15 13 16 11 17 10 18 12 20 4 22 18 24
REMARK H PARENT 10 19 12 21 4 23 18 25
REMARK Flexibility Score: inf
ROOT
ATOM      1  C   UNL     1     -17.512  13.799  -8.007  1.00  0.00     0.180 A 
ATOM      2  C   UNL     1     -17.688  14.430  -6.757  1.00  0.00     0.208 A 
ATOM      3  C   UNL     1     -16.750  15.390  -6.347  1.00  0.00     0.235 A 
ATOM      4  O   UNL     1     -16.880  15.960  -5.229  1.00  0.00    -0.285 OA
ATOM      5  C   UNL     1     -15.677  15.712  -7.192  1.00  0.00     0.069 A 
ATOM      6  C   UNL     1     -15.585  15.053  -8.437  1.00  0.00     0.142 A 
ATOM      7  O   UNL     1     -16.489  14.144  -8.785  1.00  0.00    -0.452 OA
ATOM      8  C   UNL     1     -14.534  15.353  -9.311  1.00  0.00     0.094 A 
ATOM      9  C   UNL     1     -13.570  16.306  -8.956  1.00  0.00     0.119 A 
ATOM     10  C   UNL     1     -13.659  16.960  -7.722  1.00  0.00     0.047 A 
ATOM     11  C   UNL     1     -14.705  16.668  -6.842  1.00  0.00     0.020 A 
ENDROOT
BRANCH   1  12
ATOM     12  C   UNL     1     -18.448  12.764  -8.503  1.00  0.00     0.025 A 
ATOM     13  C   UNL     1     -19.513  13.091  -9.362  1.00  0.00     0.016 A 
ATOM     14  C   UNL     1     -20.397  12.101  -9.798  1.00  0.00     0.051 A 
ATOM     15  C   UNL     1     -20.241  10.775  -9.373  1.00  0.00     0.157 A 
ATOM     16  C   UNL     1     -18.308  11.438  -8.062  1.00  0.00     0.062 A 
ATOM     17  C   UNL     1     -19.193  10.444  -8.498  1.00  0.00     0.158 A 
BRANCH  15  18
ATOM     18  O   UNL     1     -21.125   9.790  -9.811  1.00  0.00    -0.504 OA
ATOM     19  H   UNL     1     -21.589   9.855 -10.709  1.00  0.00     0.293 HD
ENDBRANCH  15  18
BRANCH  17  20
ATOM     20  O   UNL     1     -19.014   9.136  -8.051  1.00  0.00    -0.504 OA
ATOM     21  H   UNL     1     -19.304   8.335  -8.600  1.00  0.00     0.293 HD
ENDBRANCH  17  20
ENDBRANCH   1  12
BRANCH   2  22
ATOM     22  O   UNL     1     -18.794  14.125  -5.960  1.00  0.00    -0.502 OA
ATOM     23  H   UNL     1     -19.661  14.646  -6.014  1.00  0.00     0.293 HD
ENDBRANCH   2  22
BRANCH   9  24
ATOM     24  O   UNL     1     -12.522  16.612  -9.821  1.00  0.00    -0.508 OA
ATOM     25  H   UNL     1     -11.797  17.272  -9.562  1.00  0.00     0.293 HD
ENDBRANCH   9  24
TORSDOF 5
ENDMDL
MODEL 7
REMARK VINA RESULT:    -5.986      2.421      6.718
REMARK INTER + INTRA:          -7.288
REMARK INTER:                  -6.968
REMARK INTRA:                  -0.320
REMARK UNBOUND:                -0.252
REMARK SMILES O=c1c(O)c(-c2ccc(O)c(O)c2)oc2cc(O)ccc12
REMARK SMILES IDX 5 1 3 2 2 3 1 4 21 5 15 6 14 7 16 8 17 9 19 10 20 11 6 12
REMARK SMILES IDX 7 13 8 14 9 15 13 16 11 17 10 18 12 20 4 22 18 24
REMARK H PARENT 10 19 12 21 4 23 18 25
REMARK Flexibility Score: inf
ROOT
ATOM      1  C   UNL     1     -16.207  14.038  -7.741  1.00  0.00     0.180 A 
ATOM      2  C   UNL     1     -15.836  13.888  -9.093  1.00  0.00     0.208 A 
ATOM      3  C   UNL     1     -16.612  13.058  -9.918  1.00  0.00     0.235 A 
ATOM      4  O   UNL     1     -16.294  12.899 -11.129  1.00  0.00    -0.285 OA
ATOM      5  C   UNL     1     -17.742  12.418  -9.387  1.00  0.00     0.069 A 
ATOM      6  C   UNL     1     -18.059  12.639  -8.030  1.00  0.00     0.142 A 
ATOM      7  O   UNL     1     -17.295  13.425  -7.280  1.00  0.00    -0.452 OA
ATOM      8  C   UNL     1     -19.184  12.026  -7.466  1.00  0.00     0.094 A 
ATOM      9  C   UNL     1     -19.997  11.191  -8.243  1.00  0.00     0.119 A 
ATOM     10  C   UNL     1     -19.683  10.970  -9.588  1.00  0.00     0.047 A 
ATOM     11  C   UNL     1     -18.563  11.578 -10.161  1.00  0.00     0.020 A 
ENDROOT
BRANCH   1  12
ATOM     12  C   UNL     1     -15.431  14.881  -6.802  1.00  0.00     0.025 A 
ATOM     13  C   UNL     1     -14.319  14.371  -6.108  1.00  0.00     0.016 A 
ATOM     14  C   UNL     1     -13.616  15.178  -5.210  1.00  0.00     0.051 A 
ATOM     15  C   UNL     1     -14.022  16.499  -4.979  1.00  0.00     0.157 A 
ATOM     16  C   UNL     1     -15.846  16.199  -6.552  1.00  0.00     0.062 A 
ATOM     17  C   UNL     1     -15.144  17.010  -5.652  1.00  0.00     0.158 A 
BRANCH  15  18
ATOM     18  O   UNL     1     -13.318  17.302  -4.083  1.00  0.00    -0.504 OA
ATOM     19  H   UNL     1     -13.103  18.270  -4.293  1.00  0.00     0.293 HD
ENDBRANCH  15  18
BRANCH  17  20
ATOM     20  O   UNL     1     -15.578  18.318  -5.440  1.00  0.00    -0.504 OA
ATOM     21  H   UNL     1     -16.561  18.564  -5.431  1.00  0.00     0.293 HD
ENDBRANCH  17  20
ENDBRANCH   1  12
BRANCH   2  22
ATOM     22  O   UNL     1     -14.735  14.577  -9.606  1.00  0.00    -0.502 OA
ATOM     23  H   UNL     1     -13.998  14.112 -10.124  1.00  0.00     0.293 HD
ENDBRANCH   2  22
BRANCH   9  24
ATOM     24  O   UNL     1     -21.119  10.577  -7.690  1.00  0.00    -0.508 OA
ATOM     25  H   UNL     1     -21.083  10.129  -6.781  1.00  0.00     0.293 HD
ENDBRANCH   9  24
TORSDOF 5
ENDMDL
MODEL 8
REMARK VINA RESULT:    -5.973      3.175      6.516
REMARK INTER + INTRA:          -7.273
REMARK INTER:                  -7.110
REMARK INTRA:                  -0.162
REMARK UNBOUND:                -0.252
REMARK SMILES O=c1c(O)c(-c2ccc(O)c(O)c2)oc2cc(O)ccc12
REMARK SMILES IDX 5 1 3 2 2 3 1 4 21 5 15 6 14 7 16 8 17 9 19 10 20 11 6 12
REMARK SMILES IDX 7 13 8 14 9 15 13 16 11 17 10 18 12 20 4 22 18 24
REMARK H PARENT 10 19 12 21 4 23 18 25
REMARK Flexibility Score: inf
ROOT
ATOM      1  C   UNL     1     -17.560  14.137  -7.955  1.00  0.00     0.180 A 
ATOM      2  C   UNL     1     -18.858  14.681  -7.858  1.00  0.00     0.208 A 
ATOM      3  C   UNL     1     -19.953  13.806  -7.786  1.00  0.00     0.235 A 
ATOM      4  O   UNL     1     -21.125  14.269  -7.710  1.00  0.00    -0.285 OA
ATOM      5  C   UNL     1     -19.733  12.421  -7.791  1.00  0.00     0.069 A 
ATOM      6  C   UNL     1     -18.402  11.956  -7.867  1.00  0.00     0.142 A 
ATOM      7  O   UNL     1     -17.393  12.816  -7.942  1.00  0.00    -0.452 OA
ATOM      8  C   UNL     1     -18.140  10.582  -7.865  1.00  0.00     0.094 A 
ATOM      9  C   UNL     1     -19.194   9.662  -7.790  1.00  0.00     0.119 A 
ATOM     10  C   UNL     1     -20.514  10.121  -7.717  1.00  0.00     0.047 A 
ATOM     11  C   UNL     1     -20.786  11.491  -7.717  1.00  0.00     0.020 A 
ENDROOT
BRANCH   1  12
ATOM     12  C   UNL     1     -16.355  14.992  -8.053  1.00  0.00     0.025 A 
ATOM     13  C   UNL     1     -15.540  14.981  -9.199  1.00  0.00     0.016 A 
ATOM     14  C   UNL     1     -14.394  15.778  -9.259  1.00  0.00     0.051 A 
ATOM     15  C   UNL     1     -14.037  16.586  -8.171  1.00  0.00     0.157 A 
ATOM     16  C   UNL     1     -15.981  15.787  -6.957  1.00  0.00     0.062 A 
ATOM     17  C   UNL     1     -14.834  16.587  -7.014  1.00  0.00     0.158 A 
BRANCH  15  18
ATOM     18  O   UNL     1     -12.894  17.382  -8.235  1.00  0.00    -0.504 OA
ATOM     19  H   UNL     1     -12.897  18.278  -8.708  1.00  0.00     0.293 HD
ENDBRANCH  15  18
BRANCH  17  20
ATOM     20  O   UNL     1     -14.503  17.375  -5.912  1.00  0.00    -0.504 OA
ATOM     21  H   UNL     1     -15.039  17.351  -5.053  1.00  0.00     0.293 HD
ENDBRANCH  17  20
ENDBRANCH   1  12
BRANCH   2  22
ATOM     22  O   UNL     1     -19.044  16.064  -7.804  1.00  0.00    -0.502 OA
ATOM     23  H   UNL     1     -19.805  16.528  -8.286  1.00  0.00     0.293 HD
ENDBRANCH   2  22
BRANCH   9  24
ATOM     24  O   UNL     1     -18.943   8.292  -7.788  1.00  0.00    -0.508 OA
ATOM     25  H   UNL     1     -19.002   7.741  -8.637  1.00  0.00     0.293 HD
ENDBRANCH   9  24
TORSDOF 5
ENDMDL
MODEL 9
REMARK VINA RESULT:    -5.893      2.517      3.196
REMARK INTER + INTRA:          -7.179
REMARK INTER:                  -6.910
REMARK INTRA:                  -0.269
REMARK UNBOUND:                -0.252
REMARK SMILES O=c1c(O)c(-c2ccc(O)c(O)c2)oc2cc(O)ccc12
REMARK SMILES IDX 5 1 3 2 2 3 1 4 21 5 15 6 14 7 16 8 17 9 19 10 20 11 6 12
REMARK SMILES IDX 7 13 8 14 9 15 13 16 11 17 10 18 12 20 4 22 18 24
REMARK H PARENT 10 19 12 21 4 23 18 25
REMARK Flexibility Score: inf
ROOT
ATOM      1  C   UNL     1     -17.940  14.745  -8.019  1.00  0.00     0.180 A 
ATOM      2  C   UNL     1     -18.877  15.343  -7.150  1.00  0.00     0.208 A 
ATOM      3  C   UNL     1     -18.407  16.163  -6.112  1.00  0.00     0.235 A 
ATOM      4  O   UNL     1     -19.224  16.701  -5.315  1.00  0.00    -0.285 OA
ATOM      5  C   UNL     1     -17.028  16.385  -5.977  1.00  0.00     0.069 A 
ATOM      6  C   UNL     1     -16.158  15.768  -6.902  1.00  0.00     0.142 A 
ATOM      7  O   UNL     1     -16.641  14.992  -7.865  1.00  0.00    -0.452 OA
ATOM      8  C   UNL     1     -14.777  15.972  -6.806  1.00  0.00     0.094 A 
ATOM      9  C   UNL     1     -14.252  16.785  -5.793  1.00  0.00     0.119 A 
ATOM     10  C   UNL     1     -15.112  17.395  -4.874  1.00  0.00     0.047 A 
ATOM     11  C   UNL     1     -16.493  17.199  -4.962  1.00  0.00     0.020 A 
ENDROOT
BRANCH   1  12
ATOM     12  C   UNL     1     -18.354  13.852  -9.126  1.00  0.00     0.025 A 
ATOM     13  C   UNL     1     -18.424  14.316 -10.452  1.00  0.00     0.016 A 
ATOM     14  C   UNL     1     -18.841  13.462 -11.477  1.00  0.00     0.051 A 
ATOM     15  C   UNL     1     -19.207  12.140 -11.192  1.00  0.00     0.157 A 
ATOM     16  C   UNL     1     -18.742  12.533  -8.842  1.00  0.00     0.062 A 
ATOM     17  C   UNL     1     -19.160  11.675  -9.867  1.00  0.00     0.158 A 
BRANCH  15  18
ATOM     18  O   UNL     1     -19.620  11.290 -12.217  1.00  0.00    -0.504 OA
ATOM     19  H   UNL     1     -20.563  11.324 -12.587  1.00  0.00     0.293 HD
ENDBRANCH  15  18
BRANCH  17  20
ATOM     20  O   UNL     1     -19.524  10.368  -9.548  1.00  0.00    -0.504 OA
ATOM     21  H   UNL     1     -19.271   9.581 -10.135  1.00  0.00     0.293 HD
ENDBRANCH  17  20
ENDBRANCH   1  12
BRANCH   2  22
ATOM     22  O   UNL     1     -20.246  15.145  -7.339  1.00  0.00    -0.502 OA
ATOM     23  H   UNL     1     -20.829  15.818  -7.821  1.00  0.00     0.293 HD
ENDBRANCH   2  22
BRANCH   9  24
ATOM     24  O   UNL     1     -12.878  16.994  -5.690  1.00  0.00    -0.508 OA
ATOM     25  H   UNL     1     -12.498  17.889  -5.405  1.00  0.00     0.293 HD
ENDBRANCH   9  24
TORSDOF 5
ENDMDL
