MODEL 1
REMARK VINA RESULT:    -3.841      0.000      0.000
REMARK INTER + INTRA:          -5.070
REMARK INTER:                  -4.739
REMARK INTRA:                  -0.331
REMARK UNBOUND:                -0.331
REMARK SMILES CCOC(=O)c1ccc(O)c(O)c1
REMARK SMILES IDX 4 1 5 2 3 3 2 4 1 5 6 6 13 7 7 8 11 9 8 10 9 11 12 12 10 14
REMARK H PARENT 12 13 10 15
REMARK Flexibility Score: inf
ROOT
ATOM      1  C   UNL     1      15.482 -18.009  19.930  1.00  0.00     0.338 C 
ATOM      2  O   UNL     1      16.158 -18.910  19.359  1.00  0.00    -0.246 OA
ENDROOT
BRANCH   1   3
ATOM      3  O   UNL     1      16.125 -17.020  20.685  1.00  0.00    -0.462 OA
BRANCH   3   4
ATOM      4  C   UNL     1      16.091 -15.632  20.358  1.00  0.00     0.230 C 
ATOM      5  C   UNL     1      16.509 -15.411  18.909  1.00  0.00     0.049 C 
ENDBRANCH   3   4
ENDBRANCH   1   3
BRANCH   1   6
ATOM      6  C   UNL     1      14.007 -17.999  19.808  1.00  0.00     0.064 A 
ATOM      7  C   UNL     1      13.391 -17.882  18.549  1.00  0.00     0.065 A 
ATOM      8  C   UNL     1      13.201 -18.108  20.954  1.00  0.00     0.020 A 
ATOM      9  C   UNL     1      11.996 -17.873  18.435  1.00  0.00     0.158 A 
ATOM     10  C   UNL     1      11.808 -18.100  20.843  1.00  0.00     0.051 A 
ATOM     11  C   UNL     1      11.200 -17.982  19.587  1.00  0.00     0.157 A 
BRANCH   9  12
ATOM     12  O   UNL     1      11.421 -17.754  17.169  1.00  0.00    -0.504 OA
ATOM     13  H   UNL     1      10.595 -18.277  16.903  1.00  0.00     0.293 HD
ENDBRANCH   9  12
BRANCH  11  14
ATOM     14  O   UNL     1       9.810 -17.974  19.479  1.00  0.00    -0.504 OA
ATOM     15  H   UNL     1       9.340 -17.525  18.702  1.00  0.00     0.293 HD
ENDBRANCH  11  14
ENDBRANCH   1   6
TORSDOF 5
ENDMDL
MODEL 2
REMARK VINA RESULT:    -3.833     17.151     18.726
REMARK INTER + INTRA:          -5.060
REMARK INTER:                  -4.750
REMARK INTRA:                  -0.310
REMARK UNBOUND:                -0.331
REMARK SMILES CCOC(=O)c1ccc(O)c(O)c1
REMARK SMILES IDX 4 1 5 2 3 3 2 4 1 5 6 6 13 7 7 8 11 9 8 10 9 11 12 12 10 14
REMARK H PARENT 12 13 10 15
REMARK Flexibility Score: inf
ROOT
ATOM      1  C   UNL     1      14.293  -5.287   6.417  1.00  0.00     0.338 C 
ATOM      2  O   UNL     1      13.570  -4.359   6.876  1.00  0.00    -0.246 OA
ENDROOT
BRANCH   1   3
ATOM      3  O   UNL     1      13.701  -6.425   5.852  1.00  0.00    -0.462 OA
BRANCH   3   4
ATOM      4  C   UNL     1      13.915  -6.836   4.503  1.00  0.00     0.230 C 
ATOM      5  C   UNL     1      14.665  -8.163   4.458  1.00  0.00     0.049 C 
ENDBRANCH   3   4
ENDBRANCH   1   3
BRANCH   1   6
ATOM      6  C   UNL     1      15.767  -5.178   6.479  1.00  0.00     0.064 A 
ATOM      7  C   UNL     1      16.534  -6.165   7.124  1.00  0.00     0.065 A 
ATOM      8  C   UNL     1      16.421  -4.082   5.892  1.00  0.00     0.020 A 
ATOM      9  C   UNL     1      17.929  -6.060   7.182  1.00  0.00     0.158 A 
ATOM     10  C   UNL     1      17.813  -3.975   5.948  1.00  0.00     0.051 A 
ATOM     11  C   UNL     1      18.573  -4.961   6.592  1.00  0.00     0.157 A 
BRANCH   9  12
ATOM     12  O   UNL     1      18.656  -7.059   7.831  1.00  0.00    -0.504 OA
ATOM     13  H   UNL     1      18.329  -8.016   7.880  1.00  0.00     0.293 HD
ENDBRANCH   9  12
BRANCH  11  14
ATOM     14  O   UNL     1      19.961  -4.851   6.646  1.00  0.00    -0.504 OA
ATOM     15  H   UNL     1      20.415  -4.069   7.103  1.00  0.00     0.293 HD
ENDBRANCH  11  14
ENDBRANCH   1   6
TORSDOF 5
ENDMDL
MODEL 3
REMARK VINA RESULT:    -3.811     17.129     18.660
REMARK INTER + INTRA:          -5.032
REMARK INTER:                  -4.886
REMARK INTRA:                  -0.146
REMARK UNBOUND:                -0.331
REMARK SMILES CCOC(=O)c1ccc(O)c(O)c1
REMARK SMILES IDX 4 1 5 2 3 3 2 4 1 5 6 6 13 7 7 8 11 9 8 10 9 11 12 12 10 14
REMARK H PARENT 12 13 10 15
REMARK Flexibility Score: inf
ROOT
ATOM      1  C   UNL     1      14.239  -5.521   6.335  1.00  0.00     0.338 C 
ATOM      2  O   UNL     1      13.719  -6.106   5.343  1.00  0.00    -0.246 OA
ENDROOT
BRANCH   1   3
ATOM      3  O   UNL     1      13.428  -5.042   7.372  1.00  0.00    -0.462 OA
BRANCH   3   4
ATOM      4  C   UNL     1      12.588  -3.896   7.250  1.00  0.00     0.230 C 
ATOM      5  C   UNL     1      11.908  -3.584   8.579  1.00  0.00     0.049 C 
ENDBRANCH   3   4
ENDBRANCH   1   3
BRANCH   1   6
ATOM      6  C   UNL     1      15.705  -5.335   6.401  1.00  0.00     0.064 A 
ATOM      7  C   UNL     1      16.520  -6.273   7.061  1.00  0.00     0.065 A 
ATOM      8  C   UNL     1      16.304  -4.214   5.802  1.00  0.00     0.020 A 
ATOM      9  C   UNL     1      17.907  -6.095   7.123  1.00  0.00     0.158 A 
ATOM     10  C   UNL     1      17.688  -4.035   5.862  1.00  0.00     0.051 A 
ATOM     11  C   UNL     1      18.495  -4.971   6.521  1.00  0.00     0.157 A 
BRANCH   9  12
ATOM     12  O   UNL     1      18.682  -7.047   7.787  1.00  0.00    -0.504 OA
ATOM     13  H   UNL     1      18.931  -7.931   7.359  1.00  0.00     0.293 HD
ENDBRANCH   9  12
BRANCH  11  14
ATOM     14  O   UNL     1      19.876  -4.790   6.578  1.00  0.00    -0.504 OA
ATOM     15  H   UNL     1      20.399  -4.437   5.784  1.00  0.00     0.293 HD
ENDBRANCH  11  14
ENDBRANCH   1   6
TORSDOF 5
ENDMDL
MODEL 4
REMARK VINA RESULT:    -3.784      1.485      2.066
REMARK INTER + INTRA:          -4.999
REMARK INTER:                  -4.700
REMARK INTRA:                  -0.299
REMARK UNBOUND:                -0.331
REMARK SMILES CCOC(=O)c1ccc(O)c(O)c1
REMARK SMILES IDX 4 1 5 2 3 3 2 4 1 5 6 6 13 7 7 8 11 9 8 10 9 11 12 12 10 14
REMARK H PARENT 12 13 10 15
REMARK Flexibility Score: inf
ROOT
ATOM      1  C   UNL     1      13.589 -17.411  20.765  1.00  0.00     0.338 C 
ATOM      2  O   UNL     1      13.722 -17.661  21.995  1.00  0.00    -0.246 OA
ENDROOT
BRANCH   1   3
ATOM      3  O   UNL     1      14.586 -16.705  20.079  1.00  0.00    -0.462 OA
BRANCH   3   4
ATOM      4  C   UNL     1      15.933 -17.160  19.962  1.00  0.00     0.230 C 
ATOM      5  C   UNL     1      15.972 -18.613  19.501  1.00  0.00     0.049 C 
ENDBRANCH   3   4
ENDBRANCH   1   3
BRANCH   1   6
ATOM      6  C   UNL     1      12.375 -17.856  20.045  1.00  0.00     0.064 A 
ATOM      7  C   UNL     1      12.308 -17.792  18.641  1.00  0.00     0.065 A 
ATOM      8  C   UNL     1      11.271 -18.351  20.759  1.00  0.00     0.020 A 
ATOM      9  C   UNL     1      11.159 -18.213  17.962  1.00  0.00     0.158 A 
ATOM     10  C   UNL     1      10.123 -18.773  20.083  1.00  0.00     0.051 A 
ATOM     11  C   UNL     1      10.060 -18.706  18.685  1.00  0.00     0.157 A 
BRANCH   9  12
ATOM     12  O   UNL     1      11.128 -18.134  16.569  1.00  0.00    -0.504 OA
ATOM     13  H   UNL     1      10.260 -18.042  16.055  1.00  0.00     0.293 HD
ENDBRANCH   9  12
BRANCH  11  14
ATOM     14  O   UNL     1       8.914 -19.128  18.014  1.00  0.00    -0.504 OA
ATOM     15  H   UNL     1       8.035 -19.269  18.500  1.00  0.00     0.293 HD
ENDBRANCH  11  14
ENDBRANCH   1   6
TORSDOF 5
ENDMDL
MODEL 5
REMARK VINA RESULT:    -3.765      2.000      4.868
REMARK INTER + INTRA:          -4.976
REMARK INTER:                  -4.812
REMARK INTRA:                  -0.164
REMARK UNBOUND:                -0.331
REMARK SMILES CCOC(=O)c1ccc(O)c(O)c1
REMARK SMILES IDX 4 1 5 2 3 3 2 4 1 5 6 6 13 7 7 8 11 9 8 10 9 11 12 12 10 14
REMARK H PARENT 12 13 10 15
REMARK Flexibility Score: inf
ROOT
ATOM      1  C   UNL     1      12.377 -17.559  21.909  1.00  0.00     0.338 C 
ATOM      2  O   UNL     1      12.669 -17.560  23.138  1.00  0.00    -0.246 OA
ENDROOT
BRANCH   1   3
ATOM      3  O   UNL     1      11.070 -17.851  21.497  1.00  0.00    -0.462 OA
BRANCH   3   4
ATOM      4  C   UNL     1      10.756 -18.462  20.248  1.00  0.00     0.230 C 
ATOM      5  C   UNL     1       9.471 -19.275  20.355  1.00  0.00     0.049 C 
ENDBRANCH   3   4
ENDBRANCH   1   3
BRANCH   1   6
ATOM      6  C   UNL     1      13.416 -17.255  20.901  1.00  0.00     0.064 A 
ATOM      7  C   UNL     1      14.366 -18.225  20.533  1.00  0.00     0.065 A 
ATOM      8  C   UNL     1      13.467 -15.987  20.297  1.00  0.00     0.020 A 
ATOM      9  C   UNL     1      15.348 -17.936  19.579  1.00  0.00     0.158 A 
ATOM     10  C   UNL     1      14.447 -15.697  19.344  1.00  0.00     0.051 A 
ATOM     11  C   UNL     1      15.391 -16.666  18.981  1.00  0.00     0.157 A 
BRANCH   9  12
ATOM     12  O   UNL     1      16.274 -18.924  19.239  1.00  0.00    -0.504 OA
ATOM     13  H   UNL     1      16.490 -19.149  18.275  1.00  0.00     0.293 HD
ENDBRANCH   9  12
BRANCH  11  14
ATOM     14  O   UNL     1      16.366 -16.373  18.030  1.00  0.00    -0.504 OA
ATOM     15  H   UNL     1      16.233 -15.641  17.341  1.00  0.00     0.293 HD
ENDBRANCH  11  14
ENDBRANCH   1   6
TORSDOF 5
ENDMDL
MODEL 6
REMARK VINA RESULT:    -3.749      2.087      3.063
REMARK INTER + INTRA:          -4.956
REMARK INTER:                  -4.636
REMARK INTRA:                  -0.320
REMARK UNBOUND:                -0.331
REMARK SMILES CCOC(=O)c1ccc(O)c(O)c1
REMARK SMILES IDX 4 1 5 2 3 3 2 4 1 5 6 6 13 7 7 8 11 9 8 10 9 11 12 12 10 14
REMARK H PARENT 12 13 10 15
REMARK Flexibility Score: inf
ROOT
ATOM      1  C   UNL     1      13.176 -16.870  20.658  1.00  0.00     0.338 C 
ATOM      2  O   UNL     1      13.332 -15.627  20.499  1.00  0.00    -0.246 OA
ENDROOT
BRANCH   1   3
ATOM      3  O   UNL     1      14.039 -17.585  21.499  1.00  0.00    -0.462 OA
BRANCH   3   4
ATOM      4  C   UNL     1      14.869 -18.654  21.051  1.00  0.00     0.230 C 
ATOM      5  C   UNL     1      15.631 -18.252  19.793  1.00  0.00     0.049 C 
ENDBRANCH   3   4
ENDBRANCH   1   3
BRANCH   1   6
ATOM      6  C   UNL     1      12.084 -17.576  19.953  1.00  0.00     0.064 A 
ATOM      7  C   UNL     1      11.154 -18.356  20.664  1.00  0.00     0.065 A 
ATOM      8  C   UNL     1      11.962 -17.475  18.557  1.00  0.00     0.020 A 
ATOM      9  C   UNL     1      10.122 -19.024  19.995  1.00  0.00     0.158 A 
ATOM     10  C   UNL     1      10.932 -18.140  17.886  1.00  0.00     0.051 A 
ATOM     11  C   UNL     1      10.009 -18.916  18.599  1.00  0.00     0.157 A 
BRANCH   9  12
ATOM     12  O   UNL     1       9.219 -19.789  20.735  1.00  0.00    -0.504 OA
ATOM     13  H   UNL     1       8.241 -19.860  20.481  1.00  0.00     0.293 HD
ENDBRANCH   9  12
BRANCH  11  14
ATOM     14  O   UNL     1       8.982 -19.578  17.928  1.00  0.00    -0.504 OA
ATOM     15  H   UNL     1       9.151 -20.083  17.065  1.00  0.00     0.293 HD
ENDBRANCH  11  14
ENDBRANCH   1   6
TORSDOF 5
ENDMDL
MODEL 7
REMARK VINA RESULT:    -3.693      1.465      2.285
REMARK INTER + INTRA:          -4.887
REMARK INTER:                  -4.621
REMARK INTRA:                  -0.266
REMARK UNBOUND:                -0.331
REMARK SMILES CCOC(=O)c1ccc(O)c(O)c1
REMARK SMILES IDX 4 1 5 2 3 3 2 4 1 5 6 6 13 7 7 8 11 9 8 10 9 11 12 12 10 14
REMARK H PARENT 12 13 10 15
REMARK Flexibility Score: inf
ROOT
ATOM      1  C   UNL     1      15.628 -17.823  19.217  1.00  0.00     0.338 C 
ATOM      2  O   UNL     1      16.408 -18.761  19.546  1.00  0.00    -0.246 OA
ENDROOT
BRANCH   1   3
ATOM      3  O   UNL     1      16.105 -16.748  18.455  1.00  0.00    -0.462 OA
BRANCH   3   4
ATOM      4  C   UNL     1      15.993 -15.385  18.860  1.00  0.00     0.230 C 
ATOM      5  C   UNL     1      17.216 -14.962  19.666  1.00  0.00     0.049 C 
ENDBRANCH   3   4
ENDBRANCH   1   3
BRANCH   1   6
ATOM      6  C   UNL     1      14.211 -17.855  19.639  1.00  0.00     0.064 A 
ATOM      7  C   UNL     1      13.868 -17.886  21.003  1.00  0.00     0.065 A 
ATOM      8  C   UNL     1      13.185 -17.854  18.679  1.00  0.00     0.020 A 
ATOM      9  C   UNL     1      12.526 -17.917  21.401  1.00  0.00     0.158 A 
ATOM     10  C   UNL     1      11.845 -17.883  19.074  1.00  0.00     0.051 A 
ATOM     11  C   UNL     1      11.509 -17.915  20.433  1.00  0.00     0.157 A 
BRANCH   9  12
ATOM     12  O   UNL     1      12.225 -17.948  22.764  1.00  0.00    -0.504 OA
ATOM     13  H   UNL     1      12.360 -18.780  23.325  1.00  0.00     0.293 HD
ENDBRANCH   9  12
BRANCH  11  14
ATOM     14  O   UNL     1      10.171 -17.944  20.824  1.00  0.00    -0.504 OA
ATOM     15  H   UNL     1       9.426 -18.095  20.154  1.00  0.00     0.293 HD
ENDBRANCH  11  14
ENDBRANCH   1   6
TORSDOF 5
ENDMDL
MODEL 8
REMARK VINA RESULT:    -3.649     16.315     18.487
REMARK INTER + INTRA:          -4.833
REMARK INTER:                  -4.610
REMARK INTRA:                  -0.222
REMARK UNBOUND:                -0.331
REMARK SMILES CCOC(=O)c1ccc(O)c(O)c1
REMARK SMILES IDX 4 1 5 2 3 3 2 4 1 5 6 6 13 7 7 8 11 9 8 10 9 11 12 12 10 14
REMARK H PARENT 12 13 10 15
REMARK Flexibility Score: inf
ROOT
ATOM      1  C   UNL     1      14.649  -5.748   6.775  1.00  0.00     0.338 C 
ATOM      2  O   UNL     1      13.600  -5.642   6.080  1.00  0.00    -0.246 OA
ENDROOT
BRANCH   1   3
ATOM      3  O   UNL     1      14.558  -5.950   8.158  1.00  0.00    -0.462 OA
BRANCH   3   4
ATOM      4  C   UNL     1      14.648  -7.233   8.774  1.00  0.00     0.230 C 
ATOM      5  C   UNL     1      15.699  -7.227   9.879  1.00  0.00     0.049 C 
ENDBRANCH   3   4
ENDBRANCH   1   3
BRANCH   1   6
ATOM      6  C   UNL     1      15.978  -5.653   6.131  1.00  0.00     0.064 A 
ATOM      7  C   UNL     1      17.134  -5.428   6.899  1.00  0.00     0.065 A 
ATOM      8  C   UNL     1      16.101  -5.787   4.738  1.00  0.00     0.020 A 
ATOM      9  C   UNL     1      18.390  -5.338   6.288  1.00  0.00     0.158 A 
ATOM     10  C   UNL     1      17.353  -5.698   4.126  1.00  0.00     0.051 A 
ATOM     11  C   UNL     1      18.502  -5.473   4.895  1.00  0.00     0.157 A 
BRANCH   9  12
ATOM     12  O   UNL     1      19.515  -5.113   7.083  1.00  0.00    -0.504 OA
ATOM     13  H   UNL     1      20.330  -5.714   7.044  1.00  0.00     0.293 HD
ENDBRANCH   9  12
BRANCH  11  14
ATOM     14  O   UNL     1      19.751  -5.385   4.282  1.00  0.00    -0.504 OA
ATOM     15  H   UNL     1      20.513  -4.864   4.700  1.00  0.00     0.293 HD
ENDBRANCH  11  14
ENDBRANCH   1   6
TORSDOF 5
ENDMDL
MODEL 9
REMARK VINA RESULT:    -3.591     13.184     14.599
REMARK INTER + INTRA:          -4.761
REMARK INTER:                  -4.450
REMARK INTRA:                  -0.311
REMARK UNBOUND:                -0.331
REMARK SMILES CCOC(=O)c1ccc(O)c(O)c1
REMARK SMILES IDX 4 1 5 2 3 3 2 4 1 5 6 6 13 7 7 8 11 9 8 10 9 11 12 12 10 14
REMARK H PARENT 12 13 10 15
REMARK Flexibility Score: inf
ROOT
ATOM      1  C   UNL     1      16.148  -2.986  14.423  1.00  0.00     0.338 C 
ATOM      2  O   UNL     1      16.754  -2.035  13.855  1.00  0.00    -0.246 OA
ENDROOT
BRANCH   1   3
ATOM      3  O   UNL     1      15.996  -2.991  15.816  1.00  0.00    -0.462 OA
BRANCH   3   4
ATOM      4  C   UNL     1      14.729  -3.020  16.470  1.00  0.00     0.230 C 
ATOM      5  C   UNL     1      14.487  -4.380  17.114  1.00  0.00     0.049 C 
ENDBRANCH   3   4
ENDBRANCH   1   3
BRANCH   1   6
ATOM      6  C   UNL     1      15.603  -4.102  13.619  1.00  0.00     0.064 A 
ATOM      7  C   UNL     1      16.265  -5.342  13.568  1.00  0.00     0.065 A 
ATOM      8  C   UNL     1      14.410  -3.936  12.895  1.00  0.00     0.020 A 
ATOM      9  C   UNL     1      15.748  -6.396  12.806  1.00  0.00     0.158 A 
ATOM     10  C   UNL     1      13.891  -4.987  12.135  1.00  0.00     0.051 A 
ATOM     11  C   UNL     1      14.555  -6.220  12.086  1.00  0.00     0.157 A 
BRANCH   9  12
ATOM     12  O   UNL     1      16.433  -7.612  12.779  1.00  0.00    -0.504 OA
ATOM     13  H   UNL     1      16.605  -8.151  13.619  1.00  0.00     0.293 HD
ENDBRANCH   9  12
BRANCH  11  14
ATOM     14  O   UNL     1      14.035  -7.267  11.327  1.00  0.00    -0.504 OA
ATOM     15  H   UNL     1      13.517  -8.026  11.754  1.00  0.00     0.293 HD
ENDBRANCH  11  14
ENDBRANCH   1   6
TORSDOF 5
ENDMDL
