MODEL 1
REMARK VINA RESULT:    -4.952      0.000      0.000
REMARK INTER + INTRA:          -4.690
REMARK INTER:                  -6.689
REMARK INTRA:                   1.999
REMARK UNBOUND:                 1.999
REMARK SMILES C=C1C(=O)O[C@H]2[C@H]1CCC(C)=CCC[C@]1(C)O[C@@H]21
REMARK SMILES IDX 6 1 7 2 2 3 1 4 3 5 4 6 5 7 8 8 9 9 10 10 11 11 12 12 18 14
REMARK SMILES IDX 15 15 17 16 16 17 14 18 13 19
REMARK H PARENT
REMARK Flexibility Score: 70.00
ROOT
ATOM      1  C   UNL     1     -19.981  56.453   0.529  1.00  0.00     0.216 C 
ATOM      2  C   UNL     1     -21.403  56.044   0.049  1.00  0.00     0.070 C 
ATOM      3  C   UNL     1     -22.247  56.621   1.143  1.00  0.00     0.037 C 
ATOM      4  C   UNL     1     -23.533  56.379   1.392  1.00  0.00     0.021 C 
ATOM      5  C   UNL     1     -21.461  57.721   1.688  1.00  0.00     0.334 C 
ATOM      6  O   UNL     1     -21.886  58.605   2.477  1.00  0.00    -0.247 OA
ATOM      7  O   UNL     1     -20.170  57.701   1.179  1.00  0.00    -0.455 OA
ENDROOT
BRANCH   2   8
ATOM      8  C   UNL     1     -21.522  54.532  -0.318  1.00  0.00     0.017 C 
BRANCH   8   9
ATOM      9  C   UNL     1     -21.085  54.234  -1.798  1.00  0.00     0.031 C 
BRANCH   9  10
ATOM     10  C   UNL     1     -19.877  53.303  -1.939  1.00  0.00    -0.077 C 
ATOM     11  C   UNL     1     -20.013  51.913  -1.372  1.00  0.00     0.039 C 
ATOM     12  C   UNL     1     -18.698  53.612  -2.568  1.00  0.00    -0.028 CG0
ATOM     13  G   UNL     1     -18.271  54.949  -3.171  1.00  0.00     0.000 G0
ENDBRANCH   9  10
ENDBRANCH   8   9
ENDBRANCH   2   8
BRANCH   1  14
ATOM     14  C   UNL     1     -19.044  56.465  -0.676  1.00  0.00     0.192 C 
ATOM     15  C   UNL     1     -17.585  56.217  -0.955  1.00  0.00     0.096 C 
ATOM     16  O   UNL     1     -18.362  55.243  -0.405  1.00  0.00    -0.362 OA
ATOM     17  C   UNL     1     -16.549  56.743   0.032  1.00  0.00     0.045 C 
BRANCH  15  18
ATOM     18  C   UNL     1     -17.147  55.713  -2.355  1.00  0.00     0.042 C 
BRANCH  18  19
ATOM     19  C   UNL     1     -18.238  54.955  -3.187  1.00  0.00     0.030 CG0
ATOM     20  G   UNL     1     -18.681  53.628  -2.573  1.00  0.00     0.000 G0
ENDBRANCH  18  19
ENDBRANCH  15  18
ENDBRANCH   1  14
TORSDOF 0
ENDMDL
MODEL 2
REMARK VINA RESULT:    -4.910      1.075      1.230
REMARK INTER + INTRA:          -4.633
REMARK INTER:                  -6.738
REMARK INTRA:                   2.105
REMARK UNBOUND:                 1.999
REMARK SMILES C=C1C(=O)O[C@H]2[C@H]1CCC(C)=CCC[C@]1(C)O[C@@H]21
REMARK SMILES IDX 6 1 7 2 2 3 1 4 3 5 4 6 5 7 8 8 9 9 10 10 11 11 12 12 18 14
REMARK SMILES IDX 15 15 17 16 16 17 14 18 13 19
REMARK H PARENT
REMARK Flexibility Score: 70.00
ROOT
ATOM      1  C   UNL     1     -21.153  56.045   0.511  1.00  0.00     0.216 C 
ATOM      2  C   UNL     1     -22.306  55.303  -0.223  1.00  0.00     0.070 C 
ATOM      3  C   UNL     1     -23.475  55.680   0.635  1.00  0.00     0.037 C 
ATOM      4  C   UNL     1     -24.694  55.142   0.630  1.00  0.00     0.021 C 
ATOM      5  C   UNL     1     -23.098  56.942   1.257  1.00  0.00     0.334 C 
ATOM      6  O   UNL     1     -23.873  57.712   1.883  1.00  0.00    -0.247 OA
ATOM      7  O   UNL     1     -21.758  57.221   1.026  1.00  0.00    -0.455 OA
ENDROOT
BRANCH   2   8
ATOM      8  C   UNL     1     -21.995  53.801  -0.507  1.00  0.00     0.017 C 
BRANCH   8   9
ATOM      9  C   UNL     1     -21.120  53.600  -1.797  1.00  0.00     0.031 C 
BRANCH   9  10
ATOM     10  C   UNL     1     -19.738  52.985  -1.550  1.00  0.00    -0.077 C 
ATOM     11  C   UNL     1     -19.698  51.643  -0.865  1.00  0.00     0.039 C 
ATOM     12  C   UNL     1     -18.540  53.531  -1.932  1.00  0.00    -0.028 CG0
ATOM     13  G   UNL     1     -18.285  54.890  -2.581  1.00  0.00     0.000 G0
ENDBRANCH   9  10
ENDBRANCH   8   9
ENDBRANCH   2   8
BRANCH   1  14
ATOM     14  C   UNL     1     -20.008  56.261  -0.475  1.00  0.00     0.192 C 
ATOM     15  C   UNL     1     -18.510  56.418  -0.425  1.00  0.00     0.096 C 
ATOM     16  O   UNL     1     -19.107  55.293   0.058  1.00  0.00    -0.362 OA
ATOM     17  C   UNL     1     -17.897  57.260   0.689  1.00  0.00     0.045 C 
BRANCH  15  18
ATOM     18  C   UNL     1     -17.654  55.992  -1.646  1.00  0.00     0.042 C 
BRANCH  18  19
ATOM     19  C   UNL     1     -18.286  54.907  -2.586  1.00  0.00     0.030 CG0
ATOM     20  G   UNL     1     -18.527  53.558  -1.909  1.00  0.00     0.000 G0
ENDBRANCH  18  19
ENDBRANCH  15  18
ENDBRANCH   1  14
TORSDOF 0
ENDMDL
MODEL 3
REMARK VINA RESULT:    -4.594      3.519      5.732
REMARK INTER + INTRA:          -4.205
REMARK INTER:                  -6.655
REMARK INTRA:                   2.450
REMARK UNBOUND:                 1.999
REMARK SMILES C=C1C(=O)O[C@H]2[C@H]1CCC(C)=CCC[C@]1(C)O[C@@H]21
REMARK SMILES IDX 6 1 7 2 2 3 1 4 3 5 4 6 5 7 8 8 9 9 10 10 11 11 12 12 18 14
REMARK SMILES IDX 15 15 17 16 16 17 14 18 13 19
REMARK H PARENT
REMARK Flexibility Score: 70.00
ROOT
ATOM      1  C   UNL     1     -21.535  56.143  -2.523  1.00  0.00     0.216 C 
ATOM      2  C   UNL     1     -20.836  54.878  -1.949  1.00  0.00     0.070 C 
ATOM      3  C   UNL     1     -19.674  54.749  -2.884  1.00  0.00     0.037 C 
ATOM      4  C   UNL     1     -18.856  53.706  -3.027  1.00  0.00     0.021 C 
ATOM      5  C   UNL     1     -19.438  56.097  -3.385  1.00  0.00     0.334 C 
ATOM      6  O   UNL     1     -18.423  56.474  -4.028  1.00  0.00    -0.247 OA
ATOM      7  O   UNL     1     -20.471  56.946  -3.014  1.00  0.00    -0.455 OA
ENDROOT
BRANCH   2   8
ATOM      8  C   UNL     1     -21.808  53.676  -1.737  1.00  0.00     0.017 C 
BRANCH   8   9
ATOM      9  C   UNL     1     -23.253  54.135  -1.324  1.00  0.00     0.031 C 
BRANCH   9  10
ATOM     10  C   UNL     1     -23.468  54.314   0.182  1.00  0.00    -0.077 C 
ATOM     11  C   UNL     1     -22.704  53.391   1.098  1.00  0.00     0.039 C 
ATOM     12  C   UNL     1     -24.265  55.263   0.770  1.00  0.00    -0.028 CG0
ATOM     13  G   UNL     1     -25.186  56.275   0.091  1.00  0.00     0.000 G0
ENDBRANCH   9  10
ENDBRANCH   8   9
ENDBRANCH   2   8
BRANCH   1  14
ATOM     14  C   UNL     1     -22.390  56.769  -1.425  1.00  0.00     0.192 C 
ATOM     15  C   UNL     1     -23.498  57.784  -1.317  1.00  0.00     0.096 C 
ATOM     16  O   UNL     1     -23.653  56.663  -2.077  1.00  0.00    -0.362 OA
ATOM     17  C   UNL     1     -23.425  59.044  -2.172  1.00  0.00     0.045 C 
BRANCH  15  18
ATOM     18  C   UNL     1     -24.515  57.687  -0.150  1.00  0.00     0.042 C 
BRANCH  18  19
ATOM     19  C   UNL     1     -25.177  56.283   0.073  1.00  0.00     0.030 CG0
ATOM     20  G   UNL     1     -24.274  55.273   0.780  1.00  0.00     0.000 G0
ENDBRANCH  18  19
ENDBRANCH  15  18
ENDBRANCH   1  14
TORSDOF 0
ENDMDL
MODEL 4
REMARK VINA RESULT:    -4.446      2.634      5.258
REMARK INTER + INTRA:          -4.007
REMARK INTER:                  -6.179
REMARK INTRA:                   2.172
REMARK UNBOUND:                 1.999
REMARK SMILES C=C1C(=O)O[C@H]2[C@H]1CCC(C)=CCC[C@]1(C)O[C@@H]21
REMARK SMILES IDX 6 1 7 2 2 3 1 4 3 5 4 6 5 7 8 8 9 9 10 10 11 11 12 12 18 14
REMARK SMILES IDX 15 15 17 16 16 17 14 18 13 19
REMARK H PARENT
REMARK Flexibility Score: 70.00
ROOT
ATOM      1  C   UNL     1     -20.220  56.205  -0.662  1.00  0.00     0.216 C 
ATOM      2  C   UNL     1     -20.260  54.834  -1.395  1.00  0.00     0.070 C 
ATOM      3  C   UNL     1     -18.928  54.841  -2.079  1.00  0.00     0.037 C 
ATOM      4  C   UNL     1     -18.505  54.026  -3.046  1.00  0.00     0.021 C 
ATOM      5  C   UNL     1     -18.090  55.717  -1.270  1.00  0.00     0.334 C 
ATOM      6  O   UNL     1     -16.840  55.832  -1.367  1.00  0.00    -0.247 OA
ATOM      7  O   UNL     1     -18.853  56.388  -0.325  1.00  0.00    -0.455 OA
ENDROOT
BRANCH   2   8
ATOM      8  C   UNL     1     -21.564  54.612  -2.223  1.00  0.00     0.017 C 
BRANCH   8   9
ATOM      9  C   UNL     1     -22.738  54.030  -1.354  1.00  0.00     0.031 C 
BRANCH   9  10
ATOM     10  C   UNL     1     -23.973  54.930  -1.252  1.00  0.00    -0.077 C 
ATOM     11  C   UNL     1     -24.673  55.282  -2.541  1.00  0.00     0.039 C 
ATOM     12  C   UNL     1     -24.519  55.413  -0.090  1.00  0.00    -0.028 CG0
ATOM     13  G   UNL     1     -23.989  55.264   1.335  1.00  0.00     0.000 G0
ENDBRANCH   9  10
ENDBRANCH   8   9
ENDBRANCH   2   8
BRANCH   1  14
ATOM     14  C   UNL     1     -21.196  56.158   0.511  1.00  0.00     0.192 C 
ATOM     15  C   UNL     1     -22.102  57.113   1.244  1.00  0.00     0.096 C 
ATOM     16  O   UNL     1     -22.259  56.892  -0.091  1.00  0.00    -0.362 OA
ATOM     17  C   UNL     1     -21.603  58.524   1.533  1.00  0.00     0.045 C 
BRANCH  15  18
ATOM     18  C   UNL     1     -23.375  56.573   1.948  1.00  0.00     0.042 C 
BRANCH  18  19
ATOM     19  C   UNL     1     -23.996  55.267   1.341  1.00  0.00     0.030 CG0
ATOM     20  G   UNL     1     -24.513  55.427  -0.088  1.00  0.00     0.000 G0
ENDBRANCH  18  19
ENDBRANCH  15  18
ENDBRANCH   1  14
TORSDOF 0
ENDMDL
MODEL 5
REMARK VINA RESULT:    -4.278      2.535      3.824
REMARK INTER + INTRA:          -3.780
REMARK INTER:                  -6.136
REMARK INTRA:                   2.357
REMARK UNBOUND:                 1.999
REMARK SMILES C=C1C(=O)O[C@H]2[C@H]1CCC(C)=CCC[C@]1(C)O[C@@H]21
REMARK SMILES IDX 6 1 7 2 2 3 1 4 3 5 4 6 5 7 8 8 9 9 10 10 11 11 12 12 18 14
REMARK SMILES IDX 15 15 17 16 16 17 14 18 13 19
REMARK H PARENT
REMARK Flexibility Score: 70.00
ROOT
ATOM      1  C   UNL     1     -23.101  55.942  -0.915  1.00  0.00     0.216 C 
ATOM      2  C   UNL     1     -22.479  57.125  -1.711  1.00  0.00     0.070 C 
ATOM      3  C   UNL     1     -23.527  58.177  -1.517  1.00  0.00     0.037 C 
ATOM      4  C   UNL     1     -23.650  59.332  -2.171  1.00  0.00     0.021 C 
ATOM      5  C   UNL     1     -24.197  57.821  -0.273  1.00  0.00     0.334 C 
ATOM      6  O   UNL     1     -24.994  58.556   0.367  1.00  0.00    -0.247 OA
ATOM      7  O   UNL     1     -23.801  56.562   0.154  1.00  0.00    -0.455 OA
ENDROOT
BRANCH   2   8
ATOM      8  C   UNL     1     -22.022  56.731  -3.149  1.00  0.00     0.017 C 
BRANCH   8   9
ATOM      9  C   UNL     1     -21.484  55.256  -3.228  1.00  0.00     0.031 C 
BRANCH   9  10
ATOM     10  C   UNL     1     -20.001  55.091  -2.880  1.00  0.00    -0.077 C 
ATOM     11  C   UNL     1     -19.073  56.209  -3.281  1.00  0.00     0.039 C 
ATOM     12  C   UNL     1     -19.451  54.032  -2.204  1.00  0.00    -0.028 CG0
ATOM     13  G   UNL     1     -20.138  52.750  -1.737  1.00  0.00     0.000 G0
ENDBRANCH   9  10
ENDBRANCH   8   9
ENDBRANCH   2   8
BRANCH   1  14
ATOM     14  C   UNL     1     -21.984  54.984  -0.514  1.00  0.00     0.192 C 
ATOM     15  C   UNL     1     -21.859  53.602   0.075  1.00  0.00     0.096 C 
ATOM     16  O   UNL     1     -22.523  53.801  -1.098  1.00  0.00    -0.362 OA
ATOM     17  C   UNL     1     -22.803  53.195   1.201  1.00  0.00     0.045 C 
BRANCH  15  18
ATOM     18  C   UNL     1     -20.609  52.742  -0.248  1.00  0.00     0.042 C 
BRANCH  18  19
ATOM     19  C   UNL     1     -20.143  52.739  -1.746  1.00  0.00     0.030 CG0
ATOM     20  G   UNL     1     -19.448  54.027  -2.185  1.00  0.00     0.000 G0
ENDBRANCH  18  19
ENDBRANCH  15  18
ENDBRANCH   1  14
TORSDOF 0
ENDMDL
MODEL 6
REMARK VINA RESULT:    -4.208      2.012      4.269
REMARK INTER + INTRA:          -3.684
REMARK INTER:                  -6.094
REMARK INTRA:                   2.409
REMARK UNBOUND:                 1.999
REMARK SMILES C=C1C(=O)O[C@H]2[C@H]1CCC(C)=CCC[C@]1(C)O[C@@H]21
REMARK SMILES IDX 6 1 7 2 2 3 1 4 3 5 4 6 5 7 8 8 9 9 10 10 11 11 12 12 18 14
REMARK SMILES IDX 15 15 17 16 16 17 14 18 13 19
REMARK H PARENT
REMARK Flexibility Score: 70.00
ROOT
ATOM      1  C   UNL     1     -19.398  56.535  -0.155  1.00  0.00     0.216 C 
ATOM      2  C   UNL     1     -18.408  55.350  -0.334  1.00  0.00     0.070 C 
ATOM      3  C   UNL     1     -17.109  56.012   0.010  1.00  0.00     0.037 C 
ATOM      4  C   UNL     1     -15.878  55.547  -0.199  1.00  0.00     0.021 C 
ATOM      5  C   UNL     1     -17.469  57.121   0.883  1.00  0.00     0.334 C 
ATOM      6  O   UNL     1     -16.665  57.804   1.571  1.00  0.00    -0.247 OA
ATOM      7  O   UNL     1     -18.845  57.304   0.902  1.00  0.00    -0.455 OA
ENDROOT
BRANCH   2   8
ATOM      8  C   UNL     1     -18.571  54.606  -1.696  1.00  0.00     0.017 C 
BRANCH   8   9
ATOM      9  C   UNL     1     -20.069  54.530  -2.166  1.00  0.00     0.031 C 
BRANCH   9  10
ATOM     10  C   UNL     1     -20.893  53.414  -1.517  1.00  0.00    -0.077 C 
ATOM     11  C   UNL     1     -20.176  52.123  -1.210  1.00  0.00     0.039 C 
ATOM     12  C   UNL     1     -22.214  53.499  -1.159  1.00  0.00    -0.028 CG0
ATOM     13  G   UNL     1     -23.186  54.652  -1.403  1.00  0.00     0.000 G0
ENDBRANCH   9  10
ENDBRANCH   8   9
ENDBRANCH   2   8
BRANCH   1  14
ATOM     14  C   UNL     1     -20.794  55.970   0.091  1.00  0.00     0.192 C 
ATOM     15  C   UNL     1     -22.199  56.495   0.233  1.00  0.00     0.096 C 
ATOM     16  O   UNL     1     -21.486  56.718  -0.906  1.00  0.00    -0.362 OA
ATOM     17  C   UNL     1     -22.427  57.780   1.022  1.00  0.00     0.045 C 
BRANCH  15  18
ATOM     18  C   UNL     1     -23.399  55.589  -0.150  1.00  0.00     0.042 C 
BRANCH  18  19
ATOM     19  C   UNL     1     -23.188  54.657  -1.394  1.00  0.00     0.030 CG0
ATOM     20  G   UNL     1     -22.203  53.513  -1.157  1.00  0.00     0.000 G0
ENDBRANCH  18  19
ENDBRANCH  15  18
ENDBRANCH   1  14
TORSDOF 0
ENDMDL
MODEL 7
REMARK VINA RESULT:    -4.120      2.518      3.694
REMARK INTER + INTRA:          -3.566
REMARK INTER:                  -5.866
REMARK INTRA:                   2.300
REMARK UNBOUND:                 1.999
REMARK SMILES C=C1C(=O)O[C@H]2[C@H]1CCC(C)=CCC[C@]1(C)O[C@@H]21
REMARK SMILES IDX 6 1 7 2 2 3 1 4 3 5 4 6 5 7 8 8 9 9 10 10 11 11 12 12 18 14
REMARK SMILES IDX 15 15 17 16 16 17 14 18 13 19
REMARK H PARENT
REMARK Flexibility Score: 70.00
ROOT
ATOM      1  C   UNL     1     -21.833  54.447  -1.300  1.00  0.00     0.216 C 
ATOM      2  C   UNL     1     -21.848  55.965  -1.637  1.00  0.00     0.070 C 
ATOM      3  C   UNL     1     -23.317  56.202  -1.806  1.00  0.00     0.037 C 
ATOM      4  C   UNL     1     -23.913  57.270  -2.335  1.00  0.00     0.021 C 
ATOM      5  C   UNL     1     -23.963  55.169  -1.006  1.00  0.00     0.334 C 
ATOM      6  O   UNL     1     -25.184  55.136  -0.698  1.00  0.00    -0.247 OA
ATOM      7  O   UNL     1     -23.035  54.232  -0.575  1.00  0.00    -0.455 OA
ENDROOT
BRANCH   2   8
ATOM      8  C   UNL     1     -20.856  56.357  -2.775  1.00  0.00     0.017 C 
BRANCH   8   9
ATOM      9  C   UNL     1     -19.427  56.722  -2.229  1.00  0.00     0.031 C 
BRANCH   9  10
ATOM     10  C   UNL     1     -18.290  55.845  -2.762  1.00  0.00    -0.077 C 
ATOM     11  C   UNL     1     -18.033  55.884  -4.247  1.00  0.00     0.039 C 
ATOM     12  C   UNL     1     -17.463  55.058  -2.002  1.00  0.00    -0.028 CG0
ATOM     13  G   UNL     1     -17.533  54.788  -0.500  1.00  0.00     0.000 G0
ENDBRANCH   9  10
ENDBRANCH   8   9
ENDBRANCH   2   8
BRANCH   1  14
ATOM     14  C   UNL     1     -20.540  54.126  -0.556  1.00  0.00     0.192 C 
ATOM     15  C   UNL     1     -19.512  53.024  -0.534  1.00  0.00     0.096 C 
ATOM     16  O   UNL     1     -19.766  53.715  -1.680  1.00  0.00    -0.362 OA
ATOM     17  C   UNL     1     -19.984  51.577  -0.625  1.00  0.00     0.045 C 
BRANCH  15  18
ATOM     18  C   UNL     1     -18.052  53.347  -0.121  1.00  0.00     0.042 C 
BRANCH  18  19
ATOM     19  C   UNL     1     -17.533  54.780  -0.489  1.00  0.00     0.030 CG0
ATOM     20  G   UNL     1     -17.466  55.053  -1.991  1.00  0.00     0.000 G0
ENDBRANCH  18  19
ENDBRANCH  15  18
ENDBRANCH   1  14
TORSDOF 0
ENDMDL
MODEL 8
REMARK VINA RESULT:    -4.000      3.136      5.620
REMARK INTER + INTRA:          -3.404
REMARK INTER:                  -5.750
REMARK INTRA:                   2.346
REMARK UNBOUND:                 1.999
REMARK SMILES C=C1C(=O)O[C@H]2[C@H]1CCC(C)=CCC[C@]1(C)O[C@@H]21
REMARK SMILES IDX 6 1 7 2 2 3 1 4 3 5 4 6 5 7 8 8 9 9 10 10 11 11 12 12 18 14
REMARK SMILES IDX 15 15 17 16 16 17 14 18 13 19
REMARK H PARENT
REMARK Flexibility Score: 70.00
ROOT
ATOM      1  C   UNL     1     -20.992  56.262  -0.561  1.00  0.00     0.216 C 
ATOM      2  C   UNL     1     -21.407  55.094  -1.501  1.00  0.00     0.070 C 
ATOM      3  C   UNL     1     -20.065  54.555  -1.890  1.00  0.00     0.037 C 
ATOM      4  C   UNL     1     -19.787  53.695  -2.871  1.00  0.00     0.021 C 
ATOM      5  C   UNL     1     -19.176  54.924  -0.797  1.00  0.00     0.334 C 
ATOM      6  O   UNL     1     -18.010  54.482  -0.618  1.00  0.00    -0.247 OA
ATOM      7  O   UNL     1     -19.805  55.805   0.071  1.00  0.00    -0.455 OA
ENDROOT
BRANCH   2   8
ATOM      8  C   UNL     1     -22.429  55.517  -2.600  1.00  0.00     0.017 C 
BRANCH   8   9
ATOM      9  C   UNL     1     -23.405  56.649  -2.113  1.00  0.00     0.031 C 
BRANCH   9  10
ATOM     10  C   UNL     1     -24.679  56.151  -1.423  1.00  0.00    -0.077 C 
ATOM     11  C   UNL     1     -25.280  54.868  -1.938  1.00  0.00     0.039 C 
ATOM     12  C   UNL     1     -25.297  56.749  -0.355  1.00  0.00    -0.028 CG0
ATOM     13  G   UNL     1     -24.942  58.072   0.323  1.00  0.00     0.000 G0
ENDBRANCH   9  10
ENDBRANCH   8   9
ENDBRANCH   2   8
BRANCH   1  14
ATOM     14  C   UNL     1     -22.161  56.581   0.366  1.00  0.00     0.192 C 
ATOM     15  C   UNL     1     -22.551  57.667   1.334  1.00  0.00     0.096 C 
ATOM     16  O   UNL     1     -22.310  57.956   0.025  1.00  0.00    -0.362 OA
ATOM     17  C   UNL     1     -21.482  58.251   2.252  1.00  0.00     0.045 C 
BRANCH  15  18
ATOM     18  C   UNL     1     -24.052  57.956   1.597  1.00  0.00     0.042 C 
BRANCH  18  19
ATOM     19  C   UNL     1     -24.963  58.081   0.326  1.00  0.00     0.030 CG0
ATOM     20  G   UNL     1     -25.288  56.746  -0.341  1.00  0.00     0.000 G0
ENDBRANCH  18  19
ENDBRANCH  15  18
ENDBRANCH   1  14
TORSDOF 0
ENDMDL
MODEL 9
REMARK VINA RESULT:    -3.987      3.547      6.361
REMARK INTER + INTRA:          -3.386
REMARK INTER:                  -5.660
REMARK INTRA:                   2.274
REMARK UNBOUND:                 1.999
REMARK SMILES C=C1C(=O)O[C@H]2[C@H]1CCC(C)=CCC[C@]1(C)O[C@@H]21
REMARK SMILES IDX 6 1 7 2 2 3 1 4 3 5 4 6 5 7 8 8 9 9 10 10 11 11 12 12 18 14
REMARK SMILES IDX 15 15 17 16 16 17 14 18 13 19
REMARK H PARENT
REMARK Flexibility Score: 70.00
ROOT
ATOM      1  C   UNL     1     -21.686  55.156  -0.850  1.00  0.00     0.216 C 
ATOM      2  C   UNL     1     -21.474  55.909  -2.195  1.00  0.00     0.070 C 
ATOM      3  C   UNL     1     -20.028  55.617  -2.455  1.00  0.00     0.037 C 
ATOM      4  C   UNL     1     -19.228  56.201  -3.347  1.00  0.00     0.021 C 
ATOM      5  C   UNL     1     -19.759  54.370  -1.751  1.00  0.00     0.334 C 
ATOM      6  O   UNL     1     -18.727  53.661  -1.883  1.00  0.00    -0.247 OA
ATOM      7  O   UNL     1     -20.827  54.029  -0.934  1.00  0.00    -0.455 OA
ENDROOT
BRANCH   2   8
ATOM      8  C   UNL     1     -21.983  57.383  -2.167  1.00  0.00     0.017 C 
BRANCH   8   9
ATOM      9  C   UNL     1     -23.520  57.496  -2.477  1.00  0.00     0.031 C 
BRANCH   9  10
ATOM     10  C   UNL     1     -24.365  58.087  -1.344  1.00  0.00    -0.077 C 
ATOM     11  C   UNL     1     -24.006  59.473  -0.873  1.00  0.00     0.039 C 
ATOM     12  C   UNL     1     -25.440  57.480  -0.748  1.00  0.00    -0.028 CG0
ATOM     13  G   UNL     1     -25.981  56.071  -0.984  1.00  0.00     0.000 G0
ENDBRANCH   9  10
ENDBRANCH   8   9
ENDBRANCH   2   8
BRANCH   1  14
ATOM     14  C   UNL     1     -23.173  54.851  -0.692  1.00  0.00     0.192 C 
ATOM     15  C   UNL     1     -24.174  54.737   0.428  1.00  0.00     0.096 C 
ATOM     16  O   UNL     1     -23.491  55.898   0.222  1.00  0.00    -0.362 OA
ATOM     17  C   UNL     1     -23.753  54.052   1.723  1.00  0.00     0.045 C 
BRANCH  15  18
ATOM     18  C   UNL     1     -25.672  55.035   0.150  1.00  0.00     0.042 C 
BRANCH  18  19
ATOM     19  C   UNL     1     -25.969  56.062  -0.997  1.00  0.00     0.030 CG0
ATOM     20  G   UNL     1     -25.432  57.467  -0.731  1.00  0.00     0.000 G0
ENDBRANCH  18  19
ENDBRANCH  15  18
ENDBRANCH   1  14
TORSDOF 0
ENDMDL
