MODEL 1
REMARK VINA RESULT:    -3.510      0.000      0.000
REMARK INTER + INTRA:          -4.150
REMARK INTER:                  -4.125
REMARK INTRA:                  -0.024
REMARK UNBOUND:                -0.024
REMARK SMILES CCCCC(=O)[O-]
REMARK SMILES IDX 4 1 5 2 6 3 7 4 3 5 2 6 1 7
REMARK H PARENT
REMARK Flexibility Score: inf
ROOT
ATOM      1  C   UNL     1      17.178 -19.825 -12.533  1.00  0.00     0.053 C 
ENDROOT
BRANCH   1   2
ATOM      2  C   UNL     1      17.857 -20.964 -11.842  1.00  0.00     0.041 C 
ATOM      3  O   UNL     1      18.009 -22.065 -12.434  1.00  0.00    -0.550 OA
ATOM      4  O   UNL     1      18.367 -20.796 -10.560  1.00  0.00    -0.550 OA
ENDBRANCH   1   2
BRANCH   1   5
ATOM      5  C   UNL     1      17.979 -19.396 -13.770  1.00  0.00     0.006 C 
BRANCH   5   6
ATOM      6  C   UNL     1      17.241 -18.346 -14.616  1.00  0.00    -0.003 C 
ATOM      7  C   UNL     1      16.589 -17.255 -13.766  1.00  0.00     0.004 C 
ENDBRANCH   5   6
ENDBRANCH   1   5
TORSDOF 3
ENDMDL
MODEL 2
REMARK VINA RESULT:    -3.383     11.930     12.399
REMARK INTER + INTRA:          -4.001
REMARK INTER:                  -3.984
REMARK INTRA:                  -0.017
REMARK UNBOUND:                -0.024
REMARK SMILES CCCCC(=O)[O-]
REMARK SMILES IDX 4 1 5 2 6 3 7 4 3 5 2 6 1 7
REMARK H PARENT
REMARK Flexibility Score: inf
ROOT
ATOM      1  C   UNL     1       5.220 -21.716 -11.917  1.00  0.00     0.053 C 
ENDROOT
BRANCH   1   2
ATOM      2  C   UNL     1       4.812 -22.296 -13.234  1.00  0.00     0.041 C 
ATOM      3  O   UNL     1       4.157 -21.603 -14.057  1.00  0.00    -0.550 OA
ATOM      4  O   UNL     1       5.198 -23.587 -13.574  1.00  0.00    -0.550 OA
ENDBRANCH   1   2
BRANCH   1   5
ATOM      5  C   UNL     1       6.229 -20.579 -12.123  1.00  0.00     0.006 C 
BRANCH   5   6
ATOM      6  C   UNL     1       6.595 -19.870 -10.810  1.00  0.00    -0.003 C 
ATOM      7  C   UNL     1       7.903 -20.381 -10.206  1.00  0.00     0.004 C 
ENDBRANCH   5   6
ENDBRANCH   1   5
TORSDOF 3
ENDMDL
MODEL 3
REMARK VINA RESULT:    -3.282     12.013     12.426
REMARK INTER + INTRA:          -3.881
REMARK INTER:                  -3.861
REMARK INTRA:                  -0.020
REMARK UNBOUND:                -0.024
REMARK SMILES CCCCC(=O)[O-]
REMARK SMILES IDX 4 1 5 2 6 3 7 4 3 5 2 6 1 7
REMARK H PARENT
REMARK Flexibility Score: inf
ROOT
ATOM      1  C   UNL     1       5.970 -20.940 -12.566  1.00  0.00     0.053 C 
ENDROOT
BRANCH   1   2
ATOM      2  C   UNL     1       4.799 -21.804 -12.910  1.00  0.00     0.041 C 
ATOM      3  O   UNL     1       4.231 -21.688 -14.028  1.00  0.00    -0.550 OA
ATOM      4  O   UNL     1       4.363 -22.773 -12.014  1.00  0.00    -0.550 OA
ENDBRANCH   1   2
BRANCH   1   5
ATOM      5  C   UNL     1       5.793 -20.331 -11.169  1.00  0.00     0.006 C 
BRANCH   5   6
ATOM      6  C   UNL     1       7.116 -19.820 -10.576  1.00  0.00    -0.003 C 
ATOM      7  C   UNL     1       6.958 -18.492  -9.835  1.00  0.00     0.004 C 
ENDBRANCH   5   6
ENDBRANCH   1   5
TORSDOF 3
ENDMDL
MODEL 4
REMARK VINA RESULT:    -3.192      9.614     10.671
REMARK INTER + INTRA:          -3.776
REMARK INTER:                  -3.716
REMARK INTRA:                  -0.060
REMARK UNBOUND:                -0.024
REMARK SMILES CCCCC(=O)[O-]
REMARK SMILES IDX 4 1 5 2 6 3 7 4 3 5 2 6 1 7
REMARK H PARENT
REMARK Flexibility Score: inf
ROOT
ATOM      1  C   UNL     1      20.260 -11.471 -19.085  1.00  0.00     0.053 C 
ENDROOT
BRANCH   1   2
ATOM      2  C   UNL     1      19.858 -12.728 -18.381  1.00  0.00     0.041 C 
ATOM      3  O   UNL     1      18.852 -12.736 -17.623  1.00  0.00    -0.550 OA
ATOM      4  O   UNL     1      20.564 -13.904 -18.600  1.00  0.00    -0.550 OA
ENDBRANCH   1   2
BRANCH   1   5
ATOM      5  C   UNL     1      19.667 -10.248 -18.374  1.00  0.00     0.006 C 
BRANCH   5   6
ATOM      6  C   UNL     1      20.730  -9.196 -18.021  1.00  0.00    -0.003 C 
ATOM      7  C   UNL     1      22.105  -9.528 -18.602  1.00  0.00     0.004 C 
ENDBRANCH   5   6
ENDBRANCH   1   5
TORSDOF 3
ENDMDL
MODEL 5
REMARK VINA RESULT:    -3.133     10.729     11.175
REMARK INTER + INTRA:          -3.707
REMARK INTER:                  -3.674
REMARK INTRA:                  -0.033
REMARK UNBOUND:                -0.024
REMARK SMILES CCCCC(=O)[O-]
REMARK SMILES IDX 4 1 5 2 6 3 7 4 3 5 2 6 1 7
REMARK H PARENT
REMARK Flexibility Score: inf
ROOT
ATOM      1  C   UNL     1       6.460 -18.916 -10.099  1.00  0.00     0.053 C 
ENDROOT
BRANCH   1   2
ATOM      2  C   UNL     1       7.174 -20.082 -10.703  1.00  0.00     0.041 C 
ATOM      3  O   UNL     1       6.702 -20.658 -11.719  1.00  0.00    -0.550 OA
ATOM      4  O   UNL     1       8.388 -20.504 -10.176  1.00  0.00    -0.550 OA
ENDBRANCH   1   2
BRANCH   1   5
ATOM      5  C   UNL     1       7.440 -18.042  -9.304  1.00  0.00     0.006 C 
BRANCH   5   6
ATOM      6  C   UNL     1       6.853 -17.563  -7.967  1.00  0.00    -0.003 C 
ATOM      7  C   UNL     1       7.808 -16.654  -7.194  1.00  0.00     0.004 C 
ENDBRANCH   5   6
ENDBRANCH   1   5
TORSDOF 3
ENDMDL
MODEL 6
REMARK VINA RESULT:    -3.130     15.705     16.588
REMARK INTER + INTRA:          -3.703
REMARK INTER:                  -3.678
REMARK INTRA:                  -0.024
REMARK UNBOUND:                -0.024
REMARK SMILES CCCCC(=O)[O-]
REMARK SMILES IDX 4 1 5 2 6 3 7 4 3 5 2 6 1 7
REMARK H PARENT
REMARK Flexibility Score: inf
ROOT
ATOM      1  C   UNL     1       8.132  -8.211  -6.978  1.00  0.00     0.053 C 
ENDROOT
BRANCH   1   2
ATOM      2  C   UNL     1       8.277  -7.204  -5.882  1.00  0.00     0.041 C 
ATOM      3  O   UNL     1       9.025  -7.443  -4.896  1.00  0.00    -0.550 OA
ATOM      4  O   UNL     1       7.626  -5.980  -5.971  1.00  0.00    -0.550 OA
ENDBRANCH   1   2
BRANCH   1   5
ATOM      5  C   UNL     1       8.163  -9.633  -6.404  1.00  0.00     0.006 C 
BRANCH   5   6
ATOM      6  C   UNL     1       6.937 -10.463  -6.817  1.00  0.00    -0.003 C 
ATOM      7  C   UNL     1       6.933 -11.861  -6.198  1.00  0.00     0.004 C 
ENDBRANCH   5   6
ENDBRANCH   1   5
TORSDOF 3
ENDMDL
MODEL 7
REMARK VINA RESULT:    -3.109     15.714     16.532
REMARK INTER + INTRA:          -3.679
REMARK INTER:                  -3.599
REMARK INTRA:                  -0.080
REMARK UNBOUND:                -0.024
REMARK SMILES CCCCC(=O)[O-]
REMARK SMILES IDX 4 1 5 2 6 3 7 4 3 5 2 6 1 7
REMARK H PARENT
REMARK Flexibility Score: inf
ROOT
ATOM      1  C   UNL     1       9.610  -6.912  -7.129  1.00  0.00     0.053 C 
ENDROOT
BRANCH   1   2
ATOM      2  C   UNL     1       8.727  -6.797  -5.928  1.00  0.00     0.041 C 
ATOM      3  O   UNL     1       8.989  -7.450  -4.883  1.00  0.00    -0.550 OA
ATOM      4  O   UNL     1       7.641  -5.931  -5.943  1.00  0.00    -0.550 OA
ENDBRANCH   1   2
BRANCH   1   5
ATOM      5  C   UNL     1       9.371  -8.249  -7.843  1.00  0.00     0.006 C 
BRANCH   5   6
ATOM      6  C   UNL     1       8.554  -8.090  -9.135  1.00  0.00    -0.003 C 
ATOM      7  C   UNL     1       8.774  -6.737  -9.811  1.00  0.00     0.004 C 
ENDBRANCH   5   6
ENDBRANCH   1   5
TORSDOF 3
ENDMDL
MODEL 8
REMARK VINA RESULT:    -3.013     11.519     11.977
REMARK INTER + INTRA:          -3.566
REMARK INTER:                  -3.461
REMARK INTRA:                  -0.105
REMARK UNBOUND:                -0.024
REMARK SMILES CCCCC(=O)[O-]
REMARK SMILES IDX 4 1 5 2 6 3 7 4 3 5 2 6 1 7
REMARK H PARENT
REMARK Flexibility Score: inf
ROOT
ATOM      1  C   UNL     1       7.148 -20.111 -10.592  1.00  0.00     0.053 C 
ENDROOT
BRANCH   1   2
ATOM      2  C   UNL     1       6.086 -20.530 -11.559  1.00  0.00     0.041 C 
ATOM      3  O   UNL     1       4.870 -20.400 -11.259  1.00  0.00    -0.550 OA
ATOM      4  O   UNL     1       6.439 -21.018 -12.810  1.00  0.00    -0.550 OA
ENDBRANCH   1   2
BRANCH   1   5
ATOM      5  C   UNL     1       7.014 -18.618 -10.265  1.00  0.00     0.006 C 
BRANCH   5   6
ATOM      6  C   UNL     1       6.582 -18.368  -8.812  1.00  0.00    -0.003 C 
ATOM      7  C   UNL     1       5.174 -17.781  -8.707  1.00  0.00     0.004 C 
ENDBRANCH   5   6
ENDBRANCH   1   5
TORSDOF 3
ENDMDL
MODEL 9
REMARK VINA RESULT:    -3.012     11.188     11.760
REMARK INTER + INTRA:          -3.565
REMARK INTER:                  -3.541
REMARK INTRA:                  -0.024
REMARK UNBOUND:                -0.024
REMARK SMILES CCCCC(=O)[O-]
REMARK SMILES IDX 4 1 5 2 6 3 7 4 3 5 2 6 1 7
REMARK H PARENT
REMARK Flexibility Score: inf
ROOT
ATOM      1  C   UNL     1       6.404 -17.968  -8.101  1.00  0.00     0.053 C 
ENDROOT
BRANCH   1   2
ATOM      2  C   UNL     1       7.233 -17.443  -6.973  1.00  0.00     0.041 C 
ATOM      3  O   UNL     1       7.994 -16.455  -7.151  1.00  0.00    -0.550 OA
ATOM      4  O   UNL     1       7.129 -18.012  -5.710  1.00  0.00    -0.550 OA
ENDBRANCH   1   2
BRANCH   1   5
ATOM      5  C   UNL     1       7.231 -18.023  -9.392  1.00  0.00     0.006 C 
BRANCH   5   6
ATOM      6  C   UNL     1       6.857 -19.219 -10.282  1.00  0.00    -0.003 C 
ATOM      7  C   UNL     1       7.862 -20.367 -10.183  1.00  0.00     0.004 C 
ENDBRANCH   5   6
ENDBRANCH   1   5
TORSDOF 3
ENDMDL
