MODEL 1
REMARK VINA RESULT:    67.336      0.000      0.000
REMARK INTER + INTRA:          92.293
REMARK INTER:                  88.987
REMARK INTRA:                   3.306
REMARK UNBOUND:                 3.306
REMARK SMILES CC[C@H](C=C[C@@H](C)[C@H]1CC[C@H]2[C@H]3CC=C4C[C@@H](O)CC[C@@]4(C)[C@H]3CC[C@@]12C)C(C)C
REMARK SMILES IDX 6 1 7 2 5 3 4 4 3 5 2 6 1 7 28 8 29 9 30 10 8 11 9 12 26 13
REMARK SMILES IDX 10 14 11 15 25 16 27 17 12 18 24 19 23 20 13 21 21 22 14 23
REMARK SMILES IDX 15 24 20 25 22 26 16 27 19 28 17 29 18 30
REMARK H PARENT 18 31
REMARK Flexibility Score: inf
ROOT
ATOM      1  C   UNL     1      39.025 -23.177   6.365  1.00  0.00     0.012 C 
ATOM      2  C   UNL     1      39.111 -21.787   5.703  1.00  0.00     0.012 C 
ENDROOT
BRANCH   1   3
ATOM      3  C   UNL     1      38.891 -24.294   5.327  1.00  0.00    -0.028 C 
ATOM      4  C   UNL     1      39.094 -25.610   5.557  1.00  0.00    -0.027 C 
BRANCH   4   5
ATOM      5  C   UNL     1      39.120 -26.660   4.455  1.00  0.00     0.014 C 
BRANCH   5   6
ATOM      6  C   UNL     1      38.515 -28.021   4.896  1.00  0.00     0.004 C 
ATOM      7  C   UNL     1      38.973 -29.200   4.032  1.00  0.00     0.004 C 
ENDBRANCH   5   6
BRANCH   5   8
ATOM      8  C   UNL     1      38.460 -26.080   3.159  1.00  0.00    -0.011 C 
ATOM      9  C   UNL     1      38.957 -24.650   2.869  1.00  0.00     0.008 C 
ATOM     10  C   UNL     1      38.710 -26.947   1.911  1.00  0.00     0.008 C 
ENDBRANCH   5   8
ENDBRANCH   4   5
ENDBRANCH   1   3
BRANCH   1  11
ATOM     11  C   UNL     1      37.857 -23.286   7.412  1.00  0.00     0.002 C 
ATOM     12  C   UNL     1      36.988 -22.019   7.433  1.00  0.00     0.005 C 
ATOM     13  C   UNL     1      36.819 -24.466   7.285  1.00  0.00    -0.026 C 
ATOM     14  C   UNL     1      35.693 -22.381   8.123  1.00  0.00     0.005 C 
ATOM     15  C   UNL     1      35.491 -23.890   7.901  1.00  0.00    -0.001 C 
ATOM     16  C   UNL     1      36.575 -24.910   5.816  1.00  0.00     0.007 C 
ATOM     17  C   UNL     1      37.316 -25.680   8.120  1.00  0.00     0.012 C 
ATOM     18  C   UNL     1      34.161 -24.256   7.149  1.00  0.00     0.000 C 
ATOM     19  C   UNL     1      35.398 -25.892   5.638  1.00  0.00     0.005 C 
ATOM     20  C   UNL     1      34.214 -25.715   6.639  1.00  0.00     0.003 C 
ATOM     21  C   UNL     1      33.714 -23.293   6.012  1.00  0.00     0.031 C 
ATOM     22  C   UNL     1      32.821 -26.170   6.059  1.00  0.00    -0.008 C 
ATOM     23  C   UNL     1      32.710 -23.877   5.038  1.00  0.00    -0.027 C 
ATOM     24  C   UNL     1      32.352 -25.183   4.988  1.00  0.00    -0.065 C 
ATOM     25  C   UNL     1      32.930 -27.616   5.467  1.00  0.00     0.014 C 
ATOM     26  C   UNL     1      31.761 -26.191   7.197  1.00  0.00     0.016 C 
ATOM     27  C   UNL     1      31.240 -25.593   4.041  1.00  0.00     0.063 C 
ATOM     28  C   UNL     1      31.722 -28.028   4.608  1.00  0.00     0.033 C 
ATOM     29  C   UNL     1      31.432 -27.019   3.490  1.00  0.00     0.118 C 
BRANCH  29  30
ATOM     30  O   UNL     1      32.430 -27.068   2.496  1.00  0.00    -0.393 OA
ATOM     31  H   UNL     1      33.258 -27.431   2.900  1.00  0.00     0.210 HD
ENDBRANCH  29  30
ENDBRANCH   1  11
TORSDOF 6
ENDMDL
MODEL 2
REMARK VINA RESULT:    68.978      8.765     13.638
REMARK INTER + INTRA:          94.462
REMARK INTER:                  95.256
REMARK INTRA:                  -0.794
REMARK UNBOUND:                 3.306
REMARK SMILES CC[C@H](C=C[C@@H](C)[C@H]1CC[C@H]2[C@H]3CC=C4C[C@@H](O)CC[C@@]4(C)[C@H]3CC[C@@]12C)C(C)C
REMARK SMILES IDX 6 1 7 2 5 3 4 4 3 5 2 6 1 7 28 8 29 9 30 10 8 11 9 12 26 13
REMARK SMILES IDX 10 14 11 15 25 16 27 17 12 18 24 19 23 20 13 21 21 22 14 23
REMARK SMILES IDX 15 24 20 25 22 26 16 27 19 28 17 29 18 30
REMARK H PARENT 18 31
REMARK Flexibility Score: inf
ROOT
ATOM      1  C   UNL     1      27.267 -31.146  -3.083  1.00  0.00     0.012 C 
ATOM      2  C   UNL     1      25.811 -31.614  -2.879  1.00  0.00     0.012 C 
ENDROOT
BRANCH   1   3
ATOM      3  C   UNL     1      27.531 -30.721  -4.530  1.00  0.00    -0.028 C 
ATOM      4  C   UNL     1      26.690 -30.001  -5.304  1.00  0.00    -0.027 C 
BRANCH   4   5
ATOM      5  C   UNL     1      26.920 -29.755  -6.788  1.00  0.00     0.014 C 
BRANCH   5   6
ATOM      6  C   UNL     1      25.651 -30.002  -7.651  1.00  0.00     0.004 C 
ATOM      7  C   UNL     1      25.940 -30.743  -8.961  1.00  0.00     0.004 C 
ENDBRANCH   5   6
BRANCH   5   8
ATOM      8  C   UNL     1      27.542 -28.333  -6.997  1.00  0.00    -0.011 C 
ATOM      9  C   UNL     1      26.456 -27.290  -7.330  1.00  0.00     0.008 C 
ATOM     10  C   UNL     1      28.341 -27.836  -5.778  1.00  0.00     0.008 C 
ENDBRANCH   5   8
ENDBRANCH   4   5
ENDBRANCH   1   3
BRANCH   1  11
ATOM     11  C   UNL     1      28.323 -32.225  -2.648  1.00  0.00     0.002 C 
ATOM     12  C   UNL     1      28.892 -32.989  -3.853  1.00  0.00     0.005 C 
ATOM     13  C   UNL     1      29.599 -31.770  -1.840  1.00  0.00    -0.026 C 
ATOM     14  C   UNL     1      30.162 -33.666  -3.391  1.00  0.00     0.005 C 
ATOM     15  C   UNL     1      30.705 -32.819  -2.228  1.00  0.00    -0.001 C 
ATOM     16  C   UNL     1      30.074 -30.337  -2.207  1.00  0.00     0.007 C 
ATOM     17  C   UNL     1      29.298 -31.844  -0.317  1.00  0.00     0.012 C 
ATOM     18  C   UNL     1      32.149 -32.250  -2.468  1.00  0.00     0.000 C 
ATOM     19  C   UNL     1      31.447 -29.954  -1.615  1.00  0.00     0.005 C 
ATOM     20  C   UNL     1      32.463 -31.128  -1.451  1.00  0.00     0.003 C 
ATOM     21  C   UNL     1      32.485 -31.789  -3.915  1.00  0.00     0.031 C 
ATOM     22  C   UNL     1      33.970 -30.679  -1.540  1.00  0.00    -0.008 C 
ATOM     23  C   UNL     1      33.682 -30.864  -4.028  1.00  0.00    -0.027 C 
ATOM     24  C   UNL     1      34.317 -30.290  -2.978  1.00  0.00    -0.065 C 
ATOM     25  C   UNL     1      34.234 -29.480  -0.566  1.00  0.00     0.014 C 
ATOM     26  C   UNL     1      34.894 -31.857  -1.119  1.00  0.00     0.016 C 
ATOM     27  C   UNL     1      35.578 -29.489  -3.245  1.00  0.00     0.063 C 
ATOM     28  C   UNL     1      35.581 -28.774  -0.800  1.00  0.00     0.033 C 
ATOM     29  C   UNL     1      35.752 -28.321  -2.256  1.00  0.00     0.118 C 
BRANCH  29  30
ATOM     30  O   UNL     1      34.890 -27.246  -2.555  1.00  0.00    -0.393 OA
ATOM     31  H   UNL     1      35.003 -26.550  -1.859  1.00  0.00     0.210 HD
ENDBRANCH  29  30
ENDBRANCH   1  11
TORSDOF 6
ENDMDL
