MODEL 1
REMARK VINA RESULT:    -6.638      0.000      0.000
REMARK INTER + INTRA:          -9.024
REMARK INTER:                  -8.191
REMARK INTRA:                  -0.833
REMARK UNBOUND:                -0.833
REMARK SMILES CC(C)=CCC[C@@H](C)c1ccc(C)cc1
REMARK SMILES IDX 6 1 7 2 8 3 9 4 13 5 12 6 11 7 14 8 10 9 15 10 5 11 4 12
REMARK SMILES IDX 2 13 1 14 3 15
REMARK H PARENT
REMARK Flexibility Score: inf
ROOT
ATOM      1  C   UNL     1       3.832   7.919  20.666  1.00  0.00     0.012 C 
ENDROOT
BRANCH   1   2
ATOM      2  C   UNL     1       3.309   6.831  21.633  1.00  0.00     0.016 C 
ATOM      3  C   UNL     1       1.781   6.881  21.794  1.00  0.00     0.013 C 
BRANCH   2   4
ATOM      4  C   UNL     1       3.744   5.454  21.165  1.00  0.00    -0.045 A 
ATOM      5  C   UNL     1       4.934   1.530  19.807  1.00  0.00     0.044 C 
ATOM      6  C   UNL     1       4.550   2.902  20.277  1.00  0.00    -0.051 A 
ATOM      7  C   UNL     1       4.121   3.870  19.356  1.00  0.00     0.004 A 
ATOM      8  C   UNL     1       4.550   3.206  21.645  1.00  0.00     0.004 A 
ATOM      9  C   UNL     1       3.728   5.137  19.796  1.00  0.00     0.004 A 
ATOM     10  C   UNL     1       4.157   4.473  22.087  1.00  0.00     0.004 A 
ENDBRANCH   2   4
ENDBRANCH   1   2
BRANCH   1  11
ATOM     11  C   UNL     1       4.918   8.802  21.299  1.00  0.00     0.028 C 
BRANCH  11  12
ATOM     12  C   UNL     1       4.728   8.890  22.792  1.00  0.00    -0.028 C 
ATOM     13  C   UNL     1       5.712   8.705  23.700  1.00  0.00    -0.080 C 
ATOM     14  C   UNL     1       7.142   8.442  23.288  1.00  0.00     0.039 C 
ATOM     15  C   UNL     1       5.364   8.786  25.164  1.00  0.00     0.039 C 
ENDBRANCH  11  12
ENDBRANCH   1  11
TORSDOF 4
ENDMDL
MODEL 2
REMARK VINA RESULT:    -6.593      1.185      5.586
REMARK INTER + INTRA:          -8.967
REMARK INTER:                  -8.007
REMARK INTRA:                  -0.961
REMARK UNBOUND:                -0.833
REMARK SMILES CC(C)=CCC[C@@H](C)c1ccc(C)cc1
REMARK SMILES IDX 6 1 7 2 8 3 9 4 13 5 12 6 11 7 14 8 10 9 15 10 5 11 4 12
REMARK SMILES IDX 2 13 1 14 3 15
REMARK H PARENT
REMARK Flexibility Score: inf
ROOT
ATOM      1  C   UNL     1       2.356   5.917  20.805  1.00  0.00     0.012 C 
ENDROOT
BRANCH   1   2
ATOM      2  C   UNL     1       3.806   6.388  20.546  1.00  0.00     0.016 C 
ATOM      3  C   UNL     1       3.919   7.259  19.285  1.00  0.00     0.013 C 
BRANCH   2   4
ATOM      4  C   UNL     1       4.342   7.137  21.752  1.00  0.00    -0.045 A 
ATOM      5  C   UNL     1       5.905   9.295  25.153  1.00  0.00     0.044 C 
ATOM      6  C   UNL     1       5.334   8.548  23.983  1.00  0.00    -0.051 A 
ATOM      7  C   UNL     1       4.968   9.235  22.817  1.00  0.00     0.004 A 
ATOM      8  C   UNL     1       5.227   7.151  24.022  1.00  0.00     0.004 A 
ATOM      9  C   UNL     1       4.470   8.536  21.714  1.00  0.00     0.004 A 
ATOM     10  C   UNL     1       4.730   6.451  22.919  1.00  0.00     0.004 A 
ENDBRANCH   2   4
ENDBRANCH   1   2
BRANCH   1  11
ATOM     11  C   UNL     1       2.272   4.422  21.151  1.00  0.00     0.028 C 
BRANCH  11  12
ATOM     12  C   UNL     1       3.063   3.602  20.163  1.00  0.00    -0.028 C 
ATOM     13  C   UNL     1       4.201   2.936  20.460  1.00  0.00    -0.080 C 
ATOM     14  C   UNL     1       4.769   2.906  21.860  1.00  0.00     0.039 C 
ATOM     15  C   UNL     1       4.905   2.189  19.357  1.00  0.00     0.039 C 
ENDBRANCH  11  12
ENDBRANCH   1  11
TORSDOF 4
ENDMDL
MODEL 3
REMARK VINA RESULT:    -6.355      1.708      3.326
REMARK INTER + INTRA:          -8.674
REMARK INTER:                  -7.377
REMARK INTRA:                  -1.297
REMARK UNBOUND:                -0.833
REMARK SMILES CC(C)=CCC[C@@H](C)c1ccc(C)cc1
REMARK SMILES IDX 6 1 7 2 8 3 9 4 13 5 12 6 11 7 14 8 10 9 15 10 5 11 4 12
REMARK SMILES IDX 2 13 1 14 3 15
REMARK H PARENT
REMARK Flexibility Score: inf
ROOT
ATOM      1  C   UNL     1       6.062   7.513  23.209  1.00  0.00     0.012 C 
ENDROOT
BRANCH   1   2
ATOM      2  C   UNL     1       4.759   7.036  23.891  1.00  0.00     0.016 C 
ATOM      3  C   UNL     1       3.929   8.207  24.443  1.00  0.00     0.013 C 
BRANCH   2   4
ATOM      4  C   UNL     1       3.927   6.211  22.926  1.00  0.00    -0.045 A 
ATOM      5  C   UNL     1       1.516   3.875  20.208  1.00  0.00     0.044 C 
ATOM      6  C   UNL     1       2.370   4.696  21.128  1.00  0.00    -0.051 A 
ATOM      7  C   UNL     1       1.995   6.006  21.459  1.00  0.00     0.004 A 
ATOM      8  C   UNL     1       3.512   4.137  21.719  1.00  0.00     0.004 A 
ATOM      9  C   UNL     1       2.770   6.759  22.345  1.00  0.00     0.004 A 
ATOM     10  C   UNL     1       4.288   4.889  22.605  1.00  0.00     0.004 A 
ENDBRANCH   2   4
ENDBRANCH   1   2
BRANCH   1  11
ATOM     11  C   UNL     1       5.904   8.877  22.519  1.00  0.00     0.028 C 
BRANCH  11  12
ATOM     12  C   UNL     1       5.546   8.699  21.065  1.00  0.00    -0.028 C 
ATOM     13  C   UNL     1       4.465   9.250  20.470  1.00  0.00    -0.080 C 
ATOM     14  C   UNL     1       3.521  10.164  21.216  1.00  0.00     0.039 C 
ATOM     15  C   UNL     1       4.214   8.951  19.015  1.00  0.00     0.039 C 
ENDBRANCH  11  12
ENDBRANCH   1  11
TORSDOF 4
ENDMDL
MODEL 4
REMARK VINA RESULT:    -6.307      1.894      5.332
REMARK INTER + INTRA:          -8.616
REMARK INTER:                  -7.532
REMARK INTRA:                  -1.084
REMARK UNBOUND:                -0.833
REMARK SMILES CC(C)=CCC[C@@H](C)c1ccc(C)cc1
REMARK SMILES IDX 6 1 7 2 8 3 9 4 13 5 12 6 11 7 14 8 10 9 15 10 5 11 4 12
REMARK SMILES IDX 2 13 1 14 3 15
REMARK H PARENT
REMARK Flexibility Score: inf
ROOT
ATOM      1  C   UNL     1       3.100   6.195  21.150  1.00  0.00     0.012 C 
ENDROOT
BRANCH   1   2
ATOM      2  C   UNL     1       3.608   5.739  22.537  1.00  0.00     0.016 C 
ATOM      3  C   UNL     1       4.485   4.479  22.449  1.00  0.00     0.013 C 
BRANCH   2   4
ATOM      4  C   UNL     1       4.368   6.862  23.218  1.00  0.00    -0.045 A 
ATOM      5  C   UNL     1       6.577  10.028  25.156  1.00  0.00     0.044 C 
ATOM      6  C   UNL     1       5.795   8.950  24.467  1.00  0.00    -0.051 A 
ATOM      7  C   UNL     1       6.286   8.360  23.293  1.00  0.00     0.004 A 
ATOM      8  C   UNL     1       4.601   8.475  25.028  1.00  0.00     0.004 A 
ATOM      9  C   UNL     1       5.576   7.330  22.671  1.00  0.00     0.004 A 
ATOM     10  C   UNL     1       3.890   7.444  24.407  1.00  0.00     0.004 A 
ENDBRANCH   2   4
ENDBRANCH   1   2
BRANCH   1  11
ATOM     11  C   UNL     1       1.788   6.991  21.232  1.00  0.00     0.028 C 
BRANCH  11  12
ATOM     12  C   UNL     1       1.688   7.971  20.091  1.00  0.00    -0.028 C 
ATOM     13  C   UNL     1       2.209   9.218  20.105  1.00  0.00    -0.080 C 
ATOM     14  C   UNL     1       3.010   9.738  21.277  1.00  0.00     0.039 C 
ATOM     15  C   UNL     1       1.995  10.100  18.903  1.00  0.00     0.039 C 
ENDBRANCH  11  12
ENDBRANCH   1  11
TORSDOF 4
ENDMDL
MODEL 5
REMARK VINA RESULT:    -6.304     13.556     16.393
REMARK INTER + INTRA:          -8.611
REMARK INTER:                  -8.072
REMARK INTRA:                  -0.539
REMARK UNBOUND:                -0.833
REMARK SMILES CC(C)=CCC[C@@H](C)c1ccc(C)cc1
REMARK SMILES IDX 6 1 7 2 8 3 9 4 13 5 12 6 11 7 14 8 10 9 15 10 5 11 4 12
REMARK SMILES IDX 2 13 1 14 3 15
REMARK H PARENT
REMARK Flexibility Score: inf
ROOT
ATOM      1  C   UNL     1      16.565  -3.895  24.138  1.00  0.00     0.012 C 
ENDROOT
BRANCH   1   2
ATOM      2  C   UNL     1      16.339  -4.635  25.477  1.00  0.00     0.016 C 
ATOM      3  C   UNL     1      17.436  -5.675  25.759  1.00  0.00     0.013 C 
BRANCH   2   4
ATOM      4  C   UNL     1      16.249  -3.643  26.621  1.00  0.00    -0.045 A 
ATOM      5  C   UNL     1      15.950  -0.844  29.898  1.00  0.00     0.044 C 
ATOM      6  C   UNL     1      16.084  -1.814  28.762  1.00  0.00    -0.051 A 
ATOM      7  C   UNL     1      16.101  -3.195  29.010  1.00  0.00     0.004 A 
ATOM      8  C   UNL     1      16.124  -1.352  27.439  1.00  0.00     0.004 A 
ATOM      9  C   UNL     1      16.190  -4.100  27.949  1.00  0.00     0.004 A 
ATOM     10  C   UNL     1      16.212  -2.256  26.378  1.00  0.00     0.004 A 
ENDBRANCH   2   4
ENDBRANCH   1   2
BRANCH   1  11
ATOM     11  C   UNL     1      16.053  -4.691  22.928  1.00  0.00     0.028 C 
BRANCH  11  12
ATOM     12  C   UNL     1      16.144  -3.863  21.670  1.00  0.00    -0.028 C 
ATOM     13  C   UNL     1      15.136  -3.110  21.176  1.00  0.00    -0.080 C 
ATOM     14  C   UNL     1      13.810  -2.981  21.888  1.00  0.00     0.039 C 
ATOM     15  C   UNL     1      15.362  -2.366  19.885  1.00  0.00     0.039 C 
ENDBRANCH  11  12
ENDBRANCH   1  11
TORSDOF 4
ENDMDL
MODEL 6
REMARK VINA RESULT:    -6.284      1.198      5.252
REMARK INTER + INTRA:          -8.587
REMARK INTER:                  -7.439
REMARK INTRA:                  -1.148
REMARK UNBOUND:                -0.833
REMARK SMILES CC(C)=CCC[C@@H](C)c1ccc(C)cc1
REMARK SMILES IDX 6 1 7 2 8 3 9 4 13 5 12 6 11 7 14 8 10 9 15 10 5 11 4 12
REMARK SMILES IDX 2 13 1 14 3 15
REMARK H PARENT
REMARK Flexibility Score: inf
ROOT
ATOM      1  C   UNL     1       4.318   7.680  19.738  1.00  0.00     0.012 C 
ENDROOT
BRANCH   1   2
ATOM      2  C   UNL     1       4.528   9.032  20.459  1.00  0.00     0.016 C 
ATOM      3  C   UNL     1       3.293   9.942  20.359  1.00  0.00     0.013 C 
BRANCH   2   4
ATOM      4  C   UNL     1       4.896   8.804  21.914  1.00  0.00    -0.045 A 
ATOM      5  C   UNL     1       5.966   8.107  26.040  1.00  0.00     0.044 C 
ATOM      6  C   UNL     1       5.600   8.378  24.611  1.00  0.00    -0.051 A 
ATOM      7  C   UNL     1       6.567   8.270  23.601  1.00  0.00     0.004 A 
ATOM      8  C   UNL     1       4.274   8.675  24.265  1.00  0.00     0.004 A 
ATOM      9  C   UNL     1       6.220   8.487  22.265  1.00  0.00     0.004 A 
ATOM     10  C   UNL     1       3.925   8.891  22.930  1.00  0.00     0.004 A 
ENDBRANCH   2   4
ENDBRANCH   1   2
BRANCH   1  11
ATOM     11  C   UNL     1       3.155   6.868  20.328  1.00  0.00     0.028 C 
BRANCH  11  12
ATOM     12  C   UNL     1       3.460   5.392  20.283  1.00  0.00    -0.028 C 
ATOM     13  C   UNL     1       3.925   4.675  21.330  1.00  0.00    -0.080 C 
ATOM     14  C   UNL     1       4.133   5.292  22.694  1.00  0.00     0.039 C 
ATOM     15  C   UNL     1       4.222   3.212  21.124  1.00  0.00     0.039 C 
ENDBRANCH  11  12
ENDBRANCH   1  11
TORSDOF 4
ENDMDL
MODEL 7
REMARK VINA RESULT:    -6.228      0.840      1.725
REMARK INTER + INTRA:          -8.518
REMARK INTER:                  -7.859
REMARK INTRA:                  -0.659
REMARK UNBOUND:                -0.833
REMARK SMILES CC(C)=CCC[C@@H](C)c1ccc(C)cc1
REMARK SMILES IDX 6 1 7 2 8 3 9 4 13 5 12 6 11 7 14 8 10 9 15 10 5 11 4 12
REMARK SMILES IDX 2 13 1 14 3 15
REMARK H PARENT
REMARK Flexibility Score: inf
ROOT
ATOM      1  C   UNL     1       2.894   7.148  21.964  1.00  0.00     0.012 C 
ENDROOT
BRANCH   1   2
ATOM      2  C   UNL     1       2.830   6.750  20.472  1.00  0.00     0.016 C 
ATOM      3  C   UNL     1       3.568   7.753  19.569  1.00  0.00     0.013 C 
BRANCH   2   4
ATOM      4  C   UNL     1       3.391   5.353  20.272  1.00  0.00    -0.045 A 
ATOM      5  C   UNL     1       5.027   1.391  19.737  1.00  0.00     0.044 C 
ATOM      6  C   UNL     1       4.431   2.755  19.923  1.00  0.00    -0.051 A 
ATOM      7  C   UNL     1       4.246   3.277  21.212  1.00  0.00     0.004 A 
ATOM      8  C   UNL     1       4.118   3.547  18.809  1.00  0.00     0.004 A 
ATOM      9  C   UNL     1       3.724   4.561  21.385  1.00  0.00     0.004 A 
ATOM     10  C   UNL     1       3.597   4.832  18.981  1.00  0.00     0.004 A 
ENDBRANCH   2   4
ENDBRANCH   1   2
BRANCH   1  11
ATOM     11  C   UNL     1       3.801   8.363  22.215  1.00  0.00     0.028 C 
BRANCH  11  12
ATOM     12  C   UNL     1       4.137   8.482  23.680  1.00  0.00    -0.028 C 
ATOM     13  C   UNL     1       5.387   8.394  24.188  1.00  0.00    -0.080 C 
ATOM     14  C   UNL     1       6.600   8.220  23.303  1.00  0.00     0.039 C 
ATOM     15  C   UNL     1       5.565   8.494  25.680  1.00  0.00     0.039 C 
ENDBRANCH  11  12
ENDBRANCH   1  11
TORSDOF 4
ENDMDL
MODEL 8
REMARK VINA RESULT:    -6.225      1.428      5.281
REMARK INTER + INTRA:          -8.513
REMARK INTER:                  -7.639
REMARK INTRA:                  -0.874
REMARK UNBOUND:                -0.833
REMARK SMILES CC(C)=CCC[C@@H](C)c1ccc(C)cc1
REMARK SMILES IDX 6 1 7 2 8 3 9 4 13 5 12 6 11 7 14 8 10 9 15 10 5 11 4 12
REMARK SMILES IDX 2 13 1 14 3 15
REMARK H PARENT
REMARK Flexibility Score: inf
ROOT
ATOM      1  C   UNL     1       5.476   7.457  24.187  1.00  0.00     0.012 C 
ENDROOT
BRANCH   1   2
ATOM      2  C   UNL     1       5.982   8.671  23.375  1.00  0.00     0.016 C 
ATOM      3  C   UNL     1       7.451   8.515  22.949  1.00  0.00     0.013 C 
BRANCH   2   4
ATOM      4  C   UNL     1       5.103   8.896  22.158  1.00  0.00    -0.045 A 
ATOM      5  C   UNL     1       2.643   9.562  18.670  1.00  0.00     0.044 C 
ATOM      6  C   UNL     1       3.484   9.304  19.885  1.00  0.00    -0.051 A 
ATOM      7  C   UNL     1       4.742   8.697  19.759  1.00  0.00     0.004 A 
ATOM      8  C   UNL     1       3.049   9.729  21.148  1.00  0.00     0.004 A 
ATOM      9  C   UNL     1       5.541   8.489  20.886  1.00  0.00     0.004 A 
ATOM     10  C   UNL     1       3.847   9.522  22.276  1.00  0.00     0.004 A 
ENDBRANCH   2   4
ENDBRANCH   1   2
BRANCH   1  11
ATOM     11  C   UNL     1       4.190   6.849  23.607  1.00  0.00     0.028 C 
BRANCH  11  12
ATOM     12  C   UNL     1       4.468   5.499  22.995  1.00  0.00    -0.028 C 
ATOM     13  C   UNL     1       3.794   4.983  21.943  1.00  0.00    -0.080 C 
ATOM     14  C   UNL     1       2.707   5.755  21.231  1.00  0.00     0.039 C 
ATOM     15  C   UNL     1       4.158   3.602  21.465  1.00  0.00     0.039 C 
ENDBRANCH  11  12
ENDBRANCH   1  11
TORSDOF 4
ENDMDL
MODEL 9
REMARK VINA RESULT:    -6.075      1.373      5.549
REMARK INTER + INTRA:          -8.329
REMARK INTER:                  -7.379
REMARK INTRA:                  -0.950
REMARK UNBOUND:                -0.833
REMARK SMILES CC(C)=CCC[C@@H](C)c1ccc(C)cc1
REMARK SMILES IDX 6 1 7 2 8 3 9 4 13 5 12 6 11 7 14 8 10 9 15 10 5 11 4 12
REMARK SMILES IDX 2 13 1 14 3 15
REMARK H PARENT
REMARK Flexibility Score: inf
ROOT
ATOM      1  C   UNL     1       4.535   5.254  22.711  1.00  0.00     0.012 C 
ENDROOT
BRANCH   1   2
ATOM      2  C   UNL     1       3.848   6.566  23.156  1.00  0.00     0.016 C 
ATOM      3  C   UNL     1       4.747   7.412  24.071  1.00  0.00     0.013 C 
BRANCH   2   4
ATOM      4  C   UNL     1       3.420   7.376  21.945  1.00  0.00    -0.045 A 
ATOM      5  C   UNL     1       2.172   9.637  18.483  1.00  0.00     0.044 C 
ATOM      6  C   UNL     1       2.604   8.877  19.702  1.00  0.00    -0.051 A 
ATOM      7  C   UNL     1       1.652   8.246  20.516  1.00  0.00     0.004 A 
ATOM      8  C   UNL     1       3.967   8.734  19.999  1.00  0.00     0.004 A 
ATOM      9  C   UNL     1       2.056   7.507  21.631  1.00  0.00     0.004 A 
ATOM     10  C   UNL     1       4.372   7.995  21.114  1.00  0.00     0.004 A 
ENDBRANCH   2   4
ENDBRANCH   1   2
BRANCH   1  11
ATOM     11  C   UNL     1       3.528   4.167  22.305  1.00  0.00     0.028 C 
BRANCH  11  12
ATOM     12  C   UNL     1       4.190   3.128  21.434  1.00  0.00    -0.028 C 
ATOM     13  C   UNL     1       4.267   3.196  20.086  1.00  0.00    -0.080 C 
ATOM     14  C   UNL     1       3.733   4.380  19.313  1.00  0.00     0.039 C 
ATOM     15  C   UNL     1       4.926   2.061  19.346  1.00  0.00     0.039 C 
ENDBRANCH  11  12
ENDBRANCH   1  11
TORSDOF 4
ENDMDL
