MODEL 1
REMARK VINA RESULT:    -4.833      0.000      0.000
REMARK INTER + INTRA:         -10.596
REMARK INTER:                  -8.506
REMARK INTRA:                  -2.091
REMARK UNBOUND:                -2.091
REMARK SMILES CCCCCCCCCCCCCCC(=O)[O-]
REMARK SMILES IDX 9 1 10 2 11 3 12 4 13 5 14 6 15 7 16 8 17 9 8 10 7 11 6 12
REMARK SMILES IDX 5 13 4 14 3 15 2 16 1 17
REMARK H PARENT
REMARK Flexibility Score: inf
ROOT
ATOM      1  C   UNL     1      26.791  37.787 147.793  1.00  0.00     0.000 C 
ENDROOT
BRANCH   1   2
ATOM      2  C   UNL     1      27.794  36.937 148.589  1.00  0.00     0.000 C 
BRANCH   2   3
ATOM      3  C   UNL     1      27.257  36.536 149.974  1.00  0.00     0.000 C 
BRANCH   3   4
ATOM      4  C   UNL     1      27.398  35.030 150.249  1.00  0.00     0.000 C 
BRANCH   4   5
ATOM      5  C   UNL     1      26.586  34.171 149.267  1.00  0.00     0.006 C 
BRANCH   5   6
ATOM      6  C   UNL     1      25.117  34.092 149.693  1.00  0.00     0.053 C 
BRANCH   6   7
ATOM      7  C   UNL     1      24.316  33.340 148.678  1.00  0.00     0.041 C 
ATOM      8  O   UNL     1      24.355  32.082 148.645  1.00  0.00    -0.550 OA
ATOM      9  O   UNL     1      23.566  34.030 147.734  1.00  0.00    -0.550 OA
ENDBRANCH   6   7
ENDBRANCH   5   6
ENDBRANCH   4   5
ENDBRANCH   3   4
ENDBRANCH   2   3
ENDBRANCH   1   2
BRANCH   1  10
ATOM     10  C   UNL     1      25.561  36.979 147.342  1.00  0.00     0.000 C 
BRANCH  10  11
ATOM     11  C   UNL     1      24.240  37.724 147.589  1.00  0.00    -0.000 C 
BRANCH  11  12
ATOM     12  C   UNL     1      23.597  37.354 148.936  1.00  0.00    -0.000 C 
BRANCH  12  13
ATOM     13  C   UNL     1      23.255  38.590 149.785  1.00  0.00    -0.000 C 
BRANCH  13  14
ATOM     14  C   UNL     1      24.510  39.305 150.317  1.00  0.00    -0.000 C 
BRANCH  14  15
ATOM     15  C   UNL     1      24.544  40.801 149.956  1.00  0.00    -0.000 C 
BRANCH  15  16
ATOM     16  C   UNL     1      25.321  41.142 148.671  1.00  0.00    -0.003 C 
ATOM     17  C   UNL     1      24.411  41.394 147.469  1.00  0.00     0.004 C 
ENDBRANCH  15  16
ENDBRANCH  14  15
ENDBRANCH  13  14
ENDBRANCH  12  13
ENDBRANCH  11  12
ENDBRANCH  10  11
ENDBRANCH   1  10
TORSDOF 13
ENDMDL
MODEL 2
REMARK VINA RESULT:    -4.783      1.379      4.644
REMARK INTER + INTRA:         -10.509
REMARK INTER:                  -8.494
REMARK INTRA:                  -2.014
REMARK UNBOUND:                -2.091
REMARK SMILES CCCCCCCCCCCCCCC(=O)[O-]
REMARK SMILES IDX 9 1 10 2 11 3 12 4 13 5 14 6 15 7 16 8 17 9 8 10 7 11 6 12
REMARK SMILES IDX 5 13 4 14 3 15 2 16 1 17
REMARK H PARENT
REMARK Flexibility Score: inf
ROOT
ATOM      1  C   UNL     1      24.857  39.384 149.421  1.00  0.00     0.000 C 
ENDROOT
BRANCH   1   2
ATOM      2  C   UNL     1      23.541  38.628 149.664  1.00  0.00     0.000 C 
BRANCH   2   3
ATOM      3  C   UNL     1      23.220  37.627 148.541  1.00  0.00     0.000 C 
BRANCH   3   4
ATOM      4  C   UNL     1      24.350  37.519 147.504  1.00  0.00     0.000 C 
BRANCH   4   5
ATOM      5  C   UNL     1      24.875  36.084 147.349  1.00  0.00     0.006 C 
BRANCH   5   6
ATOM      6  C   UNL     1      23.719  35.081 147.292  1.00  0.00     0.053 C 
BRANCH   6   7
ATOM      7  C   UNL     1      23.984  33.924 148.202  1.00  0.00     0.041 C 
ATOM      8  O   UNL     1      24.147  34.113 149.437  1.00  0.00    -0.550 OA
ATOM      9  O   UNL     1      24.102  32.642 147.681  1.00  0.00    -0.550 OA
ENDBRANCH   6   7
ENDBRANCH   5   6
ENDBRANCH   4   5
ENDBRANCH   3   4
ENDBRANCH   2   3
ENDBRANCH   1   2
BRANCH   1  10
ATOM     10  C   UNL     1      25.621  39.674 150.725  1.00  0.00     0.000 C 
BRANCH  10  11
ATOM     11  C   UNL     1      27.092  39.232 150.661  1.00  0.00    -0.000 C 
BRANCH  11  12
ATOM     12  C   UNL     1      27.531  38.846 149.239  1.00  0.00    -0.000 C 
BRANCH  12  13
ATOM     13  C   UNL     1      27.926  37.364 149.126  1.00  0.00    -0.000 C 
BRANCH  13  14
ATOM     14  C   UNL     1      27.113  36.464 150.074  1.00  0.00    -0.000 C 
BRANCH  14  15
ATOM     15  C   UNL     1      27.559  34.991 150.027  1.00  0.00    -0.000 C 
BRANCH  15  16
ATOM     16  C   UNL     1      28.237  34.558 148.714  1.00  0.00    -0.003 C 
ATOM     17  C   UNL     1      27.641  33.280 148.125  1.00  0.00     0.004 C 
ENDBRANCH  15  16
ENDBRANCH  14  15
ENDBRANCH  13  14
ENDBRANCH  12  13
ENDBRANCH  11  12
ENDBRANCH  10  11
ENDBRANCH   1  10
TORSDOF 13
ENDMDL
MODEL 3
REMARK VINA RESULT:    -4.763      2.786      5.542
REMARK INTER + INTRA:         -10.473
REMARK INTER:                  -8.267
REMARK INTRA:                  -2.206
REMARK UNBOUND:                -2.091
REMARK SMILES CCCCCCCCCCCCCCC(=O)[O-]
REMARK SMILES IDX 9 1 10 2 11 3 12 4 13 5 14 6 15 7 16 8 17 9 8 10 7 11 6 12
REMARK SMILES IDX 5 13 4 14 3 15 2 16 1 17
REMARK H PARENT
REMARK Flexibility Score: inf
ROOT
ATOM      1  C   UNL     1      23.622  36.253 147.362  1.00  0.00     0.000 C 
ENDROOT
BRANCH   1   2
ATOM      2  C   UNL     1      23.516  36.668 148.838  1.00  0.00     0.000 C 
BRANCH   2   3
ATOM      3  C   UNL     1      23.097  38.138 149.008  1.00  0.00     0.000 C 
BRANCH   3   4
ATOM      4  C   UNL     1      23.313  38.966 147.731  1.00  0.00     0.000 C 
BRANCH   4   5
ATOM      5  C   UNL     1      24.389  40.050 147.905  1.00  0.00     0.006 C 
BRANCH   5   6
ATOM      6  C   UNL     1      24.405  40.579 149.342  1.00  0.00     0.053 C 
BRANCH   6   7
ATOM      7  C   UNL     1      25.755  40.385 149.957  1.00  0.00     0.041 C 
ATOM      8  O   UNL     1      25.888  39.660 150.979  1.00  0.00    -0.550 OA
ATOM      9  O   UNL     1      26.859  41.043 149.432  1.00  0.00    -0.550 OA
ENDBRANCH   6   7
ENDBRANCH   5   6
ENDBRANCH   4   5
ENDBRANCH   3   4
ENDBRANCH   2   3
ENDBRANCH   1   2
BRANCH   1  10
ATOM     10  C   UNL     1      24.017  34.775 147.191  1.00  0.00     0.000 C 
BRANCH  10  11
ATOM     11  C   UNL     1      24.165  34.043 148.534  1.00  0.00    -0.000 C 
BRANCH  11  12
ATOM     12  C   UNL     1      25.622  33.660 148.840  1.00  0.00    -0.000 C 
BRANCH  12  13
ATOM     13  C   UNL     1      26.238  34.525 149.952  1.00  0.00    -0.000 C 
BRANCH  13  14
ATOM     14  C   UNL     1      27.513  35.254 149.494  1.00  0.00    -0.000 C 
BRANCH  14  15
ATOM     15  C   UNL     1      27.352  36.785 149.472  1.00  0.00    -0.000 C 
BRANCH  15  16
ATOM     16  C   UNL     1      27.049  37.387 148.088  1.00  0.00    -0.003 C 
ATOM     17  C   UNL     1      27.379  36.438 146.937  1.00  0.00     0.004 C 
ENDBRANCH  15  16
ENDBRANCH  14  15
ENDBRANCH  13  14
ENDBRANCH  12  13
ENDBRANCH  11  12
ENDBRANCH  10  11
ENDBRANCH   1  10
TORSDOF 13
ENDMDL
MODEL 4
REMARK VINA RESULT:    -4.759      2.737      5.459
REMARK INTER + INTRA:         -10.466
REMARK INTER:                  -8.825
REMARK INTRA:                  -1.641
REMARK UNBOUND:                -2.091
REMARK SMILES CCCCCCCCCCCCCCC(=O)[O-]
REMARK SMILES IDX 9 1 10 2 11 3 12 4 13 5 14 6 15 7 16 8 17 9 8 10 7 11 6 12
REMARK SMILES IDX 5 13 4 14 3 15 2 16 1 17
REMARK H PARENT
REMARK Flexibility Score: inf
ROOT
ATOM      1  C   UNL     1      24.436  34.279 148.839  1.00  0.00     0.000 C 
ENDROOT
BRANCH   1   2
ATOM      2  C   UNL     1      24.474  35.149 147.573  1.00  0.00     0.000 C 
BRANCH   2   3
ATOM      3  C   UNL     1      23.613  36.418 147.704  1.00  0.00     0.000 C 
BRANCH   3   4
ATOM      4  C   UNL     1      24.410  37.704 147.431  1.00  0.00     0.000 C 
BRANCH   4   5
ATOM      5  C   UNL     1      23.579  38.975 147.666  1.00  0.00     0.006 C 
BRANCH   5   6
ATOM      6  C   UNL     1      24.476  40.147 148.078  1.00  0.00     0.053 C 
BRANCH   6   7
ATOM      7  C   UNL     1      24.284  40.471 149.525  1.00  0.00     0.041 C 
ATOM      8  O   UNL     1      24.089  41.661 149.888  1.00  0.00    -0.550 OA
ATOM      9  O   UNL     1      24.370  39.466 150.480  1.00  0.00    -0.550 OA
ENDBRANCH   6   7
ENDBRANCH   5   6
ENDBRANCH   4   5
ENDBRANCH   3   4
ENDBRANCH   2   3
ENDBRANCH   1   2
BRANCH   1  10
ATOM     10  C   UNL     1      25.641  33.328 148.938  1.00  0.00     0.000 C 
BRANCH  10  11
ATOM     11  C   UNL     1      26.885  33.870 148.215  1.00  0.00    -0.000 C 
BRANCH  11  12
ATOM     12  C   UNL     1      27.987  34.313 149.191  1.00  0.00    -0.000 C 
BRANCH  12  13
ATOM     13  C   UNL     1      27.443  35.169 150.347  1.00  0.00    -0.000 C 
BRANCH  13  14
ATOM     14  C   UNL     1      27.161  36.622 149.922  1.00  0.00    -0.000 C 
BRANCH  14  15
ATOM     15  C   UNL     1      27.993  37.060 148.703  1.00  0.00    -0.000 C 
BRANCH  15  16
ATOM     16  C   UNL     1      27.969  38.572 148.410  1.00  0.00    -0.003 C 
ATOM     17  C   UNL     1      27.938  39.427 149.676  1.00  0.00     0.004 C 
ENDBRANCH  15  16
ENDBRANCH  14  15
ENDBRANCH  13  14
ENDBRANCH  12  13
ENDBRANCH  11  12
ENDBRANCH  10  11
ENDBRANCH   1  10
TORSDOF 13
ENDMDL
MODEL 5
REMARK VINA RESULT:    -4.738      1.473      3.310
REMARK INTER + INTRA:         -10.429
REMARK INTER:                  -8.217
REMARK INTRA:                  -2.212
REMARK UNBOUND:                -2.091
REMARK SMILES CCCCCCCCCCCCCCC(=O)[O-]
REMARK SMILES IDX 9 1 10 2 11 3 12 4 13 5 14 6 15 7 16 8 17 9 8 10 7 11 6 12
REMARK SMILES IDX 5 13 4 14 3 15 2 16 1 17
REMARK H PARENT
REMARK Flexibility Score: inf
ROOT
ATOM      1  C   UNL     1      23.192  38.255 148.841  1.00  0.00     0.000 C 
ENDROOT
BRANCH   1   2
ATOM      2  C   UNL     1      23.988  36.941 148.787  1.00  0.00     0.000 C 
BRANCH   2   3
ATOM      3  C   UNL     1      24.472  36.603 147.366  1.00  0.00     0.000 C 
BRANCH   3   4
ATOM      4  C   UNL     1      25.772  35.783 147.363  1.00  0.00     0.000 C 
BRANCH   4   5
ATOM      5  C   UNL     1      26.113  35.212 148.747  1.00  0.00     0.006 C 
BRANCH   5   6
ATOM      6  C   UNL     1      26.078  33.681 148.732  1.00  0.00     0.053 C 
BRANCH   6   7
ATOM      7  C   UNL     1      24.670  33.188 148.846  1.00  0.00     0.041 C 
ATOM      8  O   UNL     1      24.088  33.187 149.963  1.00  0.00    -0.550 OA
ATOM      9  O   UNL     1      24.018  32.682 147.729  1.00  0.00    -0.550 OA
ENDBRANCH   6   7
ENDBRANCH   5   6
ENDBRANCH   4   5
ENDBRANCH   3   4
ENDBRANCH   2   3
ENDBRANCH   1   2
BRANCH   1  10
ATOM     10  C   UNL     1      23.562  39.216 147.697  1.00  0.00     0.000 C 
BRANCH  10  11
ATOM     11  C   UNL     1      24.519  40.331 148.146  1.00  0.00    -0.000 C 
BRANCH  11  12
ATOM     12  C   UNL     1      25.467  40.783 147.023  1.00  0.00    -0.000 C 
BRANCH  12  13
ATOM     13  C   UNL     1      26.946  40.541 147.367  1.00  0.00    -0.000 C 
BRANCH  13  14
ATOM     14  C   UNL     1      27.245  39.064 147.677  1.00  0.00    -0.000 C 
BRANCH  14  15
ATOM     15  C   UNL     1      27.939  38.866 149.037  1.00  0.00    -0.000 C 
BRANCH  15  16
ATOM     16  C   UNL     1      26.999  38.499 150.199  1.00  0.00    -0.003 C 
ATOM     17  C   UNL     1      26.676  39.686 151.106  1.00  0.00     0.004 C 
ENDBRANCH  15  16
ENDBRANCH  14  15
ENDBRANCH  13  14
ENDBRANCH  12  13
ENDBRANCH  11  12
ENDBRANCH  10  11
ENDBRANCH   1  10
TORSDOF 13
ENDMDL
MODEL 6
REMARK VINA RESULT:    -4.726      2.938      6.097
REMARK INTER + INTRA:         -10.409
REMARK INTER:                  -8.710
REMARK INTRA:                  -1.699
REMARK UNBOUND:                -2.091
REMARK SMILES CCCCCCCCCCCCCCC(=O)[O-]
REMARK SMILES IDX 9 1 10 2 11 3 12 4 13 5 14 6 15 7 16 8 17 9 8 10 7 11 6 12
REMARK SMILES IDX 5 13 4 14 3 15 2 16 1 17
REMARK H PARENT
REMARK Flexibility Score: inf
ROOT
ATOM      1  C   UNL     1      26.791  37.658 147.682  1.00  0.00     0.000 C 
ENDROOT
BRANCH   1   2
ATOM      2  C   UNL     1      25.632  36.697 147.372  1.00  0.00     0.000 C 
BRANCH   2   3
ATOM      3  C   UNL     1      24.343  37.068 148.126  1.00  0.00     0.000 C 
BRANCH   3   4
ATOM      4  C   UNL     1      23.538  38.168 147.416  1.00  0.00     0.000 C 
BRANCH   4   5
ATOM      5  C   UNL     1      23.652  39.530 148.119  1.00  0.00     0.006 C 
BRANCH   5   6
ATOM      6  C   UNL     1      24.004  39.354 149.599  1.00  0.00     0.053 C 
BRANCH   6   7
ATOM      7  C   UNL     1      24.677  40.581 150.127  1.00  0.00     0.041 C 
ATOM      8  O   UNL     1      25.695  40.479 150.862  1.00  0.00    -0.550 OA
ATOM      9  O   UNL     1      24.152  41.837 149.849  1.00  0.00    -0.550 OA
ENDBRANCH   6   7
ENDBRANCH   5   6
ENDBRANCH   4   5
ENDBRANCH   3   4
ENDBRANCH   2   3
ENDBRANCH   1   2
BRANCH   1  10
ATOM     10  C   UNL     1      27.871  37.013 148.569  1.00  0.00     0.000 C 
BRANCH  10  11
ATOM     11  C   UNL     1      27.372  36.724 149.994  1.00  0.00    -0.000 C 
BRANCH  11  12
ATOM     12  C   UNL     1      27.441  35.230 150.352  1.00  0.00    -0.000 C 
BRANCH  12  13
ATOM     13  C   UNL     1      27.981  34.372 149.196  1.00  0.00    -0.000 C 
BRANCH  13  14
ATOM     14  C   UNL     1      26.891  33.496 148.553  1.00  0.00    -0.000 C 
BRANCH  14  15
ATOM     15  C   UNL     1      25.536  33.602 149.276  1.00  0.00    -0.000 C 
BRANCH  15  16
ATOM     16  C   UNL     1      24.405  32.754 148.664  1.00  0.00    -0.003 C 
ATOM     17  C   UNL     1      23.649  33.477 147.551  1.00  0.00     0.004 C 
ENDBRANCH  15  16
ENDBRANCH  14  15
ENDBRANCH  13  14
ENDBRANCH  12  13
ENDBRANCH  11  12
ENDBRANCH  10  11
ENDBRANCH   1  10
TORSDOF 13
ENDMDL
MODEL 7
REMARK VINA RESULT:    -4.724      1.444      3.782
REMARK INTER + INTRA:         -10.405
REMARK INTER:                  -8.281
REMARK INTRA:                  -2.123
REMARK UNBOUND:                -2.091
REMARK SMILES CCCCCCCCCCCCCCC(=O)[O-]
REMARK SMILES IDX 9 1 10 2 11 3 12 4 13 5 14 6 15 7 16 8 17 9 8 10 7 11 6 12
REMARK SMILES IDX 5 13 4 14 3 15 2 16 1 17
REMARK H PARENT
REMARK Flexibility Score: inf
ROOT
ATOM      1  C   UNL     1      24.011  40.509 147.740  1.00  0.00     0.000 C 
ENDROOT
BRANCH   1   2
ATOM      2  C   UNL     1      23.266  39.166 147.694  1.00  0.00     0.000 C 
BRANCH   2   3
ATOM      3  C   UNL     1      24.210  37.977 147.447  1.00  0.00     0.000 C 
BRANCH   3   4
ATOM      4  C   UNL     1      23.769  36.706 148.191  1.00  0.00     0.000 C 
BRANCH   4   5
ATOM      5  C   UNL     1      23.564  35.510 147.249  1.00  0.00     0.006 C 
BRANCH   5   6
ATOM      6  C   UNL     1      24.804  34.611 147.228  1.00  0.00     0.053 C 
BRANCH   6   7
ATOM      7  C   UNL     1      24.719  33.577 148.306  1.00  0.00     0.041 C 
ATOM      8  O   UNL     1      24.116  32.491 148.097  1.00  0.00    -0.550 OA
ATOM      9  O   UNL     1      25.263  33.832 149.558  1.00  0.00    -0.550 OA
ENDBRANCH   6   7
ENDBRANCH   5   6
ENDBRANCH   4   5
ENDBRANCH   3   4
ENDBRANCH   2   3
ENDBRANCH   1   2
BRANCH   1  10
ATOM     10  C   UNL     1      25.500  40.370 147.376  1.00  0.00     0.000 C 
BRANCH  10  11
ATOM     11  C   UNL     1      26.432  40.782 148.527  1.00  0.00    -0.000 C 
BRANCH  11  12
ATOM     12  C   UNL     1      25.768  40.633 149.906  1.00  0.00    -0.000 C 
BRANCH  12  13
ATOM     13  C   UNL     1      26.162  39.324 150.611  1.00  0.00    -0.000 C 
BRANCH  13  14
ATOM     14  C   UNL     1      27.388  38.653 149.966  1.00  0.00    -0.000 C 
BRANCH  14  15
ATOM     15  C   UNL     1      27.183  37.149 149.713  1.00  0.00    -0.000 C 
BRANCH  15  16
ATOM     16  C   UNL     1      27.551  36.673 148.295  1.00  0.00    -0.003 C 
ATOM     17  C   UNL     1      28.274  37.740 147.474  1.00  0.00     0.004 C 
ENDBRANCH  15  16
ENDBRANCH  14  15
ENDBRANCH  13  14
ENDBRANCH  12  13
ENDBRANCH  11  12
ENDBRANCH  10  11
ENDBRANCH   1  10
TORSDOF 13
ENDMDL
MODEL 8
REMARK VINA RESULT:    -4.627      2.234      4.821
REMARK INTER + INTRA:         -10.233
REMARK INTER:                  -8.025
REMARK INTRA:                  -2.209
REMARK UNBOUND:                -2.091
REMARK SMILES CCCCCCCCCCCCCCC(=O)[O-]
REMARK SMILES IDX 9 1 10 2 11 3 12 4 13 5 14 6 15 7 16 8 17 9 8 10 7 11 6 12
REMARK SMILES IDX 5 13 4 14 3 15 2 16 1 17
REMARK H PARENT
REMARK Flexibility Score: inf
ROOT
ATOM      1  C   UNL     1      24.388  40.580 149.263  1.00  0.00     0.000 C 
ENDROOT
BRANCH   1   2
ATOM      2  C   UNL     1      25.799  41.118 149.549  1.00  0.00     0.000 C 
BRANCH   2   3
ATOM      3  C   UNL     1      26.890  40.055 149.331  1.00  0.00     0.000 C 
BRANCH   3   4
ATOM      4  C   UNL     1      26.578  38.732 150.049  1.00  0.00     0.000 C 
BRANCH   4   5
ATOM      5  C   UNL     1      27.100  37.507 149.282  1.00  0.00     0.006 C 
BRANCH   5   6
ATOM      6  C   UNL     1      26.951  37.703 147.770  1.00  0.00     0.053 C 
BRANCH   6   7
ATOM      7  C   UNL     1      27.844  36.759 147.029  1.00  0.00     0.041 C 
ATOM      8  O   UNL     1      28.551  37.174 146.073  1.00  0.00    -0.550 OA
ATOM      9  O   UNL     1      27.857  35.410 147.360  1.00  0.00    -0.550 OA
ENDBRANCH   6   7
ENDBRANCH   5   6
ENDBRANCH   4   5
ENDBRANCH   3   4
ENDBRANCH   2   3
ENDBRANCH   1   2
BRANCH   1  10
ATOM     10  C   UNL     1      24.163  40.281 147.770  1.00  0.00     0.000 C 
BRANCH  10  11
ATOM     11  C   UNL     1      23.356  38.994 147.539  1.00  0.00    -0.000 C 
BRANCH  11  12
ATOM     12  C   UNL     1      22.993  38.281 148.852  1.00  0.00    -0.000 C 
BRANCH  12  13
ATOM     13  C   UNL     1      23.471  36.820 148.882  1.00  0.00    -0.000 C 
BRANCH  13  14
ATOM     14  C   UNL     1      23.633  36.225 147.472  1.00  0.00    -0.000 C 
BRANCH  14  15
ATOM     15  C   UNL     1      24.288  34.832 147.482  1.00  0.00    -0.000 C 
BRANCH  15  16
ATOM     16  C   UNL     1      24.797  34.363 148.858  1.00  0.00    -0.003 C 
ATOM     17  C   UNL     1      24.231  33.007 149.276  1.00  0.00     0.004 C 
ENDBRANCH  15  16
ENDBRANCH  14  15
ENDBRANCH  13  14
ENDBRANCH  12  13
ENDBRANCH  11  12
ENDBRANCH  10  11
ENDBRANCH   1  10
TORSDOF 13
ENDMDL
MODEL 9
REMARK VINA RESULT:    -4.606      2.021      3.882
REMARK INTER + INTRA:         -10.196
REMARK INTER:                  -7.951
REMARK INTRA:                  -2.245
REMARK UNBOUND:                -2.091
REMARK SMILES CCCCCCCCCCCCCCC(=O)[O-]
REMARK SMILES IDX 9 1 10 2 11 3 12 4 13 5 14 6 15 7 16 8 17 9 8 10 7 11 6 12
REMARK SMILES IDX 5 13 4 14 3 15 2 16 1 17
REMARK H PARENT
REMARK Flexibility Score: inf
ROOT
ATOM      1  C   UNL     1      23.573  39.026 148.312  1.00  0.00     0.000 C 
ENDROOT
BRANCH   1   2
ATOM      2  C   UNL     1      23.667  37.777 147.421  1.00  0.00     0.000 C 
BRANCH   2   3
ATOM      3  C   UNL     1      23.981  36.502 148.223  1.00  0.00     0.000 C 
BRANCH   3   4
ATOM      4  C   UNL     1      24.220  35.280 147.322  1.00  0.00     0.000 C 
BRANCH   4   5
ATOM      5  C   UNL     1      25.436  34.451 147.762  1.00  0.00     0.006 C 
BRANCH   5   6
ATOM      6  C   UNL     1      25.723  34.647 149.253  1.00  0.00     0.053 C 
BRANCH   6   7
ATOM      7  C   UNL     1      27.178  34.451 149.538  1.00  0.00     0.041 C 
ATOM      8  O   UNL     1      27.910  33.848 148.709  1.00  0.00    -0.550 OA
ATOM      9  O   UNL     1      27.717  34.888 150.741  1.00  0.00    -0.550 OA
ENDBRANCH   6   7
ENDBRANCH   5   6
ENDBRANCH   4   5
ENDBRANCH   3   4
ENDBRANCH   2   3
ENDBRANCH   1   2
BRANCH   1  10
ATOM     10  C   UNL     1      24.498  40.160 147.836  1.00  0.00     0.000 C 
BRANCH  10  11
ATOM     11  C   UNL     1      25.001  41.039 148.993  1.00  0.00    -0.000 C 
BRANCH  11  12
ATOM     12  C   UNL     1      26.412  40.648 149.461  1.00  0.00    -0.000 C 
BRANCH  12  13
ATOM     13  C   UNL     1      26.395  39.518 150.504  1.00  0.00    -0.000 C 
BRANCH  13  14
ATOM     14  C   UNL     1      26.900  38.181 149.932  1.00  0.00    -0.000 C 
BRANCH  14  15
ATOM     15  C   UNL     1      27.805  38.361 148.700  1.00  0.00    -0.000 C 
BRANCH  15  16
ATOM     16  C   UNL     1      27.284  37.701 147.410  1.00  0.00    -0.003 C 
ATOM     17  C   UNL     1      28.305  36.768 146.759  1.00  0.00     0.004 C 
ENDBRANCH  15  16
ENDBRANCH  14  15
ENDBRANCH  13  14
ENDBRANCH  12  13
ENDBRANCH  11  12
ENDBRANCH  10  11
ENDBRANCH   1  10
TORSDOF 13
ENDMDL
