MODEL 1
REMARK VINA RESULT:    -5.980      0.000      0.000
REMARK INTER + INTRA:          -6.154
REMARK INTER:                  -6.154
REMARK INTRA:                   0.000
REMARK UNBOUND:                 0.000
REMARK SMILES O=c1ccc2ccc(O)cc2o1
REMARK SMILES IDX 6 1 7 2 8 3 10 4 11 5 5 6 4 7 3 8 2 9 1 10 12 11 9 12
REMARK H PARENT 9 13
REMARK Flexibility Score: inf
ROOT
ATOM      1  C   UNL     1       3.891  10.131   6.869  1.00  0.00     0.016 A 
ATOM      2  C   UNL     1       3.664  10.007   8.243  1.00  0.00     0.047 A 
ATOM      3  C   UNL     1       4.511  10.644   9.162  1.00  0.00     0.119 A 
ATOM      4  C   UNL     1       5.590  11.408   8.702  1.00  0.00     0.094 A 
ATOM      5  C   UNL     1       5.825  11.538   7.329  1.00  0.00     0.142 A 
ATOM      6  C   UNL     1       4.971  10.896   6.406  1.00  0.00     0.018 A 
ATOM      7  C   UNL     1       5.232  11.045   5.040  1.00  0.00     0.019 A 
ATOM      8  C   UNL     1       6.319  11.817   4.632  1.00  0.00     0.094 A 
ATOM      9  C   UNL     1       7.122  12.424   5.603  1.00  0.00     0.336 A 
ATOM     10  O   UNL     1       8.108  13.124   5.253  1.00  0.00    -0.246 OA
ATOM     11  O   UNL     1       6.853  12.266   6.896  1.00  0.00    -0.423 OA
ENDROOT
BRANCH   3  12
ATOM     12  O   UNL     1       4.290  10.523  10.532  1.00  0.00    -0.508 OA
ATOM     13  H   UNL     1       5.048  10.608  11.200  1.00  0.00     0.293 HD
ENDBRANCH   3  12
TORSDOF 1
ENDMDL
MODEL 2
REMARK VINA RESULT:    -5.602      1.916      2.676
REMARK INTER + INTRA:          -5.766
REMARK INTER:                  -5.766
REMARK INTRA:                   0.000
REMARK UNBOUND:                 0.000
REMARK SMILES O=c1ccc2ccc(O)cc2o1
REMARK SMILES IDX 6 1 7 2 8 3 10 4 11 5 5 6 4 7 3 8 2 9 1 10 12 11 9 12
REMARK H PARENT 9 13
REMARK Flexibility Score: inf
ROOT
ATOM      1  C   UNL     1       5.143  11.678   9.211  1.00  0.00     0.016 A 
ATOM      2  C   UNL     1       3.838  11.249   8.945  1.00  0.00     0.047 A 
ATOM      3  C   UNL     1       3.548  10.558   7.759  1.00  0.00     0.119 A 
ATOM      4  C   UNL     1       4.568  10.295   6.837  1.00  0.00     0.094 A 
ATOM      5  C   UNL     1       5.876  10.719   7.095  1.00  0.00     0.142 A 
ATOM      6  C   UNL     1       6.166  11.415   8.289  1.00  0.00     0.018 A 
ATOM      7  C   UNL     1       7.483  11.825   8.518  1.00  0.00     0.019 A 
ATOM      8  C   UNL     1       8.464  11.539   7.570  1.00  0.00     0.094 A 
ATOM      9  C   UNL     1       8.103  10.846   6.410  1.00  0.00     0.336 A 
ATOM     10  O   UNL     1       8.975  10.578   5.541  1.00  0.00    -0.246 OA
ATOM     11  O   UNL     1       6.843  10.467   6.215  1.00  0.00    -0.423 OA
ENDROOT
BRANCH   3  12
ATOM     12  O   UNL     1       2.251  10.130   7.488  1.00  0.00    -0.508 OA
ATOM     13  H   UNL     1       2.063   9.414   6.795  1.00  0.00     0.293 HD
ENDBRANCH   3  12
TORSDOF 1
ENDMDL
MODEL 3
REMARK VINA RESULT:    -5.531      1.607      4.489
REMARK INTER + INTRA:          -5.693
REMARK INTER:                  -5.693
REMARK INTRA:                   0.000
REMARK UNBOUND:                 0.000
REMARK SMILES O=c1ccc2ccc(O)cc2o1
REMARK SMILES IDX 6 1 7 2 8 3 10 4 11 5 5 6 4 7 3 8 2 9 1 10 12 11 9 12
REMARK H PARENT 9 13
REMARK Flexibility Score: inf
ROOT
ATOM      1  C   UNL     1       6.368  11.881   4.263  1.00  0.00     0.016 A 
ATOM      2  C   UNL     1       7.737  12.137   4.131  1.00  0.00     0.047 A 
ATOM      3  C   UNL     1       8.634  11.723   5.127  1.00  0.00     0.119 A 
ATOM      4  C   UNL     1       8.159  11.050   6.258  1.00  0.00     0.094 A 
ATOM      5  C   UNL     1       6.792  10.789   6.399  1.00  0.00     0.142 A 
ATOM      6  C   UNL     1       5.890  11.206   5.395  1.00  0.00     0.018 A 
ATOM      7  C   UNL     1       4.530  10.931   5.565  1.00  0.00     0.019 A 
ATOM      8  C   UNL     1       4.106  10.257   6.710  1.00  0.00     0.094 A 
ATOM      9  C   UNL     1       5.056   9.873   7.662  1.00  0.00     0.336 A 
ATOM     10  O   UNL     1       4.692   9.264   8.702  1.00  0.00    -0.246 OA
ATOM     11  O   UNL     1       6.345  10.149   7.477  1.00  0.00    -0.423 OA
ENDROOT
BRANCH   3  12
ATOM     12  O   UNL     1       9.998  11.977   5.001  1.00  0.00    -0.508 OA
ATOM     13  H   UNL     1      10.351  12.913   4.839  1.00  0.00     0.293 HD
ENDBRANCH   3  12
TORSDOF 1
ENDMDL
MODEL 4
REMARK VINA RESULT:    -5.452      1.653      1.792
REMARK INTER + INTRA:          -5.611
REMARK INTER:                  -5.611
REMARK INTRA:                   0.000
REMARK UNBOUND:                 0.000
REMARK SMILES O=c1ccc2ccc(O)cc2o1
REMARK SMILES IDX 6 1 7 2 8 3 10 4 11 5 5 6 4 7 3 8 2 9 1 10 12 11 9 12
REMARK H PARENT 9 13
REMARK Flexibility Score: inf
ROOT
ATOM      1  C   UNL     1       4.343  10.242   6.833  1.00  0.00     0.016 A 
ATOM      2  C   UNL     1       3.346  10.456   7.791  1.00  0.00     0.047 A 
ATOM      3  C   UNL     1       3.656  11.086   9.006  1.00  0.00     0.119 A 
ATOM      4  C   UNL     1       4.967  11.503   9.261  1.00  0.00     0.094 A 
ATOM      5  C   UNL     1       5.970  11.295   8.309  1.00  0.00     0.142 A 
ATOM      6  C   UNL     1       5.656  10.660   7.087  1.00  0.00     0.018 A 
ATOM      7  C   UNL     1       6.680  10.465   6.155  1.00  0.00     0.019 A 
ATOM      8  C   UNL     1       7.971  10.899   6.456  1.00  0.00     0.094 A 
ATOM      9  C   UNL     1       8.208  11.521   7.686  1.00  0.00     0.336 A 
ATOM     10  O   UNL     1       9.366  11.919   7.976  1.00  0.00    -0.246 OA
ATOM     11  O   UNL     1       7.216  11.693   8.556  1.00  0.00    -0.423 OA
ENDROOT
BRANCH   3  12
ATOM     12  O   UNL     1       2.668  11.301   9.964  1.00  0.00    -0.508 OA
ATOM     13  H   UNL     1       1.898  11.939   9.798  1.00  0.00     0.293 HD
ENDBRANCH   3  12
TORSDOF 1
ENDMDL
MODEL 5
REMARK VINA RESULT:    -5.338      0.881      4.227
REMARK INTER + INTRA:          -5.494
REMARK INTER:                  -5.494
REMARK INTRA:                   0.000
REMARK UNBOUND:                 0.000
REMARK SMILES O=c1ccc2ccc(O)cc2o1
REMARK SMILES IDX 6 1 7 2 8 3 10 4 11 5 5 6 4 7 3 8 2 9 1 10 12 11 9 12
REMARK H PARENT 9 13
REMARK Flexibility Score: inf
ROOT
ATOM      1  C   UNL     1       5.669  11.228   4.728  1.00  0.00     0.016 A 
ATOM      2  C   UNL     1       6.860  11.916   4.473  1.00  0.00     0.047 A 
ATOM      3  C   UNL     1       7.619  12.434   5.533  1.00  0.00     0.119 A 
ATOM      4  C   UNL     1       7.183  12.262   6.852  1.00  0.00     0.094 A 
ATOM      5  C   UNL     1       5.993  11.576   7.117  1.00  0.00     0.142 A 
ATOM      6  C   UNL     1       5.231  11.055   6.048  1.00  0.00     0.018 A 
ATOM      7  C   UNL     1       4.047  10.373   6.344  1.00  0.00     0.019 A 
ATOM      8  C   UNL     1       3.655  10.228   7.675  1.00  0.00     0.094 A 
ATOM      9  C   UNL     1       4.460  10.770   8.682  1.00  0.00     0.336 A 
ATOM     10  O   UNL     1       4.123  10.650   9.888  1.00  0.00    -0.246 OA
ATOM     11  O   UNL     1       5.583  11.415   8.373  1.00  0.00    -0.423 OA
ENDROOT
BRANCH   3  12
ATOM     12  O   UNL     1       8.805  13.121   5.286  1.00  0.00    -0.508 OA
ATOM     13  H   UNL     1       9.680  12.836   5.711  1.00  0.00     0.293 HD
ENDBRANCH   3  12
TORSDOF 1
ENDMDL
MODEL 6
REMARK VINA RESULT:    -5.209      2.096      4.509
REMARK INTER + INTRA:          -5.361
REMARK INTER:                  -5.361
REMARK INTRA:                   0.000
REMARK UNBOUND:                 0.000
REMARK SMILES O=c1ccc2ccc(O)cc2o1
REMARK SMILES IDX 6 1 7 2 8 3 10 4 11 5 5 6 4 7 3 8 2 9 1 10 12 11 9 12
REMARK H PARENT 9 13
REMARK Flexibility Score: inf
ROOT
ATOM      1  C   UNL     1       7.556  11.995   8.544  1.00  0.00     0.016 A 
ATOM      2  C   UNL     1       8.605  11.691   7.671  1.00  0.00     0.047 A 
ATOM      3  C   UNL     1       8.363  10.952   6.503  1.00  0.00     0.119 A 
ATOM      4  C   UNL     1       7.066  10.518   6.209  1.00  0.00     0.094 A 
ATOM      5  C   UNL     1       6.009  10.819   7.076  1.00  0.00     0.142 A 
ATOM      6  C   UNL     1       6.255  11.562   8.251  1.00  0.00     0.018 A 
ATOM      7  C   UNL     1       5.179  11.846   9.097  1.00  0.00     0.019 A 
ATOM      8  C   UNL     1       3.905  11.392   8.760  1.00  0.00     0.094 A 
ATOM      9  C   UNL     1       3.736  10.661   7.579  1.00  0.00     0.336 A 
ATOM     10  O   UNL     1       2.593  10.242   7.258  1.00  0.00    -0.246 OA
ATOM     11  O   UNL     1       4.777  10.403   6.792  1.00  0.00    -0.423 OA
ENDROOT
BRANCH   3  12
ATOM     12  O   UNL     1       9.404  10.645   5.631  1.00  0.00    -0.508 OA
ATOM     13  H   UNL     1       9.961   9.805   5.744  1.00  0.00     0.293 HD
ENDBRANCH   3  12
TORSDOF 1
ENDMDL
MODEL 7
REMARK VINA RESULT:    -5.187      2.036      3.049
REMARK INTER + INTRA:          -5.339
REMARK INTER:                  -5.339
REMARK INTRA:                   0.000
REMARK UNBOUND:                 0.000
REMARK SMILES O=c1ccc2ccc(O)cc2o1
REMARK SMILES IDX 6 1 7 2 8 3 10 4 11 5 5 6 4 7 3 8 2 9 1 10 12 11 9 12
REMARK H PARENT 9 13
REMARK Flexibility Score: inf
ROOT
ATOM      1  C   UNL     1       7.481  10.831   7.725  1.00  0.00     0.016 A 
ATOM      2  C   UNL     1       6.126  10.540   7.914  1.00  0.00     0.047 A 
ATOM      3  C   UNL     1       5.213  10.701   6.862  1.00  0.00     0.119 A 
ATOM      4  C   UNL     1       5.659  11.155   5.615  1.00  0.00     0.094 A 
ATOM      5  C   UNL     1       7.013  11.448   5.416  1.00  0.00     0.142 A 
ATOM      6  C   UNL     1       7.930  11.285   6.477  1.00  0.00     0.018 A 
ATOM      7  C   UNL     1       9.275  11.586   6.247  1.00  0.00     0.019 A 
ATOM      8  C   UNL     1       9.671  12.035   4.987  1.00  0.00     0.094 A 
ATOM      9  C   UNL     1       8.707  12.172   3.983  1.00  0.00     0.336 A 
ATOM     10  O   UNL     1       9.044  12.576   2.840  1.00  0.00    -0.246 OA
ATOM     11  O   UNL     1       7.432  11.880   4.228  1.00  0.00    -0.423 OA
ENDROOT
BRANCH   3  12
ATOM     12  O   UNL     1       3.862  10.414   7.044  1.00  0.00    -0.508 OA
ATOM     13  H   UNL     1       3.262  10.173   6.264  1.00  0.00     0.293 HD
ENDBRANCH   3  12
TORSDOF 1
ENDMDL
MODEL 8
REMARK VINA RESULT:    -5.166      1.876      4.823
REMARK INTER + INTRA:          -5.317
REMARK INTER:                  -5.317
REMARK INTRA:                   0.000
REMARK UNBOUND:                 0.000
REMARK SMILES O=c1ccc2ccc(O)cc2o1
REMARK SMILES IDX 6 1 7 2 8 3 10 4 11 5 5 6 4 7 3 8 2 9 1 10 12 11 9 12
REMARK H PARENT 9 13
REMARK Flexibility Score: inf
ROOT
ATOM      1  C   UNL     1       8.383  11.229   6.822  1.00  0.00     0.016 A 
ATOM      2  C   UNL     1       8.896  11.664   5.596  1.00  0.00     0.047 A 
ATOM      3  C   UNL     1       8.045  11.842   4.495  1.00  0.00     0.119 A 
ATOM      4  C   UNL     1       6.675  11.584   4.624  1.00  0.00     0.094 A 
ATOM      5  C   UNL     1       6.152  11.150   5.847  1.00  0.00     0.142 A 
ATOM      6  C   UNL     1       7.011  10.972   6.953  1.00  0.00     0.018 A 
ATOM      7  C   UNL     1       6.459  10.537   8.162  1.00  0.00     0.019 A 
ATOM      8  C   UNL     1       5.088  10.294   8.240  1.00  0.00     0.094 A 
ATOM      9  C   UNL     1       4.298  10.493   7.102  1.00  0.00     0.336 A 
ATOM     10  O   UNL     1       3.059  10.279   7.153  1.00  0.00    -0.246 OA
ATOM     11  O   UNL     1       4.849  10.906   5.964  1.00  0.00    -0.423 OA
ENDROOT
BRANCH   3  12
ATOM     12  O   UNL     1       8.550  12.273   3.271  1.00  0.00    -0.508 OA
ATOM     13  H   UNL     1       7.955  12.370   2.456  1.00  0.00     0.293 HD
ENDBRANCH   3  12
TORSDOF 1
ENDMDL
MODEL 9
REMARK VINA RESULT:    -5.095      2.333      3.374
REMARK INTER + INTRA:          -5.244
REMARK INTER:                  -5.244
REMARK INTRA:                   0.000
REMARK UNBOUND:                 0.000
REMARK SMILES O=c1ccc2ccc(O)cc2o1
REMARK SMILES IDX 6 1 7 2 8 3 10 4 11 5 5 6 4 7 3 8 2 9 1 10 12 11 9 12
REMARK H PARENT 9 13
REMARK Flexibility Score: inf
ROOT
ATOM      1  C   UNL     1       3.196  12.941   9.515  1.00  0.00     0.016 A 
ATOM      2  C   UNL     1       1.877  12.498   9.374  1.00  0.00     0.047 A 
ATOM      3  C   UNL     1       1.587  11.384   8.572  1.00  0.00     0.119 A 
ATOM      4  C   UNL     1       2.621  10.712   7.910  1.00  0.00     0.094 A 
ATOM      5  C   UNL     1       3.944  11.148   8.046  1.00  0.00     0.142 A 
ATOM      6  C   UNL     1       4.233  12.269   8.854  1.00  0.00     0.018 A 
ATOM      7  C   UNL     1       5.565  12.681   8.970  1.00  0.00     0.019 A 
ATOM      8  C   UNL     1       6.560  11.979   8.291  1.00  0.00     0.094 A 
ATOM      9  C   UNL     1       6.199  10.876   7.509  1.00  0.00     0.336 A 
ATOM     10  O   UNL     1       7.083  10.230   6.889  1.00  0.00    -0.246 OA
ATOM     11  O   UNL     1       4.924  10.506   7.415  1.00  0.00    -0.423 OA
ENDROOT
BRANCH   3  12
ATOM     12  O   UNL     1       0.275  10.938   8.426  1.00  0.00    -0.508 OA
ATOM     13  H   UNL     1      -0.314  10.754   9.230  1.00  0.00     0.293 HD
ENDBRANCH   3  12
TORSDOF 1
ENDMDL
