MODEL 1
REMARK VINA RESULT:    -4.676      0.000      0.000
REMARK INTER + INTRA:          -7.355
REMARK INTER:                  -6.315
REMARK INTRA:                  -1.039
REMARK UNBOUND:                -1.039
REMARK SMILES CC(=O)CCC=C(C)CCC=C(C)C
REMARK SMILES IDX 7 1 6 2 8 3 9 4 10 5 11 6 13 7 12 8 14 9 5 10 4 11 2 12 3 13
REMARK SMILES IDX 1 14
REMARK H PARENT
REMARK Flexibility Score: inf
ROOT
ATOM      1  C   UNL     1       4.445  27.874  57.960  1.00  0.00    -0.077 C 
ATOM      2  C   UNL     1       3.097  27.779  57.900  1.00  0.00    -0.028 C 
ATOM      3  C   UNL     1       5.220  26.717  58.534  1.00  0.00     0.039 C 
ENDROOT
BRANCH   1   4
ATOM      4  C   UNL     1       5.215  29.057  57.407  1.00  0.00     0.034 C 
BRANCH   4   5
ATOM      5  C   UNL     1       5.886  28.690  56.079  1.00  0.00     0.032 C 
BRANCH   5   6
ATOM      6  C   UNL     1       5.496  29.665  54.996  1.00  0.00    -0.028 C 
ATOM      7  C   UNL     1       4.235  30.521  53.070  1.00  0.00     0.039 C 
ATOM      8  C   UNL     1       4.481  29.475  54.126  1.00  0.00    -0.080 C 
ATOM      9  C   UNL     1       3.585  28.260  54.194  1.00  0.00     0.039 C 
ENDBRANCH   5   6
ENDBRANCH   4   5
ENDBRANCH   1   4
BRANCH   2  10
ATOM     10  C   UNL     1       2.178  28.850  57.364  1.00  0.00     0.035 C 
BRANCH  10  11
ATOM     11  C   UNL     1       0.780  28.301  57.041  1.00  0.00     0.079 C 
BRANCH  11  12
ATOM     12  C   UNL     1      -0.101  29.350  56.412  1.00  0.00     0.130 C 
ATOM     13  O   UNL     1      -0.944  29.920  57.087  1.00  0.00    -0.300 OA
ATOM     14  C   UNL     1       0.074  29.722  54.971  1.00  0.00     0.087 C 
ENDBRANCH  11  12
ENDBRANCH  10  11
ENDBRANCH   2  10
TORSDOF 6
ENDMDL
MODEL 2
REMARK VINA RESULT:    -4.356      2.516      4.833
REMARK INTER + INTRA:          -6.924
REMARK INTER:                  -6.400
REMARK INTRA:                  -0.523
REMARK UNBOUND:                -1.039
REMARK SMILES CC(=O)CCC=C(C)CCC=C(C)C
REMARK SMILES IDX 7 1 6 2 8 3 9 4 10 5 11 6 13 7 12 8 14 9 5 10 4 11 2 12 3 13
REMARK SMILES IDX 1 14
REMARK H PARENT
REMARK Flexibility Score: inf
ROOT
ATOM      1  C   UNL     1       4.746  28.579  56.626  1.00  0.00    -0.077 C 
ATOM      2  C   UNL     1       4.993  28.888  55.332  1.00  0.00    -0.028 C 
ATOM      3  C   UNL     1       5.656  29.145  57.684  1.00  0.00     0.039 C 
ENDROOT
BRANCH   1   4
ATOM      4  C   UNL     1       3.553  27.753  57.064  1.00  0.00     0.034 C 
BRANCH   4   5
ATOM      5  C   UNL     1       2.343  28.656  57.333  1.00  0.00     0.032 C 
BRANCH   5   6
ATOM      6  C   UNL     1       1.467  28.754  56.110  1.00  0.00    -0.028 C 
ATOM      7  C   UNL     1      -0.582  29.177  54.823  1.00  0.00     0.039 C 
ATOM      8  C   UNL     1       0.181  29.169  56.121  1.00  0.00    -0.080 C 
ATOM      9  C   UNL     1      -0.498  29.635  57.388  1.00  0.00     0.039 C 
ENDBRANCH   5   6
ENDBRANCH   4   5
ENDBRANCH   1   4
BRANCH   2  10
ATOM     10  C   UNL     1       4.184  28.398  54.156  1.00  0.00     0.035 C 
BRANCH  10  11
ATOM     11  C   UNL     1       4.031  29.475  53.072  1.00  0.00     0.079 C 
BRANCH  11  12
ATOM     12  C   UNL     1       4.402  28.952  51.708  1.00  0.00     0.130 C 
ATOM     13  O   UNL     1       4.894  27.840  51.596  1.00  0.00    -0.300 OA
ATOM     14  C   UNL     1       4.140  29.776  50.484  1.00  0.00     0.087 C 
ENDBRANCH  11  12
ENDBRANCH  10  11
ENDBRANCH   2  10
TORSDOF 6
ENDMDL
MODEL 3
REMARK VINA RESULT:    -4.243      3.047      4.459
REMARK INTER + INTRA:          -6.770
REMARK INTER:                  -6.203
REMARK INTRA:                  -0.567
REMARK UNBOUND:                -1.039
REMARK SMILES CC(=O)CCC=C(C)CCC=C(C)C
REMARK SMILES IDX 7 1 6 2 8 3 9 4 10 5 11 6 13 7 12 8 14 9 5 10 4 11 2 12 3 13
REMARK SMILES IDX 1 14
REMARK H PARENT
REMARK Flexibility Score: inf
ROOT
ATOM      1  C   UNL     1       4.771  29.389  53.802  1.00  0.00    -0.077 C 
ATOM      2  C   UNL     1       4.785  29.086  55.120  1.00  0.00    -0.028 C 
ATOM      3  C   UNL     1       5.350  30.709  53.365  1.00  0.00     0.039 C 
ENDROOT
BRANCH   1   4
ATOM      4  C   UNL     1       4.271  28.431  52.739  1.00  0.00     0.034 C 
BRANCH   4   5
ATOM      5  C   UNL     1       4.981  28.688  51.405  1.00  0.00     0.032 C 
BRANCH   5   6
ATOM      6  C   UNL     1       5.115  27.410  50.616  1.00  0.00    -0.028 C 
ATOM      7  C   UNL     1       4.611  25.777  48.850  1.00  0.00     0.039 C 
ATOM      8  C   UNL     1       4.396  27.114  49.511  1.00  0.00    -0.080 C 
ATOM      9  C   UNL     1       3.404  28.088  48.918  1.00  0.00     0.039 C 
ENDBRANCH   5   6
ENDBRANCH   4   5
ENDBRANCH   1   4
BRANCH   2  10
ATOM     10  C   UNL     1       4.239  27.813  55.720  1.00  0.00     0.035 C 
BRANCH  10  11
ATOM     11  C   UNL     1       3.279  28.090  56.886  1.00  0.00     0.079 C 
BRANCH  11  12
ATOM     12  C   UNL     1       1.899  28.452  56.401  1.00  0.00     0.130 C 
ATOM     13  O   UNL     1       1.538  28.113  55.284  1.00  0.00    -0.300 OA
ATOM     14  C   UNL     1       0.953  29.196  57.294  1.00  0.00     0.087 C 
ENDBRANCH  11  12
ENDBRANCH  10  11
ENDBRANCH   2  10
TORSDOF 6
ENDMDL
MODEL 4
REMARK VINA RESULT:    -4.236      3.966      6.562
REMARK INTER + INTRA:          -6.761
REMARK INTER:                  -6.262
REMARK INTRA:                  -0.499
REMARK UNBOUND:                -1.039
REMARK SMILES CC(=O)CCC=C(C)CCC=C(C)C
REMARK SMILES IDX 7 1 6 2 8 3 9 4 10 5 11 6 13 7 12 8 14 9 5 10 4 11 2 12 3 13
REMARK SMILES IDX 1 14
REMARK H PARENT
REMARK Flexibility Score: inf
ROOT
ATOM      1  C   UNL     1       3.976  29.866  52.878  1.00  0.00    -0.077 C 
ATOM      2  C   UNL     1       4.223  29.259  51.695  1.00  0.00    -0.028 C 
ATOM      3  C   UNL     1       3.292  31.208  52.866  1.00  0.00     0.039 C 
ENDROOT
BRANCH   1   4
ATOM      4  C   UNL     1       4.287  29.225  54.216  1.00  0.00     0.034 C 
BRANCH   4   5
ATOM      5  C   UNL     1       3.252  28.143  54.548  1.00  0.00     0.032 C 
BRANCH   5   6
ATOM      6  C   UNL     1       2.092  28.731  55.312  1.00  0.00    -0.028 C 
ATOM      7  C   UNL     1       0.708  29.256  57.273  1.00  0.00     0.039 C 
ATOM      8  C   UNL     1       1.942  28.654  56.653  1.00  0.00    -0.080 C 
ATOM      9  C   UNL     1       2.978  28.000  57.538  1.00  0.00     0.039 C 
ENDBRANCH   5   6
ENDBRANCH   4   5
ENDBRANCH   1   4
BRANCH   2  10
ATOM     10  C   UNL     1       4.905  27.922  51.535  1.00  0.00     0.035 C 
BRANCH  10  11
ATOM     11  C   UNL     1       5.705  27.835  50.227  1.00  0.00     0.079 C 
BRANCH  11  12
ATOM     12  C   UNL     1       5.023  26.958  49.211  1.00  0.00     0.130 C 
ATOM     13  O   UNL     1       5.187  27.167  48.018  1.00  0.00    -0.300 OA
ATOM     14  C   UNL     1       4.169  25.808  49.652  1.00  0.00     0.087 C 
ENDBRANCH  11  12
ENDBRANCH  10  11
ENDBRANCH   2  10
TORSDOF 6
ENDMDL
MODEL 5
REMARK VINA RESULT:    -4.160      3.081      4.854
REMARK INTER + INTRA:          -6.658
REMARK INTER:                  -5.965
REMARK INTRA:                  -0.693
REMARK UNBOUND:                -1.039
REMARK SMILES CC(=O)CCC=C(C)CCC=C(C)C
REMARK SMILES IDX 7 1 6 2 8 3 9 4 10 5 11 6 13 7 12 8 14 9 5 10 4 11 2 12 3 13
REMARK SMILES IDX 1 14
REMARK H PARENT
REMARK Flexibility Score: inf
ROOT
ATOM      1  C   UNL     1       3.456  29.767  53.440  1.00  0.00    -0.077 C 
ATOM      2  C   UNL     1       2.536  29.524  54.402  1.00  0.00    -0.028 C 
ATOM      3  C   UNL     1       3.435  31.107  52.752  1.00  0.00     0.039 C 
ENDROOT
BRANCH   1   4
ATOM      4  C   UNL     1       4.551  28.784  53.077  1.00  0.00     0.034 C 
BRANCH   4   5
ATOM      5  C   UNL     1       4.895  28.885  51.587  1.00  0.00     0.032 C 
BRANCH   5   6
ATOM      6  C   UNL     1       4.984  27.514  50.965  1.00  0.00    -0.028 C 
ATOM      7  C   UNL     1       4.521  25.733  49.338  1.00  0.00     0.039 C 
ATOM      8  C   UNL     1       4.372  27.154  49.816  1.00  0.00    -0.080 C 
ATOM      9  C   UNL     1       3.564  28.135  48.998  1.00  0.00     0.039 C 
ENDBRANCH   5   6
ENDBRANCH   4   5
ENDBRANCH   1   4
BRANCH   2  10
ATOM     10  C   UNL     1       2.417  28.235  55.178  1.00  0.00     0.035 C 
BRANCH  10  11
ATOM     11  C   UNL     1       2.433  28.471  56.695  1.00  0.00     0.079 C 
BRANCH  11  12
ATOM     12  C   UNL     1       3.564  27.734  57.364  1.00  0.00     0.130 C 
ATOM     13  O   UNL     1       3.373  27.158  58.425  1.00  0.00    -0.300 OA
ATOM     14  C   UNL     1       4.916  27.673  56.720  1.00  0.00     0.087 C 
ENDBRANCH  11  12
ENDBRANCH  10  11
ENDBRANCH   2  10
TORSDOF 6
ENDMDL
MODEL 6
REMARK VINA RESULT:    -4.056      4.078      6.730
REMARK INTER + INTRA:          -6.518
REMARK INTER:                  -6.064
REMARK INTRA:                  -0.454
REMARK UNBOUND:                -1.039
REMARK SMILES CC(=O)CCC=C(C)CCC=C(C)C
REMARK SMILES IDX 7 1 6 2 8 3 9 4 10 5 11 6 13 7 12 8 14 9 5 10 4 11 2 12 3 13
REMARK SMILES IDX 1 14
REMARK H PARENT
REMARK Flexibility Score: inf
ROOT
ATOM      1  C   UNL     1       4.229  29.781  52.699  1.00  0.00    -0.077 C 
ATOM      2  C   UNL     1       4.313  29.136  51.514  1.00  0.00    -0.028 C 
ATOM      3  C   UNL     1       3.615  31.156  52.724  1.00  0.00     0.039 C 
ENDROOT
BRANCH   1   4
ATOM      4  C   UNL     1       4.653  29.154  54.013  1.00  0.00     0.034 C 
BRANCH   4   5
ATOM      5  C   UNL     1       3.432  28.632  54.779  1.00  0.00     0.032 C 
BRANCH   5   6
ATOM      6  C   UNL     1       3.859  27.891  56.021  1.00  0.00    -0.028 C 
ATOM      7  C   UNL     1       3.781  27.183  58.373  1.00  0.00     0.039 C 
ATOM      8  C   UNL     1       3.213  27.949  57.207  1.00  0.00    -0.080 C 
ATOM      9  C   UNL     1       1.939  28.742  57.385  1.00  0.00     0.039 C 
ENDBRANCH   5   6
ENDBRANCH   4   5
ENDBRANCH   1   4
BRANCH   2  10
ATOM     10  C   UNL     1       4.906  27.762  51.318  1.00  0.00     0.035 C 
BRANCH  10  11
ATOM     11  C   UNL     1       5.803  27.692  50.073  1.00  0.00     0.079 C 
BRANCH  11  12
ATOM     12  C   UNL     1       5.202  26.824  48.998  1.00  0.00     0.130 C 
ATOM     13  O   UNL     1       4.910  27.310  47.916  1.00  0.00    -0.300 OA
ATOM     14  C   UNL     1       4.991  25.360  49.236  1.00  0.00     0.087 C 
ENDBRANCH  11  12
ENDBRANCH  10  11
ENDBRANCH   2  10
TORSDOF 6
ENDMDL
MODEL 7
REMARK VINA RESULT:    -4.010      2.527      5.193
REMARK INTER + INTRA:          -6.456
REMARK INTER:                  -5.566
REMARK INTRA:                  -0.890
REMARK UNBOUND:                -1.039
REMARK SMILES CC(=O)CCC=C(C)CCC=C(C)C
REMARK SMILES IDX 7 1 6 2 8 3 9 4 10 5 11 6 13 7 12 8 14 9 5 10 4 11 2 12 3 13
REMARK SMILES IDX 1 14
REMARK H PARENT
REMARK Flexibility Score: inf
ROOT
ATOM      1  C   UNL     1       4.260  29.374  52.551  1.00  0.00    -0.077 C 
ATOM      2  C   UNL     1       4.019  30.490  51.826  1.00  0.00    -0.028 C 
ATOM      3  C   UNL     1       4.696  28.129  51.824  1.00  0.00     0.039 C 
ENDROOT
BRANCH   1   4
ATOM      4  C   UNL     1       4.188  29.340  54.065  1.00  0.00     0.034 C 
BRANCH   4   5
ATOM      5  C   UNL     1       3.352  28.144  54.537  1.00  0.00     0.032 C 
BRANCH   5   6
ATOM      6  C   UNL     1       2.029  28.604  55.094  1.00  0.00    -0.028 C 
ATOM      7  C   UNL     1       0.329  29.052  56.811  1.00  0.00     0.039 C 
ATOM      8  C   UNL     1       1.708  28.599  56.407  1.00  0.00    -0.080 C 
ATOM      9  C   UNL     1       2.693  28.169  57.469  1.00  0.00     0.039 C 
ENDBRANCH   5   6
ENDBRANCH   4   5
ENDBRANCH   1   4
BRANCH   2  10
ATOM     10  C   UNL     1       3.569  31.812  52.399  1.00  0.00     0.035 C 
BRANCH  10  11
ATOM     11  C   UNL     1       2.477  32.470  51.543  1.00  0.00     0.079 C 
BRANCH  11  12
ATOM     12  C   UNL     1       1.175  32.589  52.291  1.00  0.00     0.130 C 
ATOM     13  O   UNL     1       0.277  33.286  51.843  1.00  0.00    -0.300 OA
ATOM     14  C   UNL     1       0.960  31.829  53.565  1.00  0.00     0.087 C 
ENDBRANCH  11  12
ENDBRANCH  10  11
ENDBRANCH   2  10
TORSDOF 6
ENDMDL
MODEL 8
REMARK VINA RESULT:    -3.933      8.822     11.030
REMARK INTER + INTRA:          -6.352
REMARK INTER:                  -5.114
REMARK INTRA:                  -1.237
REMARK UNBOUND:                -1.039
REMARK SMILES CC(=O)CCC=C(C)CCC=C(C)C
REMARK SMILES IDX 7 1 6 2 8 3 9 4 10 5 11 6 13 7 12 8 14 9 5 10 4 11 2 12 3 13
REMARK SMILES IDX 1 14
REMARK H PARENT
REMARK Flexibility Score: inf
ROOT
ATOM      1  C   UNL     1      -5.339  30.571  59.089  1.00  0.00    -0.077 C 
ATOM      2  C   UNL     1      -5.385  29.406  58.404  1.00  0.00    -0.028 C 
ATOM      3  C   UNL     1      -3.991  31.119  59.480  1.00  0.00     0.039 C 
ENDROOT
BRANCH   1   4
ATOM      4  C   UNL     1      -6.574  31.388  59.414  1.00  0.00     0.034 C 
BRANCH   4   5
ATOM      5  C   UNL     1      -6.956  32.281  58.227  1.00  0.00     0.032 C 
BRANCH   5   6
ATOM      6  C   UNL     1      -8.367  31.997  57.778  1.00  0.00    -0.028 C 
ATOM      7  C   UNL     1     -10.171  31.420  56.213  1.00  0.00     0.039 C 
ATOM      8  C   UNL     1      -8.712  31.632  56.524  1.00  0.00    -0.080 C 
ATOM      9  C   UNL     1      -7.680  31.418  55.441  1.00  0.00     0.039 C 
ENDBRANCH   5   6
ENDBRANCH   4   5
ENDBRANCH   1   4
BRANCH   2  10
ATOM     10  C   UNL     1      -6.650  28.722  57.947  1.00  0.00     0.035 C 
BRANCH  10  11
ATOM     11  C   UNL     1      -6.510  28.132  56.536  1.00  0.00     0.079 C 
BRANCH  11  12
ATOM     12  C   UNL     1      -7.695  27.278  56.166  1.00  0.00     0.130 C 
ATOM     13  O   UNL     1      -7.535  26.097  55.900  1.00  0.00    -0.300 OA
ATOM     14  C   UNL     1      -9.076  27.862  56.155  1.00  0.00     0.087 C 
ENDBRANCH  11  12
ENDBRANCH  10  11
ENDBRANCH   2  10
TORSDOF 6
ENDMDL
MODEL 9
REMARK VINA RESULT:    -3.918      9.230     12.744
REMARK INTER + INTRA:          -6.332
REMARK INTER:                  -5.126
REMARK INTRA:                  -1.206
REMARK UNBOUND:                -1.039
REMARK SMILES CC(=O)CCC=C(C)CCC=C(C)C
REMARK SMILES IDX 7 1 6 2 8 3 9 4 10 5 11 6 13 7 12 8 14 9 5 10 4 11 2 12 3 13
REMARK SMILES IDX 1 14
REMARK H PARENT
REMARK Flexibility Score: inf
ROOT
ATOM      1  C   UNL     1      -7.458  32.395  56.064  1.00  0.00    -0.077 C 
ATOM      2  C   UNL     1      -7.400  31.065  56.305  1.00  0.00    -0.028 C 
ATOM      3  C   UNL     1      -7.359  32.869  54.638  1.00  0.00     0.039 C 
ENDROOT
BRANCH   1   4
ATOM      4  C   UNL     1      -7.696  33.423  57.153  1.00  0.00     0.034 C 
BRANCH   4   5
ATOM      5  C   UNL     1      -9.119  33.985  57.062  1.00  0.00     0.032 C 
BRANCH   5   6
ATOM      6  C   UNL     1      -9.957  33.505  58.221  1.00  0.00    -0.028 C 
ATOM      7  C   UNL     1     -11.634  32.142  59.388  1.00  0.00     0.039 C 
ATOM      8  C   UNL     1     -10.837  32.482  58.156  1.00  0.00    -0.080 C 
ATOM      9  C   UNL     1     -11.026  31.668  56.897  1.00  0.00     0.039 C 
ENDBRANCH   5   6
ENDBRANCH   4   5
ENDBRANCH   1   4
BRANCH   2  10
ATOM     10  C   UNL     1      -7.476  30.431  57.673  1.00  0.00     0.035 C 
BRANCH  10  11
ATOM     11  C   UNL     1      -6.084  30.159  58.261  1.00  0.00     0.079 C 
BRANCH  11  12
ATOM     12  C   UNL     1      -5.774  31.079  59.413  1.00  0.00     0.130 C 
ATOM     13  O   UNL     1      -6.682  31.653  59.995  1.00  0.00    -0.300 OA
ATOM     14  C   UNL     1      -4.360  31.270  59.872  1.00  0.00     0.087 C 
ENDBRANCH  11  12
ENDBRANCH  10  11
ENDBRANCH   2  10
TORSDOF 6
ENDMDL
