MODEL 1
REMARK VINA RESULT:    -3.218      0.000      0.000
REMARK INTER + INTRA:          -3.629
REMARK INTER:                  -3.595
REMARK INTRA:                  -0.034
REMARK UNBOUND:                -0.034
REMARK SMILES CCCC(=O)[O-]
REMARK SMILES IDX 3 1 4 2 5 3 6 4 2 5 1 6
REMARK H PARENT
REMARK Flexibility Score: inf
ROOT
ATOM      1  C   UNL     1      16.836 -37.839  29.447  1.00  0.00     0.052 C 
ENDROOT
BRANCH   1   2
ATOM      2  C   UNL     1      18.291 -38.098  29.674  1.00  0.00     0.041 C 
ATOM      3  O   UNL     1      18.744 -38.188  30.845  1.00  0.00    -0.550 OA
ATOM      4  O   UNL     1      19.157 -38.190  28.592  1.00  0.00    -0.550 OA
ENDBRANCH   1   2
BRANCH   1   5
ATOM      5  C   UNL     1      16.131 -39.113  28.974  1.00  0.00     0.003 C 
ATOM      6  C   UNL     1      15.586 -38.948  27.559  1.00  0.00     0.004 C 
ENDBRANCH   1   5
TORSDOF 2
ENDMDL
MODEL 2
REMARK VINA RESULT:    -3.159      2.066      3.232
REMARK INTER + INTRA:          -3.562
REMARK INTER:                  -3.525
REMARK INTRA:                  -0.037
REMARK UNBOUND:                -0.034
REMARK SMILES CCCC(=O)[O-]
REMARK SMILES IDX 3 1 4 2 5 3 6 4 2 5 1 6
REMARK H PARENT
REMARK Flexibility Score: inf
ROOT
ATOM      1  C   UNL     1      16.569 -39.125  29.208  1.00  0.00     0.052 C 
ENDROOT
BRANCH   1   2
ATOM      2  C   UNL     1      16.426 -38.878  27.739  1.00  0.00     0.041 C 
ATOM      3  O   UNL     1      15.283 -38.831  27.213  1.00  0.00    -0.550 OA
ATOM      4  O   UNL     1      17.557 -38.749  26.944  1.00  0.00    -0.550 OA
ENDBRANCH   1   2
BRANCH   1   5
ATOM      5  C   UNL     1      17.460 -38.056  29.848  1.00  0.00     0.003 C 
ATOM      6  C   UNL     1      18.712 -38.677  30.457  1.00  0.00     0.004 C 
ENDBRANCH   1   5
TORSDOF 2
ENDMDL
MODEL 3
REMARK VINA RESULT:    -2.928     11.239     11.881
REMARK INTER + INTRA:          -3.304
REMARK INTER:                  -3.292
REMARK INTRA:                  -0.012
REMARK UNBOUND:                -0.034
REMARK SMILES CCCC(=O)[O-]
REMARK SMILES IDX 3 1 4 2 5 3 6 4 2 5 1 6
REMARK H PARENT
REMARK Flexibility Score: inf
ROOT
ATOM      1  C   UNL     1      13.122 -29.709  24.121  1.00  0.00     0.052 C 
ENDROOT
BRANCH   1   2
ATOM      2  C   UNL     1      12.623 -30.440  22.915  1.00  0.00     0.041 C 
ATOM      3  O   UNL     1      13.347 -31.304  22.353  1.00  0.00    -0.550 OA
ATOM      4  O   UNL     1      11.378 -30.132  22.382  1.00  0.00    -0.550 OA
ENDBRANCH   1   2
BRANCH   1   5
ATOM      5  C   UNL     1      12.151 -28.592  24.511  1.00  0.00     0.003 C 
ATOM      6  C   UNL     1      12.853 -27.514  25.331  1.00  0.00     0.004 C 
ENDBRANCH   1   5
TORSDOF 2
ENDMDL
MODEL 4
REMARK VINA RESULT:    -2.851      2.317      2.766
REMARK INTER + INTRA:          -3.218
REMARK INTER:                  -3.182
REMARK INTRA:                  -0.036
REMARK UNBOUND:                -0.034
REMARK SMILES CCCC(=O)[O-]
REMARK SMILES IDX 3 1 4 2 5 3 6 4 2 5 1 6
REMARK H PARENT
REMARK Flexibility Score: inf
ROOT
ATOM      1  C   UNL     1      16.328 -38.930  27.459  1.00  0.00     0.052 C 
ENDROOT
BRANCH   1   2
ATOM      2  C   UNL     1      16.338 -38.423  28.866  1.00  0.00     0.041 C 
ATOM      3  O   UNL     1      15.767 -37.339  29.154  1.00  0.00    -0.550 OA
ATOM      4  O   UNL     1      17.023 -39.124  29.851  1.00  0.00    -0.550 OA
ENDBRANCH   1   2
BRANCH   1   5
ATOM      5  C   UNL     1      17.603 -38.504  26.725  1.00  0.00     0.003 C 
ATOM      6  C   UNL     1      17.423 -37.148  26.052  1.00  0.00     0.004 C 
ENDBRANCH   1   5
TORSDOF 2
ENDMDL
MODEL 5
REMARK VINA RESULT:    -2.838     10.476     11.020
REMARK INTER + INTRA:          -3.203
REMARK INTER:                  -3.188
REMARK INTRA:                  -0.015
REMARK UNBOUND:                -0.034
REMARK SMILES CCCC(=O)[O-]
REMARK SMILES IDX 3 1 4 2 5 3 6 4 2 5 1 6
REMARK H PARENT
REMARK Flexibility Score: inf
ROOT
ATOM      1  C   UNL     1      13.530 -30.213  24.248  1.00  0.00     0.052 C 
ENDROOT
BRANCH   1   2
ATOM      2  C   UNL     1      12.321 -29.425  23.855  1.00  0.00     0.041 C 
ATOM      3  O   UNL     1      11.942 -28.452  24.558  1.00  0.00    -0.550 OA
ATOM      4  O   UNL     1      11.584 -29.797  22.737  1.00  0.00    -0.550 OA
ENDBRANCH   1   2
BRANCH   1   5
ATOM      5  C   UNL     1      13.562 -31.553  23.507  1.00  0.00     0.003 C 
ATOM      6  C   UNL     1      13.987 -32.686  24.437  1.00  0.00     0.004 C 
ENDBRANCH   1   5
TORSDOF 2
ENDMDL
MODEL 6
REMARK VINA RESULT:    -2.821     15.676     16.146
REMARK INTER + INTRA:          -3.185
REMARK INTER:                  -3.146
REMARK INTRA:                  -0.039
REMARK UNBOUND:                -0.034
REMARK SMILES CCCC(=O)[O-]
REMARK SMILES IDX 3 1 4 2 5 3 6 4 2 5 1 6
REMARK H PARENT
REMARK Flexibility Score: inf
ROOT
ATOM      1  C   UNL     1      22.031 -25.568  20.692  1.00  0.00     0.052 C 
ENDROOT
BRANCH   1   2
ATOM      2  C   UNL     1      23.090 -25.853  19.675  1.00  0.00     0.041 C 
ATOM      3  O   UNL     1      23.535 -24.927  18.948  1.00  0.00    -0.550 OA
ATOM      4  O   UNL     1      23.550 -27.151  19.497  1.00  0.00    -0.550 OA
ENDBRANCH   1   2
BRANCH   1   5
ATOM      5  C   UNL     1      20.655 -25.989  20.167  1.00  0.00     0.003 C 
ATOM      6  C   UNL     1      20.162 -27.252  20.866  1.00  0.00     0.004 C 
ENDBRANCH   1   5
TORSDOF 2
ENDMDL
MODEL 7
REMARK VINA RESULT:    -2.805     16.419     16.895
REMARK INTER + INTRA:          -3.166
REMARK INTER:                  -3.131
REMARK INTRA:                  -0.036
REMARK UNBOUND:                -0.034
REMARK SMILES CCCC(=O)[O-]
REMARK SMILES IDX 3 1 4 2 5 3 6 4 2 5 1 6
REMARK H PARENT
REMARK Flexibility Score: inf
ROOT
ATOM      1  C   UNL     1      23.143 -25.745  19.746  1.00  0.00     0.052 C 
ENDROOT
BRANCH   1   2
ATOM      2  C   UNL     1      23.661 -24.528  20.445  1.00  0.00     0.041 C 
ATOM      3  O   UNL     1      24.421 -23.726  19.841  1.00  0.00    -0.550 OA
ATOM      4  O   UNL     1      23.344 -24.305  21.779  1.00  0.00    -0.550 OA
ENDBRANCH   1   2
BRANCH   1   5
ATOM      5  C   UNL     1      22.064 -26.430  20.591  1.00  0.00     0.003 C 
ATOM      6  C   UNL     1      20.670 -25.964  20.186  1.00  0.00     0.004 C 
ENDBRANCH   1   5
TORSDOF 2
ENDMDL
MODEL 8
REMARK VINA RESULT:    -2.745      9.707     10.565
REMARK INTER + INTRA:          -3.100
REMARK INTER:                  -3.052
REMARK INTRA:                  -0.048
REMARK UNBOUND:                -0.034
REMARK SMILES CCCC(=O)[O-]
REMARK SMILES IDX 3 1 4 2 5 3 6 4 2 5 1 6
REMARK H PARENT
REMARK Flexibility Score: inf
ROOT
ATOM      1  C   UNL     1      12.973 -31.321  22.627  1.00  0.00     0.052 C 
ENDROOT
BRANCH   1   2
ATOM      2  C   UNL     1      13.783 -31.566  21.393  1.00  0.00     0.041 C 
ATOM      3  O   UNL     1      13.378 -32.377  20.520  1.00  0.00    -0.550 OA
ATOM      4  O   UNL     1      15.009 -30.934  21.232  1.00  0.00    -0.550 OA
ENDBRANCH   1   2
BRANCH   1   5
ATOM      5  C   UNL     1      13.860 -31.392  23.874  1.00  0.00     0.003 C 
ATOM      6  C   UNL     1      13.904 -32.808  24.438  1.00  0.00     0.004 C 
ENDBRANCH   1   5
TORSDOF 2
ENDMDL
