MODEL 1
REMARK VINA RESULT:    -4.119      0.000      0.000
REMARK INTER + INTRA:          -5.461
REMARK INTER:                  -5.322
REMARK INTRA:                  -0.139
REMARK UNBOUND:                -0.139
REMARK SMILES C=CC(=O)CCCCC
REMARK SMILES IDX 6 1 7 2 8 3 9 4 5 5 3 6 4 7 2 8 1 9
REMARK H PARENT
REMARK Flexibility Score: inf
ROOT
ATOM      1  C   UNL     1     100.270 117.061 125.841  1.00  0.00     0.008 C 
ENDROOT
BRANCH   1   2
ATOM      2  C   UNL     1      99.887 118.348 126.588  1.00  0.00     0.000 C 
BRANCH   2   3
ATOM      3  C   UNL     1      99.870 119.580 125.672  1.00  0.00    -0.003 C 
ATOM      4  C   UNL     1     100.218 120.872 126.413  1.00  0.00     0.004 C 
ENDBRANCH   2   3
ENDBRANCH   1   2
BRANCH   1   5
ATOM      5  C   UNL     1      99.843 115.820 126.630  1.00  0.00     0.080 C 
BRANCH   5   6
ATOM      6  C   UNL     1     100.991 114.865 126.774  1.00  0.00     0.155 C 
ATOM      7  O   UNL     1     102.157 115.320 126.926  1.00  0.00    -0.295 OA
BRANCH   6   8
ATOM      8  C   UNL     1     100.757 113.411 126.691  1.00  0.00     0.039 C 
ATOM      9  C   UNL     1      99.616 112.895 126.236  1.00  0.00     0.012 C 
ENDBRANCH   6   8
ENDBRANCH   5   6
ENDBRANCH   1   5
TORSDOF 5
ENDMDL
MODEL 2
REMARK VINA RESULT:    -4.038      1.370      4.967
REMARK INTER + INTRA:          -5.358
REMARK INTER:                  -5.033
REMARK INTRA:                  -0.325
REMARK UNBOUND:                -0.139
REMARK SMILES C=CC(=O)CCCCC
REMARK SMILES IDX 6 1 7 2 8 3 9 4 5 5 3 6 4 7 2 8 1 9
REMARK H PARENT
REMARK Flexibility Score: inf
ROOT
ATOM      1  C   UNL     1     101.155 114.846 126.872  1.00  0.00     0.008 C 
ENDROOT
BRANCH   1   2
ATOM      2  C   UNL     1     100.860 113.338 126.859  1.00  0.00     0.000 C 
BRANCH   2   3
ATOM      3  C   UNL     1      99.932 112.928 125.707  1.00  0.00    -0.003 C 
ATOM      4  C   UNL     1     100.695 112.558 124.435  1.00  0.00     0.004 C 
ENDBRANCH   2   3
ENDBRANCH   1   2
BRANCH   1   5
ATOM      5  C   UNL     1      99.933 115.648 126.415  1.00  0.00     0.080 C 
BRANCH   5   6
ATOM      6  C   UNL     1     100.311 116.609 125.326  1.00  0.00     0.155 C 
ATOM      7  O   UNL     1     100.957 116.189 124.328  1.00  0.00    -0.295 OA
BRANCH   6   8
ATOM      8  C   UNL     1      99.967 118.038 125.451  1.00  0.00     0.039 C 
ATOM      9  C   UNL     1      99.893 118.656 126.629  1.00  0.00     0.012 C 
ENDBRANCH   6   8
ENDBRANCH   5   6
ENDBRANCH   1   5
TORSDOF 5
ENDMDL
MODEL 3
REMARK VINA RESULT:    -3.998      1.863      2.520
REMARK INTER + INTRA:          -5.306
REMARK INTER:                  -4.881
REMARK INTRA:                  -0.425
REMARK UNBOUND:                -0.139
REMARK SMILES C=CC(=O)CCCCC
REMARK SMILES IDX 6 1 7 2 8 3 9 4 5 5 3 6 4 7 2 8 1 9
REMARK H PARENT
REMARK Flexibility Score: inf
ROOT
ATOM      1  C   UNL     1     100.028 115.539 126.550  1.00  0.00     0.008 C 
ENDROOT
BRANCH   1   2
ATOM      2  C   UNL     1     100.244 117.039 126.298  1.00  0.00     0.000 C 
BRANCH   2   3
ATOM      3  C   UNL     1     100.135 117.411 124.812  1.00  0.00    -0.003 C 
ATOM      4  C   UNL     1      99.414 116.345 123.987  1.00  0.00     0.004 C 
ENDBRANCH   2   3
ENDBRANCH   1   2
BRANCH   1   5
ATOM      5  C   UNL     1     101.344 114.849 126.919  1.00  0.00     0.080 C 
BRANCH   5   6
ATOM      6  C   UNL     1     101.301 113.396 126.547  1.00  0.00     0.155 C 
ATOM      7  O   UNL     1     102.118 112.597 127.080  1.00  0.00    -0.295 OA
BRANCH   6   8
ATOM      8  C   UNL     1     100.338 112.922 125.534  1.00  0.00     0.039 C 
ATOM      9  C   UNL     1     100.712 112.553 124.310  1.00  0.00     0.012 C 
ENDBRANCH   6   8
ENDBRANCH   5   6
ENDBRANCH   1   5
TORSDOF 5
ENDMDL
MODEL 4
REMARK VINA RESULT:    -3.994      2.178      4.635
REMARK INTER + INTRA:          -5.300
REMARK INTER:                  -4.838
REMARK INTRA:                  -0.462
REMARK UNBOUND:                -0.139
REMARK SMILES C=CC(=O)CCCCC
REMARK SMILES IDX 6 1 7 2 8 3 9 4 5 5 3 6 4 7 2 8 1 9
REMARK H PARENT
REMARK Flexibility Score: inf
ROOT
ATOM      1  C   UNL     1      99.932 115.561 126.598  1.00  0.00     0.008 C 
ENDROOT
BRANCH   1   2
ATOM      2  C   UNL     1     101.190 114.728 126.887  1.00  0.00     0.000 C 
BRANCH   2   3
ATOM      3  C   UNL     1     101.052 113.270 126.426  1.00  0.00    -0.003 C 
ATOM      4  C   UNL     1      99.619 112.904 126.041  1.00  0.00     0.004 C 
ENDBRANCH   2   3
ENDBRANCH   1   2
BRANCH   1   5
ATOM      5  C   UNL     1     100.294 117.025 126.328  1.00  0.00     0.080 C 
BRANCH   5   6
ATOM      6  C   UNL     1     100.055 117.369 124.887  1.00  0.00     0.155 C 
ATOM      7  O   UNL     1     100.257 118.549 124.493  1.00  0.00    -0.295 OA
BRANCH   6   8
ATOM      8  C   UNL     1      99.545 116.343 123.957  1.00  0.00     0.039 C 
ATOM      9  C   UNL     1     100.286 115.840 122.972  1.00  0.00     0.012 C 
ENDBRANCH   6   8
ENDBRANCH   5   6
ENDBRANCH   1   5
TORSDOF 5
ENDMDL
MODEL 5
REMARK VINA RESULT:    -3.955      1.820      3.023
REMARK INTER + INTRA:          -5.249
REMARK INTER:                  -4.636
REMARK INTRA:                  -0.613
REMARK UNBOUND:                -0.139
REMARK SMILES C=CC(=O)CCCCC
REMARK SMILES IDX 6 1 7 2 8 3 9 4 5 5 3 6 4 7 2 8 1 9
REMARK H PARENT
REMARK Flexibility Score: inf
ROOT
ATOM      1  C   UNL     1     100.237 116.743 125.610  1.00  0.00     0.008 C 
ENDROOT
BRANCH   1   2
ATOM      2  C   UNL     1      99.649 116.241 124.283  1.00  0.00     0.000 C 
BRANCH   2   3
ATOM      3  C   UNL     1     100.726 115.987 123.218  1.00  0.00    -0.003 C 
ATOM      4  C   UNL     1     101.066 114.505 123.061  1.00  0.00     0.004 C 
ENDBRANCH   2   3
ENDBRANCH   1   2
BRANCH   1   5
ATOM      5  C   UNL     1      99.958 115.752 126.744  1.00  0.00     0.080 C 
BRANCH   5   6
ATOM      6  C   UNL     1     101.056 114.734 126.836  1.00  0.00     0.155 C 
ATOM      7  O   UNL     1     102.242 115.120 127.022  1.00  0.00    -0.295 OA
BRANCH   6   8
ATOM      8  C   UNL     1     100.751 113.301 126.664  1.00  0.00     0.039 C 
ATOM      9  C   UNL     1      99.615 112.873 126.115  1.00  0.00     0.012 C 
ENDBRANCH   6   8
ENDBRANCH   5   6
ENDBRANCH   1   5
TORSDOF 5
ENDMDL
MODEL 6
REMARK VINA RESULT:    -3.916      1.434      2.047
REMARK INTER + INTRA:          -5.200
REMARK INTER:                  -4.838
REMARK INTRA:                  -0.362
REMARK UNBOUND:                -0.139
REMARK SMILES C=CC(=O)CCCCC
REMARK SMILES IDX 6 1 7 2 8 3 9 4 5 5 3 6 4 7 2 8 1 9
REMARK H PARENT
REMARK Flexibility Score: inf
ROOT
ATOM      1  C   UNL     1      99.902 116.151 125.154  1.00  0.00     0.008 C 
ENDROOT
BRANCH   1   2
ATOM      2  C   UNL     1     100.211 117.652 125.249  1.00  0.00     0.000 C 
BRANCH   2   3
ATOM      3  C   UNL     1      99.824 118.251 126.609  1.00  0.00    -0.003 C 
ATOM      4  C   UNL     1     100.087 119.755 126.690  1.00  0.00     0.004 C 
ENDBRANCH   2   3
ENDBRANCH   1   2
BRANCH   1   5
ATOM      5  C   UNL     1      99.932 115.495 126.538  1.00  0.00     0.080 C 
BRANCH   5   6
ATOM      6  C   UNL     1     100.783 114.260 126.517  1.00  0.00     0.155 C 
ATOM      7  O   UNL     1     100.229 113.128 126.526  1.00  0.00    -0.295 OA
BRANCH   6   8
ATOM      8  C   UNL     1     102.254 114.376 126.532  1.00  0.00     0.039 C 
ATOM      9  C   UNL     1     102.896 115.234 127.325  1.00  0.00     0.012 C 
ENDBRANCH   6   8
ENDBRANCH   5   6
ENDBRANCH   1   5
TORSDOF 5
ENDMDL
MODEL 7
REMARK VINA RESULT:    -3.879      2.032      5.741
REMARK INTER + INTRA:          -5.152
REMARK INTER:                  -4.918
REMARK INTRA:                  -0.235
REMARK UNBOUND:                -0.139
REMARK SMILES C=CC(=O)CCCCC
REMARK SMILES IDX 6 1 7 2 8 3 9 4 5 5 3 6 4 7 2 8 1 9
REMARK H PARENT
REMARK Flexibility Score: inf
ROOT
ATOM      1  C   UNL     1     100.765 112.598 125.242  1.00  0.00     0.008 C 
ENDROOT
BRANCH   1   2
ATOM      2  C   UNL     1     102.251 112.275 125.019  1.00  0.00     0.000 C 
BRANCH   2   3
ATOM      3  C   UNL     1     102.861 111.472 126.176  1.00  0.00    -0.003 C 
ATOM      4  C   UNL     1     103.565 110.199 125.706  1.00  0.00     0.004 C 
ENDBRANCH   2   3
ENDBRANCH   1   2
BRANCH   1   5
ATOM      5  C   UNL     1     100.537 113.199 126.632  1.00  0.00     0.080 C 
BRANCH   5   6
ATOM      6  C   UNL     1     100.938 114.644 126.654  1.00  0.00     0.155 C 
ATOM      7  O   UNL     1     102.064 114.966 127.121  1.00  0.00    -0.295 OA
BRANCH   6   8
ATOM      8  C   UNL     1     100.001 115.678 126.173  1.00  0.00     0.039 C 
ATOM      9  C   UNL     1     100.244 116.981 126.307  1.00  0.00     0.012 C 
ENDBRANCH   6   8
ENDBRANCH   5   6
ENDBRANCH   1   5
TORSDOF 5
ENDMDL
MODEL 8
REMARK VINA RESULT:    -3.851      1.720      5.437
REMARK INTER + INTRA:          -5.115
REMARK INTER:                  -4.975
REMARK INTRA:                  -0.140
REMARK UNBOUND:                -0.139
REMARK SMILES C=CC(=O)CCCCC
REMARK SMILES IDX 6 1 7 2 8 3 9 4 5 5 3 6 4 7 2 8 1 9
REMARK H PARENT
REMARK Flexibility Score: inf
ROOT
ATOM      1  C   UNL     1     100.610 116.779 126.129  1.00  0.00     0.008 C 
ENDROOT
BRANCH   1   2
ATOM      2  C   UNL     1      99.931 115.561 126.773  1.00  0.00     0.000 C 
BRANCH   2   3
ATOM      3  C   UNL     1     100.629 114.239 126.419  1.00  0.00    -0.003 C 
ATOM      4  C   UNL     1      99.641 113.108 126.131  1.00  0.00     0.004 C 
ENDBRANCH   2   3
ENDBRANCH   1   2
BRANCH   1   5
ATOM      5  C   UNL     1      99.878 118.073 126.496  1.00  0.00     0.080 C 
BRANCH   5   6
ATOM      6  C   UNL     1      99.637 118.907 125.272  1.00  0.00     0.155 C 
ATOM      7  O   UNL     1      99.471 118.338 124.159  1.00  0.00    -0.295 OA
BRANCH   6   8
ATOM      8  C   UNL     1      99.641 120.379 125.370  1.00  0.00     0.039 C 
ATOM      9  C   UNL     1     100.263 121.030 126.352  1.00  0.00     0.012 C 
ENDBRANCH   6   8
ENDBRANCH   5   6
ENDBRANCH   1   5
TORSDOF 5
ENDMDL
MODEL 9
REMARK VINA RESULT:    -3.822      2.117      3.206
REMARK INTER + INTRA:          -5.078
REMARK INTER:                  -4.878
REMARK INTRA:                  -0.201
REMARK UNBOUND:                -0.139
REMARK SMILES C=CC(=O)CCCCC
REMARK SMILES IDX 6 1 7 2 8 3 9 4 5 5 3 6 4 7 2 8 1 9
REMARK H PARENT
REMARK Flexibility Score: inf
ROOT
ATOM      1  C   UNL     1     100.675 114.216 126.842  1.00  0.00     0.008 C 
ENDROOT
BRANCH   1   2
ATOM      2  C   UNL     1      99.884 115.405 126.276  1.00  0.00     0.000 C 
BRANCH   2   3
ATOM      3  C   UNL     1     100.740 116.672 126.137  1.00  0.00    -0.003 C 
ATOM      4  C   UNL     1      99.964 117.948 126.461  1.00  0.00     0.004 C 
ENDBRANCH   2   3
ENDBRANCH   1   2
BRANCH   1   5
ATOM      5  C   UNL     1     100.205 112.897 126.220  1.00  0.00     0.080 C 
BRANCH   5   6
ATOM      6  C   UNL     1     101.109 112.494 125.093  1.00  0.00     0.155 C 
ATOM      7  O   UNL     1     100.644 112.427 123.922  1.00  0.00    -0.295 OA
BRANCH   6   8
ATOM      8  C   UNL     1     102.514 112.139 125.364  1.00  0.00     0.039 C 
ATOM      9  C   UNL     1     102.869 111.340 126.371  1.00  0.00     0.012 C 
ENDBRANCH   6   8
ENDBRANCH   5   6
ENDBRANCH   1   5
TORSDOF 5
ENDMDL
