MODEL 1
REMARK VINA RESULT:    -5.936      0.000      0.000
REMARK INTER + INTRA:         -12.806
REMARK INTER:                 -10.794
REMARK INTRA:                  -2.012
REMARK UNBOUND:                -2.012
REMARK SMILES CCCCCCCCCCCCCC[C@@H](C)C(=O)[O-]
REMARK SMILES IDX 9 1 10 2 11 3 12 4 13 5 14 6 15 7 16 8 17 9 18 10 19 11 8 12
REMARK SMILES IDX 7 13 6 14 5 15 4 16 3 17 2 18 1 19
REMARK H PARENT
REMARK Flexibility Score: inf
ROOT
ATOM      1  C   UNL     1      50.183  51.224   5.729  1.00  0.00     0.000 C 
ENDROOT
BRANCH   1   2
ATOM      2  C   UNL     1      51.196  51.088   6.884  1.00  0.00     0.000 C 
BRANCH   2   3
ATOM      3  C   UNL     1      51.917  52.390   7.273  1.00  0.00     0.000 C 
BRANCH   3   4
ATOM      4  C   UNL     1      53.441  52.225   7.358  1.00  0.00     0.000 C 
BRANCH   4   5
ATOM      5  C   UNL     1      54.144  53.029   6.254  1.00  0.00     0.001 C 
BRANCH   5   6
ATOM      6  C   UNL     1      54.061  52.357   4.871  1.00  0.00     0.009 C 
BRANCH   6   7
ATOM      7  C   UNL     1      54.632  50.921   4.808  1.00  0.00     0.032 C 
ATOM      8  C   UNL     1      53.592  49.895   4.336  1.00  0.00     0.014 C 
BRANCH   7   9
ATOM      9  C   UNL     1      55.828  50.893   3.896  1.00  0.00     0.044 C 
ATOM     10  O   UNL     1      56.541  51.920   3.742  1.00  0.00    -0.550 OA
ATOM     11  O   UNL     1      56.159  49.723   3.222  1.00  0.00    -0.550 OA
ENDBRANCH   7   9
ENDBRANCH   6   7
ENDBRANCH   5   6
ENDBRANCH   4   5
ENDBRANCH   3   4
ENDBRANCH   2   3
ENDBRANCH   1   2
BRANCH   1  12
ATOM     12  C   UNL     1      50.454  52.389   4.757  1.00  0.00     0.000 C 
BRANCH  12  13
ATOM     13  C   UNL     1      49.192  53.054   4.173  1.00  0.00    -0.000 C 
BRANCH  13  14
ATOM     14  C   UNL     1      48.505  52.262   3.043  1.00  0.00    -0.000 C 
BRANCH  14  15
ATOM     15  C   UNL     1      47.269  51.448   3.477  1.00  0.00    -0.000 C 
BRANCH  15  16
ATOM     16  C   UNL     1      47.313  49.950   3.115  1.00  0.00    -0.000 C 
BRANCH  16  17
ATOM     17  C   UNL     1      48.582  49.498   2.372  1.00  0.00    -0.000 C 
BRANCH  17  18
ATOM     18  C   UNL     1      49.150  48.176   2.909  1.00  0.00    -0.003 C 
ATOM     19  C   UNL     1      50.494  48.396   3.596  1.00  0.00     0.004 C 
ENDBRANCH  17  18
ENDBRANCH  16  17
ENDBRANCH  15  16
ENDBRANCH  14  15
ENDBRANCH  13  14
ENDBRANCH  12  13
ENDBRANCH   1  12
TORSDOF 14
ENDMDL
MODEL 2
REMARK VINA RESULT:    -5.914      1.066      1.808
REMARK INTER + INTRA:         -12.766
REMARK INTER:                 -10.673
REMARK INTRA:                  -2.093
REMARK UNBOUND:                -2.012
REMARK SMILES CCCCCCCCCCCCCC[C@@H](C)C(=O)[O-]
REMARK SMILES IDX 9 1 10 2 11 3 12 4 13 5 14 6 15 7 16 8 17 9 18 10 19 11 8 12
REMARK SMILES IDX 7 13 6 14 5 15 4 16 3 17 2 18 1 19
REMARK H PARENT
REMARK Flexibility Score: inf
ROOT
ATOM      1  C   UNL     1      49.765  49.813   6.257  1.00  0.00     0.000 C 
ENDROOT
BRANCH   1   2
ATOM      2  C   UNL     1      50.866  50.553   7.042  1.00  0.00     0.000 C 
BRANCH   2   3
ATOM      3  C   UNL     1      50.740  52.087   7.048  1.00  0.00     0.000 C 
BRANCH   3   4
ATOM      4  C   UNL     1      51.443  52.749   5.854  1.00  0.00     0.000 C 
BRANCH   4   5
ATOM      5  C   UNL     1      52.970  52.676   6.007  1.00  0.00     0.001 C 
BRANCH   5   6
ATOM      6  C   UNL     1      53.685  52.239   4.715  1.00  0.00     0.009 C 
BRANCH   6   7
ATOM      7  C   UNL     1      54.345  50.841   4.776  1.00  0.00     0.032 C 
ATOM      8  C   UNL     1      53.407  49.727   4.292  1.00  0.00     0.014 C 
BRANCH   7   9
ATOM      9  C   UNL     1      55.605  50.842   3.953  1.00  0.00     0.044 C 
ATOM     10  O   UNL     1      55.970  49.804   3.339  1.00  0.00    -0.550 OA
ATOM     11  O   UNL     1      56.371  51.998   3.858  1.00  0.00    -0.550 OA
ENDBRANCH   7   9
ENDBRANCH   6   7
ENDBRANCH   5   6
ENDBRANCH   4   5
ENDBRANCH   3   4
ENDBRANCH   2   3
ENDBRANCH   1   2
BRANCH   1  12
ATOM     12  C   UNL     1      48.357  50.431   6.363  1.00  0.00     0.000 C 
BRANCH  12  13
ATOM     13  C   UNL     1      47.609  50.577   5.023  1.00  0.00    -0.000 C 
BRANCH  13  14
ATOM     14  C   UNL     1      47.996  51.819   4.196  1.00  0.00    -0.000 C 
BRANCH  14  15
ATOM     15  C   UNL     1      49.031  51.561   3.082  1.00  0.00    -0.000 C 
BRANCH  15  16
ATOM     16  C   UNL     1      49.003  50.142   2.481  1.00  0.00    -0.000 C 
BRANCH  16  17
ATOM     17  C   UNL     1      50.094  49.192   3.005  1.00  0.00    -0.000 C 
BRANCH  17  18
ATOM     18  C   UNL     1      49.606  47.742   3.145  1.00  0.00    -0.003 C 
ATOM     19  C   UNL     1      48.150  47.608   2.709  1.00  0.00     0.004 C 
ENDBRANCH  17  18
ENDBRANCH  16  17
ENDBRANCH  15  16
ENDBRANCH  14  15
ENDBRANCH  13  14
ENDBRANCH  12  13
ENDBRANCH   1  12
TORSDOF 14
ENDMDL
MODEL 3
REMARK VINA RESULT:    -5.841      2.976      6.363
REMARK INTER + INTRA:         -12.634
REMARK INTER:                 -11.203
REMARK INTRA:                  -1.431
REMARK UNBOUND:                -2.012
REMARK SMILES CCCCCCCCCCCCCC[C@@H](C)C(=O)[O-]
REMARK SMILES IDX 9 1 10 2 11 3 12 4 13 5 14 6 15 7 16 8 17 9 18 10 19 11 8 12
REMARK SMILES IDX 7 13 6 14 5 15 4 16 3 17 2 18 1 19
REMARK H PARENT
REMARK Flexibility Score: inf
ROOT
ATOM      1  C   UNL     1      51.220  51.810   5.257  1.00  0.00     0.000 C 
ENDROOT
BRANCH   1   2
ATOM      2  C   UNL     1      50.619  53.125   4.722  1.00  0.00     0.000 C 
BRANCH   2   3
ATOM      3  C   UNL     1      49.090  53.119   4.549  1.00  0.00     0.000 C 
BRANCH   3   4
ATOM      4  C   UNL     1      48.651  52.706   3.137  1.00  0.00     0.000 C 
BRANCH   4   5
ATOM      5  C   UNL     1      47.694  51.506   3.188  1.00  0.00     0.001 C 
BRANCH   5   6
ATOM      6  C   UNL     1      48.351  50.232   3.752  1.00  0.00     0.009 C 
BRANCH   6   7
ATOM      7  C   UNL     1      49.183  49.420   2.732  1.00  0.00     0.032 C 
ATOM      8  C   UNL     1      50.436  48.794   3.361  1.00  0.00     0.014 C 
BRANCH   7   9
ATOM      9  C   UNL     1      48.325  48.344   2.123  1.00  0.00     0.044 C 
ATOM     10  O   UNL     1      47.444  48.634   1.270  1.00  0.00    -0.550 OA
ATOM     11  O   UNL     1      48.508  47.018   2.495  1.00  0.00    -0.550 OA
ENDBRANCH   7   9
ENDBRANCH   6   7
ENDBRANCH   5   6
ENDBRANCH   4   5
ENDBRANCH   3   4
ENDBRANCH   2   3
ENDBRANCH   1   2
BRANCH   1  12
ATOM     12  C   UNL     1      51.575  51.815   6.757  1.00  0.00     0.000 C 
BRANCH  12  13
ATOM     13  C   UNL     1      52.958  51.228   7.099  1.00  0.00    -0.000 C 
BRANCH  13  14
ATOM     14  C   UNL     1      54.014  52.265   7.532  1.00  0.00    -0.000 C 
BRANCH  14  15
ATOM     15  C   UNL     1      54.836  52.876   6.380  1.00  0.00    -0.000 C 
BRANCH  15  16
ATOM     16  C   UNL     1      54.516  52.315   4.980  1.00  0.00    -0.000 C 
BRANCH  16  17
ATOM     17  C   UNL     1      55.711  51.689   4.241  1.00  0.00    -0.000 C 
BRANCH  17  18
ATOM     18  C   UNL     1      55.431  50.258   3.758  1.00  0.00    -0.003 C 
ATOM     19  C   UNL     1      54.045  49.793   4.192  1.00  0.00     0.004 C 
ENDBRANCH  17  18
ENDBRANCH  16  17
ENDBRANCH  15  16
ENDBRANCH  14  15
ENDBRANCH  13  14
ENDBRANCH  12  13
ENDBRANCH   1  12
TORSDOF 14
ENDMDL
MODEL 4
REMARK VINA RESULT:    -5.634      2.133      3.180
REMARK INTER + INTRA:         -12.257
REMARK INTER:                 -10.060
REMARK INTRA:                  -2.197
REMARK UNBOUND:                -2.012
REMARK SMILES CCCCCCCCCCCCCC[C@@H](C)C(=O)[O-]
REMARK SMILES IDX 9 1 10 2 11 3 12 4 13 5 14 6 15 7 16 8 17 9 18 10 19 11 8 12
REMARK SMILES IDX 7 13 6 14 5 15 4 16 3 17 2 18 1 19
REMARK H PARENT
REMARK Flexibility Score: inf
ROOT
ATOM      1  C   UNL     1      49.923  49.403   6.169  1.00  0.00     0.000 C 
ENDROOT
BRANCH   1   2
ATOM      2  C   UNL     1      49.449  50.836   6.483  1.00  0.00     0.000 C 
BRANCH   2   3
ATOM      3  C   UNL     1      49.050  51.673   5.255  1.00  0.00     0.000 C 
BRANCH   3   4
ATOM      4  C   UNL     1      50.259  52.275   4.524  1.00  0.00     0.000 C 
BRANCH   4   5
ATOM      5  C   UNL     1      51.250  52.896   5.521  1.00  0.00     0.001 C 
BRANCH   5   6
ATOM      6  C   UNL     1      52.710  52.482   5.257  1.00  0.00     0.009 C 
BRANCH   6   7
ATOM      7  C   UNL     1      53.065  51.037   5.678  1.00  0.00     0.032 C 
ATOM      8  C   UNL     1      53.657  50.217   4.523  1.00  0.00     0.014 C 
BRANCH   7   9
ATOM      9  C   UNL     1      54.034  51.070   6.830  1.00  0.00     0.044 C 
ATOM     10  O   UNL     1      54.938  51.946   6.882  1.00  0.00    -0.550 OA
ATOM     11  O   UNL     1      53.928  50.135   7.852  1.00  0.00    -0.550 OA
ENDBRANCH   7   9
ENDBRANCH   6   7
ENDBRANCH   5   6
ENDBRANCH   4   5
ENDBRANCH   3   4
ENDBRANCH   2   3
ENDBRANCH   1   2
BRANCH   1  12
ATOM     12  C   UNL     1      49.328  48.784   4.889  1.00  0.00     0.000 C 
BRANCH  12  13
ATOM     13  C   UNL     1      50.315  48.651   3.713  1.00  0.00    -0.000 C 
BRANCH  13  14
ATOM     14  C   UNL     1      49.811  49.226   2.374  1.00  0.00    -0.000 C 
BRANCH  14  15
ATOM     15  C   UNL     1      48.293  49.489   2.310  1.00  0.00    -0.000 C 
BRANCH  15  16
ATOM     16  C   UNL     1      47.483  48.445   1.517  1.00  0.00    -0.000 C 
BRANCH  16  17
ATOM     17  C   UNL     1      47.180  47.142   2.278  1.00  0.00    -0.000 C 
BRANCH  17  18
ATOM     18  C   UNL     1      47.677  45.890   1.540  1.00  0.00    -0.003 C 
ATOM     19  C   UNL     1      48.784  45.194   2.326  1.00  0.00     0.004 C 
ENDBRANCH  17  18
ENDBRANCH  16  17
ENDBRANCH  15  16
ENDBRANCH  14  15
ENDBRANCH  13  14
ENDBRANCH  12  13
ENDBRANCH   1  12
TORSDOF 14
ENDMDL
MODEL 5
REMARK VINA RESULT:    -5.633      1.798      2.839
REMARK INTER + INTRA:         -12.255
REMARK INTER:                 -10.285
REMARK INTRA:                  -1.970
REMARK UNBOUND:                -2.012
REMARK SMILES CCCCCCCCCCCCCC[C@@H](C)C(=O)[O-]
REMARK SMILES IDX 9 1 10 2 11 3 12 4 13 5 14 6 15 7 16 8 17 9 18 10 19 11 8 12
REMARK SMILES IDX 7 13 6 14 5 15 4 16 3 17 2 18 1 19
REMARK H PARENT
REMARK Flexibility Score: inf
ROOT
ATOM      1  C   UNL     1      47.796  50.338   5.430  1.00  0.00     0.000 C 
ENDROOT
BRANCH   1   2
ATOM      2  C   UNL     1      48.748  50.417   6.641  1.00  0.00     0.000 C 
BRANCH   2   3
ATOM      3  C   UNL     1      50.237  50.583   6.288  1.00  0.00     0.000 C 
BRANCH   3   4
ATOM      4  C   UNL     1      50.784  51.972   6.645  1.00  0.00     0.000 C 
BRANCH   4   5
ATOM      5  C   UNL     1      51.231  52.727   5.384  1.00  0.00     0.001 C 
BRANCH   5   6
ATOM      6  C   UNL     1      52.737  53.047   5.374  1.00  0.00     0.009 C 
BRANCH   6   7
ATOM      7  C   UNL     1      53.662  51.844   5.669  1.00  0.00     0.032 C 
ATOM      8  C   UNL     1      54.575  51.499   4.484  1.00  0.00     0.014 C 
BRANCH   7   9
ATOM      9  C   UNL     1      54.496  52.134   6.888  1.00  0.00     0.044 C 
ATOM     10  O   UNL     1      55.743  51.957   6.869  1.00  0.00    -0.550 OA
ATOM     11  O   UNL     1      53.890  52.612   8.044  1.00  0.00    -0.550 OA
ENDBRANCH   7   9
ENDBRANCH   6   7
ENDBRANCH   5   6
ENDBRANCH   4   5
ENDBRANCH   3   4
ENDBRANCH   2   3
ENDBRANCH   1   2
BRANCH   1  12
ATOM     12  C   UNL     1      47.775  51.590   4.532  1.00  0.00     0.000 C 
BRANCH  12  13
ATOM     13  C   UNL     1      47.877  51.308   3.020  1.00  0.00    -0.000 C 
BRANCH  13  14
ATOM     14  C   UNL     1      47.186  50.011   2.554  1.00  0.00    -0.000 C 
BRANCH  14  15
ATOM     15  C   UNL     1      48.120  48.976   1.897  1.00  0.00    -0.000 C 
BRANCH  15  16
ATOM     16  C   UNL     1      48.465  47.757   2.777  1.00  0.00    -0.000 C 
BRANCH  16  17
ATOM     17  C   UNL     1      49.820  47.840   3.501  1.00  0.00    -0.000 C 
BRANCH  17  18
ATOM     18  C   UNL     1      50.618  49.100   3.132  1.00  0.00    -0.003 C 
ATOM     19  C   UNL     1      51.945  49.149   3.884  1.00  0.00     0.004 C 
ENDBRANCH  17  18
ENDBRANCH  16  17
ENDBRANCH  15  16
ENDBRANCH  14  15
ENDBRANCH  13  14
ENDBRANCH  12  13
ENDBRANCH   1  12
TORSDOF 14
ENDMDL
MODEL 6
REMARK VINA RESULT:    -5.601      1.043      2.753
REMARK INTER + INTRA:         -12.197
REMARK INTER:                 -10.417
REMARK INTRA:                  -1.780
REMARK UNBOUND:                -2.012
REMARK SMILES CCCCCCCCCCCCCC[C@@H](C)C(=O)[O-]
REMARK SMILES IDX 9 1 10 2 11 3 12 4 13 5 14 6 15 7 16 8 17 9 18 10 19 11 8 12
REMARK SMILES IDX 7 13 6 14 5 15 4 16 3 17 2 18 1 19
REMARK H PARENT
REMARK Flexibility Score: inf
ROOT
ATOM      1  C   UNL     1      50.199  49.740   5.775  1.00  0.00     0.000 C 
ENDROOT
BRANCH   1   2
ATOM      2  C   UNL     1      50.881  50.507   6.925  1.00  0.00     0.000 C 
BRANCH   2   3
ATOM      3  C   UNL     1      50.708  52.036   6.880  1.00  0.00     0.000 C 
BRANCH   3   4
ATOM      4  C   UNL     1      52.014  52.775   6.555  1.00  0.00     0.000 C 
BRANCH   4   5
ATOM      5  C   UNL     1      53.164  52.271   7.439  1.00  0.00     0.001 C 
BRANCH   5   6
ATOM      6  C   UNL     1      54.343  51.700   6.629  1.00  0.00     0.009 C 
BRANCH   6   7
ATOM      7  C   UNL     1      54.249  51.913   5.101  1.00  0.00     0.032 C 
ATOM      8  C   UNL     1      55.062  53.125   4.625  1.00  0.00     0.014 C 
BRANCH   7   9
ATOM      9  C   UNL     1      54.717  50.673   4.388  1.00  0.00     0.044 C 
ATOM     10  O   UNL     1      54.041  49.610   4.441  1.00  0.00    -0.550 OA
ATOM     11  O   UNL     1      55.898  50.697   3.657  1.00  0.00    -0.550 OA
ENDBRANCH   7   9
ENDBRANCH   6   7
ENDBRANCH   5   6
ENDBRANCH   4   5
ENDBRANCH   3   4
ENDBRANCH   2   3
ENDBRANCH   1   2
BRANCH   1  12
ATOM     12  C   UNL     1      50.892  49.864   4.405  1.00  0.00     0.000 C 
BRANCH  12  13
ATOM     13  C   UNL     1      50.768  48.623   3.499  1.00  0.00    -0.000 C 
BRANCH  13  14
ATOM     14  C   UNL     1      49.365  48.393   2.901  1.00  0.00    -0.000 C 
BRANCH  14  15
ATOM     15  C   UNL     1      48.719  49.639   2.263  1.00  0.00    -0.000 C 
BRANCH  15  16
ATOM     16  C   UNL     1      47.306  49.979   2.780  1.00  0.00    -0.000 C 
BRANCH  16  17
ATOM     17  C   UNL     1      47.261  51.022   3.910  1.00  0.00    -0.000 C 
BRANCH  17  18
ATOM     18  C   UNL     1      47.545  52.449   3.417  1.00  0.00    -0.003 C 
ATOM     19  C   UNL     1      49.000  52.836   3.664  1.00  0.00     0.004 C 
ENDBRANCH  17  18
ENDBRANCH  16  17
ENDBRANCH  15  16
ENDBRANCH  14  15
ENDBRANCH  13  14
ENDBRANCH  12  13
ENDBRANCH   1  12
TORSDOF 14
ENDMDL
MODEL 7
REMARK VINA RESULT:    -5.584      2.058      3.631
REMARK INTER + INTRA:         -12.165
REMARK INTER:                 -10.060
REMARK INTRA:                  -2.105
REMARK UNBOUND:                -2.012
REMARK SMILES CCCCCCCCCCCCCC[C@@H](C)C(=O)[O-]
REMARK SMILES IDX 9 1 10 2 11 3 12 4 13 5 14 6 15 7 16 8 17 9 18 10 19 11 8 12
REMARK SMILES IDX 7 13 6 14 5 15 4 16 3 17 2 18 1 19
REMARK H PARENT
REMARK Flexibility Score: inf
ROOT
ATOM      1  C   UNL     1      52.428  49.233   4.217  1.00  0.00     0.000 C 
ENDROOT
BRANCH   1   2
ATOM      2  C   UNL     1      53.316  50.474   3.997  1.00  0.00     0.000 C 
BRANCH   2   3
ATOM      3  C   UNL     1      54.829  50.220   4.114  1.00  0.00     0.000 C 
BRANCH   3   4
ATOM      4  C   UNL     1      55.645  51.516   4.226  1.00  0.00     0.000 C 
BRANCH   4   5
ATOM      5  C   UNL     1      54.789  52.656   4.797  1.00  0.00     0.001 C 
BRANCH   5   6
ATOM      6  C   UNL     1      55.008  52.879   6.304  1.00  0.00     0.009 C 
BRANCH   6   7
ATOM      7  C   UNL     1      53.753  52.674   7.185  1.00  0.00     0.032 C 
ATOM      8  C   UNL     1      52.454  53.026   6.447  1.00  0.00     0.014 C 
BRANCH   7   9
ATOM      9  C   UNL     1      53.699  51.249   7.663  1.00  0.00     0.044 C 
ATOM     10  O   UNL     1      52.683  50.537   7.444  1.00  0.00    -0.550 OA
ATOM     11  O   UNL     1      54.781  50.705   8.345  1.00  0.00    -0.550 OA
ENDBRANCH   7   9
ENDBRANCH   6   7
ENDBRANCH   5   6
ENDBRANCH   4   5
ENDBRANCH   3   4
ENDBRANCH   2   3
ENDBRANCH   1   2
BRANCH   1  12
ATOM     12  C   UNL     1      50.926  49.446   3.946  1.00  0.00     0.000 C 
BRANCH  12  13
ATOM     13  C   UNL     1      50.052  49.589   5.207  1.00  0.00    -0.000 C 
BRANCH  13  14
ATOM     14  C   UNL     1      49.463  50.996   5.434  1.00  0.00    -0.000 C 
BRANCH  14  15
ATOM     15  C   UNL     1      49.573  51.948   4.227  1.00  0.00    -0.000 C 
BRANCH  15  16
ATOM     16  C   UNL     1      48.246  52.600   3.787  1.00  0.00    -0.000 C 
BRANCH  16  17
ATOM     17  C   UNL     1      47.040  51.646   3.731  1.00  0.00    -0.000 C 
BRANCH  17  18
ATOM     18  C   UNL     1      47.159  50.599   2.613  1.00  0.00    -0.003 C 
ATOM     19  C   UNL     1      46.941  49.190   3.156  1.00  0.00     0.004 C 
ENDBRANCH  17  18
ENDBRANCH  16  17
ENDBRANCH  15  16
ENDBRANCH  14  15
ENDBRANCH  13  14
ENDBRANCH  12  13
ENDBRANCH   1  12
TORSDOF 14
ENDMDL
MODEL 8
REMARK VINA RESULT:    -5.504      2.649      6.871
REMARK INTER + INTRA:         -12.021
REMARK INTER:                 -10.348
REMARK INTRA:                  -1.673
REMARK UNBOUND:                -2.012
REMARK SMILES CCCCCCCCCCCCCC[C@@H](C)C(=O)[O-]
REMARK SMILES IDX 9 1 10 2 11 3 12 4 13 5 14 6 15 7 16 8 17 9 18 10 19 11 8 12
REMARK SMILES IDX 7 13 6 14 5 15 4 16 3 17 2 18 1 19
REMARK H PARENT
REMARK Flexibility Score: inf
ROOT
ATOM      1  C   UNL     1      51.380  49.009   3.529  1.00  0.00     0.000 C 
ENDROOT
BRANCH   1   2
ATOM      2  C   UNL     1      49.919  48.540   3.680  1.00  0.00     0.000 C 
BRANCH   2   3
ATOM      3  C   UNL     1      49.057  48.680   2.412  1.00  0.00     0.000 C 
BRANCH   3   4
ATOM      4  C   UNL     1      47.576  48.361   2.660  1.00  0.00     0.000 C 
BRANCH   4   5
ATOM      5  C   UNL     1      47.086  49.007   3.964  1.00  0.00     0.001 C 
BRANCH   5   6
ATOM      6  C   UNL     1      46.911  50.533   3.854  1.00  0.00     0.009 C 
BRANCH   6   7
ATOM      7  C   UNL     1      47.729  51.360   4.872  1.00  0.00     0.032 C 
ATOM      8  C   UNL     1      48.337  50.491   5.982  1.00  0.00     0.014 C 
BRANCH   7   9
ATOM      9  C   UNL     1      48.818  52.110   4.155  1.00  0.00     0.044 C 
ATOM     10  O   UNL     1      48.867  52.120   2.896  1.00  0.00    -0.550 OA
ATOM     11  O   UNL     1      49.775  52.807   4.883  1.00  0.00    -0.550 OA
ENDBRANCH   7   9
ENDBRANCH   6   7
ENDBRANCH   5   6
ENDBRANCH   4   5
ENDBRANCH   3   4
ENDBRANCH   2   3
ENDBRANCH   1   2
BRANCH   1  12
ATOM     12  C   UNL     1      51.859  50.009   4.599  1.00  0.00     0.000 C 
BRANCH  12  13
ATOM     13  C   UNL     1      53.313  49.809   5.070  1.00  0.00    -0.000 C 
BRANCH  13  14
ATOM     14  C   UNL     1      54.383  50.462   4.173  1.00  0.00    -0.000 C 
BRANCH  14  15
ATOM     15  C   UNL     1      54.769  51.903   4.565  1.00  0.00    -0.000 C 
BRANCH  15  16
ATOM     16  C   UNL     1      55.297  52.068   6.005  1.00  0.00    -0.000 C 
BRANCH  16  17
ATOM     17  C   UNL     1      54.436  52.962   6.914  1.00  0.00    -0.000 C 
BRANCH  17  18
ATOM     18  C   UNL     1      53.675  52.167   7.985  1.00  0.00    -0.003 C 
ATOM     19  C   UNL     1      54.399  50.866   8.322  1.00  0.00     0.004 C 
ENDBRANCH  17  18
ENDBRANCH  16  17
ENDBRANCH  15  16
ENDBRANCH  14  15
ENDBRANCH  13  14
ENDBRANCH  12  13
ENDBRANCH   1  12
TORSDOF 14
ENDMDL
MODEL 9
REMARK VINA RESULT:    -5.484      2.183      5.945
REMARK INTER + INTRA:         -11.984
REMARK INTER:                 -10.661
REMARK INTRA:                  -1.323
REMARK UNBOUND:                -2.012
REMARK SMILES CCCCCCCCCCCCCC[C@@H](C)C(=O)[O-]
REMARK SMILES IDX 9 1 10 2 11 3 12 4 13 5 14 6 15 7 16 8 17 9 18 10 19 11 8 12
REMARK SMILES IDX 7 13 6 14 5 15 4 16 3 17 2 18 1 19
REMARK H PARENT
REMARK Flexibility Score: inf
ROOT
ATOM      1  C   UNL     1      51.030  53.123   5.666  1.00  0.00     0.000 C 
ENDROOT
BRANCH   1   2
ATOM      2  C   UNL     1      50.327  52.038   4.827  1.00  0.00     0.000 C 
BRANCH   2   3
ATOM      3  C   UNL     1      49.071  51.427   5.474  1.00  0.00     0.000 C 
BRANCH   3   4
ATOM      4  C   UNL     1      48.155  50.731   4.458  1.00  0.00     0.000 C 
BRANCH   4   5
ATOM      5  C   UNL     1      48.614  51.015   3.019  1.00  0.00     0.001 C 
BRANCH   5   6
ATOM      6  C   UNL     1      49.061  49.748   2.267  1.00  0.00     0.009 C 
BRANCH   6   7
ATOM      7  C   UNL     1      48.817  48.420   3.020  1.00  0.00     0.032 C 
ATOM      8  C   UNL     1      48.062  47.390   2.168  1.00  0.00     0.014 C 
BRANCH   7   9
ATOM      9  C   UNL     1      50.134  47.845   3.469  1.00  0.00     0.044 C 
ATOM     10  O   UNL     1      51.098  48.602   3.760  1.00  0.00    -0.550 OA
ATOM     11  O   UNL     1      50.289  46.468   3.575  1.00  0.00    -0.550 OA
ENDBRANCH   7   9
ENDBRANCH   6   7
ENDBRANCH   5   6
ENDBRANCH   4   5
ENDBRANCH   3   4
ENDBRANCH   2   3
ENDBRANCH   1   2
BRANCH   1  12
ATOM     12  C   UNL     1      51.562  52.651   7.033  1.00  0.00     0.000 C 
BRANCH  12  13
ATOM     13  C   UNL     1      53.091  52.465   7.106  1.00  0.00    -0.000 C 
BRANCH  13  14
ATOM     14  C   UNL     1      53.565  51.001   7.183  1.00  0.00    -0.000 C 
BRANCH  14  15
ATOM     15  C   UNL     1      53.319  50.170   5.907  1.00  0.00    -0.000 C 
BRANCH  15  16
ATOM     16  C   UNL     1      53.862  50.795   4.606  1.00  0.00    -0.000 C 
BRANCH  16  17
ATOM     17  C   UNL     1      55.076  51.722   4.788  1.00  0.00    -0.000 C 
BRANCH  17  18
ATOM     18  C   UNL     1      56.224  51.400   3.820  1.00  0.00    -0.003 C 
ATOM     19  C   UNL     1      56.209  49.927   3.422  1.00  0.00     0.004 C 
ENDBRANCH  17  18
ENDBRANCH  16  17
ENDBRANCH  15  16
ENDBRANCH  14  15
ENDBRANCH  13  14
ENDBRANCH  12  13
ENDBRANCH   1  12
TORSDOF 14
ENDMDL
