MODEL 1
REMARK VINA RESULT:    -3.384      0.000      0.000
REMARK INTER + INTRA:          -4.020
REMARK INTER:                  -3.977
REMARK INTRA:                  -0.043
REMARK UNBOUND:                -0.043
REMARK SMILES CCCCC(=O)[O-]
REMARK SMILES IDX 4 1 5 2 6 3 7 4 3 5 2 6 1 7
REMARK H PARENT
REMARK Flexibility Score: inf
ROOT
ATOM      1  C   UNL     1      -2.069   8.269  22.785  1.00  0.00     0.053 C 
ENDROOT
BRANCH   1   2
ATOM      2  C   UNL     1      -1.027   9.126  23.438  1.00  0.00     0.041 C 
ATOM      3  O   UNL     1       0.186   9.000  23.122  1.00  0.00    -0.550 OA
ATOM      4  O   UNL     1      -1.390  10.038  24.421  1.00  0.00    -0.550 OA
ENDBRANCH   1   2
BRANCH   1   5
ATOM      5  C   UNL     1      -2.081   8.450  21.261  1.00  0.00     0.006 C 
BRANCH   5   6
ATOM      6  C   UNL     1      -3.159   9.443  20.803  1.00  0.00    -0.003 C 
ATOM      7  C   UNL     1      -4.508   8.750  20.634  1.00  0.00     0.004 C 
ENDBRANCH   5   6
ENDBRANCH   1   5
TORSDOF 3
ENDMDL
MODEL 2
REMARK VINA RESULT:    -3.286      1.954      2.540
REMARK INTER + INTRA:          -3.905
REMARK INTER:                  -3.844
REMARK INTRA:                  -0.061
REMARK UNBOUND:                -0.043
REMARK SMILES CCCCC(=O)[O-]
REMARK SMILES IDX 4 1 5 2 6 3 7 4 3 5 2 6 1 7
REMARK H PARENT
REMARK Flexibility Score: inf
ROOT
ATOM      1  C   UNL     1      -2.612   8.935  21.066  1.00  0.00     0.053 C 
ENDROOT
BRANCH   1   2
ATOM      2  C   UNL     1      -2.044   8.431  22.358  1.00  0.00     0.041 C 
ATOM      3  O   UNL     1      -2.740   7.707  23.116  1.00  0.00    -0.550 OA
ATOM      4  O   UNL     1      -0.758   8.790  22.740  1.00  0.00    -0.550 OA
ENDBRANCH   1   2
BRANCH   1   5
ATOM      5  C   UNL     1      -3.757   9.931  21.296  1.00  0.00     0.006 C 
BRANCH   5   6
ATOM      6  C   UNL     1      -3.250  11.371  21.454  1.00  0.00    -0.003 C 
ATOM      7  C   UNL     1      -4.270  12.234  22.192  1.00  0.00     0.004 C 
ENDBRANCH   5   6
ENDBRANCH   1   5
TORSDOF 3
ENDMDL
MODEL 3
REMARK VINA RESULT:    -3.223      2.567      3.735
REMARK INTER + INTRA:          -3.832
REMARK INTER:                  -3.749
REMARK INTRA:                  -0.083
REMARK UNBOUND:                -0.043
REMARK SMILES CCCCC(=O)[O-]
REMARK SMILES IDX 4 1 5 2 6 3 7 4 3 5 2 6 1 7
REMARK H PARENT
REMARK Flexibility Score: inf
ROOT
ATOM      1  C   UNL     1      -1.903   8.473  21.161  1.00  0.00     0.053 C 
ENDROOT
BRANCH   1   2
ATOM      2  C   UNL     1      -3.176   9.217  20.892  1.00  0.00     0.041 C 
ATOM      3  O   UNL     1      -3.214  10.470  21.003  1.00  0.00    -0.550 OA
ATOM      4  O   UNL     1      -4.330   8.522  20.553  1.00  0.00    -0.550 OA
ENDBRANCH   1   2
BRANCH   1   5
ATOM      5  C   UNL     1      -1.336   8.799  22.549  1.00  0.00     0.006 C 
BRANCH   5   6
ATOM      6  C   UNL     1      -2.197   8.218  23.679  1.00  0.00    -0.003 C 
ATOM      7  C   UNL     1      -1.799   8.804  25.031  1.00  0.00     0.004 C 
ENDBRANCH   5   6
ENDBRANCH   1   5
TORSDOF 3
ENDMDL
MODEL 4
REMARK VINA RESULT:    -3.211      2.398      3.589
REMARK INTER + INTRA:          -3.817
REMARK INTER:                  -3.715
REMARK INTRA:                  -0.102
REMARK UNBOUND:                -0.043
REMARK SMILES CCCCC(=O)[O-]
REMARK SMILES IDX 4 1 5 2 6 3 7 4 3 5 2 6 1 7
REMARK H PARENT
REMARK Flexibility Score: inf
ROOT
ATOM      1  C   UNL     1      -3.271  10.751  21.296  1.00  0.00     0.053 C 
ENDROOT
BRANCH   1   2
ATOM      2  C   UNL     1      -3.633  11.779  22.325  1.00  0.00     0.041 C 
ATOM      3  O   UNL     1      -4.574  12.587  22.109  1.00  0.00    -0.550 OA
ATOM      4  O   UNL     1      -2.907  11.868  23.506  1.00  0.00    -0.550 OA
ENDBRANCH   1   2
BRANCH   1   5
ATOM      5  C   UNL     1      -3.345   9.327  21.865  1.00  0.00     0.006 C 
BRANCH   5   6
ATOM      6  C   UNL     1      -2.029   8.559  21.679  1.00  0.00    -0.003 C 
ATOM      7  C   UNL     1      -1.056   8.854  22.818  1.00  0.00     0.004 C 
ENDBRANCH   5   6
ENDBRANCH   1   5
TORSDOF 3
ENDMDL
MODEL 5
REMARK VINA RESULT:    -3.144      7.733      8.731
REMARK INTER + INTRA:          -3.739
REMARK INTER:                  -3.664
REMARK INTRA:                  -0.075
REMARK UNBOUND:                -0.043
REMARK SMILES CCCCC(=O)[O-]
REMARK SMILES IDX 4 1 5 2 6 3 7 4 3 5 2 6 1 7
REMARK H PARENT
REMARK Flexibility Score: inf
ROOT
ATOM      1  C   UNL     1       2.009  15.223  24.159  1.00  0.00     0.053 C 
ENDROOT
BRANCH   1   2
ATOM      2  C   UNL     1       1.591  15.364  25.591  1.00  0.00     0.041 C 
ATOM      3  O   UNL     1       1.988  16.344  26.273  1.00  0.00    -0.550 OA
ATOM      4  O   UNL     1       0.791  14.394  26.182  1.00  0.00    -0.550 OA
ENDBRANCH   1   2
BRANCH   1   5
ATOM      5  C   UNL     1       3.530  15.347  23.994  1.00  0.00     0.006 C 
BRANCH   5   6
ATOM      6  C   UNL     1       4.280  14.172  24.637  1.00  0.00    -0.003 C 
ATOM      7  C   UNL     1       5.684  14.033  24.056  1.00  0.00     0.004 C 
ENDBRANCH   5   6
ENDBRANCH   1   5
TORSDOF 3
ENDMDL
MODEL 6
REMARK VINA RESULT:    -3.102      8.438      9.128
REMARK INTER + INTRA:          -3.689
REMARK INTER:                  -3.580
REMARK INTRA:                  -0.109
REMARK UNBOUND:                -0.043
REMARK SMILES CCCCC(=O)[O-]
REMARK SMILES IDX 4 1 5 2 6 3 7 4 3 5 2 6 1 7
REMARK H PARENT
REMARK Flexibility Score: inf
ROOT
ATOM      1  C   UNL     1       1.903  15.258  24.901  1.00  0.00     0.053 C 
ENDROOT
BRANCH   1   2
ATOM      2  C   UNL     1       2.443  16.574  25.370  1.00  0.00     0.041 C 
ATOM      3  O   UNL     1       3.006  17.354  24.557  1.00  0.00    -0.550 OA
ATOM      4  O   UNL     1       2.357  16.925  26.711  1.00  0.00    -0.550 OA
ENDBRANCH   1   2
BRANCH   1   5
ATOM      5  C   UNL     1       2.912  14.508  24.021  1.00  0.00     0.006 C 
BRANCH   5   6
ATOM      6  C   UNL     1       4.008  13.823  24.848  1.00  0.00    -0.003 C 
ATOM      7  C   UNL     1       5.393  14.128  24.284  1.00  0.00     0.004 C 
ENDBRANCH   5   6
ENDBRANCH   1   5
TORSDOF 3
ENDMDL
MODEL 7
REMARK VINA RESULT:    -3.092      7.630      8.662
REMARK INTER + INTRA:          -3.677
REMARK INTER:                  -3.578
REMARK INTRA:                  -0.099
REMARK UNBOUND:                -0.043
REMARK SMILES CCCCC(=O)[O-]
REMARK SMILES IDX 4 1 5 2 6 3 7 4 3 5 2 6 1 7
REMARK H PARENT
REMARK Flexibility Score: inf
ROOT
ATOM      1  C   UNL     1       2.901  14.986  23.900  1.00  0.00     0.053 C 
ENDROOT
BRANCH   1   2
ATOM      2  C   UNL     1       3.422  13.855  24.734  1.00  0.00     0.041 C 
ATOM      3  O   UNL     1       2.657  12.916  25.078  1.00  0.00    -0.550 OA
ATOM      4  O   UNL     1       4.744  13.855  25.159  1.00  0.00    -0.550 OA
ENDBRANCH   1   2
BRANCH   1   5
ATOM      5  C   UNL     1       1.670  15.644  24.539  1.00  0.00     0.006 C 
BRANCH   5   6
ATOM      6  C   UNL     1       2.013  16.370  25.847  1.00  0.00    -0.003 C 
ATOM      7  C   UNL     1       2.541  17.775  25.574  1.00  0.00     0.004 C 
ENDBRANCH   5   6
ENDBRANCH   1   5
TORSDOF 3
ENDMDL
MODEL 8
REMARK VINA RESULT:    -3.008      9.236      9.959
REMARK INTER + INTRA:          -3.579
REMARK INTER:                  -3.463
REMARK INTRA:                  -0.116
REMARK UNBOUND:                -0.043
REMARK SMILES CCCCC(=O)[O-]
REMARK SMILES IDX 4 1 5 2 6 3 7 4 3 5 2 6 1 7
REMARK H PARENT
REMARK Flexibility Score: inf
ROOT
ATOM      1  C   UNL     1       2.061  15.946  25.361  1.00  0.00     0.053 C 
ENDROOT
BRANCH   1   2
ATOM      2  C   UNL     1       2.041  17.202  26.179  1.00  0.00     0.041 C 
ATOM      3  O   UNL     1       1.687  18.292  25.657  1.00  0.00    -0.550 OA
ATOM      4  O   UNL     1       2.446  17.175  27.507  1.00  0.00    -0.550 OA
ENDBRANCH   1   2
BRANCH   1   5
ATOM      5  C   UNL     1       2.404  16.228  23.892  1.00  0.00     0.006 C 
BRANCH   5   6
ATOM      6  C   UNL     1       3.915  16.371  23.666  1.00  0.00    -0.003 C 
ATOM      7  C   UNL     1       4.274  17.788  23.228  1.00  0.00     0.004 C 
ENDBRANCH   5   6
ENDBRANCH   1   5
TORSDOF 3
ENDMDL
MODEL 9
REMARK VINA RESULT:    -2.997      9.117     10.167
REMARK INTER + INTRA:          -3.565
REMARK INTER:                  -3.530
REMARK INTRA:                  -0.035
REMARK UNBOUND:                -0.043
REMARK SMILES CCCCC(=O)[O-]
REMARK SMILES IDX 4 1 5 2 6 3 7 4 3 5 2 6 1 7
REMARK H PARENT
REMARK Flexibility Score: inf
ROOT
ATOM      1  C   UNL     1       4.298  16.564  23.590  1.00  0.00     0.053 C 
ENDROOT
BRANCH   1   2
ATOM      2  C   UNL     1       3.859  17.988  23.751  1.00  0.00     0.041 C 
ATOM      3  O   UNL     1       3.985  18.801  22.798  1.00  0.00    -0.550 OA
ATOM      4  O   UNL     1       3.344  18.425  24.964  1.00  0.00    -0.550 OA
ENDBRANCH   1   2
BRANCH   1   5
ATOM      5  C   UNL     1       3.233  15.580  24.094  1.00  0.00     0.006 C 
BRANCH   5   6
ATOM      6  C   UNL     1       3.769  14.146  24.194  1.00  0.00    -0.003 C 
ATOM      7  C   UNL     1       5.289  14.135  24.334  1.00  0.00     0.004 C 
ENDBRANCH   5   6
ENDBRANCH   1   5
TORSDOF 3
ENDMDL
