MODEL 1
REMARK VINA RESULT:    -4.985      0.000      0.000
REMARK INTER + INTRA:         -10.437
REMARK INTER:                  -9.355
REMARK INTRA:                  -1.081
REMARK UNBOUND:                -1.081
REMARK SMILES CCCCCCCCC=CCCCCCCCC(=O)[O-]
REMARK SMILES IDX 10 1 9 2 11 3 12 4 13 5 14 6 15 7 16 8 17 9 18 10 19 11
REMARK SMILES IDX 20 12 8 13 7 14 6 15 5 16 4 17 3 18 2 19 1 20
REMARK H PARENT
REMARK Flexibility Score: inf
ROOT
ATOM      1  C   UNL     1       1.981  -0.588  14.852  1.00  0.00    -0.031 C 
ATOM      2  C   UNL     1       1.243   0.450  15.290  1.00  0.00    -0.031 C 
ENDROOT
BRANCH   1   3
ATOM      3  C   UNL     1       3.352  -0.472  14.238  1.00  0.00     0.027 C 
BRANCH   3   4
ATOM      4  C   UNL     1       3.757  -1.778  13.544  1.00  0.00     0.004 C 
BRANCH   4   5
ATOM      5  C   UNL     1       4.949  -2.431  14.260  1.00  0.00     0.000 C 
BRANCH   5   6
ATOM      6  C   UNL     1       6.299  -2.049  13.634  1.00  0.00     0.000 C 
BRANCH   6   7
ATOM      7  C   UNL     1       7.120  -3.273  13.202  1.00  0.00     0.000 C 
BRANCH   7   8
ATOM      8  C   UNL     1       6.231  -4.309  12.496  1.00  0.00     0.006 C 
BRANCH   8   9
ATOM      9  C   UNL     1       6.605  -4.483  11.018  1.00  0.00     0.053 C 
BRANCH   9  10
ATOM     10  C   UNL     1       5.563  -3.908  10.108  1.00  0.00     0.041 C 
ATOM     11  O   UNL     1       5.223  -4.526   9.065  1.00  0.00    -0.550 OA
ATOM     12  O   UNL     1       4.992  -2.675  10.395  1.00  0.00    -0.550 OA
ENDBRANCH   9  10
ENDBRANCH   8   9
ENDBRANCH   7   8
ENDBRANCH   6   7
ENDBRANCH   5   6
ENDBRANCH   4   5
ENDBRANCH   3   4
ENDBRANCH   1   3
BRANCH   2  13
ATOM     13  C   UNL     1       1.644   1.905  15.192  1.00  0.00     0.027 C 
BRANCH  13  14
ATOM     14  C   UNL     1       1.356   2.651  16.501  1.00  0.00     0.004 C 
BRANCH  14  15
ATOM     15  C   UNL     1       0.552   3.940  16.265  1.00  0.00     0.000 C 
BRANCH  15  16
ATOM     16  C   UNL     1      -0.815   3.920  16.967  1.00  0.00     0.000 C 
BRANCH  16  17
ATOM     17  C   UNL     1      -1.980   4.192  16.000  1.00  0.00    -0.000 C 
BRANCH  17  18
ATOM     18  C   UNL     1      -1.763   3.557  14.614  1.00  0.00    -0.000 C 
BRANCH  18  19
ATOM     19  C   UNL     1      -2.638   4.145  13.492  1.00  0.00    -0.003 C 
ATOM     20  C   UNL     1      -2.848   5.653  13.628  1.00  0.00     0.004 C 
ENDBRANCH  18  19
ENDBRANCH  17  18
ENDBRANCH  16  17
ENDBRANCH  15  16
ENDBRANCH  14  15
ENDBRANCH  13  14
ENDBRANCH   2  13
TORSDOF 15
ENDMDL
MODEL 2
REMARK VINA RESULT:    -4.872      7.374      9.608
REMARK INTER + INTRA:         -10.226
REMARK INTER:                  -7.667
REMARK INTRA:                  -2.558
REMARK UNBOUND:                -1.081
REMARK SMILES CCCCCCCCC=CCCCCCCCC(=O)[O-]
REMARK SMILES IDX 10 1 9 2 11 3 12 4 13 5 14 6 15 7 16 8 17 9 18 10 19 11
REMARK SMILES IDX 20 12 8 13 7 14 6 15 5 16 4 17 3 18 2 19 1 20
REMARK H PARENT
REMARK Flexibility Score: inf
ROOT
ATOM      1  C   UNL     1       5.069  -6.850  13.100  1.00  0.00    -0.031 C 
ATOM      2  C   UNL     1       4.871  -5.886  12.179  1.00  0.00    -0.031 C 
ENDROOT
BRANCH   1   3
ATOM      3  C   UNL     1       6.370  -7.579  13.317  1.00  0.00     0.027 C 
BRANCH   3   4
ATOM      4  C   UNL     1       6.730  -7.632  14.807  1.00  0.00     0.004 C 
BRANCH   4   5
ATOM      5  C   UNL     1       5.662  -8.401  15.600  1.00  0.00     0.000 C 
BRANCH   5   6
ATOM      6  C   UNL     1       5.493  -7.872  17.033  1.00  0.00     0.000 C 
BRANCH   6   7
ATOM      7  C   UNL     1       6.787  -7.262  17.595  1.00  0.00     0.000 C 
BRANCH   7   8
ATOM      8  C   UNL     1       6.850  -7.420  19.122  1.00  0.00     0.006 C 
BRANCH   8   9
ATOM      9  C   UNL     1       5.636  -6.793  19.821  1.00  0.00     0.053 C 
BRANCH   9  10
ATOM     10  C   UNL     1       6.039  -5.978  21.012  1.00  0.00     0.041 C 
ATOM     11  O   UNL     1       7.059  -5.242  20.959  1.00  0.00    -0.550 OA
ATOM     12  O   UNL     1       5.306  -6.057  22.190  1.00  0.00    -0.550 OA
ENDBRANCH   9  10
ENDBRANCH   8   9
ENDBRANCH   7   8
ENDBRANCH   6   7
ENDBRANCH   5   6
ENDBRANCH   4   5
ENDBRANCH   3   4
ENDBRANCH   1   3
BRANCH   2  13
ATOM     13  C   UNL     1       5.902  -5.415  11.179  1.00  0.00     0.027 C 
BRANCH  13  14
ATOM     14  C   UNL     1       6.601  -4.137  11.660  1.00  0.00     0.004 C 
BRANCH  14  15
ATOM     15  C   UNL     1       5.595  -3.055  12.087  1.00  0.00     0.000 C 
BRANCH  15  16
ATOM     16  C   UNL     1       5.900  -2.484  13.481  1.00  0.00     0.000 C 
BRANCH  16  17
ATOM     17  C   UNL     1       7.107  -3.166  14.147  1.00  0.00    -0.000 C 
BRANCH  17  18
ATOM     18  C   UNL     1       6.697  -4.146  15.262  1.00  0.00    -0.000 C 
BRANCH  18  19
ATOM     19  C   UNL     1       5.205  -4.107  15.637  1.00  0.00    -0.003 C 
ATOM     20  C   UNL     1       4.969  -4.132  17.147  1.00  0.00     0.004 C 
ENDBRANCH  18  19
ENDBRANCH  17  18
ENDBRANCH  16  17
ENDBRANCH  15  16
ENDBRANCH  14  15
ENDBRANCH  13  14
ENDBRANCH   2  13
TORSDOF 15
ENDMDL
MODEL 3
REMARK VINA RESULT:    -4.757      5.863      8.677
REMARK INTER + INTRA:         -10.010
REMARK INTER:                  -7.370
REMARK INTRA:                  -2.640
REMARK UNBOUND:                -1.081
REMARK SMILES CCCCCCCCC=CCCCCCCCC(=O)[O-]
REMARK SMILES IDX 10 1 9 2 11 3 12 4 13 5 14 6 15 7 16 8 17 9 18 10 19 11
REMARK SMILES IDX 20 12 8 13 7 14 6 15 5 16 4 17 3 18 2 19 1 20
REMARK H PARENT
REMARK Flexibility Score: inf
ROOT
ATOM      1  C   UNL     1       6.772  -7.411  17.459  1.00  0.00    -0.031 C 
ATOM      2  C   UNL     1       6.913  -7.247  18.788  1.00  0.00    -0.031 C 
ENDROOT
BRANCH   1   3
ATOM      3  C   UNL     1       5.576  -8.038  16.791  1.00  0.00     0.027 C 
BRANCH   3   4
ATOM      4  C   UNL     1       5.814  -8.212  15.286  1.00  0.00     0.004 C 
BRANCH   4   5
ATOM      5  C   UNL     1       6.810  -7.165  14.765  1.00  0.00     0.000 C 
BRANCH   5   6
ATOM      6  C   UNL     1       6.116  -5.925  14.181  1.00  0.00     0.000 C 
BRANCH   6   7
ATOM      7  C   UNL     1       6.774  -4.612  14.629  1.00  0.00     0.000 C 
BRANCH   7   8
ATOM      8  C   UNL     1       6.892  -3.627  13.455  1.00  0.00     0.006 C 
BRANCH   8   9
ATOM      9  C   UNL     1       6.353  -2.235  13.809  1.00  0.00     0.053 C 
BRANCH   9  10
ATOM     10  C   UNL     1       4.869  -2.147  13.625  1.00  0.00     0.041 C 
ATOM     11  O   UNL     1       4.150  -1.626  14.517  1.00  0.00    -0.550 OA
ATOM     12  O   UNL     1       4.278  -2.673  12.483  1.00  0.00    -0.550 OA
ENDBRANCH   9  10
ENDBRANCH   8   9
ENDBRANCH   7   8
ENDBRANCH   6   7
ENDBRANCH   5   6
ENDBRANCH   4   5
ENDBRANCH   3   4
ENDBRANCH   1   3
BRANCH   2  13
ATOM     13  C   UNL     1       5.921  -7.710  19.832  1.00  0.00     0.027 C 
BRANCH  13  14
ATOM     14  C   UNL     1       5.429  -6.538  20.690  1.00  0.00     0.004 C 
BRANCH  14  15
ATOM     15  C   UNL     1       6.542  -5.510  20.956  1.00  0.00     0.000 C 
BRANCH  15  16
ATOM     16  C   UNL     1       6.220  -4.127  20.368  1.00  0.00     0.000 C 
BRANCH  16  17
ATOM     17  C   UNL     1       4.937  -4.131  19.519  1.00  0.00    -0.000 C 
BRANCH  17  18
ATOM     18  C   UNL     1       5.220  -4.024  18.009  1.00  0.00    -0.000 C 
BRANCH  18  19
ATOM     19  C   UNL     1       4.152  -4.666  17.106  1.00  0.00    -0.003 C 
ATOM     20  C   UNL     1       3.184  -5.567  17.873  1.00  0.00     0.004 C 
ENDBRANCH  18  19
ENDBRANCH  17  18
ENDBRANCH  16  17
ENDBRANCH  15  16
ENDBRANCH  14  15
ENDBRANCH  13  14
ENDBRANCH   2  13
TORSDOF 15
ENDMDL
MODEL 4
REMARK VINA RESULT:    -4.749      3.529      9.512
REMARK INTER + INTRA:          -9.994
REMARK INTER:                  -8.323
REMARK INTRA:                  -1.671
REMARK UNBOUND:                -1.081
REMARK SMILES CCCCCCCCC=CCCCCCCCC(=O)[O-]
REMARK SMILES IDX 10 1 9 2 11 3 12 4 13 5 14 6 15 7 16 8 17 9 18 10 19 11
REMARK SMILES IDX 20 12 8 13 7 14 6 15 5 16 4 17 3 18 2 19 1 20
REMARK H PARENT
REMARK Flexibility Score: inf
ROOT
ATOM      1  C   UNL     1       2.689   0.340  14.636  1.00  0.00    -0.031 C 
ATOM      2  C   UNL     1       3.619  -0.529  14.196  1.00  0.00    -0.031 C 
ENDROOT
BRANCH   1   3
ATOM      3  C   UNL     1       1.288  -0.034  15.047  1.00  0.00     0.027 C 
BRANCH   3   4
ATOM      4  C   UNL     1       0.442   1.216  15.320  1.00  0.00     0.004 C 
BRANCH   4   5
ATOM      5  C   UNL     1       1.236   2.493  15.007  1.00  0.00     0.000 C 
BRANCH   5   6
ATOM      6  C   UNL     1       0.784   3.694  15.852  1.00  0.00     0.000 C 
BRANCH   6   7
ATOM      7  C   UNL     1      -0.281   3.318  16.893  1.00  0.00     0.000 C 
BRANCH   7   8
ATOM      8  C   UNL     1      -1.519   4.219  16.763  1.00  0.00     0.006 C 
BRANCH   8   9
ATOM      9  C   UNL     1      -2.615   3.579  15.899  1.00  0.00     0.053 C 
BRANCH   9  10
ATOM     10  C   UNL     1      -2.541   4.040  14.475  1.00  0.00     0.041 C 
ATOM     11  O   UNL     1      -2.173   3.245  13.572  1.00  0.00    -0.550 OA
ATOM     12  O   UNL     1      -2.846   5.356  14.153  1.00  0.00    -0.550 OA
ENDBRANCH   9  10
ENDBRANCH   8   9
ENDBRANCH   7   8
ENDBRANCH   6   7
ENDBRANCH   5   6
ENDBRANCH   4   5
ENDBRANCH   3   4
ENDBRANCH   1   3
BRANCH   2  13
ATOM     13  C   UNL     1       3.398  -2.010  13.992  1.00  0.00     0.027 C 
BRANCH  13  14
ATOM     14  C   UNL     1       4.657  -2.814  14.343  1.00  0.00     0.004 C 
BRANCH  14  15
ATOM     15  C   UNL     1       5.944  -2.014  14.082  1.00  0.00     0.000 C 
BRANCH  15  16
ATOM     16  C   UNL     1       6.900  -2.733  13.118  1.00  0.00     0.000 C 
BRANCH  16  17
ATOM     17  C   UNL     1       6.437  -4.162  12.784  1.00  0.00    -0.000 C 
BRANCH  17  18
ATOM     18  C   UNL     1       6.152  -4.360  11.284  1.00  0.00    -0.000 C 
BRANCH  18  19
ATOM     19  C   UNL     1       5.300  -3.253  10.638  1.00  0.00    -0.003 C 
ATOM     20  C   UNL     1       3.807  -3.582  10.620  1.00  0.00     0.004 C 
ENDBRANCH  18  19
ENDBRANCH  17  18
ENDBRANCH  16  17
ENDBRANCH  15  16
ENDBRANCH  14  15
ENDBRANCH  13  14
ENDBRANCH   2  13
TORSDOF 15
ENDMDL
MODEL 5
REMARK VINA RESULT:    -4.729      6.700      9.775
REMARK INTER + INTRA:          -9.958
REMARK INTER:                  -8.135
REMARK INTRA:                  -1.823
REMARK UNBOUND:                -1.081
REMARK SMILES CCCCCCCCC=CCCCCCCCC(=O)[O-]
REMARK SMILES IDX 10 1 9 2 11 3 12 4 13 5 14 6 15 7 16 8 17 9 18 10 19 11
REMARK SMILES IDX 20 12 8 13 7 14 6 15 5 16 4 17 3 18 2 19 1 20
REMARK H PARENT
REMARK Flexibility Score: inf
ROOT
ATOM      1  C   UNL     1       6.530  -7.578  14.077  1.00  0.00    -0.031 C 
ATOM      2  C   UNL     1       6.407  -7.853  15.390  1.00  0.00    -0.031 C 
ENDROOT
BRANCH   1   3
ATOM      3  C   UNL     1       5.395  -7.167  13.174  1.00  0.00     0.027 C 
BRANCH   3   4
ATOM      4  C   UNL     1       5.922  -6.648  11.830  1.00  0.00     0.004 C 
BRANCH   4   5
ATOM      5  C   UNL     1       5.515  -5.183  11.612  1.00  0.00     0.000 C 
BRANCH   5   6
ATOM      6  C   UNL     1       6.583  -4.193  12.103  1.00  0.00     0.000 C 
BRANCH   6   7
ATOM      7  C   UNL     1       6.007  -2.800  12.399  1.00  0.00     0.000 C 
BRANCH   7   8
ATOM      8  C   UNL     1       6.111  -2.469  13.896  1.00  0.00     0.006 C 
BRANCH   8   9
ATOM      9  C   UNL     1       6.540  -3.684  14.730  1.00  0.00     0.053 C 
BRANCH   9  10
ATOM     10  C   UNL     1       5.434  -4.168  15.618  1.00  0.00     0.041 C 
ATOM     11  O   UNL     1       5.617  -4.263  16.860  1.00  0.00    -0.550 OA
ATOM     12  O   UNL     1       4.216  -4.546  15.070  1.00  0.00    -0.550 OA
ENDBRANCH   9  10
ENDBRANCH   8   9
ENDBRANCH   7   8
ENDBRANCH   6   7
ENDBRANCH   5   6
ENDBRANCH   4   5
ENDBRANCH   3   4
ENDBRANCH   1   3
BRANCH   2  13
ATOM     13  C   UNL     1       5.107  -7.847  16.162  1.00  0.00     0.027 C 
BRANCH  13  14
ATOM     14  C   UNL     1       5.358  -7.753  17.673  1.00  0.00     0.004 C 
BRANCH  14  15
ATOM     15  C   UNL     1       6.810  -7.362  17.994  1.00  0.00     0.000 C 
BRANCH  15  16
ATOM     16  C   UNL     1       7.030  -7.088  19.490  1.00  0.00     0.000 C 
BRANCH  16  17
ATOM     17  C   UNL     1       5.712  -7.054  20.283  1.00  0.00    -0.000 C 
BRANCH  17  18
ATOM     18  C   UNL     1       5.618  -5.844  21.231  1.00  0.00    -0.000 C 
BRANCH  18  19
ATOM     19  C   UNL     1       6.901  -4.999  21.325  1.00  0.00    -0.003 C 
ATOM     20  C   UNL     1       7.125  -4.406  22.716  1.00  0.00     0.004 C 
ENDBRANCH  18  19
ENDBRANCH  17  18
ENDBRANCH  16  17
ENDBRANCH  15  16
ENDBRANCH  14  15
ENDBRANCH  13  14
ENDBRANCH   2  13
TORSDOF 15
ENDMDL
MODEL 6
REMARK VINA RESULT:    -4.693      7.309     10.538
REMARK INTER + INTRA:          -9.889
REMARK INTER:                  -7.877
REMARK INTRA:                  -2.011
REMARK UNBOUND:                -1.081
REMARK SMILES CCCCCCCCC=CCCCCCCCC(=O)[O-]
REMARK SMILES IDX 10 1 9 2 11 3 12 4 13 5 14 6 15 7 16 8 17 9 18 10 19 11
REMARK SMILES IDX 20 12 8 13 7 14 6 15 5 16 4 17 3 18 2 19 1 20
REMARK H PARENT
REMARK Flexibility Score: inf
ROOT
ATOM      1  C   UNL     1      -0.773  -0.618  16.973  1.00  0.00    -0.031 C 
ATOM      2  C   UNL     1       0.165  -0.287  16.064  1.00  0.00    -0.031 C 
ENDROOT
BRANCH   1   3
ATOM      3  C   UNL     1      -1.920   0.267  17.387  1.00  0.00     0.027 C 
BRANCH   3   4
ATOM      4  C   UNL     1      -1.859   0.581  18.887  1.00  0.00     0.004 C 
BRANCH   4   5
ATOM      5  C   UNL     1      -3.259   0.890  19.439  1.00  0.00     0.000 C 
BRANCH   5   6
ATOM      6  C   UNL     1      -3.789   2.258  18.978  1.00  0.00     0.000 C 
BRANCH   6   7
ATOM      7  C   UNL     1      -5.260   2.205  18.539  1.00  0.00     0.000 C 
BRANCH   7   8
ATOM      8  C   UNL     1      -6.122   3.149  19.391  1.00  0.00     0.006 C 
BRANCH   8   9
ATOM      9  C   UNL     1      -7.379   2.456  19.933  1.00  0.00     0.053 C 
BRANCH   9  10
ATOM     10  C   UNL     1      -7.453   2.526  21.428  1.00  0.00     0.041 C 
ATOM     11  O   UNL     1      -6.447   2.884  22.095  1.00  0.00    -0.550 OA
ATOM     12  O   UNL     1      -8.622   2.162  22.085  1.00  0.00    -0.550 OA
ENDBRANCH   9  10
ENDBRANCH   8   9
ENDBRANCH   7   8
ENDBRANCH   6   7
ENDBRANCH   5   6
ENDBRANCH   4   5
ENDBRANCH   3   4
ENDBRANCH   1   3
BRANCH   2  13
ATOM     13  C   UNL     1       0.252   1.042  15.349  1.00  0.00     0.027 C 
BRANCH  13  14
ATOM     14  C   UNL     1       1.473   1.845  15.815  1.00  0.00     0.004 C 
BRANCH  14  15
ATOM     15  C   UNL     1       1.103   2.898  16.873  1.00  0.00     0.000 C 
BRANCH  15  16
ATOM     16  C   UNL     1       0.219   4.020  16.305  1.00  0.00     0.000 C 
BRANCH  16  17
ATOM     17  C   UNL     1      -1.167   4.074  16.971  1.00  0.00    -0.000 C 
BRANCH  17  18
ATOM     18  C   UNL     1      -2.309   3.725  15.999  1.00  0.00    -0.000 C 
BRANCH  18  19
ATOM     19  C   UNL     1      -1.991   3.976  14.514  1.00  0.00    -0.003 C 
ATOM     20  C   UNL     1      -2.739   5.178  13.938  1.00  0.00     0.004 C 
ENDBRANCH  18  19
ENDBRANCH  17  18
ENDBRANCH  16  17
ENDBRANCH  15  16
ENDBRANCH  14  15
ENDBRANCH  13  14
ENDBRANCH   2  13
TORSDOF 15
ENDMDL
MODEL 7
REMARK VINA RESULT:    -4.691     13.928     16.322
REMARK INTER + INTRA:          -9.887
REMARK INTER:                  -7.403
REMARK INTRA:                  -2.484
REMARK UNBOUND:                -1.081
REMARK SMILES CCCCCCCCC=CCCCCCCCC(=O)[O-]
REMARK SMILES IDX 10 1 9 2 11 3 12 4 13 5 14 6 15 7 16 8 17 9 18 10 19 11
REMARK SMILES IDX 20 12 8 13 7 14 6 15 5 16 4 17 3 18 2 19 1 20
REMARK H PARENT
REMARK Flexibility Score: inf
ROOT
ATOM      1  C   UNL     1     -11.935  -7.105  10.568  1.00  0.00    -0.031 C 
ATOM      2  C   UNL     1     -11.814  -8.349  11.072  1.00  0.00    -0.031 C 
ENDROOT
BRANCH   1   3
ATOM      3  C   UNL     1     -11.551  -5.841  11.293  1.00  0.00     0.027 C 
BRANCH   3   4
ATOM      4  C   UNL     1     -12.784  -4.977  11.584  1.00  0.00     0.004 C 
BRANCH   4   5
ATOM      5  C   UNL     1     -12.840  -4.587  13.070  1.00  0.00     0.000 C 
BRANCH   5   6
ATOM      6  C   UNL     1     -11.552  -4.949  13.826  1.00  0.00     0.000 C 
BRANCH   6   7
ATOM      7  C   UNL     1     -11.448  -4.246  15.187  1.00  0.00     0.000 C 
BRANCH   7   8
ATOM      8  C   UNL     1     -10.081  -4.508  15.838  1.00  0.00     0.006 C 
BRANCH   8   9
ATOM      9  C   UNL     1      -8.936  -4.481  14.816  1.00  0.00     0.053 C 
BRANCH   9  10
ATOM     10  C   UNL     1      -8.242  -3.153  14.792  1.00  0.00     0.041 C 
ATOM     11  O   UNL     1      -8.669  -2.203  15.499  1.00  0.00    -0.550 OA
ATOM     12  O   UNL     1      -7.145  -2.956  13.963  1.00  0.00    -0.550 OA
ENDBRANCH   9  10
ENDBRANCH   8   9
ENDBRANCH   7   8
ENDBRANCH   6   7
ENDBRANCH   5   6
ENDBRANCH   4   5
ENDBRANCH   3   4
ENDBRANCH   1   3
BRANCH   2  13
ATOM     13  C   UNL     1     -11.325  -8.679  12.464  1.00  0.00     0.027 C 
BRANCH  13  14
ATOM     14  C   UNL     1     -12.474  -8.648  13.479  1.00  0.00     0.004 C 
BRANCH  14  15
ATOM     15  C   UNL     1     -11.973  -8.381  14.909  1.00  0.00     0.000 C 
BRANCH  15  16
ATOM     16  C   UNL     1     -10.447  -8.223  14.980  1.00  0.00     0.000 C 
BRANCH  16  17
ATOM     17  C   UNL     1      -9.923  -8.191  16.426  1.00  0.00    -0.000 C 
BRANCH  17  18
ATOM     18  C   UNL     1     -10.923  -8.784  17.435  1.00  0.00    -0.000 C 
BRANCH  18  19
ATOM     19  C   UNL     1     -11.344  -7.826  18.563  1.00  0.00    -0.003 C 
ATOM     20  C   UNL     1     -10.245  -6.836  18.948  1.00  0.00     0.004 C 
ENDBRANCH  18  19
ENDBRANCH  17  18
ENDBRANCH  16  17
ENDBRANCH  15  16
ENDBRANCH  14  15
ENDBRANCH  13  14
ENDBRANCH   2  13
TORSDOF 15
ENDMDL
MODEL 8
REMARK VINA RESULT:    -4.647      6.528      8.959
REMARK INTER + INTRA:          -9.804
REMARK INTER:                  -7.080
REMARK INTRA:                  -2.724
REMARK UNBOUND:                -1.081
REMARK SMILES CCCCCCCCC=CCCCCCCCC(=O)[O-]
REMARK SMILES IDX 10 1 9 2 11 3 12 4 13 5 14 6 15 7 16 8 17 9 18 10 19 11
REMARK SMILES IDX 20 12 8 13 7 14 6 15 5 16 4 17 3 18 2 19 1 20
REMARK H PARENT
REMARK Flexibility Score: inf
ROOT
ATOM      1  C   UNL     1       1.286   0.861  15.407  1.00  0.00    -0.031 C 
ATOM      2  C   UNL     1       1.439   2.192  15.547  1.00  0.00    -0.031 C 
ENDROOT
BRANCH   1   3
ATOM      3  C   UNL     1       0.689  -0.052  16.447  1.00  0.00     0.027 C 
BRANCH   3   4
ATOM      4  C   UNL     1      -0.813  -0.248  16.211  1.00  0.00     0.004 C 
BRANCH   4   5
ATOM      5  C   UNL     1      -1.634   0.415  17.328  1.00  0.00     0.000 C 
BRANCH   5   6
ATOM      6  C   UNL     1      -3.149   0.279  17.110  1.00  0.00     0.000 C 
BRANCH   6   7
ATOM      7  C   UNL     1      -3.797   1.585  16.626  1.00  0.00     0.000 C 
BRANCH   7   8
ATOM      8  C   UNL     1      -3.688   2.682  17.697  1.00  0.00     0.006 C 
BRANCH   8   9
ATOM      9  C   UNL     1      -4.307   2.252  19.033  1.00  0.00     0.053 C 
BRANCH   9  10
ATOM     10  C   UNL     1      -5.793   2.447  19.047  1.00  0.00     0.041 C 
ATOM     11  O   UNL     1      -6.562   1.458  18.918  1.00  0.00    -0.550 OA
ATOM     12  O   UNL     1      -6.326   3.724  19.168  1.00  0.00    -0.550 OA
ENDBRANCH   9  10
ENDBRANCH   8   9
ENDBRANCH   7   8
ENDBRANCH   6   7
ENDBRANCH   5   6
ENDBRANCH   4   5
ENDBRANCH   3   4
ENDBRANCH   1   3
BRANCH   2  13
ATOM     13  C   UNL     1       1.088   2.982  16.788  1.00  0.00     0.027 C 
BRANCH  13  14
ATOM     14  C   UNL     1      -0.175   3.824  16.571  1.00  0.00     0.004 C 
BRANCH  14  15
ATOM     15  C   UNL     1      -0.882   3.476  15.251  1.00  0.00     0.000 C 
BRANCH  15  16
ATOM     16  C   UNL     1      -2.021   4.452  14.916  1.00  0.00     0.000 C 
BRANCH  16  17
ATOM     17  C   UNL     1      -2.944   3.923  13.805  1.00  0.00    -0.000 C 
BRANCH  17  18
ATOM     18  C   UNL     1      -2.381   2.671  13.108  1.00  0.00    -0.000 C 
BRANCH  18  19
ATOM     19  C   UNL     1      -3.405   1.546  12.878  1.00  0.00    -0.003 C 
ATOM     20  C   UNL     1      -2.837   0.154  13.157  1.00  0.00     0.004 C 
ENDBRANCH  18  19
ENDBRANCH  17  18
ENDBRANCH  16  17
ENDBRANCH  15  16
ENDBRANCH  14  15
ENDBRANCH  13  14
ENDBRANCH   2  13
TORSDOF 15
ENDMDL
MODEL 9
REMARK VINA RESULT:    -4.642     14.992     16.857
REMARK INTER + INTRA:          -9.794
REMARK INTER:                  -7.424
REMARK INTRA:                  -2.370
REMARK UNBOUND:                -1.081
REMARK SMILES CCCCCCCCC=CCCCCCCCC(=O)[O-]
REMARK SMILES IDX 10 1 9 2 11 3 12 4 13 5 14 6 15 7 16 8 17 9 18 10 19 11
REMARK SMILES IDX 20 12 8 13 7 14 6 15 5 16 4 17 3 18 2 19 1 20
REMARK H PARENT
REMARK Flexibility Score: inf
ROOT
ATOM      1  C   UNL     1     -10.819  -8.772  12.846  1.00  0.00    -0.031 C 
ATOM      2  C   UNL     1     -10.631  -8.624  11.520  1.00  0.00    -0.031 C 
ENDROOT
BRANCH   1   3
ATOM      3  C   UNL     1     -12.154  -8.696  13.541  1.00  0.00     0.027 C 
BRANCH   3   4
ATOM      4  C   UNL     1     -11.987  -8.305  15.014  1.00  0.00     0.004 C 
BRANCH   4   5
ATOM      5  C   UNL     1     -10.504  -8.300  15.414  1.00  0.00     0.000 C 
BRANCH   5   6
ATOM      6  C   UNL     1     -10.284  -8.710  16.879  1.00  0.00     0.000 C 
BRANCH   6   7
ATOM      7  C   UNL     1     -11.522  -8.462  17.754  1.00  0.00     0.000 C 
BRANCH   7   8
ATOM      8  C   UNL     1     -11.251  -8.861  19.213  1.00  0.00     0.006 C 
BRANCH   8   9
ATOM      9  C   UNL     1      -9.751  -8.959  19.520  1.00  0.00     0.053 C 
BRANCH   9  10
ATOM     10  C   UNL     1      -9.287  -7.838  20.400  1.00  0.00     0.041 C 
ATOM     11  O   UNL     1      -8.416  -8.047  21.284  1.00  0.00    -0.550 OA
ATOM     12  O   UNL     1      -9.843  -6.572  20.265  1.00  0.00    -0.550 OA
ENDBRANCH   9  10
ENDBRANCH   8   9
ENDBRANCH   7   8
ENDBRANCH   6   7
ENDBRANCH   5   6
ENDBRANCH   4   5
ENDBRANCH   3   4
ENDBRANCH   1   3
BRANCH   2  13
ATOM     13  C   UNL     1     -11.718  -8.306  10.518  1.00  0.00     0.027 C 
BRANCH  13  14
ATOM     14  C   UNL     1     -11.735  -6.812  10.171  1.00  0.00     0.004 C 
BRANCH  14  15
ATOM     15  C   UNL     1     -13.029  -6.125  10.638  1.00  0.00     0.000 C 
BRANCH  15  16
ATOM     16  C   UNL     1     -12.760  -4.911  11.541  1.00  0.00     0.000 C 
BRANCH  16  17
ATOM     17  C   UNL     1     -12.883  -5.250  13.037  1.00  0.00    -0.000 C 
BRANCH  17  18
ATOM     18  C   UNL     1     -11.682  -4.751  13.861  1.00  0.00    -0.000 C 
BRANCH  18  19
ATOM     19  C   UNL     1     -10.316  -5.289  13.400  1.00  0.00    -0.003 C 
ATOM     20  C   UNL     1      -9.164  -4.843  14.300  1.00  0.00     0.004 C 
ENDBRANCH  18  19
ENDBRANCH  17  18
ENDBRANCH  16  17
ENDBRANCH  15  16
ENDBRANCH  14  15
ENDBRANCH  13  14
ENDBRANCH   2  13
TORSDOF 15
ENDMDL
