MODEL 1
REMARK VINA RESULT:    -4.664      0.000      0.000
REMARK INTER + INTRA:         -17.448
REMARK INTER:                 -12.299
REMARK INTRA:                  -5.150
REMARK UNBOUND:                -5.150
REMARK SMILES CCCCCCCCCCCCCCCCCCCCCCCCCCCCCC(=O)[O-]
REMARK SMILES IDX 16 1 17 2 18 3 19 4 20 5 21 6 22 7 23 8 24 9 25 10 26 11
REMARK SMILES IDX 27 12 28 13 29 14 30 15 31 16 32 17 15 18 14 19 13 20 12 21
REMARK SMILES IDX 11 22 10 23 9 24 8 25 7 26 6 27 5 28 4 29 3 30 2 31 1 32
REMARK H PARENT
REMARK Flexibility Score: inf
ROOT
ATOM      1  C   UNL     1       7.595  25.157  27.018  1.00  0.00     0.000 C 
ENDROOT
BRANCH   1   2
ATOM      2  C   UNL     1       8.717  26.190  26.838  1.00  0.00     0.000 C 
BRANCH   2   3
ATOM      3  C   UNL     1       8.320  27.542  27.451  1.00  0.00     0.000 C 
BRANCH   3   4
ATOM      4  C   UNL     1       9.401  28.626  27.277  1.00  0.00     0.000 C 
BRANCH   4   5
ATOM      5  C   UNL     1       9.026  29.771  26.316  1.00  0.00     0.000 C 
BRANCH   5   6
ATOM      6  C   UNL     1       9.072  29.409  24.819  1.00  0.00     0.000 C 
BRANCH   6   7
ATOM      7  C   UNL     1      10.358  29.873  24.102  1.00  0.00     0.000 C 
BRANCH   7   8
ATOM      8  C   UNL     1      11.123  30.944  24.899  1.00  0.00     0.000 C 
BRANCH   8   9
ATOM      9  C   UNL     1      10.610  32.366  24.613  1.00  0.00     0.000 C 
BRANCH   9  10
ATOM     10  C   UNL     1      10.984  33.360  25.727  1.00  0.00     0.000 C 
BRANCH  10  11
ATOM     11  C   UNL     1      11.387  32.659  27.035  1.00  0.00     0.000 C 
BRANCH  11  12
ATOM     12  C   UNL     1      10.365  32.888  28.162  1.00  0.00     0.000 C 
BRANCH  12  13
ATOM     13  C   UNL     1      10.370  31.761  29.210  1.00  0.00     0.006 C 
BRANCH  13  14
ATOM     14  C   UNL     1      11.635  30.885  29.198  1.00  0.00     0.053 C 
BRANCH  14  15
ATOM     15  C   UNL     1      12.744  31.485  30.006  1.00  0.00     0.041 C 
ATOM     16  O   UNL     1      13.880  31.660  29.490  1.00  0.00    -0.550 OA
ATOM     17  O   UNL     1      12.513  31.884  31.318  1.00  0.00    -0.550 OA
ENDBRANCH  14  15
ENDBRANCH  13  14
ENDBRANCH  12  13
ENDBRANCH  11  12
ENDBRANCH  10  11
ENDBRANCH   9  10
ENDBRANCH   8   9
ENDBRANCH   7   8
ENDBRANCH   6   7
ENDBRANCH   5   6
ENDBRANCH   4   5
ENDBRANCH   3   4
ENDBRANCH   2   3
ENDBRANCH   1   2
BRANCH   1  18
ATOM     18  C   UNL     1       7.059  24.624  25.679  1.00  0.00     0.000 C 
BRANCH  18  19
ATOM     19  C   UNL     1       7.430  25.526  24.489  1.00  0.00     0.000 C 
BRANCH  19  20
ATOM     20  C   UNL     1       6.260  25.720  23.511  1.00  0.00     0.000 C 
BRANCH  20  21
ATOM     21  C   UNL     1       5.210  26.717  24.032  1.00  0.00     0.000 C 
BRANCH  21  22
ATOM     22  C   UNL     1       5.826  28.050  24.486  1.00  0.00     0.000 C 
BRANCH  22  23
ATOM     23  C   UNL     1       4.814  28.951  25.213  1.00  0.00     0.000 C 
BRANCH  23  24
ATOM     24  C   UNL     1       5.114  29.106  26.715  1.00  0.00    -0.000 C 
BRANCH  24  25
ATOM     25  C   UNL     1       5.381  30.549  27.182  1.00  0.00    -0.000 C 
BRANCH  25  26
ATOM     26  C   UNL     1       5.468  30.678  28.713  1.00  0.00    -0.000 C 
BRANCH  26  27
ATOM     27  C   UNL     1       6.874  30.379  29.256  1.00  0.00    -0.000 C 
BRANCH  27  28
ATOM     28  C   UNL     1       6.856  29.353  30.401  1.00  0.00    -0.000 C 
BRANCH  28  29
ATOM     29  C   UNL     1       5.571  28.508  30.417  1.00  0.00    -0.000 C 
BRANCH  29  30
ATOM     30  C   UNL     1       5.813  27.055  29.971  1.00  0.00    -0.000 C 
BRANCH  30  31
ATOM     31  C   UNL     1       6.692  26.274  30.961  1.00  0.00    -0.003 C 
ATOM     32  C   UNL     1       6.022  24.997  31.470  1.00  0.00     0.004 C 
ENDBRANCH  30  31
ENDBRANCH  29  30
ENDBRANCH  28  29
ENDBRANCH  27  28
ENDBRANCH  26  27
ENDBRANCH  25  26
ENDBRANCH  24  25
ENDBRANCH  23  24
ENDBRANCH  22  23
ENDBRANCH  21  22
ENDBRANCH  20  21
ENDBRANCH  19  20
ENDBRANCH  18  19
ENDBRANCH   1  18
TORSDOF 28
ENDMDL
MODEL 2
REMARK VINA RESULT:    -4.658      3.820      7.194
REMARK INTER + INTRA:         -17.432
REMARK INTER:                 -11.754
REMARK INTRA:                  -5.678
REMARK UNBOUND:                -5.150
REMARK SMILES CCCCCCCCCCCCCCCCCCCCCCCCCCCCCC(=O)[O-]
REMARK SMILES IDX 16 1 17 2 18 3 19 4 20 5 21 6 22 7 23 8 24 9 25 10 26 11
REMARK SMILES IDX 27 12 28 13 29 14 30 15 31 16 32 17 15 18 14 19 13 20 12 21
REMARK SMILES IDX 11 22 10 23 9 24 8 25 7 26 6 27 5 28 4 29 3 30 2 31 1 32
REMARK H PARENT
REMARK Flexibility Score: inf
ROOT
ATOM      1  C   UNL     1       7.680  26.019  27.243  1.00  0.00     0.000 C 
ENDROOT
BRANCH   1   2
ATOM      2  C   UNL     1       6.553  26.624  28.093  1.00  0.00     0.000 C 
BRANCH   2   3
ATOM      3  C   UNL     1       7.064  27.823  28.906  1.00  0.00     0.000 C 
BRANCH   3   4
ATOM      4  C   UNL     1       7.994  28.749  28.100  1.00  0.00     0.000 C 
BRANCH   4   5
ATOM      5  C   UNL     1       7.529  30.215  28.003  1.00  0.00     0.000 C 
BRANCH   5   6
ATOM      6  C   UNL     1       6.721  30.562  26.738  1.00  0.00     0.000 C 
BRANCH   6   7
ATOM      7  C   UNL     1       5.191  30.544  26.948  1.00  0.00     0.000 C 
BRANCH   7   8
ATOM      8  C   UNL     1       4.483  29.524  26.039  1.00  0.00     0.000 C 
BRANCH   8   9
ATOM      9  C   UNL     1       5.475  28.644  25.259  1.00  0.00     0.000 C 
BRANCH   9  10
ATOM     10  C   UNL     1       4.846  28.024  23.999  1.00  0.00     0.000 C 
BRANCH  10  11
ATOM     11  C   UNL     1       5.626  28.364  22.719  1.00  0.00     0.000 C 
BRANCH  11  12
ATOM     12  C   UNL     1       5.932  27.119  21.869  1.00  0.00     0.000 C 
BRANCH  12  13
ATOM     13  C   UNL     1       5.916  27.409  20.358  1.00  0.00     0.006 C 
BRANCH  13  14
ATOM     14  C   UNL     1       7.011  28.379  19.884  1.00  0.00     0.053 C 
BRANCH  14  15
ATOM     15  C   UNL     1       6.448  29.527  19.103  1.00  0.00     0.041 C 
ATOM     16  O   UNL     1       5.304  29.978  19.376  1.00  0.00    -0.550 OA
ATOM     17  O   UNL     1       7.202  30.121  18.097  1.00  0.00    -0.550 OA
ENDBRANCH  14  15
ENDBRANCH  13  14
ENDBRANCH  12  13
ENDBRANCH  11  12
ENDBRANCH  10  11
ENDBRANCH   9  10
ENDBRANCH   8   9
ENDBRANCH   7   8
ENDBRANCH   6   7
ENDBRANCH   5   6
ENDBRANCH   4   5
ENDBRANCH   3   4
ENDBRANCH   2   3
ENDBRANCH   1   2
BRANCH   1  18
ATOM     18  C   UNL     1       7.160  25.043  26.175  1.00  0.00     0.000 C 
BRANCH  18  19
ATOM     19  C   UNL     1       7.721  25.341  24.773  1.00  0.00     0.000 C 
BRANCH  19  20
ATOM     20  C   UNL     1       8.438  26.699  24.703  1.00  0.00     0.000 C 
BRANCH  20  21
ATOM     21  C   UNL     1       9.116  26.943  23.343  1.00  0.00     0.000 C 
BRANCH  21  22
ATOM     22  C   UNL     1       9.690  28.363  23.209  1.00  0.00     0.000 C 
BRANCH  22  23
ATOM     23  C   UNL     1       9.048  29.354  24.194  1.00  0.00     0.000 C 
BRANCH  23  24
ATOM     24  C   UNL     1      10.041  29.889  25.243  1.00  0.00    -0.000 C 
BRANCH  24  25
ATOM     25  C   UNL     1      11.259  30.636  24.668  1.00  0.00    -0.000 C 
BRANCH  25  26
ATOM     26  C   UNL     1      10.905  32.033  24.127  1.00  0.00    -0.000 C 
BRANCH  26  27
ATOM     27  C   UNL     1      10.196  32.912  25.168  1.00  0.00    -0.000 C 
BRANCH  27  28
ATOM     28  C   UNL     1      11.062  33.161  26.415  1.00  0.00    -0.000 C 
BRANCH  28  29
ATOM     29  C   UNL     1      10.379  32.693  27.711  1.00  0.00    -0.000 C 
BRANCH  29  30
ATOM     30  C   UNL     1      11.390  32.254  28.786  1.00  0.00    -0.000 C 
BRANCH  30  31
ATOM     31  C   UNL     1      12.272  31.083  28.322  1.00  0.00    -0.003 C 
ATOM     32  C   UNL     1      11.626  29.719  28.566  1.00  0.00     0.004 C 
ENDBRANCH  30  31
ENDBRANCH  29  30
ENDBRANCH  28  29
ENDBRANCH  27  28
ENDBRANCH  26  27
ENDBRANCH  25  26
ENDBRANCH  24  25
ENDBRANCH  23  24
ENDBRANCH  22  23
ENDBRANCH  21  22
ENDBRANCH  20  21
ENDBRANCH  19  20
ENDBRANCH  18  19
ENDBRANCH   1  18
TORSDOF 28
ENDMDL
MODEL 3
REMARK VINA RESULT:    -4.646      3.541      7.138
REMARK INTER + INTRA:         -17.402
REMARK INTER:                 -11.280
REMARK INTRA:                  -6.121
REMARK UNBOUND:                -5.150
REMARK SMILES CCCCCCCCCCCCCCCCCCCCCCCCCCCCCC(=O)[O-]
REMARK SMILES IDX 16 1 17 2 18 3 19 4 20 5 21 6 22 7 23 8 24 9 25 10 26 11
REMARK SMILES IDX 27 12 28 13 29 14 30 15 31 16 32 17 15 18 14 19 13 20 12 21
REMARK SMILES IDX 11 22 10 23 9 24 8 25 7 26 6 27 5 28 4 29 3 30 2 31 1 32
REMARK H PARENT
REMARK Flexibility Score: inf
ROOT
ATOM      1  C   UNL     1       8.817  26.604  27.000  1.00  0.00     0.000 C 
ENDROOT
BRANCH   1   2
ATOM      2  C   UNL     1       7.833  27.781  27.038  1.00  0.00     0.000 C 
BRANCH   2   3
ATOM      3  C   UNL     1       8.435  28.974  27.795  1.00  0.00     0.000 C 
BRANCH   3   4
ATOM      4  C   UNL     1       7.511  30.207  27.816  1.00  0.00     0.000 C 
BRANCH   4   5
ATOM      5  C   UNL     1       6.529  30.303  26.633  1.00  0.00     0.000 C 
BRANCH   5   6
ATOM      6  C   UNL     1       5.146  30.888  26.978  1.00  0.00     0.000 C 
BRANCH   6   7
ATOM      7  C   UNL     1       3.985  29.882  26.823  1.00  0.00     0.000 C 
BRANCH   7   8
ATOM      8  C   UNL     1       3.061  29.855  28.053  1.00  0.00     0.000 C 
BRANCH   8   9
ATOM      9  C   UNL     1       2.871  28.435  28.614  1.00  0.00     0.000 C 
BRANCH   9  10
ATOM     10  C   UNL     1       3.763  27.399  27.907  1.00  0.00     0.000 C 
BRANCH  10  11
ATOM     11  C   UNL     1       4.798  26.766  28.852  1.00  0.00     0.000 C 
BRANCH  11  12
ATOM     12  C   UNL     1       5.475  27.806  29.762  1.00  0.00     0.000 C 
BRANCH  12  13
ATOM     13  C   UNL     1       6.588  27.200  30.635  1.00  0.00     0.006 C 
BRANCH  13  14
ATOM     14  C   UNL     1       6.695  25.668  30.559  1.00  0.00     0.053 C 
BRANCH  14  15
ATOM     15  C   UNL     1       6.247  25.008  31.827  1.00  0.00     0.041 C 
ATOM     16  O   UNL     1       5.116  24.456  31.890  1.00  0.00    -0.550 OA
ATOM     17  O   UNL     1       7.093  24.972  32.930  1.00  0.00    -0.550 OA
ENDBRANCH  14  15
ENDBRANCH  13  14
ENDBRANCH  12  13
ENDBRANCH  11  12
ENDBRANCH  10  11
ENDBRANCH   9  10
ENDBRANCH   8   9
ENDBRANCH   7   8
ENDBRANCH   6   7
ENDBRANCH   5   6
ENDBRANCH   4   5
ENDBRANCH   3   4
ENDBRANCH   2   3
ENDBRANCH   1   2
BRANCH   1  18
ATOM     18  C   UNL     1       8.109  25.238  26.998  1.00  0.00     0.000 C 
BRANCH  18  19
ATOM     19  C   UNL     1       6.854  25.221  26.107  1.00  0.00     0.000 C 
BRANCH  19  20
ATOM     20  C   UNL     1       6.827  24.016  25.152  1.00  0.00     0.000 C 
BRANCH  20  21
ATOM     21  C   UNL     1       6.028  24.294  23.867  1.00  0.00     0.000 C 
BRANCH  21  22
ATOM     22  C   UNL     1       6.248  23.225  22.785  1.00  0.00     0.000 C 
BRANCH  22  23
ATOM     23  C   UNL     1       7.564  22.453  22.977  1.00  0.00     0.000 C 
BRANCH  23  24
ATOM     24  C   UNL     1       8.650  22.849  21.958  1.00  0.00    -0.000 C 
BRANCH  24  25
ATOM     25  C   UNL     1       8.185  23.817  20.854  1.00  0.00    -0.000 C 
BRANCH  25  26
ATOM     26  C   UNL     1       8.810  25.218  20.982  1.00  0.00    -0.000 C 
BRANCH  26  27
ATOM     27  C   UNL     1       9.652  25.380  22.257  1.00  0.00    -0.000 C 
BRANCH  27  28
ATOM     28  C   UNL     1       9.069  26.430  23.216  1.00  0.00    -0.000 C 
BRANCH  28  29
ATOM     29  C   UNL     1       7.896  27.210  22.598  1.00  0.00    -0.000 C 
BRANCH  29  30
ATOM     30  C   UNL     1       7.092  28.000  23.646  1.00  0.00    -0.000 C 
BRANCH  30  31
ATOM     31  C   UNL     1       5.631  28.220  23.224  1.00  0.00    -0.003 C 
ATOM     32  C   UNL     1       4.630  27.633  24.221  1.00  0.00     0.004 C 
ENDBRANCH  30  31
ENDBRANCH  29  30
ENDBRANCH  28  29
ENDBRANCH  27  28
ENDBRANCH  26  27
ENDBRANCH  25  26
ENDBRANCH  24  25
ENDBRANCH  23  24
ENDBRANCH  22  23
ENDBRANCH  21  22
ENDBRANCH  20  21
ENDBRANCH  19  20
ENDBRANCH  18  19
ENDBRANCH   1  18
TORSDOF 28
ENDMDL
MODEL 4
REMARK VINA RESULT:    -4.637      2.427      4.769
REMARK INTER + INTRA:         -17.378
REMARK INTER:                 -12.258
REMARK INTRA:                  -5.120
REMARK UNBOUND:                -5.150
REMARK SMILES CCCCCCCCCCCCCCCCCCCCCCCCCCCCCC(=O)[O-]
REMARK SMILES IDX 16 1 17 2 18 3 19 4 20 5 21 6 22 7 23 8 24 9 25 10 26 11
REMARK SMILES IDX 27 12 28 13 29 14 30 15 31 16 32 17 15 18 14 19 13 20 12 21
REMARK SMILES IDX 11 22 10 23 9 24 8 25 7 26 6 27 5 28 4 29 3 30 2 31 1 32
REMARK H PARENT
REMARK Flexibility Score: inf
ROOT
ATOM      1  C   UNL     1       5.818  27.685  31.663  1.00  0.00     0.000 C 
ENDROOT
BRANCH   1   2
ATOM      2  C   UNL     1       6.668  28.963  31.608  1.00  0.00     0.000 C 
BRANCH   2   3
ATOM      3  C   UNL     1       5.948  30.066  30.818  1.00  0.00     0.000 C 
BRANCH   3   4
ATOM      4  C   UNL     1       6.799  30.644  29.671  1.00  0.00     0.000 C 
BRANCH   4   5
ATOM      5  C   UNL     1       7.974  29.754  29.221  1.00  0.00     0.000 C 
BRANCH   5   6
ATOM      6  C   UNL     1       9.372  30.372  29.411  1.00  0.00     0.000 C 
BRANCH   6   7
ATOM      7  C   UNL     1       9.417  31.509  30.455  1.00  0.00     0.000 C 
BRANCH   7   8
ATOM      8  C   UNL     1      10.842  31.783  30.966  1.00  0.00     0.000 C 
BRANCH   8   9
ATOM      9  C   UNL     1      11.896  30.905  30.269  1.00  0.00     0.000 C 
BRANCH   9  10
ATOM     10  C   UNL     1      13.052  31.732  29.679  1.00  0.00     0.000 C 
BRANCH  10  11
ATOM     11  C   UNL     1      13.421  31.298  28.251  1.00  0.00     0.000 C 
BRANCH  11  12
ATOM     12  C   UNL     1      12.181  31.067  27.369  1.00  0.00     0.000 C 
BRANCH  12  13
ATOM     13  C   UNL     1      11.430  32.371  27.043  1.00  0.00     0.006 C 
BRANCH  13  14
ATOM     14  C   UNL     1      10.137  32.175  26.233  1.00  0.00     0.053 C 
BRANCH  14  15
ATOM     15  C   UNL     1      10.317  32.529  24.789  1.00  0.00     0.041 C 
ATOM     16  O   UNL     1      11.093  31.853  24.062  1.00  0.00    -0.550 OA
ATOM     17  O   UNL     1       9.602  33.586  24.236  1.00  0.00    -0.550 OA
ENDBRANCH  14  15
ENDBRANCH  13  14
ENDBRANCH  12  13
ENDBRANCH  11  12
ENDBRANCH  10  11
ENDBRANCH   9  10
ENDBRANCH   8   9
ENDBRANCH   7   8
ENDBRANCH   6   7
ENDBRANCH   5   6
ENDBRANCH   4   5
ENDBRANCH   3   4
ENDBRANCH   2   3
ENDBRANCH   1   2
BRANCH   1  18
ATOM     18  C   UNL     1       5.494  27.127  30.267  1.00  0.00     0.000 C 
BRANCH  18  19
ATOM     19  C   UNL     1       6.575  26.162  29.747  1.00  0.00     0.000 C 
BRANCH  19  20
ATOM     20  C   UNL     1       6.681  26.169  28.214  1.00  0.00     0.000 C 
BRANCH  20  21
ATOM     21  C   UNL     1       8.138  26.195  27.720  1.00  0.00     0.000 C 
BRANCH  21  22
ATOM     22  C   UNL     1       8.279  26.786  26.307  1.00  0.00     0.000 C 
BRANCH  22  23
ATOM     23  C   UNL     1       6.966  26.725  25.509  1.00  0.00     0.000 C 
BRANCH  23  24
ATOM     24  C   UNL     1       6.560  28.085  24.910  1.00  0.00    -0.000 C 
BRANCH  24  25
ATOM     25  C   UNL     1       6.813  29.301  25.822  1.00  0.00    -0.000 C 
BRANCH  25  26
ATOM     26  C   UNL     1       5.515  30.011  26.248  1.00  0.00    -0.000 C 
BRANCH  26  27
ATOM     27  C   UNL     1       4.650  29.157  27.188  1.00  0.00    -0.000 C 
BRANCH  27  28
ATOM     28  C   UNL     1       3.526  29.970  27.852  1.00  0.00    -0.000 C 
BRANCH  28  29
ATOM     29  C   UNL     1       2.543  29.087  28.639  1.00  0.00    -0.000 C 
BRANCH  29  30
ATOM     30  C   UNL     1       1.452  29.905  29.351  1.00  0.00    -0.000 C 
BRANCH  30  31
ATOM     31  C   UNL     1       1.950  30.535  30.663  1.00  0.00    -0.003 C 
ATOM     32  C   UNL     1       2.600  29.517  31.600  1.00  0.00     0.004 C 
ENDBRANCH  30  31
ENDBRANCH  29  30
ENDBRANCH  28  29
ENDBRANCH  27  28
ENDBRANCH  26  27
ENDBRANCH  25  26
ENDBRANCH  24  25
ENDBRANCH  23  24
ENDBRANCH  22  23
ENDBRANCH  21  22
ENDBRANCH  20  21
ENDBRANCH  19  20
ENDBRANCH  18  19
ENDBRANCH   1  18
TORSDOF 28
ENDMDL
MODEL 5
REMARK VINA RESULT:    -4.636      1.862      3.702
REMARK INTER + INTRA:         -17.374
REMARK INTER:                 -12.354
REMARK INTRA:                  -5.020
REMARK UNBOUND:                -5.150
REMARK SMILES CCCCCCCCCCCCCCCCCCCCCCCCCCCCCC(=O)[O-]
REMARK SMILES IDX 16 1 17 2 18 3 19 4 20 5 21 6 22 7 23 8 24 9 25 10 26 11
REMARK SMILES IDX 27 12 28 13 29 14 30 15 31 16 32 17 15 18 14 19 13 20 12 21
REMARK SMILES IDX 11 22 10 23 9 24 8 25 7 26 6 27 5 28 4 29 3 30 2 31 1 32
REMARK H PARENT
REMARK Flexibility Score: inf
ROOT
ATOM      1  C   UNL     1       6.958  23.975  24.257  1.00  0.00     0.000 C 
ENDROOT
BRANCH   1   2
ATOM      2  C   UNL     1       6.710  25.103  25.268  1.00  0.00     0.000 C 
BRANCH   2   3
ATOM      3  C   UNL     1       7.427  24.816  26.596  1.00  0.00     0.000 C 
BRANCH   3   4
ATOM      4  C   UNL     1       7.654  26.080  27.447  1.00  0.00     0.000 C 
BRANCH   4   5
ATOM      5  C   UNL     1       8.101  27.325  26.656  1.00  0.00     0.000 C 
BRANCH   5   6
ATOM      6  C   UNL     1       9.005  28.302  27.432  1.00  0.00     0.000 C 
BRANCH   6   7
ATOM      7  C   UNL     1       8.406  29.717  27.591  1.00  0.00     0.000 C 
BRANCH   7   8
ATOM      8  C   UNL     1       8.117  30.390  26.238  1.00  0.00     0.000 C 
BRANCH   8   9
ATOM      9  C   UNL     1       9.403  30.751  25.475  1.00  0.00     0.000 C 
BRANCH   9  10
ATOM     10  C   UNL     1       9.802  32.226  25.660  1.00  0.00     0.000 C 
BRANCH  10  11
ATOM     11  C   UNL     1      11.022  32.397  26.580  1.00  0.00     0.000 C 
BRANCH  11  12
ATOM     12  C   UNL     1      11.789  31.080  26.789  1.00  0.00     0.000 C 
BRANCH  12  13
ATOM     13  C   UNL     1      12.533  31.030  28.135  1.00  0.00     0.006 C 
BRANCH  13  14
ATOM     14  C   UNL     1      11.650  30.659  29.339  1.00  0.00     0.053 C 
BRANCH  14  15
ATOM     15  C   UNL     1      11.775  31.648  30.457  1.00  0.00     0.041 C 
ATOM     16  O   UNL     1      10.748  32.045  31.069  1.00  0.00    -0.550 OA
ATOM     17  O   UNL     1      13.029  32.105  30.845  1.00  0.00    -0.550 OA
ENDBRANCH  14  15
ENDBRANCH  13  14
ENDBRANCH  12  13
ENDBRANCH  11  12
ENDBRANCH  10  11
ENDBRANCH   9  10
ENDBRANCH   8   9
ENDBRANCH   7   8
ENDBRANCH   6   7
ENDBRANCH   5   6
ENDBRANCH   4   5
ENDBRANCH   3   4
ENDBRANCH   2   3
ENDBRANCH   1   2
BRANCH   1  18
ATOM     18  C   UNL     1       7.189  24.497  22.829  1.00  0.00     0.000 C 
BRANCH  18  19
ATOM     19  C   UNL     1       8.507  23.992  22.217  1.00  0.00     0.000 C 
BRANCH  19  20
ATOM     20  C   UNL     1       9.512  25.128  21.964  1.00  0.00     0.000 C 
BRANCH  20  21
ATOM     21  C   UNL     1       9.540  26.160  23.104  1.00  0.00     0.000 C 
BRANCH  21  22
ATOM     22  C   UNL     1       9.282  27.595  22.617  1.00  0.00     0.000 C 
BRANCH  22  23
ATOM     23  C   UNL     1       7.963  28.173  23.157  1.00  0.00     0.000 C 
BRANCH  23  24
ATOM     24  C   UNL     1       6.844  28.214  22.099  1.00  0.00    -0.000 C 
BRANCH  24  25
ATOM     25  C   UNL     1       5.431  27.912  22.632  1.00  0.00    -0.000 C 
BRANCH  25  26
ATOM     26  C   UNL     1       5.258  28.276  24.117  1.00  0.00    -0.000 C 
BRANCH  26  27
ATOM     27  C   UNL     1       4.098  27.522  24.784  1.00  0.00    -0.000 C 
BRANCH  27  28
ATOM     28  C   UNL     1       4.052  27.740  26.305  1.00  0.00    -0.000 C 
BRANCH  28  29
ATOM     29  C   UNL     1       4.847  28.979  26.749  1.00  0.00    -0.000 C 
BRANCH  29  30
ATOM     30  C   UNL     1       3.938  30.176  27.081  1.00  0.00    -0.000 C 
BRANCH  30  31
ATOM     31  C   UNL     1       2.902  29.846  28.167  1.00  0.00    -0.003 C 
ATOM     32  C   UNL     1       3.535  29.600  29.537  1.00  0.00     0.004 C 
ENDBRANCH  30  31
ENDBRANCH  29  30
ENDBRANCH  28  29
ENDBRANCH  27  28
ENDBRANCH  26  27
ENDBRANCH  25  26
ENDBRANCH  24  25
ENDBRANCH  23  24
ENDBRANCH  22  23
ENDBRANCH  21  22
ENDBRANCH  20  21
ENDBRANCH  19  20
ENDBRANCH  18  19
ENDBRANCH   1  18
TORSDOF 28
ENDMDL
MODEL 6
REMARK VINA RESULT:    -4.610      2.003      5.400
REMARK INTER + INTRA:         -17.306
REMARK INTER:                 -11.541
REMARK INTRA:                  -5.765
REMARK UNBOUND:                -5.150
REMARK SMILES CCCCCCCCCCCCCCCCCCCCCCCCCCCCCC(=O)[O-]
REMARK SMILES IDX 16 1 17 2 18 3 19 4 20 5 21 6 22 7 23 8 24 9 25 10 26 11
REMARK SMILES IDX 27 12 28 13 29 14 30 15 31 16 32 17 15 18 14 19 13 20 12 21
REMARK SMILES IDX 11 22 10 23 9 24 8 25 7 26 6 27 5 28 4 29 3 30 2 31 1 32
REMARK H PARENT
REMARK Flexibility Score: inf
ROOT
ATOM      1  C   UNL     1       4.569  29.505  25.589  1.00  0.00     0.000 C 
ENDROOT
BRANCH   1   2
ATOM      2  C   UNL     1       4.745  30.625  26.624  1.00  0.00     0.000 C 
BRANCH   2   3
ATOM      3  C   UNL     1       4.678  30.067  28.053  1.00  0.00     0.000 C 
BRANCH   3   4
ATOM      4  C   UNL     1       5.853  30.524  28.938  1.00  0.00     0.000 C 
BRANCH   4   5
ATOM      5  C   UNL     1       5.525  30.661  30.437  1.00  0.00     0.000 C 
BRANCH   5   6
ATOM      6  C   UNL     1       6.696  30.364  31.393  1.00  0.00     0.000 C 
BRANCH   6   7
ATOM      7  C   UNL     1       7.860  31.373  31.289  1.00  0.00     0.000 C 
BRANCH   7   8
ATOM      8  C   UNL     1       9.091  30.780  30.581  1.00  0.00     0.000 C 
BRANCH   8   9
ATOM      9  C   UNL     1       9.281  31.343  29.162  1.00  0.00     0.000 C 
BRANCH   9  10
ATOM     10  C   UNL     1       9.565  30.242  28.125  1.00  0.00     0.000 C 
BRANCH  10  11
ATOM     11  C   UNL     1       8.793  30.452  26.812  1.00  0.00     0.000 C 
BRANCH  11  12
ATOM     12  C   UNL     1       9.568  29.936  25.587  1.00  0.00     0.000 C 
BRANCH  12  13
ATOM     13  C   UNL     1      10.104  31.073  24.698  1.00  0.00     0.006 C 
BRANCH  13  14
ATOM     14  C   UNL     1       9.630  32.478  25.106  1.00  0.00     0.053 C 
BRANCH  14  15
ATOM     15  C   UNL     1      10.769  33.358  25.521  1.00  0.00     0.041 C 
ATOM     16  O   UNL     1      11.345  33.170  26.626  1.00  0.00    -0.550 OA
ATOM     17  O   UNL     1      11.217  34.364  24.673  1.00  0.00    -0.550 OA
ENDBRANCH  14  15
ENDBRANCH  13  14
ENDBRANCH  12  13
ENDBRANCH  11  12
ENDBRANCH  10  11
ENDBRANCH   9  10
ENDBRANCH   8   9
ENDBRANCH   7   8
ENDBRANCH   6   7
ENDBRANCH   5   6
ENDBRANCH   4   5
ENDBRANCH   3   4
ENDBRANCH   2   3
ENDBRANCH   1   2
BRANCH   1  18
ATOM     18  C   UNL     1       5.201  28.177  26.039  1.00  0.00     0.000 C 
BRANCH  18  19
ATOM     19  C   UNL     1       4.502  26.949  25.429  1.00  0.00     0.000 C 
BRANCH  19  20
ATOM     20  C   UNL     1       4.014  25.958  26.498  1.00  0.00     0.000 C 
BRANCH  20  21
ATOM     21  C   UNL     1       3.619  26.650  27.814  1.00  0.00     0.000 C 
BRANCH  21  22
ATOM     22  C   UNL     1       3.622  25.693  29.016  1.00  0.00     0.000 C 
BRANCH  22  23
ATOM     23  C   UNL     1       4.378  26.268  30.226  1.00  0.00     0.000 C 
BRANCH  23  24
ATOM     24  C   UNL     1       5.869  25.879  30.246  1.00  0.00    -0.000 C 
BRANCH  24  25
ATOM     25  C   UNL     1       6.852  27.056  30.104  1.00  0.00    -0.000 C 
BRANCH  25  26
ATOM     26  C   UNL     1       7.351  27.251  28.661  1.00  0.00    -0.000 C 
BRANCH  26  27
ATOM     27  C   UNL     1       7.397  25.937  27.865  1.00  0.00    -0.000 C 
BRANCH  27  28
ATOM     28  C   UNL     1       8.655  25.826  26.988  1.00  0.00    -0.000 C 
BRANCH  28  29
ATOM     29  C   UNL     1       8.500  26.547  25.638  1.00  0.00    -0.000 C 
BRANCH  29  30
ATOM     30  C   UNL     1       7.795  25.678  24.581  1.00  0.00    -0.000 C 
BRANCH  30  31
ATOM     31  C   UNL     1       7.802  26.326  23.187  1.00  0.00    -0.003 C 
ATOM     32  C   UNL     1       7.508  27.826  23.227  1.00  0.00     0.004 C 
ENDBRANCH  30  31
ENDBRANCH  29  30
ENDBRANCH  28  29
ENDBRANCH  27  28
ENDBRANCH  26  27
ENDBRANCH  25  26
ENDBRANCH  24  25
ENDBRANCH  23  24
ENDBRANCH  22  23
ENDBRANCH  21  22
ENDBRANCH  20  21
ENDBRANCH  19  20
ENDBRANCH  18  19
ENDBRANCH   1  18
TORSDOF 28
ENDMDL
MODEL 7
REMARK VINA RESULT:    -4.574      2.198      4.930
REMARK INTER + INTRA:         -17.210
REMARK INTER:                 -11.611
REMARK INTRA:                  -5.599
REMARK UNBOUND:                -5.150
REMARK SMILES CCCCCCCCCCCCCCCCCCCCCCCCCCCCCC(=O)[O-]
REMARK SMILES IDX 16 1 17 2 18 3 19 4 20 5 21 6 22 7 23 8 24 9 25 10 26 11
REMARK SMILES IDX 27 12 28 13 29 14 30 15 31 16 32 17 15 18 14 19 13 20 12 21
REMARK SMILES IDX 11 22 10 23 9 24 8 25 7 26 6 27 5 28 4 29 3 30 2 31 1 32
REMARK H PARENT
REMARK Flexibility Score: inf
ROOT
ATOM      1  C   UNL     1       3.628  29.789  27.378  1.00  0.00     0.000 C 
ENDROOT
BRANCH   1   2
ATOM      2  C   UNL     1       3.679  28.287  27.692  1.00  0.00     0.000 C 
BRANCH   2   3
ATOM      3  C   UNL     1       3.991  28.048  29.177  1.00  0.00     0.000 C 
BRANCH   3   4
ATOM      4  C   UNL     1       3.956  29.339  30.018  1.00  0.00     0.000 C 
BRANCH   4   5
ATOM      5  C   UNL     1       5.329  29.826  30.520  1.00  0.00     0.000 C 
BRANCH   5   6
ATOM      6  C   UNL     1       5.509  31.356  30.551  1.00  0.00     0.000 C 
BRANCH   6   7
ATOM      7  C   UNL     1       6.775  31.822  31.302  1.00  0.00     0.000 C 
BRANCH   7   8
ATOM      8  C   UNL     1       7.869  30.742  31.340  1.00  0.00     0.000 C 
BRANCH   8   9
ATOM      9  C   UNL     1       9.040  31.058  30.393  1.00  0.00     0.000 C 
BRANCH   9  10
ATOM     10  C   UNL     1      10.202  31.766  31.112  1.00  0.00     0.000 C 
BRANCH  10  11
ATOM     11  C   UNL     1      11.369  32.096  30.166  1.00  0.00     0.000 C 
BRANCH  11  12
ATOM     12  C   UNL     1      11.568  31.021  29.084  1.00  0.00     0.000 C 
BRANCH  12  13
ATOM     13  C   UNL     1      11.744  31.617  27.676  1.00  0.00     0.006 C 
BRANCH  13  14
ATOM     14  C   UNL     1      10.893  32.869  27.403  1.00  0.00     0.053 C 
BRANCH  14  15
ATOM     15  C   UNL     1      11.133  33.427  26.034  1.00  0.00     0.041 C 
ATOM     16  O   UNL     1      11.078  32.674  25.024  1.00  0.00    -0.550 OA
ATOM     17  O   UNL     1      11.384  34.784  25.868  1.00  0.00    -0.550 OA
ENDBRANCH  14  15
ENDBRANCH  13  14
ENDBRANCH  12  13
ENDBRANCH  11  12
ENDBRANCH  10  11
ENDBRANCH   9  10
ENDBRANCH   8   9
ENDBRANCH   7   8
ENDBRANCH   6   7
ENDBRANCH   5   6
ENDBRANCH   4   5
ENDBRANCH   3   4
ENDBRANCH   2   3
ENDBRANCH   1   2
BRANCH   1  18
ATOM     18  C   UNL     1       4.693  30.218  26.354  1.00  0.00     0.000 C 
BRANCH  18  19
ATOM     19  C   UNL     1       5.213  29.041  25.509  1.00  0.00     0.000 C 
BRANCH  19  20
ATOM     20  C   UNL     1       4.331  28.764  24.282  1.00  0.00     0.000 C 
BRANCH  20  21
ATOM     21  C   UNL     1       5.035  27.890  23.229  1.00  0.00     0.000 C 
BRANCH  21  22
ATOM     22  C   UNL     1       6.536  28.198  23.106  1.00  0.00     0.000 C 
BRANCH  22  23
ATOM     23  C   UNL     1       7.416  26.964  23.366  1.00  0.00     0.000 C 
BRANCH  23  24
ATOM     24  C   UNL     1       8.744  27.307  24.066  1.00  0.00    -0.000 C 
BRANCH  24  25
ATOM     25  C   UNL     1       9.264  28.734  23.814  1.00  0.00    -0.000 C 
BRANCH  25  26
ATOM     26  C   UNL     1       9.620  29.481  25.112  1.00  0.00    -0.000 C 
BRANCH  26  27
ATOM     27  C   UNL     1       8.465  30.349  25.636  1.00  0.00    -0.000 C 
BRANCH  27  28
ATOM     28  C   UNL     1       8.241  30.178  27.147  1.00  0.00    -0.000 C 
BRANCH  28  29
ATOM     29  C   UNL     1       8.778  28.838  27.677  1.00  0.00    -0.000 C 
BRANCH  29  30
ATOM     30  C   UNL     1       7.656  27.889  28.134  1.00  0.00    -0.000 C 
BRANCH  30  31
ATOM     31  C   UNL     1       7.810  26.473  27.556  1.00  0.00    -0.003 C 
ATOM     32  C   UNL     1       6.509  25.929  26.963  1.00  0.00     0.004 C 
ENDBRANCH  30  31
ENDBRANCH  29  30
ENDBRANCH  28  29
ENDBRANCH  27  28
ENDBRANCH  26  27
ENDBRANCH  25  26
ENDBRANCH  24  25
ENDBRANCH  23  24
ENDBRANCH  22  23
ENDBRANCH  21  22
ENDBRANCH  20  21
ENDBRANCH  19  20
ENDBRANCH  18  19
ENDBRANCH   1  18
TORSDOF 28
ENDMDL
MODEL 8
REMARK VINA RESULT:    -4.563      3.776      7.241
REMARK INTER + INTRA:         -17.182
REMARK INTER:                 -10.605
REMARK INTRA:                  -6.578
REMARK UNBOUND:                -5.150
REMARK SMILES CCCCCCCCCCCCCCCCCCCCCCCCCCCCCC(=O)[O-]
REMARK SMILES IDX 16 1 17 2 18 3 19 4 20 5 21 6 22 7 23 8 24 9 25 10 26 11
REMARK SMILES IDX 27 12 28 13 29 14 30 15 31 16 32 17 15 18 14 19 13 20 12 21
REMARK SMILES IDX 11 22 10 23 9 24 8 25 7 26 6 27 5 28 4 29 3 30 2 31 1 32
REMARK H PARENT
REMARK Flexibility Score: inf
ROOT
ATOM      1  C   UNL     1       5.150  30.628  26.718  1.00  0.00     0.000 C 
ENDROOT
BRANCH   1   2
ATOM      2  C   UNL     1       3.853  30.135  27.376  1.00  0.00     0.000 C 
BRANCH   2   3
ATOM      3  C   UNL     1       4.120  28.908  28.262  1.00  0.00     0.000 C 
BRANCH   3   4
ATOM      4  C   UNL     1       2.861  28.406  28.993  1.00  0.00     0.000 C 
BRANCH   4   5
ATOM      5  C   UNL     1       2.005  29.507  29.648  1.00  0.00     0.000 C 
BRANCH   5   6
ATOM      6  C   UNL     1       2.389  29.859  31.097  1.00  0.00     0.000 C 
BRANCH   6   7
ATOM      7  C   UNL     1       3.009  31.265  31.257  1.00  0.00     0.000 C 
BRANCH   7   8
ATOM      8  C   UNL     1       4.451  31.215  31.791  1.00  0.00     0.000 C 
BRANCH   8   9
ATOM      9  C   UNL     1       5.497  31.262  30.664  1.00  0.00     0.000 C 
BRANCH   9  10
ATOM     10  C   UNL     1       6.531  30.128  30.774  1.00  0.00     0.000 C 
BRANCH  10  11
ATOM     11  C   UNL     1       6.572  29.499  32.177  1.00  0.00     0.000 C 
BRANCH  11  12
ATOM     12  C   UNL     1       6.277  27.989  32.151  1.00  0.00     0.000 C 
BRANCH  12  13
ATOM     13  C   UNL     1       6.290  27.403  30.728  1.00  0.00     0.006 C 
BRANCH  13  14
ATOM     14  C   UNL     1       6.652  25.909  30.658  1.00  0.00     0.053 C 
BRANCH  14  15
ATOM     15  C   UNL     1       5.656  25.053  31.379  1.00  0.00     0.041 C 
ATOM     16  O   UNL     1       6.014  24.365  32.372  1.00  0.00    -0.550 OA
ATOM     17  O   UNL     1       4.326  25.043  30.976  1.00  0.00    -0.550 OA
ENDBRANCH  14  15
ENDBRANCH  13  14
ENDBRANCH  12  13
ENDBRANCH  11  12
ENDBRANCH  10  11
ENDBRANCH   9  10
ENDBRANCH   8   9
ENDBRANCH   7   8
ENDBRANCH   6   7
ENDBRANCH   5   6
ENDBRANCH   4   5
ENDBRANCH   3   4
ENDBRANCH   2   3
ENDBRANCH   1   2
BRANCH   1  18
ATOM     18  C   UNL     1       6.387  29.841  27.183  1.00  0.00     0.000 C 
BRANCH  18  19
ATOM     19  C   UNL     1       7.472  29.742  26.095  1.00  0.00     0.000 C 
BRANCH  19  20
ATOM     20  C   UNL     1       8.453  28.586  26.347  1.00  0.00     0.000 C 
BRANCH  20  21
ATOM     21  C   UNL     1       8.032  27.696  27.529  1.00  0.00     0.000 C 
BRANCH  21  22
ATOM     22  C   UNL     1       8.456  26.228  27.352  1.00  0.00     0.000 C 
BRANCH  22  23
ATOM     23  C   UNL     1       7.335  25.358  26.760  1.00  0.00     0.000 C 
BRANCH  23  24
ATOM     24  C   UNL     1       5.926  25.900  27.064  1.00  0.00    -0.000 C 
BRANCH  24  25
ATOM     25  C   UNL     1       4.859  25.576  26.002  1.00  0.00    -0.000 C 
BRANCH  25  26
ATOM     26  C   UNL     1       3.992  26.792  25.631  1.00  0.00    -0.000 C 
BRANCH  26  27
ATOM     27  C   UNL     1       4.032  27.115  24.129  1.00  0.00    -0.000 C 
BRANCH  27  28
ATOM     28  C   UNL     1       4.907  28.339  23.815  1.00  0.00    -0.000 C 
BRANCH  28  29
ATOM     29  C   UNL     1       6.035  28.020  22.819  1.00  0.00    -0.000 C 
BRANCH  29  30
ATOM     30  C   UNL     1       7.106  27.090  23.416  1.00  0.00    -0.000 C 
BRANCH  30  31
ATOM     31  C   UNL     1       7.398  25.875  22.521  1.00  0.00    -0.003 C 
ATOM     32  C   UNL     1       6.846  24.569  23.095  1.00  0.00     0.004 C 
ENDBRANCH  30  31
ENDBRANCH  29  30
ENDBRANCH  28  29
ENDBRANCH  27  28
ENDBRANCH  26  27
ENDBRANCH  25  26
ENDBRANCH  24  25
ENDBRANCH  23  24
ENDBRANCH  22  23
ENDBRANCH  21  22
ENDBRANCH  20  21
ENDBRANCH  19  20
ENDBRANCH  18  19
ENDBRANCH   1  18
TORSDOF 28
ENDMDL
MODEL 9
REMARK VINA RESULT:    -4.554      2.428      6.679
REMARK INTER + INTRA:         -17.159
REMARK INTER:                 -10.941
REMARK INTRA:                  -6.218
REMARK UNBOUND:                -5.150
REMARK SMILES CCCCCCCCCCCCCCCCCCCCCCCCCCCCCC(=O)[O-]
REMARK SMILES IDX 16 1 17 2 18 3 19 4 20 5 21 6 22 7 23 8 24 9 25 10 26 11
REMARK SMILES IDX 27 12 28 13 29 14 30 15 31 16 32 17 15 18 14 19 13 20 12 21
REMARK SMILES IDX 11 22 10 23 9 24 8 25 7 26 6 27 5 28 4 29 3 30 2 31 1 32
REMARK H PARENT
REMARK Flexibility Score: inf
ROOT
ATOM      1  C   UNL     1       6.756  25.828  28.486  1.00  0.00     0.000 C 
ENDROOT
BRANCH   1   2
ATOM      2  C   UNL     1       6.230  26.915  29.435  1.00  0.00     0.000 C 
BRANCH   2   3
ATOM      3  C   UNL     1       7.179  28.122  29.465  1.00  0.00     0.000 C 
BRANCH   3   4
ATOM      4  C   UNL     1       6.731  29.220  30.448  1.00  0.00     0.000 C 
BRANCH   4   5
ATOM      5  C   UNL     1       6.516  30.610  29.817  1.00  0.00     0.000 C 
BRANCH   5   6
ATOM      6  C   UNL     1       5.044  31.048  29.688  1.00  0.00     0.000 C 
BRANCH   6   7
ATOM      7  C   UNL     1       4.031  29.895  29.862  1.00  0.00     0.000 C 
BRANCH   7   8
ATOM      8  C   UNL     1       3.114  29.728  28.638  1.00  0.00     0.000 C 
BRANCH   8   9
ATOM      9  C   UNL     1       3.873  29.888  27.309  1.00  0.00     0.000 C 
BRANCH   9  10
ATOM     10  C   UNL     1       4.339  28.540  26.732  1.00  0.00     0.000 C 
BRANCH  10  11
ATOM     11  C   UNL     1       5.597  28.675  25.857  1.00  0.00     0.000 C 
BRANCH  11  12
ATOM     12  C   UNL     1       6.472  29.872  26.269  1.00  0.00     0.000 C 
BRANCH  12  13
ATOM     13  C   UNL     1       7.978  29.590  26.118  1.00  0.00     0.006 C 
BRANCH  13  14
ATOM     14  C   UNL     1       8.889  30.593  26.846  1.00  0.00     0.053 C 
BRANCH  14  15
ATOM     15  C   UNL     1      10.252  30.029  27.107  1.00  0.00     0.041 C 
ATOM     16  O   UNL     1      10.390  29.032  27.865  1.00  0.00    -0.550 OA
ATOM     17  O   UNL     1      11.366  30.583  26.487  1.00  0.00    -0.550 OA
ENDBRANCH  14  15
ENDBRANCH  13  14
ENDBRANCH  12  13
ENDBRANCH  11  12
ENDBRANCH  10  11
ENDBRANCH   9  10
ENDBRANCH   8   9
ENDBRANCH   7   8
ENDBRANCH   6   7
ENDBRANCH   5   6
ENDBRANCH   4   5
ENDBRANCH   3   4
ENDBRANCH   2   3
ENDBRANCH   1   2
BRANCH   1  18
ATOM     18  C   UNL     1       8.004  26.275  27.705  1.00  0.00     0.000 C 
BRANCH  18  19
ATOM     19  C   UNL     1       8.032  25.728  26.267  1.00  0.00     0.000 C 
BRANCH  19  20
ATOM     20  C   UNL     1       6.707  25.061  25.865  1.00  0.00     0.000 C 
BRANCH  20  21
ATOM     21  C   UNL     1       6.875  24.051  24.716  1.00  0.00     0.000 C 
BRANCH  21  22
ATOM     22  C   UNL     1       6.108  24.457  23.447  1.00  0.00     0.000 C 
BRANCH  22  23
ATOM     23  C   UNL     1       6.445  23.562  22.243  1.00  0.00     0.000 C 
BRANCH  23  24
ATOM     24  C   UNL     1       7.465  24.202  21.283  1.00  0.00    -0.000 C 
BRANCH  24  25
ATOM     25  C   UNL     1       8.933  23.808  21.534  1.00  0.00    -0.000 C 
BRANCH  25  26
ATOM     26  C   UNL     1       9.865  25.024  21.676  1.00  0.00    -0.000 C 
BRANCH  26  27
ATOM     27  C   UNL     1       9.552  25.872  22.919  1.00  0.00    -0.000 C 
BRANCH  27  28
ATOM     28  C   UNL     1       9.185  27.322  22.563  1.00  0.00    -0.000 C 
BRANCH  28  29
ATOM     29  C   UNL     1       7.781  27.714  23.052  1.00  0.00    -0.000 C 
BRANCH  29  30
ATOM     30  C   UNL     1       6.805  27.984  21.893  1.00  0.00    -0.000 C 
BRANCH  30  31
ATOM     31  C   UNL     1       7.480  27.874  20.517  1.00  0.00    -0.003 C 
ATOM     32  C   UNL     1       6.971  28.916  19.520  1.00  0.00     0.004 C 
ENDBRANCH  30  31
ENDBRANCH  29  30
ENDBRANCH  28  29
ENDBRANCH  27  28
ENDBRANCH  26  27
ENDBRANCH  25  26
ENDBRANCH  24  25
ENDBRANCH  23  24
ENDBRANCH  22  23
ENDBRANCH  21  22
ENDBRANCH  20  21
ENDBRANCH  19  20
ENDBRANCH  18  19
ENDBRANCH   1  18
TORSDOF 28
ENDMDL
