MODEL 1
REMARK VINA RESULT:    -3.934      0.000      0.000
REMARK INTER + INTRA:          -5.768
REMARK INTER:                  -6.004
REMARK INTRA:                   0.237
REMARK UNBOUND:                 0.237
REMARK SMILES CC1=CCC[C@H](C)C(=O)C[C@H](C(C)C)C(=O)C1
REMARK SMILES IDX 8 1 9 2 6 3 7 4 5 5 4 6 3 7 2 8 1 9 10 11 11 12 15 13 16 14
REMARK SMILES IDX 17 15 12 17 13 18 14 19
REMARK H PARENT
REMARK Flexibility Score: 70.00
ROOT
ATOM      1  C   UNL     1      16.955  -6.290  17.053  1.00  0.00     0.136 C 
ATOM      2  O   UNL     1      16.692  -5.629  16.057  1.00  0.00    -0.299 OA
ENDROOT
BRANCH   1   3
ATOM      3  C   UNL     1      17.916  -7.463  16.951  1.00  0.00     0.053 C 
ATOM      4  C   UNL     1      18.953  -7.463  18.085  1.00  0.00     0.016 C 
BRANCH   3   5
ATOM      5  C   UNL     1      17.206  -8.834  16.816  1.00  0.00     0.015 C 
BRANCH   5   6
ATOM      6  C   UNL     1      16.280  -9.297  17.964  1.00  0.00     0.028 C 
BRANCH   6   7
ATOM      7  C   UNL     1      14.853  -9.649  17.613  1.00  0.00    -0.028 C 
ATOM      8  C   UNL     1      13.753  -8.886  17.824  1.00  0.00    -0.070 CG0
ATOM      9  C   UNL     1      12.452  -9.349  17.217  1.00  0.00     0.039 C 
ATOM     10  G   UNL     1      13.736  -7.645  18.696  1.00  0.00     0.000 G0
ENDBRANCH   6   7
ENDBRANCH   5   6
ENDBRANCH   3   5
ENDBRANCH   1   3
BRANCH   1  11
ATOM     11  C   UNL     1      16.288  -5.917  18.362  1.00  0.00     0.087 C 
BRANCH  11  12
ATOM     12  C   UNL     1      14.876  -5.308  18.176  1.00  0.00     0.066 C 
BRANCH  12  13
ATOM     13  C   UNL     1      13.844  -6.383  17.875  1.00  0.00     0.140 C 
ATOM     14  O   UNL     1      13.032  -6.210  16.979  1.00  0.00    -0.299 OA
BRANCH  13  15
ATOM     15  C   UNL     1      13.747  -7.635  18.720  1.00  0.00     0.106 CG0
ATOM     16  G   UNL     1      13.756  -8.861  17.828  1.00  0.00     0.000 G0
ENDBRANCH  13  15
ENDBRANCH  12  13
BRANCH  12  17
ATOM     17  C   UNL     1      14.468  -4.348  19.339  1.00  0.00    -0.006 C 
ATOM     18  C   UNL     1      14.064  -2.926  18.905  1.00  0.00     0.008 C 
ATOM     19  C   UNL     1      15.573  -4.273  20.404  1.00  0.00     0.008 C 
ENDBRANCH  12  17
ENDBRANCH  11  12
ENDBRANCH   1  11
TORSDOF 1
ENDMDL
MODEL 2
REMARK VINA RESULT:    -3.842      1.581      3.663
REMARK INTER + INTRA:          -5.626
REMARK INTER:                  -5.505
REMARK INTRA:                  -0.121
REMARK UNBOUND:                 0.237
REMARK SMILES CC1=CCC[C@H](C)C(=O)C[C@H](C(C)C)C(=O)C1
REMARK SMILES IDX 8 1 9 2 6 3 7 4 5 5 4 6 3 7 2 8 1 9 10 11 11 12 15 13 16 14
REMARK SMILES IDX 17 15 12 17 13 18 14 19
REMARK H PARENT
REMARK Flexibility Score: 70.00
ROOT
ATOM      1  C   UNL     1      13.677  -7.329  17.415  1.00  0.00     0.136 C 
ATOM      2  O   UNL     1      13.913  -7.464  16.222  1.00  0.00    -0.299 OA
ENDROOT
BRANCH   1   3
ATOM      3  C   UNL     1      13.079  -8.482  18.204  1.00  0.00     0.053 C 
ATOM      4  C   UNL     1      11.594  -8.701  17.878  1.00  0.00     0.016 C 
BRANCH   3   5
ATOM      5  C   UNL     1      13.895  -9.795  18.093  1.00  0.00     0.015 C 
BRANCH   5   6
ATOM      6  C   UNL     1      15.356  -9.797  18.598  1.00  0.00     0.028 C 
BRANCH   6   7
ATOM      7  C   UNL     1      16.448  -9.543  17.585  1.00  0.00    -0.028 C 
ATOM      8  C   UNL     1      17.418  -8.599  17.656  1.00  0.00    -0.070 CG0
ATOM      9  C   UNL     1      18.522  -8.651  16.630  1.00  0.00     0.039 C 
ATOM     10  G   UNL     1      17.414  -7.452  18.647  1.00  0.00     0.000 G0
ENDBRANCH   6   7
ENDBRANCH   5   6
ENDBRANCH   3   5
ENDBRANCH   1   3
BRANCH   1  11
ATOM     11  C   UNL     1      13.979  -5.992  18.063  1.00  0.00     0.087 C 
BRANCH  11  12
ATOM     12  C   UNL     1      15.232  -6.024  18.973  1.00  0.00     0.066 C 
BRANCH  12  13
ATOM     13  C   UNL     1      16.485  -6.354  18.178  1.00  0.00     0.140 C 
ATOM     14  O   UNL     1      16.701  -5.780  17.121  1.00  0.00    -0.299 OA
BRANCH  13  15
ATOM     15  C   UNL     1      17.435  -7.443  18.628  1.00  0.00     0.106 CG0
ATOM     16  G   UNL     1      17.409  -8.591  17.639  1.00  0.00     0.000 G0
ENDBRANCH  13  15
ENDBRANCH  12  13
BRANCH  12  17
ATOM     17  C   UNL     1      15.368  -4.752  19.867  1.00  0.00    -0.006 C 
ATOM     18  C   UNL     1      14.626  -4.816  21.216  1.00  0.00     0.008 C 
ATOM     19  C   UNL     1      14.942  -3.490  19.100  1.00  0.00     0.008 C 
ENDBRANCH  12  17
ENDBRANCH  11  12
ENDBRANCH   1  11
TORSDOF 1
ENDMDL
MODEL 3
REMARK VINA RESULT:    -3.780      1.822      4.191
REMARK INTER + INTRA:          -5.532
REMARK INTER:                  -5.456
REMARK INTRA:                  -0.077
REMARK UNBOUND:                 0.237
REMARK SMILES CC1=CCC[C@H](C)C(=O)C[C@H](C(C)C)C(=O)C1
REMARK SMILES IDX 8 1 9 2 6 3 7 4 5 5 4 6 3 7 2 8 1 9 10 11 11 12 15 13 16 14
REMARK SMILES IDX 17 15 12 17 13 18 14 19
REMARK H PARENT
REMARK Flexibility Score: 70.00
ROOT
ATOM      1  C   UNL     1      14.495  -6.280  16.536  1.00  0.00     0.136 C 
ATOM      2  O   UNL     1      14.489  -6.570  15.347  1.00  0.00    -0.299 OA
ENDROOT
BRANCH   1   3
ATOM      3  C   UNL     1      15.482  -5.251  17.059  1.00  0.00     0.053 C 
ATOM      4  C   UNL     1      15.270  -4.948  18.551  1.00  0.00     0.016 C 
BRANCH   3   5
ATOM      5  C   UNL     1      16.960  -5.596  16.744  1.00  0.00     0.015 C 
BRANCH   5   6
ATOM      6  C   UNL     1      17.417  -7.065  16.891  1.00  0.00     0.028 C 
BRANCH   6   7
ATOM      7  C   UNL     1      17.713  -7.571  18.284  1.00  0.00    -0.028 C 
ATOM      8  C   UNL     1      17.221  -8.695  18.861  1.00  0.00    -0.070 CG0
ATOM      9  C   UNL     1      17.802  -9.112  20.188  1.00  0.00     0.039 C 
ATOM     10  G   UNL     1      16.072  -9.506  18.294  1.00  0.00     0.000 G0
ENDBRANCH   6   7
ENDBRANCH   5   6
ENDBRANCH   3   5
ENDBRANCH   1   3
BRANCH   1  11
ATOM     11  C   UNL     1      13.514  -6.982  17.454  1.00  0.00     0.087 C 
BRANCH  11  12
ATOM     12  C   UNL     1      13.736  -8.514  17.529  1.00  0.00     0.066 C 
BRANCH  12  13
ATOM     13  C   UNL     1      14.725  -8.877  18.624  1.00  0.00     0.140 C 
ATOM     14  O   UNL     1      14.479  -8.582  19.784  1.00  0.00    -0.299 OA
BRANCH  13  15
ATOM     15  C   UNL     1      16.053  -9.525  18.298  1.00  0.00     0.106 CG0
ATOM     16  G   UNL     1      17.187  -8.685  18.854  1.00  0.00     0.000 G0
ENDBRANCH  13  15
ENDBRANCH  12  13
BRANCH  12  17
ATOM     17  C   UNL     1      12.401  -9.320  17.590  1.00  0.00    -0.006 C 
ATOM     18  C   UNL     1      11.905  -9.873  16.240  1.00  0.00     0.008 C 
ATOM     19  C   UNL     1      11.288  -8.495  18.254  1.00  0.00     0.008 C 
ENDBRANCH  12  17
ENDBRANCH  11  12
ENDBRANCH   1  11
TORSDOF 1
ENDMDL
MODEL 4
REMARK VINA RESULT:    -3.630      2.168      4.647
REMARK INTER + INTRA:          -5.304
REMARK INTER:                  -5.184
REMARK INTRA:                  -0.120
REMARK UNBOUND:                 0.237
REMARK SMILES CC1=CCC[C@H](C)C(=O)C[C@H](C(C)C)C(=O)C1
REMARK SMILES IDX 8 1 9 2 6 3 7 4 5 5 4 6 3 7 2 8 1 9 10 11 11 12 15 13 16 14
REMARK SMILES IDX 17 15 12 17 13 18 14 19
REMARK H PARENT
REMARK Flexibility Score: 70.00
ROOT
ATOM      1  C   UNL     1      15.018  -6.287  19.392  1.00  0.00     0.136 C 
ATOM      2  O   UNL     1      15.972  -6.077  20.130  1.00  0.00    -0.299 OA
ENDROOT
BRANCH   1   3
ATOM      3  C   UNL     1      14.631  -5.258  18.343  1.00  0.00     0.053 C 
ATOM      4  C   UNL     1      14.174  -3.932  18.972  1.00  0.00     0.016 C 
BRANCH   3   5
ATOM      5  C   UNL     1      15.718  -5.040  17.261  1.00  0.00     0.015 C 
BRANCH   5   6
ATOM      6  C   UNL     1      16.307  -6.280  16.552  1.00  0.00     0.028 C 
BRANCH   6   7
ATOM      7  C   UNL     1      17.564  -6.888  17.133  1.00  0.00    -0.028 C 
ATOM      8  C   UNL     1      17.804  -8.205  17.348  1.00  0.00    -0.070 CG0
ATOM      9  C   UNL     1      19.201  -8.604  17.752  1.00  0.00     0.039 C 
ATOM     10  G   UNL     1      16.740  -9.283  17.286  1.00  0.00     0.000 G0
ENDBRANCH   6   7
ENDBRANCH   5   6
ENDBRANCH   3   5
ENDBRANCH   1   3
BRANCH   1  11
ATOM     11  C   UNL     1      14.240  -7.576  19.569  1.00  0.00     0.087 C 
BRANCH  11  12
ATOM     12  C   UNL     1      14.459  -8.584  18.413  1.00  0.00     0.066 C 
BRANCH  12  13
ATOM     13  C   UNL     1      15.836  -9.224  18.490  1.00  0.00     0.140 C 
ATOM     14  O   UNL     1      16.254  -9.635  19.562  1.00  0.00    -0.299 OA
BRANCH  13  15
ATOM     15  C   UNL     1      16.739  -9.290  17.277  1.00  0.00     0.106 CG0
ATOM     16  G   UNL     1      17.793  -8.202  17.360  1.00  0.00     0.000 G0
ENDBRANCH  13  15
ENDBRANCH  12  13
BRANCH  12  17
ATOM     17  C   UNL     1      13.292  -9.612  18.272  1.00  0.00    -0.006 C 
ATOM     18  C   UNL     1      12.446  -9.472  16.992  1.00  0.00     0.008 C 
ATOM     19  C   UNL     1      12.376  -9.579  19.505  1.00  0.00     0.008 C 
ENDBRANCH  12  17
ENDBRANCH  11  12
ENDBRANCH   1  11
TORSDOF 1
ENDMDL
MODEL 5
REMARK VINA RESULT:    -3.518      2.022      3.919
REMARK INTER + INTRA:          -5.132
REMARK INTER:                  -4.793
REMARK INTRA:                  -0.339
REMARK UNBOUND:                 0.237
REMARK SMILES CC1=CCC[C@H](C)C(=O)C[C@H](C(C)C)C(=O)C1
REMARK SMILES IDX 8 1 9 2 6 3 7 4 5 5 4 6 3 7 2 8 1 9 10 11 11 12 15 13 16 14
REMARK SMILES IDX 17 15 12 17 13 18 14 19
REMARK H PARENT
REMARK Flexibility Score: 70.00
ROOT
ATOM      1  C   UNL     1      14.130  -4.560  18.793  1.00  0.00     0.136 C 
ATOM      2  O   UNL     1      13.773  -3.419  18.531  1.00  0.00    -0.299 OA
ENDROOT
BRANCH   1   3
ATOM      3  C   UNL     1      15.129  -4.802  19.912  1.00  0.00     0.053 C 
ATOM      4  C   UNL     1      16.002  -3.569  20.188  1.00  0.00     0.016 C 
BRANCH   3   5
ATOM      5  C   UNL     1      14.483  -5.355  21.208  1.00  0.00     0.015 C 
BRANCH   5   6
ATOM      6  C   UNL     1      14.657  -6.856  21.532  1.00  0.00     0.028 C 
BRANCH   6   7
ATOM      7  C   UNL     1      13.425  -7.730  21.488  1.00  0.00    -0.028 C 
ATOM      8  C   UNL     1      13.200  -8.775  20.655  1.00  0.00    -0.070 CG0
ATOM      9  C   UNL     1      11.986  -9.631  20.917  1.00  0.00     0.039 C 
ATOM     10  G   UNL     1      14.046  -9.085  19.435  1.00  0.00     0.000 G0
ENDBRANCH   6   7
ENDBRANCH   5   6
ENDBRANCH   3   5
ENDBRANCH   1   3
BRANCH   1  11
ATOM     11  C   UNL     1      13.565  -5.700  17.968  1.00  0.00     0.087 C 
BRANCH  11  12
ATOM     12  C   UNL     1      14.472  -6.956  17.960  1.00  0.00     0.066 C 
BRANCH  12  13
ATOM     13  C   UNL     1      13.678  -8.213  18.273  1.00  0.00     0.140 C 
ATOM     14  O   UNL     1      12.681  -8.479  17.620  1.00  0.00    -0.299 OA
BRANCH  13  15
ATOM     15  C   UNL     1      14.051  -9.106  19.437  1.00  0.00     0.106 CG0
ATOM     16  G   UNL     1      13.202  -8.760  20.645  1.00  0.00     0.000 G0
ENDBRANCH  13  15
ENDBRANCH  12  13
BRANCH  12  17
ATOM     17  C   UNL     1      15.349  -7.066  16.673  1.00  0.00    -0.006 C 
ATOM     18  C   UNL     1      16.798  -6.563  16.821  1.00  0.00     0.008 C 
ATOM     19  C   UNL     1      14.674  -6.363  15.484  1.00  0.00     0.008 C 
ENDBRANCH  12  17
ENDBRANCH  11  12
ENDBRANCH   1  11
TORSDOF 1
ENDMDL
MODEL 6
REMARK VINA RESULT:    -3.501      2.750      4.682
REMARK INTER + INTRA:          -5.106
REMARK INTER:                  -4.728
REMARK INTRA:                  -0.378
REMARK UNBOUND:                 0.237
REMARK SMILES CC1=CCC[C@H](C)C(=O)C[C@H](C(C)C)C(=O)C1
REMARK SMILES IDX 8 1 9 2 6 3 7 4 5 5 4 6 3 7 2 8 1 9 10 11 11 12 15 13 16 14
REMARK SMILES IDX 17 15 12 17 13 18 14 19
REMARK H PARENT
REMARK Flexibility Score: 70.00
ROOT
ATOM      1  C   UNL     1      14.988  -5.989  19.008  1.00  0.00     0.136 C 
ATOM      2  O   UNL     1      15.064  -4.768  19.025  1.00  0.00    -0.299 OA
ENDROOT
BRANCH   1   3
ATOM      3  C   UNL     1      14.376  -6.693  17.809  1.00  0.00     0.053 C 
ATOM      4  C   UNL     1      13.148  -5.948  17.262  1.00  0.00     0.016 C 
BRANCH   3   5
ATOM      5  C   UNL     1      15.402  -7.016  16.692  1.00  0.00     0.015 C 
BRANCH   5   6
ATOM      6  C   UNL     1      16.863  -6.550  16.881  1.00  0.00     0.028 C 
BRANCH   6   7
ATOM      7  C   UNL     1      17.943  -7.606  16.862  1.00  0.00    -0.028 C 
ATOM      8  C   UNL     1      18.465  -8.253  17.933  1.00  0.00    -0.070 CG0
ATOM      9  C   UNL     1      19.395  -9.410  17.666  1.00  0.00     0.039 C 
ATOM     10  G   UNL     1      18.236  -7.834  19.372  1.00  0.00     0.000 G0
ENDBRANCH   6   7
ENDBRANCH   5   6
ENDBRANCH   3   5
ENDBRANCH   1   3
BRANCH   1  11
ATOM     11  C   UNL     1      15.499  -6.760  20.210  1.00  0.00     0.087 C 
BRANCH  11  12
ATOM     12  C   UNL     1      15.678  -8.274  19.933  1.00  0.00     0.066 C 
BRANCH  12  13
ATOM     13  C   UNL     1      17.139  -8.683  20.017  1.00  0.00     0.140 C 
ATOM     14  O   UNL     1      17.456  -9.674  20.657  1.00  0.00    -0.299 OA
BRANCH  13  15
ATOM     15  C   UNL     1      18.227  -7.838  19.390  1.00  0.00     0.106 CG0
ATOM     16  G   UNL     1      18.443  -8.260  17.949  1.00  0.00     0.000 G0
ENDBRANCH  13  15
ENDBRANCH  12  13
BRANCH  12  17
ATOM     17  C   UNL     1      14.722  -9.166  20.787  1.00  0.00    -0.006 C 
ATOM     18  C   UNL     1      13.750 -10.046  19.979  1.00  0.00     0.008 C 
ATOM     19  C   UNL     1      13.937  -8.319  21.801  1.00  0.00     0.008 C 
ENDBRANCH  12  17
ENDBRANCH  11  12
ENDBRANCH   1  11
TORSDOF 1
ENDMDL
MODEL 7
REMARK VINA RESULT:    -3.320      1.980      3.577
REMARK INTER + INTRA:          -4.830
REMARK INTER:                  -4.517
REMARK INTRA:                  -0.314
REMARK UNBOUND:                 0.237
REMARK SMILES CC1=CCC[C@H](C)C(=O)C[C@H](C(C)C)C(=O)C1
REMARK SMILES IDX 8 1 9 2 6 3 7 4 5 5 4 6 3 7 2 8 1 9 10 11 11 12 15 13 16 14
REMARK SMILES IDX 17 15 12 17 13 18 14 19
REMARK H PARENT
REMARK Flexibility Score: 70.00
ROOT
ATOM      1  C   UNL     1      16.894  -9.287  17.849  1.00  0.00     0.136 C 
ATOM      2  O   UNL     1      17.697 -10.124  17.458  1.00  0.00    -0.299 OA
ENDROOT
BRANCH   1   3
ATOM      3  C   UNL     1      17.360  -7.870  18.138  1.00  0.00     0.053 C 
ATOM      4  C   UNL     1      18.444  -7.825  19.226  1.00  0.00     0.016 C 
BRANCH   3   5
ATOM      5  C   UNL     1      17.781  -7.087  16.869  1.00  0.00     0.015 C 
BRANCH   5   6
ATOM      6  C   UNL     1      16.698  -6.295  16.102  1.00  0.00     0.028 C 
BRANCH   6   7
ATOM      7  C   UNL     1      15.702  -5.501  16.916  1.00  0.00    -0.028 C 
ATOM      8  C   UNL     1      14.456  -5.893  17.279  1.00  0.00    -0.070 CG0
ATOM      9  C   UNL     1      13.707  -5.023  18.258  1.00  0.00     0.039 C 
ATOM     10  G   UNL     1      13.744  -7.101  16.703  1.00  0.00     0.000 G0
ENDBRANCH   6   7
ENDBRANCH   5   6
ENDBRANCH   3   5
ENDBRANCH   1   3
BRANCH   1  11
ATOM     11  C   UNL     1      15.451  -9.709  18.047  1.00  0.00     0.087 C 
BRANCH  11  12
ATOM     12  C   UNL     1      14.583  -8.615  18.718  1.00  0.00     0.066 C 
BRANCH  12  13
ATOM     13  C   UNL     1      13.474  -8.144  17.791  1.00  0.00     0.140 C 
ATOM     14  O   UNL     1      12.362  -8.644  17.873  1.00  0.00    -0.299 OA
BRANCH  13  15
ATOM     15  C   UNL     1      13.739  -7.121  16.707  1.00  0.00     0.106 CG0
ATOM     16  G   UNL     1      14.459  -5.923  17.294  1.00  0.00     0.000 G0
ENDBRANCH  13  15
ENDBRANCH  12  13
BRANCH  12  17
ATOM     17  C   UNL     1      14.087  -9.019  20.142  1.00  0.00    -0.006 C 
ATOM     18  C   UNL     1      13.920  -7.853  21.135  1.00  0.00     0.008 C 
ATOM     19  C   UNL     1      14.993 -10.098  20.756  1.00  0.00     0.008 C 
ENDBRANCH  12  17
ENDBRANCH  11  12
ENDBRANCH   1  11
TORSDOF 1
ENDMDL
MODEL 8
REMARK VINA RESULT:    -3.299      1.616      4.797
REMARK INTER + INTRA:          -4.798
REMARK INTER:                  -5.099
REMARK INTRA:                   0.300
REMARK UNBOUND:                 0.237
REMARK SMILES CC1=CCC[C@H](C)C(=O)C[C@H](C(C)C)C(=O)C1
REMARK SMILES IDX 8 1 9 2 6 3 7 4 5 5 4 6 3 7 2 8 1 9 10 11 11 12 15 13 16 14
REMARK SMILES IDX 17 15 12 17 13 18 14 19
REMARK H PARENT
REMARK Flexibility Score: 70.00
ROOT
ATOM      1  C   UNL     1      14.008  -8.265  17.540  1.00  0.00     0.136 C 
ATOM      2  O   UNL     1      13.681  -7.861  16.432  1.00  0.00    -0.299 OA
ENDROOT
BRANCH   1   3
ATOM      3  C   UNL     1      13.041  -8.141  18.706  1.00  0.00     0.053 C 
ATOM      4  C   UNL     1      11.653  -8.709  18.372  1.00  0.00     0.016 C 
BRANCH   3   5
ATOM      5  C   UNL     1      13.597  -8.716  20.034  1.00  0.00     0.015 C 
BRANCH   5   6
ATOM      6  C   UNL     1      14.255  -7.742  21.036  1.00  0.00     0.028 C 
BRANCH   6   7
ATOM      7  C   UNL     1      14.328  -6.282  20.650  1.00  0.00    -0.028 C 
ATOM      8  C   UNL     1      15.218  -5.711  19.803  1.00  0.00    -0.070 CG0
ATOM      9  C   UNL     1      14.986  -4.274  19.408  1.00  0.00     0.039 C 
ATOM     10  G   UNL     1      16.470  -6.400  19.295  1.00  0.00     0.000 G0
ENDBRANCH   6   7
ENDBRANCH   5   6
ENDBRANCH   3   5
ENDBRANCH   1   3
BRANCH   1  11
ATOM     11  C   UNL     1      15.389  -8.866  17.711  1.00  0.00     0.087 C 
BRANCH  11  12
ATOM     12  C   UNL     1      16.522  -7.955  17.173  1.00  0.00     0.066 C 
BRANCH  12  13
ATOM     13  C   UNL     1      16.469  -6.574  17.806  1.00  0.00     0.140 C 
ATOM     14  O   UNL     1      16.480  -5.581  17.094  1.00  0.00    -0.299 OA
BRANCH  13  15
ATOM     15  C   UNL     1      16.486  -6.399  19.309  1.00  0.00     0.106 CG0
ATOM     16  G   UNL     1      15.212  -5.715  19.763  1.00  0.00     0.000 G0
ENDBRANCH  13  15
ENDBRANCH  12  13
BRANCH  12  17
ATOM     17  C   UNL     1      17.929  -8.628  17.241  1.00  0.00    -0.006 C 
ATOM     18  C   UNL     1      19.122  -7.678  17.026  1.00  0.00     0.008 C 
ATOM     19  C   UNL     1      18.023  -9.810  16.264  1.00  0.00     0.008 C 
ENDBRANCH  12  17
ENDBRANCH  11  12
ENDBRANCH   1  11
TORSDOF 1
ENDMDL
MODEL 9
REMARK VINA RESULT:    -3.169      9.534     11.652
REMARK INTER + INTRA:          -4.599
REMARK INTER:                  -4.445
REMARK INTRA:                  -0.154
REMARK UNBOUND:                 0.237
REMARK SMILES CC1=CCC[C@H](C)C(=O)C[C@H](C(C)C)C(=O)C1
REMARK SMILES IDX 8 1 9 2 6 3 7 4 5 5 4 6 3 7 2 8 1 9 10 11 11 12 15 13 16 14
REMARK SMILES IDX 17 15 12 17 13 18 14 19
REMARK H PARENT
REMARK Flexibility Score: 70.00
ROOT
ATOM      1  C   UNL     1      15.008   4.787  22.954  1.00  0.00     0.136 C 
ATOM      2  O   UNL     1      14.621   5.860  22.511  1.00  0.00    -0.299 OA
ENDROOT
BRANCH   1   3
ATOM      3  C   UNL     1      15.317   4.646  24.435  1.00  0.00     0.053 C 
ATOM      4  C   UNL     1      16.240   5.763  24.945  1.00  0.00     0.016 C 
BRANCH   3   5
ATOM      5  C   UNL     1      14.052   4.493  25.318  1.00  0.00     0.015 C 
BRANCH   5   6
ATOM      6  C   UNL     1      12.894   3.614  24.795  1.00  0.00     0.028 C 
BRANCH   6   7
ATOM      7  C   UNL     1      12.896   2.152  25.176  1.00  0.00    -0.028 C 
ATOM      8  C   UNL     1      13.133   1.100  24.355  1.00  0.00    -0.070 CG0
ATOM      9  C   UNL     1      13.280  -0.262  24.988  1.00  0.00     0.039 C 
ATOM     10  G   UNL     1      13.178   1.196  22.843  1.00  0.00     0.000 G0
ENDBRANCH   6   7
ENDBRANCH   5   6
ENDBRANCH   3   5
ENDBRANCH   1   3
BRANCH   1  11
ATOM     11  C   UNL     1      15.183   3.630  21.990  1.00  0.00     0.087 C 
BRANCH  11  12
ATOM     12  C   UNL     1      15.571   2.304  22.691  1.00  0.00     0.066 C 
BRANCH  12  13
ATOM     13  C   UNL     1      14.607   1.185  22.332  1.00  0.00     0.140 C 
ATOM     14  O   UNL     1      14.965   0.296  21.575  1.00  0.00    -0.299 OA
BRANCH  13  15
ATOM     15  C   UNL     1      13.178   1.193  22.829  1.00  0.00     0.106 CG0
ATOM     16  G   UNL     1      13.157   1.102  24.342  1.00  0.00     0.000 G0
ENDBRANCH  13  15
ENDBRANCH  12  13
BRANCH  12  17
ATOM     17  C   UNL     1      17.075   1.929  22.496  1.00  0.00    -0.006 C 
ATOM     18  C   UNL     1      18.063   2.693  23.397  1.00  0.00     0.008 C 
ATOM     19  C   UNL     1      17.493   2.077  21.025  1.00  0.00     0.008 C 
ENDBRANCH  12  17
ENDBRANCH  11  12
ENDBRANCH   1  11
TORSDOF 1
ENDMDL
