MODEL 1
REMARK VINA RESULT:    -7.977      0.000      0.000
REMARK INTER + INTRA:          -9.639
REMARK INTER:                  -9.376
REMARK INTRA:                  -0.263
REMARK UNBOUND:                -0.263
REMARK SMILES O=c1cc(-c2ccc(O)c(O)c2)oc2cc(O)cc(O)c12
REMARK SMILES IDX 4 1 3 2 2 3 1 4 21 5 19 6 18 7 16 8 15 9 14 10 13 11 5 12
REMARK SMILES IDX 6 13 7 14 8 15 12 16 10 17 9 18 11 20 20 22 17 24
REMARK H PARENT 9 19 11 21 20 23 17 25
REMARK Flexibility Score: inf
ROOT
ATOM      1  C   UNL     1      20.787   9.471 150.869  1.00  0.00     0.138 A 
ATOM      2  C   UNL     1      21.435  10.172 151.896  1.00  0.00     0.100 A 
ATOM      3  C   UNL     1      20.750  10.451 153.079  1.00  0.00     0.197 A 
ATOM      4  O   UNL     1      21.377  11.025 154.008  1.00  0.00    -0.289 OA
ATOM      5  C   UNL     1      19.400  10.053 153.221  1.00  0.00     0.107 A 
ATOM      6  C   UNL     1      18.590  10.319 154.366  1.00  0.00     0.134 A 
ATOM      7  C   UNL     1      17.302   9.775 154.442  1.00  0.00     0.093 A 
ATOM      8  C   UNL     1      16.772   9.026 153.391  1.00  0.00     0.123 A 
ATOM      9  C   UNL     1      17.535   8.805 152.244  1.00  0.00     0.094 A 
ATOM     10  C   UNL     1      18.837   9.306 152.153  1.00  0.00     0.146 A 
ATOM     11  O   UNL     1      19.536   9.062 151.048  1.00  0.00    -0.456 OA
ENDROOT
BRANCH   1  12
ATOM     12  C   UNL     1      21.468   9.150 149.589  1.00  0.00     0.021 A 
ATOM     13  C   UNL     1      21.295   9.999 148.482  1.00  0.00     0.016 A 
ATOM     14  C   UNL     1      21.931   9.723 147.269  1.00  0.00     0.051 A 
ATOM     15  C   UNL     1      22.757   8.600 147.145  1.00  0.00     0.157 A 
ATOM     16  C   UNL     1      22.312   8.029 149.460  1.00  0.00     0.062 A 
ATOM     17  C   UNL     1      22.951   7.753 148.242  1.00  0.00     0.158 A 
BRANCH  15  18
ATOM     18  O   UNL     1      23.391   8.321 145.935  1.00  0.00    -0.504 OA
ATOM     19  H   UNL     1      23.252   7.440 145.455  1.00  0.00     0.293 HD
ENDBRANCH  15  18
BRANCH  17  20
ATOM     20  O   UNL     1      23.783   6.643 148.119  1.00  0.00    -0.504 OA
ATOM     21  H   UNL     1      23.523   5.739 148.496  1.00  0.00     0.293 HD
ENDBRANCH  17  20
ENDBRANCH   1  12
BRANCH   6  22
ATOM     22  O   UNL     1      18.990  11.125 155.436  1.00  0.00    -0.507 OA
ATOM     23  H   UNL     1      18.836  12.120 155.498  1.00  0.00     0.293 HD
ENDBRANCH   6  22
BRANCH   8  24
ATOM     24  O   UNL     1      15.482   8.513 153.495  1.00  0.00    -0.508 OA
ATOM     25  H   UNL     1      14.994   8.481 154.383  1.00  0.00     0.293 HD
ENDBRANCH   8  24
TORSDOF 5
ENDMDL
MODEL 2
REMARK VINA RESULT:    -7.777      1.829      6.970
REMARK INTER + INTRA:          -9.404
REMARK INTER:                  -9.088
REMARK INTRA:                  -0.316
REMARK UNBOUND:                -0.263
REMARK SMILES O=c1cc(-c2ccc(O)c(O)c2)oc2cc(O)cc(O)c12
REMARK SMILES IDX 4 1 3 2 2 3 1 4 21 5 19 6 18 7 16 8 15 9 14 10 13 11 5 12
REMARK SMILES IDX 6 13 7 14 8 15 12 16 10 17 9 18 11 20 20 22 17 24
REMARK H PARENT 9 19 11 21 20 23 17 25
REMARK Flexibility Score: inf
ROOT
ATOM      1  C   UNL     1      19.557  10.339 152.525  1.00  0.00     0.138 A 
ATOM      2  C   UNL     1      20.832  10.751 152.939  1.00  0.00     0.100 A 
ATOM      3  C   UNL     1      21.901  10.688 152.044  1.00  0.00     0.197 A 
ATOM      4  O   UNL     1      23.020  11.124 152.424  1.00  0.00    -0.289 OA
ATOM      5  C   UNL     1      21.698  10.182 150.739  1.00  0.00     0.107 A 
ATOM      6  C   UNL     1      22.722  10.034 149.756  1.00  0.00     0.134 A 
ATOM      7  C   UNL     1      22.381   9.630 148.459  1.00  0.00     0.093 A 
ATOM      8  C   UNL     1      21.065   9.311 148.126  1.00  0.00     0.123 A 
ATOM      9  C   UNL     1      20.063   9.400 149.094  1.00  0.00     0.094 A 
ATOM     10  C   UNL     1      20.367   9.833 150.387  1.00  0.00     0.146 A 
ATOM     11  O   UNL     1      19.382   9.918 151.277  1.00  0.00    -0.456 OA
ENDROOT
BRANCH   1  12
ATOM     12  C   UNL     1      18.386  10.383 153.436  1.00  0.00     0.021 A 
ATOM     13  C   UNL     1      18.489  11.062 154.663  1.00  0.00     0.016 A 
ATOM     14  C   UNL     1      17.399  11.125 155.535  1.00  0.00     0.051 A 
ATOM     15  C   UNL     1      16.186  10.518 155.191  1.00  0.00     0.157 A 
ATOM     16  C   UNL     1      17.157   9.786 153.091  1.00  0.00     0.062 A 
ATOM     17  C   UNL     1      16.063   9.851 153.967  1.00  0.00     0.158 A 
BRANCH  15  18
ATOM     18  O   UNL     1      15.096  10.577 156.059  1.00  0.00    -0.504 OA
ATOM     19  H   UNL     1      14.153  10.717 155.717  1.00  0.00     0.293 HD
ENDBRANCH  15  18
BRANCH  17  20
ATOM     20  O   UNL     1      14.849   9.258 153.623  1.00  0.00    -0.504 OA
ATOM     21  H   UNL     1      14.362   9.502 152.768  1.00  0.00     0.293 HD
ENDBRANCH  17  20
ENDBRANCH   1  12
BRANCH   6  22
ATOM     22  O   UNL     1      24.081  10.245 150.006  1.00  0.00    -0.507 OA
ATOM     23  H   UNL     1      24.483  10.400 150.917  1.00  0.00     0.293 HD
ENDBRANCH   6  22
BRANCH   8  24
ATOM     24  O   UNL     1      20.764   8.898 146.830  1.00  0.00    -0.508 OA
ATOM     25  H   UNL     1      21.476   8.850 146.111  1.00  0.00     0.293 HD
ENDBRANCH   8  24
TORSDOF 5
ENDMDL
MODEL 3
REMARK VINA RESULT:    -7.180      2.592      4.112
REMARK INTER + INTRA:          -8.702
REMARK INTER:                  -8.397
REMARK INTRA:                  -0.306
REMARK UNBOUND:                -0.263
REMARK SMILES O=c1cc(-c2ccc(O)c(O)c2)oc2cc(O)cc(O)c12
REMARK SMILES IDX 4 1 3 2 2 3 1 4 21 5 19 6 18 7 16 8 15 9 14 10 13 11 5 12
REMARK SMILES IDX 6 13 7 14 8 15 12 16 10 17 9 18 11 20 20 22 17 24
REMARK H PARENT 9 19 11 21 20 23 17 25
REMARK Flexibility Score: inf
ROOT
ATOM      1  C   UNL     1      18.170  10.636 153.345  1.00  0.00     0.138 A 
ATOM      2  C   UNL     1      18.504  10.583 154.706  1.00  0.00     0.100 A 
ATOM      3  C   UNL     1      17.496  10.676 155.667  1.00  0.00     0.197 A 
ATOM      4  O   UNL     1      17.819  10.561 156.878  1.00  0.00    -0.289 OA
ATOM      5  C   UNL     1      16.153  10.855 155.262  1.00  0.00     0.107 A 
ATOM      6  C   UNL     1      15.048  11.002 156.155  1.00  0.00     0.134 A 
ATOM      7  C   UNL     1      13.747  11.057 155.640  1.00  0.00     0.093 A 
ATOM      8  C   UNL     1      13.514  11.029 154.265  1.00  0.00     0.123 A 
ATOM      9  C   UNL     1      14.591  10.939 153.381  1.00  0.00     0.094 A 
ATOM     10  C   UNL     1      15.898  10.849 153.866  1.00  0.00     0.146 A 
ATOM     11  O   UNL     1      16.894  10.750 152.991  1.00  0.00    -0.456 OA
ENDROOT
BRANCH   1  12
ATOM     12  C   UNL     1      19.202  10.544 152.281  1.00  0.00     0.021 A 
ATOM     13  C   UNL     1      20.504  11.009 152.538  1.00  0.00     0.016 A 
ATOM     14  C   UNL     1      21.495  10.927 151.557  1.00  0.00     0.051 A 
ATOM     15  C   UNL     1      21.204  10.369 150.306  1.00  0.00     0.157 A 
ATOM     16  C   UNL     1      18.921   9.972 151.024  1.00  0.00     0.062 A 
ATOM     17  C   UNL     1      19.917   9.888 150.040  1.00  0.00     0.158 A 
BRANCH  15  18
ATOM     18  O   UNL     1      22.190  10.287 149.324  1.00  0.00    -0.504 OA
ATOM     19  H   UNL     1      22.103  10.781 148.444  1.00  0.00     0.293 HD
ENDBRANCH  15  18
BRANCH  17  20
ATOM     20  O   UNL     1      19.635   9.323 148.798  1.00  0.00    -0.504 OA
ATOM     21  H   UNL     1      20.010   9.711 147.940  1.00  0.00     0.293 HD
ENDBRANCH  17  20
ENDBRANCH   1  12
BRANCH   6  22
ATOM     22  O   UNL     1      15.176  11.125 157.541  1.00  0.00    -0.507 OA
ATOM     23  H   UNL     1      14.445  10.926 158.208  1.00  0.00     0.293 HD
ENDBRANCH   6  22
BRANCH   8  24
ATOM     24  O   UNL     1      12.208  11.101 153.788  1.00  0.00    -0.508 OA
ATOM     25  H   UNL     1      12.009  11.310 152.816  1.00  0.00     0.293 HD
ENDBRANCH   8  24
TORSDOF 5
ENDMDL
MODEL 4
REMARK VINA RESULT:    -7.048     10.353     12.917
REMARK INTER + INTRA:          -8.547
REMARK INTER:                  -8.276
REMARK INTRA:                  -0.270
REMARK UNBOUND:                -0.263
REMARK SMILES O=c1cc(-c2ccc(O)c(O)c2)oc2cc(O)cc(O)c12
REMARK SMILES IDX 4 1 3 2 2 3 1 4 21 5 19 6 18 7 16 8 15 9 14 10 13 11 5 12
REMARK SMILES IDX 6 13 7 14 8 15 12 16 10 17 9 18 11 20 20 22 17 24
REMARK H PARENT 9 19 11 21 20 23 17 25
REMARK Flexibility Score: inf
ROOT
ATOM      1  C   UNL     1      17.512   4.838 141.149  1.00  0.00     0.138 A 
ATOM      2  C   UNL     1      17.808   3.582 140.599  1.00  0.00     0.100 A 
ATOM      3  C   UNL     1      19.139   3.210 140.404  1.00  0.00     0.197 A 
ATOM      4  O   UNL     1      19.374   2.053 139.968  1.00  0.00    -0.289 OA
ATOM      5  C   UNL     1      20.177   4.113 140.733  1.00  0.00     0.107 A 
ATOM      6  C   UNL     1      21.568   3.858 140.540  1.00  0.00     0.134 A 
ATOM      7  C   UNL     1      22.510   4.779 141.011  1.00  0.00     0.093 A 
ATOM      8  C   UNL     1      22.114   5.973 141.614  1.00  0.00     0.123 A 
ATOM      9  C   UNL     1      20.755   6.258 141.759  1.00  0.00     0.094 A 
ATOM     10  C   UNL     1      19.791   5.343 141.330  1.00  0.00     0.146 A 
ATOM     11  O   UNL     1      18.507   5.646 141.499  1.00  0.00    -0.456 OA
ENDROOT
BRANCH   1  12
ATOM     12  C   UNL     1      16.115   5.285 141.376  1.00  0.00     0.021 A 
ATOM     13  C   UNL     1      15.677   6.497 140.814  1.00  0.00     0.016 A 
ATOM     14  C   UNL     1      14.365   6.937 141.006  1.00  0.00     0.051 A 
ATOM     15  C   UNL     1      13.466   6.167 141.753  1.00  0.00     0.157 A 
ATOM     16  C   UNL     1      15.199   4.509 142.115  1.00  0.00     0.062 A 
ATOM     17  C   UNL     1      13.882   4.950 142.306  1.00  0.00     0.158 A 
BRANCH  15  18
ATOM     18  O   UNL     1      12.156   6.604 141.948  1.00  0.00    -0.504 OA
ATOM     19  H   UNL     1      11.872   7.061 142.807  1.00  0.00     0.293 HD
ENDBRANCH  15  18
BRANCH  17  20
ATOM     20  O   UNL     1      12.980   4.181 143.039  1.00  0.00    -0.504 OA
ATOM     21  H   UNL     1      12.986   4.179 144.052  1.00  0.00     0.293 HD
ENDBRANCH  17  20
ENDBRANCH   1  12
BRANCH   6  22
ATOM     22  O   UNL     1      22.071   2.736 139.875  1.00  0.00    -0.507 OA
ATOM     23  H   UNL     1      22.375   1.886 140.325  1.00  0.00     0.293 HD
ENDBRANCH   6  22
BRANCH   8  24
ATOM     24  O   UNL     1      23.079   6.874 142.057  1.00  0.00    -0.508 OA
ATOM     25  H   UNL     1      23.049   7.267 142.990  1.00  0.00     0.293 HD
ENDBRANCH   8  24
TORSDOF 5
ENDMDL
MODEL 5
REMARK VINA RESULT:    -6.858      2.223      7.354
REMARK INTER + INTRA:          -8.324
REMARK INTER:                  -8.030
REMARK INTRA:                  -0.294
REMARK UNBOUND:                -0.263
REMARK SMILES O=c1cc(-c2ccc(O)c(O)c2)oc2cc(O)cc(O)c12
REMARK SMILES IDX 4 1 3 2 2 3 1 4 21 5 19 6 18 7 16 8 15 9 14 10 13 11 5 12
REMARK SMILES IDX 6 13 7 14 8 15 12 16 10 17 9 18 11 20 20 22 17 24
REMARK H PARENT 9 19 11 21 20 23 17 25
REMARK Flexibility Score: inf
ROOT
ATOM      1  C   UNL     1      18.262  10.609 153.219  1.00  0.00     0.138 A 
ATOM      2  C   UNL     1      19.487  10.873 153.848  1.00  0.00     0.100 A 
ATOM      3  C   UNL     1      20.676  10.721 153.134  1.00  0.00     0.197 A 
ATOM      4  O   UNL     1      21.756  11.026 153.706  1.00  0.00    -0.289 OA
ATOM      5  C   UNL     1      20.639  10.274 151.792  1.00  0.00     0.107 A 
ATOM      6  C   UNL     1      21.790  10.046 150.979  1.00  0.00     0.134 A 
ATOM      7  C   UNL     1      21.626   9.715 149.629  1.00  0.00     0.093 A 
ATOM      8  C   UNL     1      20.357   9.546 149.076  1.00  0.00     0.123 A 
ATOM      9  C   UNL     1      19.225   9.715 149.875  1.00  0.00     0.094 A 
ATOM     10  C   UNL     1      19.355  10.079 151.218  1.00  0.00     0.146 A 
ATOM     11  O   UNL     1      18.252  10.243 151.942  1.00  0.00    -0.456 OA
ENDROOT
BRANCH   1  12
ATOM     12  C   UNL     1      16.968  10.752 153.933  1.00  0.00     0.021 A 
ATOM     13  C   UNL     1      15.773  10.800 153.193  1.00  0.00     0.016 A 
ATOM     14  C   UNL     1      14.541  10.926 153.841  1.00  0.00     0.051 A 
ATOM     15  C   UNL     1      14.483  10.996 155.237  1.00  0.00     0.157 A 
ATOM     16  C   UNL     1      16.900  10.810 155.339  1.00  0.00     0.062 A 
ATOM     17  C   UNL     1      15.663  10.935 155.988  1.00  0.00     0.158 A 
BRANCH  15  18
ATOM     18  O   UNL     1      13.256  11.124 155.887  1.00  0.00    -0.504 OA
ATOM     19  H   UNL     1      12.670  11.940 155.755  1.00  0.00     0.293 HD
ENDBRANCH  15  18
BRANCH  17  20
ATOM     20  O   UNL     1      15.600  10.993 157.379  1.00  0.00    -0.504 OA
ATOM     21  H   UNL     1      16.142  10.366 157.962  1.00  0.00     0.293 HD
ENDBRANCH  17  20
ENDBRANCH   1  12
BRANCH   6  22
ATOM     22  O   UNL     1      23.104  10.105 151.452  1.00  0.00    -0.507 OA
ATOM     23  H   UNL     1      23.370  10.073 152.424  1.00  0.00     0.293 HD
ENDBRANCH   6  22
BRANCH   8  24
ATOM     24  O   UNL     1      20.232   9.203 147.732  1.00  0.00    -0.508 OA
ATOM     25  H   UNL     1      19.918   9.873 147.040  1.00  0.00     0.293 HD
ENDBRANCH   8  24
TORSDOF 5
ENDMDL
MODEL 6
REMARK VINA RESULT:    -6.686     10.587     13.245
REMARK INTER + INTRA:          -8.121
REMARK INTER:                  -7.824
REMARK INTRA:                  -0.297
REMARK UNBOUND:                -0.263
REMARK SMILES O=c1cc(-c2ccc(O)c(O)c2)oc2cc(O)cc(O)c12
REMARK SMILES IDX 4 1 3 2 2 3 1 4 21 5 19 6 18 7 16 8 15 9 14 10 13 11 5 12
REMARK SMILES IDX 6 13 7 14 8 15 12 16 10 17 9 18 11 20 20 22 17 24
REMARK H PARENT 9 19 11 21 20 23 17 25
REMARK Flexibility Score: inf
ROOT
ATOM      1  C   UNL     1      15.727   5.199 141.338  1.00  0.00     0.138 A 
ATOM      2  C   UNL     1      16.305   6.427 141.686  1.00  0.00     0.100 A 
ATOM      3  C   UNL     1      17.692   6.575 141.640  1.00  0.00     0.197 A 
ATOM      4  O   UNL     1      18.178   7.707 141.897  1.00  0.00    -0.289 OA
ATOM      5  C   UNL     1      18.504   5.476 141.273  1.00  0.00     0.107 A 
ATOM      6  C   UNL     1      19.931   5.499 141.230  1.00  0.00     0.134 A 
ATOM      7  C   UNL     1      20.624   4.386 140.738  1.00  0.00     0.093 A 
ATOM      8  C   UNL     1      19.948   3.231 140.346  1.00  0.00     0.123 A 
ATOM      9  C   UNL     1      18.556   3.178 140.434  1.00  0.00     0.094 A 
ATOM     10  C   UNL     1      17.835   4.285 140.888  1.00  0.00     0.146 A 
ATOM     11  O   UNL     1      16.509   4.199 140.944  1.00  0.00    -0.456 OA
ENDROOT
BRANCH   1  12
ATOM     12  C   UNL     1      14.258   4.987 141.372  1.00  0.00     0.021 A 
ATOM     13  C   UNL     1      13.734   3.724 141.042  1.00  0.00     0.016 A 
ATOM     14  C   UNL     1      12.356   3.496 141.073  1.00  0.00     0.051 A 
ATOM     15  C   UNL     1      11.479   4.523 141.444  1.00  0.00     0.157 A 
ATOM     16  C   UNL     1      13.370   6.011 141.757  1.00  0.00     0.062 A 
ATOM     17  C   UNL     1      11.987   5.781 141.790  1.00  0.00     0.158 A 
BRANCH  15  18
ATOM     18  O   UNL     1      10.104   4.299 141.475  1.00  0.00    -0.504 OA
ATOM     19  H   UNL     1       9.668   3.596 140.890  1.00  0.00     0.293 HD
ENDBRANCH  15  18
BRANCH  17  20
ATOM     20  O   UNL     1      11.112   6.797 142.170  1.00  0.00    -0.504 OA
ATOM     21  H   UNL     1      10.386   7.132 141.548  1.00  0.00     0.293 HD
ENDBRANCH  17  20
ENDBRANCH   1  12
BRANCH   6  22
ATOM     22  O   UNL     1      20.709   6.570 141.677  1.00  0.00    -0.507 OA
ATOM     23  H   UNL     1      21.601   6.483 142.139  1.00  0.00     0.293 HD
ENDBRANCH   6  22
BRANCH   8  24
ATOM     24  O   UNL     1      20.672   2.137 139.877  1.00  0.00    -0.508 OA
ATOM     25  H   UNL     1      21.190   1.535 140.506  1.00  0.00     0.293 HD
ENDBRANCH   8  24
TORSDOF 5
ENDMDL
MODEL 7
REMARK VINA RESULT:    -6.684      2.225      7.575
REMARK INTER + INTRA:          -8.119
REMARK INTER:                  -7.809
REMARK INTRA:                  -0.310
REMARK UNBOUND:                -0.263
REMARK SMILES O=c1cc(-c2ccc(O)c(O)c2)oc2cc(O)cc(O)c12
REMARK SMILES IDX 4 1 3 2 2 3 1 4 21 5 19 6 18 7 16 8 15 9 14 10 13 11 5 12
REMARK SMILES IDX 6 13 7 14 8 15 12 16 10 17 9 18 11 20 20 22 17 24
REMARK H PARENT 9 19 11 21 20 23 17 25
REMARK Flexibility Score: inf
ROOT
ATOM      1  C   UNL     1      18.562  10.189 152.698  1.00  0.00     0.138 A 
ATOM      2  C   UNL     1      17.953   9.596 151.582  1.00  0.00     0.100 A 
ATOM      3  C   UNL     1      18.697   9.388 150.420  1.00  0.00     0.197 A 
ATOM      4  O   UNL     1      18.141   8.797 149.457  1.00  0.00    -0.289 OA
ATOM      5  C   UNL     1      20.048   9.803 150.366  1.00  0.00     0.107 A 
ATOM      6  C   UNL     1      20.892   9.677 149.221  1.00  0.00     0.134 A 
ATOM      7  C   UNL     1      22.246  10.016 149.321  1.00  0.00     0.093 A 
ATOM      8  C   UNL     1      22.775  10.532 150.504  1.00  0.00     0.123 A 
ATOM      9  C   UNL     1      21.947  10.709 151.614  1.00  0.00     0.094 A 
ATOM     10  C   UNL     1      20.599  10.348 151.555  1.00  0.00     0.146 A 
ATOM     11  O   UNL     1      19.848  10.520 152.639  1.00  0.00    -0.456 OA
ENDROOT
BRANCH   1  12
ATOM     12  C   UNL     1      17.817  10.436 153.958  1.00  0.00     0.021 A 
ATOM     13  C   UNL     1      16.416  10.557 153.921  1.00  0.00     0.016 A 
ATOM     14  C   UNL     1      15.691  10.782 155.093  1.00  0.00     0.051 A 
ATOM     15  C   UNL     1      16.352  10.879 156.323  1.00  0.00     0.157 A 
ATOM     16  C   UNL     1      18.473  10.522 155.202  1.00  0.00     0.062 A 
ATOM     17  C   UNL     1      17.744  10.746 156.379  1.00  0.00     0.158 A 
BRANCH  15  18
ATOM     18  O   UNL     1      15.631  11.106 157.495  1.00  0.00    -0.504 OA
ATOM     19  H   UNL     1      15.587  12.024 157.921  1.00  0.00     0.293 HD
ENDBRANCH  15  18
BRANCH  17  20
ATOM     20  O   UNL     1      18.397  10.832 157.607  1.00  0.00    -0.504 OA
ATOM     21  H   UNL     1      18.748  10.008 158.080  1.00  0.00     0.293 HD
ENDBRANCH  17  20
ENDBRANCH   1  12
BRANCH   6  22
ATOM     22  O   UNL     1      20.447   9.252 147.966  1.00  0.00    -0.507 OA
ATOM     23  H   UNL     1      19.493   9.009 147.743  1.00  0.00     0.293 HD
ENDBRANCH   6  22
BRANCH   8  24
ATOM     24  O   UNL     1      24.124  10.873 150.563  1.00  0.00    -0.508 OA
ATOM     25  H   UNL     1      24.794  10.301 151.065  1.00  0.00     0.293 HD
ENDBRANCH   8  24
TORSDOF 5
ENDMDL
MODEL 8
REMARK VINA RESULT:    -6.661     10.795     11.956
REMARK INTER + INTRA:          -8.092
REMARK INTER:                  -7.811
REMARK INTRA:                  -0.281
REMARK UNBOUND:                -0.263
REMARK SMILES O=c1cc(-c2ccc(O)c(O)c2)oc2cc(O)cc(O)c12
REMARK SMILES IDX 4 1 3 2 2 3 1 4 21 5 19 6 18 7 16 8 15 9 14 10 13 11 5 12
REMARK SMILES IDX 6 13 7 14 8 15 12 16 10 17 9 18 11 20 20 22 17 24
REMARK H PARENT 9 19 11 21 20 23 17 25
REMARK Flexibility Score: inf
ROOT
ATOM      1  C   UNL     1      16.929   5.062 141.113  1.00  0.00     0.138 A 
ATOM      2  C   UNL     1      16.303   6.317 141.108  1.00  0.00     0.100 A 
ATOM      3  C   UNL     1      14.927   6.402 141.325  1.00  0.00     0.197 A 
ATOM      4  O   UNL     1      14.404   7.546 141.377  1.00  0.00    -0.289 OA
ATOM      5  C   UNL     1      14.170   5.222 141.516  1.00  0.00     0.107 A 
ATOM      6  C   UNL     1      12.756   5.185 141.706  1.00  0.00     0.134 A 
ATOM      7  C   UNL     1      12.131   3.968 142.003  1.00  0.00     0.093 A 
ATOM      8  C   UNL     1      12.857   2.779 142.057  1.00  0.00     0.123 A 
ATOM      9  C   UNL     1      14.233   2.795 141.820  1.00  0.00     0.094 A 
ATOM     10  C   UNL     1      14.890   3.999 141.556  1.00  0.00     0.146 A 
ATOM     11  O   UNL     1      16.204   3.973 141.349  1.00  0.00    -0.456 OA
ENDROOT
BRANCH   1  12
ATOM     12  C   UNL     1      18.388   4.913 140.885  1.00  0.00     0.021 A 
ATOM     13  C   UNL     1      18.861   3.839 140.111  1.00  0.00     0.016 A 
ATOM     14  C   UNL     1      20.229   3.681 139.876  1.00  0.00     0.051 A 
ATOM     15  C   UNL     1      21.146   4.599 140.402  1.00  0.00     0.157 A 
ATOM     16  C   UNL     1      19.316   5.841 141.400  1.00  0.00     0.062 A 
ATOM     17  C   UNL     1      20.689   5.682 141.162  1.00  0.00     0.158 A 
BRANCH  15  18
ATOM     18  O   UNL     1      22.512   4.443 140.171  1.00  0.00    -0.504 OA
ATOM     19  H   UNL     1      23.037   3.686 140.591  1.00  0.00     0.293 HD
ENDBRANCH  15  18
BRANCH  17  20
ATOM     20  O   UNL     1      21.604   6.600 141.673  1.00  0.00    -0.504 OA
ATOM     21  H   UNL     1      21.412   7.127 142.517  1.00  0.00     0.293 HD
ENDBRANCH  17  20
ENDBRANCH   1  12
BRANCH   6  22
ATOM     22  O   UNL     1      11.923   6.302 141.590  1.00  0.00    -0.507 OA
ATOM     23  H   UNL     1      12.051   7.172 142.085  1.00  0.00     0.293 HD
ENDBRANCH   6  22
BRANCH   8  24
ATOM     24  O   UNL     1      12.200   1.584 142.340  1.00  0.00    -0.508 OA
ATOM     25  H   UNL     1      12.566   0.691 142.029  1.00  0.00     0.293 HD
ENDBRANCH   8  24
TORSDOF 5
ENDMDL
