MODEL 1
REMARK VINA RESULT:    -4.123      0.000      0.000
REMARK INTER + INTRA:          -4.511
REMARK INTER:                  -4.485
REMARK INTRA:                  -0.027
REMARK UNBOUND:                -0.027
REMARK SMILES COc1ccccc1O
REMARK SMILES IDX 3 1 4 2 5 3 6 4 7 5 8 6 2 7 1 8 9 9
REMARK H PARENT 9 10
REMARK Flexibility Score: inf
ROOT
ATOM      1  C   UNL     1      46.405   6.537  17.051  1.00  0.00     0.160 A 
ATOM      2  C   UNL     1      45.261   7.219  16.588  1.00  0.00     0.050 A 
ATOM      3  C   UNL     1      44.923   7.189  15.232  1.00  0.00     0.004 A 
ATOM      4  C   UNL     1      45.715   6.482  14.327  1.00  0.00     0.004 A 
ATOM      5  C   UNL     1      46.850   5.803  14.774  1.00  0.00     0.050 A 
ATOM      6  C   UNL     1      47.199   5.826  16.131  1.00  0.00     0.157 A 
ENDROOT
BRANCH   1   7
ATOM      7  O   UNL     1      46.777   6.543  18.405  1.00  0.00    -0.493 OA
ATOM      8  C   UNL     1      46.425   7.563  19.333  1.00  0.00     0.278 C 
ENDBRANCH   1   7
BRANCH   6   9
ATOM      9  O   UNL     1      48.338   5.135  16.543  1.00  0.00    -0.504 OA
ATOM     10  H   UNL     1      48.862   4.536  15.917  1.00  0.00     0.293 HD
ENDBRANCH   6   9
TORSDOF 2
ENDMDL
MODEL 2
REMARK VINA RESULT:    -4.122      3.545      4.707
REMARK INTER + INTRA:          -4.511
REMARK INTER:                  -4.480
REMARK INTRA:                  -0.031
REMARK UNBOUND:                -0.027
REMARK SMILES COc1ccccc1O
REMARK SMILES IDX 3 1 4 2 5 3 6 4 7 5 8 6 2 7 1 8 9 9
REMARK H PARENT 9 10
REMARK Flexibility Score: inf
ROOT
ATOM      1  C   UNL     1      46.319   8.155  21.437  1.00  0.00     0.160 A 
ATOM      2  C   UNL     1      45.732   9.223  20.728  1.00  0.00     0.050 A 
ATOM      3  C   UNL     1      45.644   9.182  19.335  1.00  0.00     0.004 A 
ATOM      4  C   UNL     1      46.138   8.081  18.633  1.00  0.00     0.004 A 
ATOM      5  C   UNL     1      46.723   7.018  19.323  1.00  0.00     0.050 A 
ATOM      6  C   UNL     1      46.816   7.048  20.721  1.00  0.00     0.157 A 
ENDROOT
BRANCH   1   7
ATOM      7  O   UNL     1      46.425   8.160  22.836  1.00  0.00    -0.493 OA
ATOM      8  C   UNL     1      45.393   8.580  23.722  1.00  0.00     0.278 C 
ENDBRANCH   1   7
BRANCH   6   9
ATOM      9  O   UNL     1      47.404   5.969  21.378  1.00  0.00    -0.504 OA
ATOM     10  H   UNL     1      48.270   5.550  21.060  1.00  0.00     0.293 HD
ENDBRANCH   6   9
TORSDOF 2
ENDMDL
MODEL 3
REMARK VINA RESULT:    -4.081      1.341      3.162
REMARK INTER + INTRA:          -4.465
REMARK INTER:                  -4.421
REMARK INTRA:                  -0.045
REMARK UNBOUND:                -0.027
REMARK SMILES COc1ccccc1O
REMARK SMILES IDX 3 1 4 2 5 3 6 4 7 5 8 6 2 7 1 8 9 9
REMARK H PARENT 9 10
REMARK Flexibility Score: inf
ROOT
ATOM      1  C   UNL     1      46.281   5.983  15.343  1.00  0.00     0.160 A 
ATOM      2  C   UNL     1      45.123   6.786  15.376  1.00  0.00     0.050 A 
ATOM      3  C   UNL     1      44.789   7.497  16.531  1.00  0.00     0.004 A 
ATOM      4  C   UNL     1      45.601   7.416  17.664  1.00  0.00     0.004 A 
ATOM      5  C   UNL     1      46.750   6.623  17.644  1.00  0.00     0.050 A 
ATOM      6  C   UNL     1      47.095   5.907  16.490  1.00  0.00     0.157 A 
ENDROOT
BRANCH   1   7
ATOM      7  O   UNL     1      46.649   5.255  14.201  1.00  0.00    -0.493 OA
ATOM      8  C   UNL     1      46.156   3.960  13.875  1.00  0.00     0.278 C 
ENDBRANCH   1   7
BRANCH   6   9
ATOM      9  O   UNL     1      48.250   5.126  16.505  1.00  0.00    -0.504 OA
ATOM     10  H   UNL     1      48.227   4.127  16.341  1.00  0.00     0.293 HD
ENDBRANCH   6   9
TORSDOF 2
ENDMDL
MODEL 4
REMARK VINA RESULT:    -4.033      8.253      9.215
REMARK INTER + INTRA:          -4.413
REMARK INTER:                  -4.382
REMARK INTRA:                  -0.031
REMARK UNBOUND:                -0.027
REMARK SMILES COc1ccccc1O
REMARK SMILES IDX 3 1 4 2 5 3 6 4 7 5 8 6 2 7 1 8 9 9
REMARK H PARENT 9 10
REMARK Flexibility Score: inf
ROOT
ATOM      1  C   UNL     1      46.816  -2.646  15.703  1.00  0.00     0.160 A 
ATOM      2  C   UNL     1      46.197  -3.141  14.536  1.00  0.00     0.050 A 
ATOM      3  C   UNL     1      44.966  -2.628  14.120  1.00  0.00     0.004 A 
ATOM      4  C   UNL     1      44.340  -1.621  14.856  1.00  0.00     0.004 A 
ATOM      5  C   UNL     1      44.943  -1.124  16.013  1.00  0.00     0.050 A 
ATOM      6  C   UNL     1      46.177  -1.630  16.440  1.00  0.00     0.157 A 
ENDROOT
BRANCH   1   7
ATOM      7  O   UNL     1      48.053  -3.136  16.152  1.00  0.00    -0.493 OA
ATOM      8  C   UNL     1      48.209  -4.218  17.064  1.00  0.00     0.278 C 
ENDBRANCH   1   7
BRANCH   6   9
ATOM      9  O   UNL     1      46.752  -1.111  17.599  1.00  0.00    -0.504 OA
ATOM     10  H   UNL     1      47.754  -0.998  17.701  1.00  0.00     0.293 HD
ENDBRANCH   6   9
TORSDOF 2
ENDMDL
MODEL 5
REMARK VINA RESULT:    -4.002      1.909      4.734
REMARK INTER + INTRA:          -4.380
REMARK INTER:                  -4.355
REMARK INTRA:                  -0.025
REMARK UNBOUND:                -0.027
REMARK SMILES COc1ccccc1O
REMARK SMILES IDX 3 1 4 2 5 3 6 4 7 5 8 6 2 7 1 8 9 9
REMARK H PARENT 9 10
REMARK Flexibility Score: inf
ROOT
ATOM      1  C   UNL     1      46.488   7.379  19.307  1.00  0.00     0.160 A 
ATOM      2  C   UNL     1      45.957   8.620  18.901  1.00  0.00     0.050 A 
ATOM      3  C   UNL     1      45.646   9.599  19.849  1.00  0.00     0.004 A 
ATOM      4  C   UNL     1      45.859   9.354  21.206  1.00  0.00     0.004 A 
ATOM      5  C   UNL     1      46.384   8.128  21.620  1.00  0.00     0.050 A 
ATOM      6  C   UNL     1      46.700   7.140  20.679  1.00  0.00     0.157 A 
ENDROOT
BRANCH   1   7
ATOM      7  O   UNL     1      46.813   6.372  18.385  1.00  0.00    -0.493 OA
ATOM      8  C   UNL     1      46.846   6.550  16.973  1.00  0.00     0.278 C 
ENDBRANCH   1   7
BRANCH   6   9
ATOM      9  O   UNL     1      47.223   5.928  21.128  1.00  0.00    -0.504 OA
ATOM     10  H   UNL     1      47.517   5.198  20.490  1.00  0.00     0.293 HD
ENDBRANCH   6   9
TORSDOF 2
ENDMDL
MODEL 6
REMARK VINA RESULT:    -3.965      1.906      3.852
REMARK INTER + INTRA:          -4.340
REMARK INTER:                  -4.314
REMARK INTRA:                  -0.025
REMARK UNBOUND:                -0.027
REMARK SMILES COc1ccccc1O
REMARK SMILES IDX 3 1 4 2 5 3 6 4 7 5 8 6 2 7 1 8 9 9
REMARK H PARENT 9 10
REMARK Flexibility Score: inf
ROOT
ATOM      1  C   UNL     1      45.870   6.670  16.438  1.00  0.00     0.160 A 
ATOM      2  C   UNL     1      46.783   6.690  17.513  1.00  0.00     0.050 A 
ATOM      3  C   UNL     1      46.491   7.411  18.673  1.00  0.00     0.004 A 
ATOM      4  C   UNL     1      45.292   8.117  18.777  1.00  0.00     0.004 A 
ATOM      5  C   UNL     1      44.380   8.105  17.719  1.00  0.00     0.050 A 
ATOM      6  C   UNL     1      44.663   7.386  16.551  1.00  0.00     0.157 A 
ENDROOT
BRANCH   1   7
ATOM      7  O   UNL     1      46.129   5.958  15.256  1.00  0.00    -0.493 OA
ATOM      8  C   UNL     1      47.389   5.392  14.914  1.00  0.00     0.278 C 
ENDBRANCH   1   7
BRANCH   6   9
ATOM      9  O   UNL     1      43.730   7.395  15.514  1.00  0.00    -0.504 OA
ATOM     10  H   UNL     1      43.240   6.558  15.223  1.00  0.00     0.293 HD
ENDBRANCH   6   9
TORSDOF 2
ENDMDL
MODEL 7
REMARK VINA RESULT:    -3.863      4.577      5.909
REMARK INTER + INTRA:          -4.228
REMARK INTER:                  -4.203
REMARK INTRA:                  -0.025
REMARK UNBOUND:                -0.027
REMARK SMILES COc1ccccc1O
REMARK SMILES IDX 3 1 4 2 5 3 6 4 7 5 8 6 2 7 1 8 9 9
REMARK H PARENT 9 10
REMARK Flexibility Score: inf
ROOT
ATOM      1  C   UNL     1      46.077   8.295  20.993  1.00  0.00     0.160 A 
ATOM      2  C   UNL     1      46.192   9.134  22.120  1.00  0.00     0.050 A 
ATOM      3  C   UNL     1      47.167   8.885  23.088  1.00  0.00     0.004 A 
ATOM      4  C   UNL     1      48.037   7.802  22.946  1.00  0.00     0.004 A 
ATOM      5  C   UNL     1      47.932   6.964  21.834  1.00  0.00     0.050 A 
ATOM      6  C   UNL     1      46.958   7.205  20.857  1.00  0.00     0.157 A 
ENDROOT
BRANCH   1   7
ATOM      7  O   UNL     1      45.110   8.513  19.999  1.00  0.00    -0.493 OA
ATOM      8  C   UNL     1      44.196   9.605  19.987  1.00  0.00     0.278 C 
ENDBRANCH   1   7
BRANCH   6   9
ATOM      9  O   UNL     1      46.882   6.349  19.759  1.00  0.00    -0.504 OA
ATOM     10  H   UNL     1      46.026   6.220  19.233  1.00  0.00     0.293 HD
ENDBRANCH   6   9
TORSDOF 2
ENDMDL
MODEL 8
REMARK VINA RESULT:    -3.859      8.187      9.092
REMARK INTER + INTRA:          -4.224
REMARK INTER:                  -4.199
REMARK INTRA:                  -0.025
REMARK UNBOUND:                -0.027
REMARK SMILES COc1ccccc1O
REMARK SMILES IDX 3 1 4 2 5 3 6 4 7 5 8 6 2 7 1 8 9 9
REMARK H PARENT 9 10
REMARK Flexibility Score: inf
ROOT
ATOM      1  C   UNL     1      45.796  -2.405  15.107  1.00  0.00     0.160 A 
ATOM      2  C   UNL     1      46.398  -1.130  15.060  1.00  0.00     0.050 A 
ATOM      3  C   UNL     1      45.739  -0.062  14.447  1.00  0.00     0.004 A 
ATOM      4  C   UNL     1      44.480  -0.249  13.875  1.00  0.00     0.004 A 
ATOM      5  C   UNL     1      43.875  -1.507  13.914  1.00  0.00     0.050 A 
ATOM      6  C   UNL     1      44.525  -2.585  14.527  1.00  0.00     0.157 A 
ENDROOT
BRANCH   1   7
ATOM      7  O   UNL     1      46.427  -3.502  15.715  1.00  0.00    -0.493 OA
ATOM      8  C   UNL     1      47.592  -3.416  16.528  1.00  0.00     0.278 C 
ENDBRANCH   1   7
BRANCH   6   9
ATOM      9  O   UNL     1      43.892  -3.827  14.550  1.00  0.00    -0.504 OA
ATOM     10  H   UNL     1      43.194  -4.064  15.244  1.00  0.00     0.293 HD
ENDBRANCH   6   9
TORSDOF 2
ENDMDL
MODEL 9
REMARK VINA RESULT:    -3.732      2.738      3.615
REMARK INTER + INTRA:          -4.086
REMARK INTER:                  -4.047
REMARK INTRA:                  -0.038
REMARK UNBOUND:                -0.027
REMARK SMILES COc1ccccc1O
REMARK SMILES IDX 3 1 4 2 5 3 6 4 7 5 8 6 2 7 1 8 9 9
REMARK H PARENT 9 10
REMARK Flexibility Score: inf
ROOT
ATOM      1  C   UNL     1      45.173   8.302  18.746  1.00  0.00     0.160 A 
ATOM      2  C   UNL     1      46.315   7.482  18.861  1.00  0.00     0.050 A 
ATOM      3  C   UNL     1      46.698   6.655  17.803  1.00  0.00     0.004 A 
ATOM      4  C   UNL     1      45.954   6.634  16.623  1.00  0.00     0.004 A 
ATOM      5  C   UNL     1      44.821   7.441  16.498  1.00  0.00     0.050 A 
ATOM      6  C   UNL     1      44.427   8.275  17.552  1.00  0.00     0.157 A 
ENDROOT
BRANCH   1   7
ATOM      7  O   UNL     1      44.757   9.147  19.787  1.00  0.00    -0.493 OA
ATOM      8  C   UNL     1      44.404   8.704  21.093  1.00  0.00     0.278 C 
ENDBRANCH   1   7
BRANCH   6   9
ATOM      9  O   UNL     1      43.292   9.068  17.392  1.00  0.00    -0.504 OA
ATOM     10  H   UNL     1      42.605   9.182  18.128  1.00  0.00     0.293 HD
ENDBRANCH   6   9
TORSDOF 2
ENDMDL
