MODEL 1
REMARK VINA RESULT:    -4.704      0.000      0.000
REMARK INTER + INTRA:          -7.560
REMARK INTER:                  -6.492
REMARK INTRA:                  -1.068
REMARK UNBOUND:                -1.068
REMARK SMILES CCCCc1cccc(O)c1CCCC
REMARK SMILES IDX 5 1 11 2 9 3 8 4 7 5 6 6 4 7 3 8 2 9 1 10 12 11 13 12 14 13
REMARK SMILES IDX 15 14 10 15
REMARK H PARENT 10 16
REMARK Flexibility Score: inf
ROOT
ATOM      1  C   UNL     1     -13.487   8.537  31.542  1.00  0.00    -0.041 A 
ATOM      2  C   UNL     1     -14.902   8.660  31.404  1.00  0.00    -0.003 A 
ATOM      3  C   UNL     1     -15.737   8.102  32.400  1.00  0.00     0.119 A 
ATOM      4  C   UNL     1     -15.185   7.404  33.479  1.00  0.00     0.046 A 
ATOM      5  C   UNL     1     -13.807   7.249  33.585  1.00  0.00     0.004 A 
ATOM      6  C   UNL     1     -12.965   7.810  32.628  1.00  0.00     0.004 A 
ENDROOT
BRANCH   1   7
ATOM      7  C   UNL     1     -12.496   9.155  30.574  1.00  0.00     0.036 C 
BRANCH   7   8
ATOM      8  C   UNL     1     -11.223   9.622  31.295  1.00  0.00     0.004 C 
BRANCH   8   9
ATOM      9  C   UNL     1     -11.281  11.103  31.698  1.00  0.00    -0.003 C 
ATOM     10  C   UNL     1     -10.774  12.036  30.598  1.00  0.00     0.004 C 
ENDBRANCH   8   9
ENDBRANCH   7   8
ENDBRANCH   1   7
BRANCH   2  11
ATOM     11  C   UNL     1     -15.557   9.331  30.208  1.00  0.00     0.040 C 
BRANCH  11  12
ATOM     12  C   UNL     1     -15.967  10.777  30.539  1.00  0.00     0.005 C 
BRANCH  12  13
ATOM     13  C   UNL     1     -15.013  11.816  29.931  1.00  0.00    -0.003 C 
ATOM     14  C   UNL     1     -14.429  12.762  30.978  1.00  0.00     0.004 C 
ENDBRANCH  12  13
ENDBRANCH  11  12
ENDBRANCH   2  11
BRANCH   3  15
ATOM     15  O   UNL     1     -17.124   8.246  32.316  1.00  0.00    -0.508 OA
ATOM     16  H   UNL     1     -17.754   7.498  32.580  1.00  0.00     0.293 HD
ENDBRANCH   3  15
TORSDOF 7
ENDMDL
MODEL 2
REMARK VINA RESULT:    -4.666      5.602      8.057
REMARK INTER + INTRA:          -7.506
REMARK INTER:                  -6.512
REMARK INTRA:                  -0.994
REMARK UNBOUND:                -1.068
REMARK SMILES CCCCc1cccc(O)c1CCCC
REMARK SMILES IDX 5 1 11 2 9 3 8 4 7 5 6 6 4 7 3 8 2 9 1 10 12 11 13 12 14 13
REMARK SMILES IDX 15 14 10 15
REMARK H PARENT 10 16
REMARK Flexibility Score: inf
ROOT
ATOM      1  C   UNL     1     -14.451   3.752  30.900  1.00  0.00    -0.041 A 
ATOM      2  C   UNL     1     -14.320   3.815  32.319  1.00  0.00    -0.003 A 
ATOM      3  C   UNL     1     -15.246   4.586  33.059  1.00  0.00     0.119 A 
ATOM      4  C   UNL     1     -16.248   5.311  32.403  1.00  0.00     0.046 A 
ATOM      5  C   UNL     1     -16.344   5.282  31.016  1.00  0.00     0.004 A 
ATOM      6  C   UNL     1     -15.455   4.511  30.271  1.00  0.00     0.004 A 
ENDROOT
BRANCH   1   7
ATOM      7  C   UNL     1     -13.559   2.902  30.015  1.00  0.00     0.036 C 
BRANCH   7   8
ATOM      8  C   UNL     1     -14.351   2.272  28.860  1.00  0.00     0.004 C 
BRANCH   8   9
ATOM      9  C   UNL     1     -14.182   0.747  28.790  1.00  0.00    -0.003 C 
ATOM     10  C   UNL     1     -12.796   0.327  28.299  1.00  0.00     0.004 C 
ENDBRANCH   8   9
ENDBRANCH   7   8
ENDBRANCH   1   7
BRANCH   2  11
ATOM     11  C   UNL     1     -13.199   3.119  33.074  1.00  0.00     0.040 C 
BRANCH  11  12
ATOM     12  C   UNL     1     -13.611   1.697  33.493  1.00  0.00     0.005 C 
BRANCH  12  13
ATOM     13  C   UNL     1     -12.711   0.614  32.877  1.00  0.00    -0.003 C 
ATOM     14  C   UNL     1     -13.490  -0.379  32.017  1.00  0.00     0.004 C 
ENDBRANCH  12  13
ENDBRANCH  11  12
ENDBRANCH   2  11
BRANCH   3  15
ATOM     15  O   UNL     1     -15.171   4.630  34.453  1.00  0.00    -0.508 OA
ATOM     16  H   UNL     1     -15.994   4.768  35.027  1.00  0.00     0.293 HD
ENDBRANCH   3  15
TORSDOF 7
ENDMDL
MODEL 3
REMARK VINA RESULT:    -4.589      5.772      7.951
REMARK INTER + INTRA:          -7.401
REMARK INTER:                  -6.345
REMARK INTRA:                  -1.056
REMARK UNBOUND:                -1.068
REMARK SMILES CCCCc1cccc(O)c1CCCC
REMARK SMILES IDX 5 1 11 2 9 3 8 4 7 5 6 6 4 7 3 8 2 9 1 10 12 11 13 12 14 13
REMARK SMILES IDX 15 14 10 15
REMARK H PARENT 10 16
REMARK Flexibility Score: inf
ROOT
ATOM      1  C   UNL     1     -14.883   2.943  29.149  1.00  0.00    -0.041 A 
ATOM      2  C   UNL     1     -15.192   4.061  29.979  1.00  0.00    -0.003 A 
ATOM      3  C   UNL     1     -16.444   4.702  29.827  1.00  0.00     0.119 A 
ATOM      4  C   UNL     1     -17.346   4.271  28.848  1.00  0.00     0.046 A 
ATOM      5  C   UNL     1     -17.022   3.209  28.011  1.00  0.00     0.004 A 
ATOM      6  C   UNL     1     -15.804   2.550  28.159  1.00  0.00     0.004 A 
ENDROOT
BRANCH   1   7
ATOM      7  C   UNL     1     -13.603   2.138  29.272  1.00  0.00     0.036 C 
BRANCH   7   8
ATOM      8  C   UNL     1     -13.891   0.685  29.676  1.00  0.00     0.004 C 
BRANCH   8   9
ATOM      9  C   UNL     1     -12.933   0.174  30.763  1.00  0.00    -0.003 C 
ATOM     10  C   UNL     1     -13.665  -0.444  31.955  1.00  0.00     0.004 C 
ENDBRANCH   8   9
ENDBRANCH   7   8
ENDBRANCH   1   7
BRANCH   2  11
ATOM     11  C   UNL     1     -14.214   4.624  30.998  1.00  0.00     0.040 C 
BRANCH  11  12
ATOM     12  C   UNL     1     -14.491   4.061  32.403  1.00  0.00     0.005 C 
BRANCH  12  13
ATOM     13  C   UNL     1     -13.331   3.207  32.938  1.00  0.00    -0.003 C 
ATOM     14  C   UNL     1     -13.686   2.477  34.232  1.00  0.00     0.004 C 
ENDBRANCH  12  13
ENDBRANCH  11  12
ENDBRANCH   2  11
BRANCH   3  15
ATOM     15  O   UNL     1     -16.792   5.769  30.657  1.00  0.00    -0.508 OA
ATOM     16  H   UNL     1     -17.743   5.905  30.980  1.00  0.00     0.293 HD
ENDBRANCH   3  15
TORSDOF 7
ENDMDL
MODEL 4
REMARK VINA RESULT:    -4.573      4.758      6.754
REMARK INTER + INTRA:          -7.378
REMARK INTER:                  -6.053
REMARK INTRA:                  -1.325
REMARK UNBOUND:                -1.068
REMARK SMILES CCCCc1cccc(O)c1CCCC
REMARK SMILES IDX 5 1 11 2 9 3 8 4 7 5 6 6 4 7 3 8 2 9 1 10 12 11 13 12 14 13
REMARK SMILES IDX 15 14 10 15
REMARK H PARENT 10 16
REMARK Flexibility Score: inf
ROOT
ATOM      1  C   UNL     1     -13.759   3.117  31.628  1.00  0.00    -0.041 A 
ATOM      2  C   UNL     1     -14.169   3.361  32.973  1.00  0.00    -0.003 A 
ATOM      3  C   UNL     1     -13.973   2.350  33.942  1.00  0.00     0.119 A 
ATOM      4  C   UNL     1     -13.426   1.114  33.577  1.00  0.00     0.046 A 
ATOM      5  C   UNL     1     -13.070   0.866  32.256  1.00  0.00     0.004 A 
ATOM      6  C   UNL     1     -13.233   1.857  31.291  1.00  0.00     0.004 A 
ENDROOT
BRANCH   1   7
ATOM      7  C   UNL     1     -13.856   4.153  30.524  1.00  0.00     0.036 C 
BRANCH   7   8
ATOM      8  C   UNL     1     -15.034   3.861  29.583  1.00  0.00     0.004 C 
BRANCH   8   9
ATOM      9  C   UNL     1     -16.085   4.982  29.587  1.00  0.00    -0.003 C 
ATOM     10  C   UNL     1     -17.514   4.452  29.714  1.00  0.00     0.004 C 
ENDBRANCH   8   9
ENDBRANCH   7   8
ENDBRANCH   1   7
BRANCH   2  11
ATOM     11  C   UNL     1     -14.847   4.651  33.405  1.00  0.00     0.040 C 
BRANCH  11  12
ATOM     12  C   UNL     1     -16.377   4.542  33.280  1.00  0.00     0.005 C 
BRANCH  12  13
ATOM     13  C   UNL     1     -17.055   5.910  33.100  1.00  0.00    -0.003 C 
ATOM     14  C   UNL     1     -16.055   7.026  32.803  1.00  0.00     0.004 C 
ENDBRANCH  12  13
ENDBRANCH  11  12
ENDBRANCH   2  11
BRANCH   3  15
ATOM     15  O   UNL     1     -14.322   2.577  35.275  1.00  0.00    -0.508 OA
ATOM     16  H   UNL     1     -14.284   3.502  35.686  1.00  0.00     0.293 HD
ENDBRANCH   3  15
TORSDOF 7
ENDMDL
MODEL 5
REMARK VINA RESULT:    -4.544      1.886      3.270
REMARK INTER + INTRA:          -7.338
REMARK INTER:                  -6.257
REMARK INTRA:                  -1.082
REMARK UNBOUND:                -1.068
REMARK SMILES CCCCc1cccc(O)c1CCCC
REMARK SMILES IDX 5 1 11 2 9 3 8 4 7 5 6 6 4 7 3 8 2 9 1 10 12 11 13 12 14 13
REMARK SMILES IDX 15 14 10 15
REMARK H PARENT 10 16
REMARK Flexibility Score: inf
ROOT
ATOM      1  C   UNL     1     -11.700   9.323  32.090  1.00  0.00    -0.041 A 
ATOM      2  C   UNL     1     -12.500   8.213  32.496  1.00  0.00    -0.003 A 
ATOM      3  C   UNL     1     -12.241   7.605  33.746  1.00  0.00     0.119 A 
ATOM      4  C   UNL     1     -11.190   8.057  34.551  1.00  0.00     0.046 A 
ATOM      5  C   UNL     1     -10.385   9.111  34.131  1.00  0.00     0.004 A 
ATOM      6  C   UNL     1     -10.637   9.738  32.913  1.00  0.00     0.004 A 
ENDROOT
BRANCH   1   7
ATOM      7  C   UNL     1     -11.932  10.095  30.805  1.00  0.00     0.036 C 
BRANCH   7   8
ATOM      8  C   UNL     1     -12.229  11.576  31.086  1.00  0.00     0.004 C 
BRANCH   8   9
ATOM      9  C   UNL     1     -13.399  12.113  30.247  1.00  0.00    -0.003 C 
ATOM     10  C   UNL     1     -14.518  12.706  31.104  1.00  0.00     0.004 C 
ENDBRANCH   8   9
ENDBRANCH   7   8
ENDBRANCH   1   7
BRANCH   2  11
ATOM     11  C   UNL     1     -13.596   7.627  31.623  1.00  0.00     0.040 C 
BRANCH  11  12
ATOM     12  C   UNL     1     -14.962   8.260  31.945  1.00  0.00     0.005 C 
BRANCH  12  13
ATOM     13  C   UNL     1     -15.537   9.058  30.764  1.00  0.00    -0.003 C 
ATOM     14  C   UNL     1     -16.811   9.817  31.133  1.00  0.00     0.004 C 
ENDBRANCH  12  13
ENDBRANCH  11  12
ENDBRANCH   2  11
BRANCH   3  15
ATOM     15  O   UNL     1     -13.037   6.547  34.191  1.00  0.00    -0.508 OA
ATOM     16  H   UNL     1     -13.088   6.294  35.170  1.00  0.00     0.293 HD
ENDBRANCH   3  15
TORSDOF 7
ENDMDL
MODEL 6
REMARK VINA RESULT:    -4.496      5.765      7.456
REMARK INTER + INTRA:          -7.272
REMARK INTER:                  -5.943
REMARK INTRA:                  -1.328
REMARK UNBOUND:                -1.068
REMARK SMILES CCCCc1cccc(O)c1CCCC
REMARK SMILES IDX 5 1 11 2 9 3 8 4 7 5 6 6 4 7 3 8 2 9 1 10 12 11 13 12 14 13
REMARK SMILES IDX 15 14 10 15
REMARK H PARENT 10 16
REMARK Flexibility Score: inf
ROOT
ATOM      1  C   UNL     1     -13.413   1.917  30.820  1.00  0.00    -0.041 A 
ATOM      2  C   UNL     1     -13.502   2.896  31.854  1.00  0.00    -0.003 A 
ATOM      3  C   UNL     1     -13.292   2.496  33.195  1.00  0.00     0.119 A 
ATOM      4  C   UNL     1     -13.046   1.153  33.503  1.00  0.00     0.046 A 
ATOM      5  C   UNL     1     -13.004   0.196  32.495  1.00  0.00     0.004 A 
ATOM      6  C   UNL     1     -13.186   0.573  31.167  1.00  0.00     0.004 A 
ENDROOT
BRANCH   1   7
ATOM      7  C   UNL     1     -13.550   2.246  29.345  1.00  0.00     0.036 C 
BRANCH   7   8
ATOM      8  C   UNL     1     -14.874   1.718  28.773  1.00  0.00     0.004 C 
BRANCH   8   9
ATOM      9  C   UNL     1     -15.623   2.773  27.945  1.00  0.00    -0.003 C 
ATOM     10  C   UNL     1     -17.127   2.783  28.221  1.00  0.00     0.004 C 
ENDBRANCH   8   9
ENDBRANCH   7   8
ENDBRANCH   1   7
BRANCH   2  11
ATOM     11  C   UNL     1     -13.853   4.350  31.584  1.00  0.00     0.040 C 
BRANCH  11  12
ATOM     12  C   UNL     1     -15.374   4.574  31.646  1.00  0.00     0.005 C 
BRANCH  12  13
ATOM     13  C   UNL     1     -15.883   5.498  30.529  1.00  0.00    -0.003 C 
ATOM     14  C   UNL     1     -14.762   5.978  29.607  1.00  0.00     0.004 C 
ENDBRANCH  12  13
ENDBRANCH  11  12
ENDBRANCH   2  11
BRANCH   3  15
ATOM     15  O   UNL     1     -13.327   3.439  34.224  1.00  0.00    -0.508 OA
ATOM     16  H   UNL     1     -13.857   4.299  34.141  1.00  0.00     0.293 HD
ENDBRANCH   3  15
TORSDOF 7
ENDMDL
MODEL 7
REMARK VINA RESULT:    -4.460      6.537      8.499
REMARK INTER + INTRA:          -7.223
REMARK INTER:                  -6.129
REMARK INTRA:                  -1.094
REMARK UNBOUND:                -1.068
REMARK SMILES CCCCc1cccc(O)c1CCCC
REMARK SMILES IDX 5 1 11 2 9 3 8 4 7 5 6 6 4 7 3 8 2 9 1 10 12 11 13 12 14 13
REMARK SMILES IDX 15 14 10 15
REMARK H PARENT 10 16
REMARK Flexibility Score: inf
ROOT
ATOM      1  C   UNL     1     -13.718   3.132  31.391  1.00  0.00    -0.041 A 
ATOM      2  C   UNL     1     -13.076   1.864  31.523  1.00  0.00    -0.003 A 
ATOM      3  C   UNL     1     -13.005   1.264  32.802  1.00  0.00     0.119 A 
ATOM      4  C   UNL     1     -13.517   1.924  33.925  1.00  0.00     0.046 A 
ATOM      5  C   UNL     1     -14.102   3.179  33.797  1.00  0.00     0.004 A 
ATOM      6  C   UNL     1     -14.203   3.778  32.543  1.00  0.00     0.004 A 
ENDROOT
BRANCH   1   7
ATOM      7  C   UNL     1     -13.914   3.835  30.061  1.00  0.00     0.036 C 
BRANCH   7   8
ATOM      8  C   UNL     1     -15.400   3.920  29.685  1.00  0.00     0.004 C 
BRANCH   8   9
ATOM      9  C   UNL     1     -15.752   3.057  28.464  1.00  0.00    -0.003 C 
ATOM     10  C   UNL     1     -17.259   2.865  28.289  1.00  0.00     0.004 C 
ENDBRANCH   8   9
ENDBRANCH   7   8
ENDBRANCH   1   7
BRANCH   2  11
ATOM     11  C   UNL     1     -12.426   1.145  30.353  1.00  0.00     0.040 C 
BRANCH  11  12
ATOM     12  C   UNL     1     -13.464   0.339  29.551  1.00  0.00     0.005 C 
BRANCH  12  13
ATOM     13  C   UNL     1     -13.035   0.108  28.093  1.00  0.00    -0.003 C 
ATOM     14  C   UNL     1     -12.633   1.401  27.387  1.00  0.00     0.004 C 
ENDBRANCH  12  13
ENDBRANCH  11  12
ENDBRANCH   2  11
BRANCH   3  15
ATOM     15  O   UNL     1     -12.424   0.003  32.955  1.00  0.00    -0.508 OA
ATOM     16  H   UNL     1     -12.114  -0.541  32.158  1.00  0.00     0.293 HD
ENDBRANCH   3  15
TORSDOF 7
ENDMDL
MODEL 8
REMARK VINA RESULT:    -4.450      1.399      3.911
REMARK INTER + INTRA:          -7.209
REMARK INTER:                  -5.942
REMARK INTRA:                  -1.266
REMARK UNBOUND:                -1.068
REMARK SMILES CCCCc1cccc(O)c1CCCC
REMARK SMILES IDX 5 1 11 2 9 3 8 4 7 5 6 6 4 7 3 8 2 9 1 10 12 11 13 12 14 13
REMARK SMILES IDX 15 14 10 15
REMARK H PARENT 10 16
REMARK Flexibility Score: inf
ROOT
ATOM      1  C   UNL     1     -13.323  10.356  30.758  1.00  0.00    -0.041 A 
ATOM      2  C   UNL     1     -14.410   9.439  30.876  1.00  0.00    -0.003 A 
ATOM      3  C   UNL     1     -15.730   9.915  30.698  1.00  0.00     0.119 A 
ATOM      4  C   UNL     1     -15.967  11.272  30.453  1.00  0.00     0.046 A 
ATOM      5  C   UNL     1     -14.906  12.170  30.383  1.00  0.00     0.004 A 
ATOM      6  C   UNL     1     -13.598  11.717  30.532  1.00  0.00     0.004 A 
ENDROOT
BRANCH   1   7
ATOM      7  C   UNL     1     -11.867   9.943  30.859  1.00  0.00     0.036 C 
BRANCH   7   8
ATOM      8  C   UNL     1     -11.207  10.521  32.119  1.00  0.00     0.004 C 
BRANCH   8   9
ATOM      9  C   UNL     1     -10.323   9.496  32.846  1.00  0.00    -0.003 C 
ATOM     10  C   UNL     1     -10.526   9.508  34.362  1.00  0.00     0.004 C 
ENDBRANCH   8   9
ENDBRANCH   7   8
ENDBRANCH   1   7
BRANCH   2  11
ATOM     11  C   UNL     1     -14.215   7.973  31.227  1.00  0.00     0.040 C 
BRANCH  11  12
ATOM     12  C   UNL     1     -14.369   7.739  32.741  1.00  0.00     0.005 C 
BRANCH  12  13
ATOM     13  C   UNL     1     -13.137   7.065  33.364  1.00  0.00    -0.003 C 
ATOM     14  C   UNL     1     -12.258   6.371  32.325  1.00  0.00     0.004 C 
ENDBRANCH  12  13
ENDBRANCH  11  12
ENDBRANCH   2  11
BRANCH   3  15
ATOM     15  O   UNL     1     -16.810   9.033  30.763  1.00  0.00    -0.508 OA
ATOM     16  H   UNL     1     -17.606   9.208  31.366  1.00  0.00     0.293 HD
ENDBRANCH   3  15
TORSDOF 7
ENDMDL
MODEL 9
REMARK VINA RESULT:    -4.423      5.561      7.327
REMARK INTER + INTRA:          -7.172
REMARK INTER:                  -6.171
REMARK INTRA:                  -1.000
REMARK UNBOUND:                -1.068
REMARK SMILES CCCCc1cccc(O)c1CCCC
REMARK SMILES IDX 5 1 11 2 9 3 8 4 7 5 6 6 4 7 3 8 2 9 1 10 12 11 13 12 14 13
REMARK SMILES IDX 15 14 10 15
REMARK H PARENT 10 16
REMARK Flexibility Score: inf
ROOT
ATOM      1  C   UNL     1     -13.029   2.193  32.020  1.00  0.00    -0.041 A 
ATOM      2  C   UNL     1     -13.791   3.338  32.396  1.00  0.00    -0.003 A 
ATOM      3  C   UNL     1     -14.373   3.381  33.684  1.00  0.00     0.119 A 
ATOM      4  C   UNL     1     -14.238   2.296  34.559  1.00  0.00     0.046 A 
ATOM      5  C   UNL     1     -13.531   1.163  34.170  1.00  0.00     0.004 A 
ATOM      6  C   UNL     1     -12.932   1.111  32.915  1.00  0.00     0.004 A 
ENDROOT
BRANCH   1   7
ATOM      7  C   UNL     1     -12.303   2.070  30.693  1.00  0.00     0.036 C 
BRANCH   7   8
ATOM      8  C   UNL     1     -12.594   0.722  30.017  1.00  0.00     0.004 C 
BRANCH   8   9
ATOM      9  C   UNL     1     -13.953   0.699  29.303  1.00  0.00    -0.003 C 
ATOM     10  C   UNL     1     -14.029   1.692  28.142  1.00  0.00     0.004 C 
ENDBRANCH   8   9
ENDBRANCH   7   8
ENDBRANCH   1   7
BRANCH   2  11
ATOM     11  C   UNL     1     -14.042   4.505  31.454  1.00  0.00     0.040 C 
BRANCH  11  12
ATOM     12  C   UNL     1     -15.189   4.192  30.477  1.00  0.00     0.005 C 
BRANCH  12  13
ATOM     13  C   UNL     1     -16.429   5.067  30.721  1.00  0.00    -0.003 C 
ATOM     14  C   UNL     1     -17.678   4.520  30.033  1.00  0.00     0.004 C 
ENDBRANCH  12  13
ENDBRANCH  11  12
ENDBRANCH   2  11
BRANCH   3  15
ATOM     15  O   UNL     1     -15.085   4.508  34.097  1.00  0.00    -0.508 OA
ATOM     16  H   UNL     1     -15.897   4.434  34.699  1.00  0.00     0.293 HD
ENDBRANCH   3  15
TORSDOF 7
ENDMDL
