MODEL 1
REMARK VINA RESULT:    -3.390      0.000      0.000
REMARK INTER + INTRA:          -5.968
REMARK INTER:                  -4.876
REMARK INTRA:                  -1.091
REMARK UNBOUND:                -1.091
REMARK SMILES O=C(CO)[C@@H](O)[C@H](O)[C@H](O)CO
REMARK SMILES IDX 7 1 9 2 11 3 12 4 10 6 5 8 2 9 1 10 3 11 4 12 6 14 8 16
REMARK H PARENT 12 5 10 7 4 13 6 15 8 17
REMARK Flexibility Score: inf
ROOT
ATOM      1  C   UNL     1       4.219  -1.668  32.833  1.00  0.00     0.181 C 
ENDROOT
BRANCH   1   2
ATOM      2  C   UNL     1       5.179  -1.084  31.757  1.00  0.00     0.171 C 
BRANCH   2   3
ATOM      3  C   UNL     1       4.485  -0.953  30.387  1.00  0.00     0.190 C 
BRANCH   3   4
ATOM      4  O   UNL     1       4.075  -2.203  29.900  1.00  0.00    -0.394 OA
ATOM      5  H   UNL     1       3.794  -2.064  28.959  1.00  0.00     0.210 HD
ENDBRANCH   3   4
ENDBRANCH   2   3
BRANCH   2   6
ATOM      6  O   UNL     1       5.614   0.190  32.158  1.00  0.00    -0.388 OA
ATOM      7  H   UNL     1       5.103   0.852  31.623  1.00  0.00     0.211 HD
ENDBRANCH   2   6
ENDBRANCH   1   2
BRANCH   1   8
ATOM      8  C   UNL     1       4.511  -3.136  33.263  1.00  0.00     0.214 C 
BRANCH   8   9
ATOM      9  C   UNL     1       3.859  -3.527  34.581  1.00  0.00     0.189 C 
ATOM     10  O   UNL     1       4.288  -3.077  35.634  1.00  0.00    -0.294 OA
BRANCH   9  11
ATOM     11  C   UNL     1       2.682  -4.461  34.620  1.00  0.00     0.234 C 
BRANCH  11  12
ATOM     12  O   UNL     1       1.698  -4.005  33.735  1.00  0.00    -0.388 OA
ATOM     13  H   UNL     1       1.216  -3.278  34.209  1.00  0.00     0.211 HD
ENDBRANCH  11  12
ENDBRANCH   9  11
ENDBRANCH   8   9
BRANCH   8  14
ATOM     14  O   UNL     1       4.207  -4.047  32.234  1.00  0.00    -0.382 OA
ATOM     15  H   UNL     1       3.461  -3.685  31.692  1.00  0.00     0.211 HD
ENDBRANCH   8  14
ENDBRANCH   1   8
BRANCH   1  16
ATOM     16  O   UNL     1       2.878  -1.557  32.420  1.00  0.00    -0.387 OA
ATOM     17  H   UNL     1       2.495  -2.473  32.394  1.00  0.00     0.211 HD
ENDBRANCH   1  16
TORSDOF 10
ENDMDL
MODEL 2
REMARK VINA RESULT:    -3.358      2.847      4.526
REMARK INTER + INTRA:          -5.922
REMARK INTER:                  -5.403
REMARK INTRA:                  -0.520
REMARK UNBOUND:                -1.091
REMARK SMILES O=C(CO)[C@@H](O)[C@H](O)[C@H](O)CO
REMARK SMILES IDX 7 1 9 2 11 3 12 4 10 6 5 8 2 9 1 10 3 11 4 12 6 14 8 16
REMARK H PARENT 12 5 10 7 4 13 6 15 8 17
REMARK Flexibility Score: inf
ROOT
ATOM      1  C   UNL     1       6.632   1.083  32.128  1.00  0.00     0.181 C 
ENDROOT
BRANCH   1   2
ATOM      2  C   UNL     1       8.000   1.680  32.565  1.00  0.00     0.171 C 
BRANCH   2   3
ATOM      3  C   UNL     1       7.854   3.136  33.052  1.00  0.00     0.190 C 
BRANCH   3   4
ATOM      4  O   UNL     1       8.155   3.251  34.417  1.00  0.00    -0.394 OA
ATOM      5  H   UNL     1       8.707   4.069  34.519  1.00  0.00     0.210 HD
ENDBRANCH   3   4
ENDBRANCH   2   3
BRANCH   2   6
ATOM      6  O   UNL     1       8.535   0.913  33.613  1.00  0.00    -0.388 OA
ATOM      7  H   UNL     1       8.361  -0.039  33.392  1.00  0.00     0.211 HD
ENDBRANCH   2   6
ENDBRANCH   1   2
BRANCH   1   8
ATOM      8  C   UNL     1       6.338  -0.358  32.637  1.00  0.00     0.214 C 
BRANCH   8   9
ATOM      9  C   UNL     1       4.863  -0.732  32.597  1.00  0.00     0.189 C 
ATOM     10  O   UNL     1       4.060   0.005  32.043  1.00  0.00    -0.294 OA
BRANCH   9  11
ATOM     11  C   UNL     1       4.366  -2.003  33.225  1.00  0.00     0.234 C 
BRANCH  11  12
ATOM     12  O   UNL     1       3.088  -2.295  32.732  1.00  0.00    -0.388 OA
ATOM     13  H   UNL     1       2.790  -1.486  32.242  1.00  0.00     0.211 HD
ENDBRANCH  11  12
ENDBRANCH   9  11
ENDBRANCH   8   9
BRANCH   8  14
ATOM     14  O   UNL     1       7.141  -1.313  31.984  1.00  0.00    -0.382 OA
ATOM     15  H   UNL     1       7.839  -0.843  31.461  1.00  0.00     0.211 HD
ENDBRANCH   8  14
ENDBRANCH   1   8
BRANCH   1  16
ATOM     16  O   UNL     1       6.491   1.124  30.728  1.00  0.00    -0.387 OA
ATOM     17  H   UNL     1       7.313   1.540  30.356  1.00  0.00     0.211 HD
ENDBRANCH   1  16
TORSDOF 10
ENDMDL
MODEL 3
REMARK VINA RESULT:    -3.295      7.291      9.520
REMARK INTER + INTRA:          -5.830
REMARK INTER:                  -4.650
REMARK INTRA:                  -1.180
REMARK UNBOUND:                -1.091
REMARK SMILES O=C(CO)[C@@H](O)[C@H](O)[C@H](O)CO
REMARK SMILES IDX 7 1 9 2 11 3 12 4 10 6 5 8 2 9 1 10 3 11 4 12 6 14 8 16
REMARK H PARENT 12 5 10 7 4 13 6 15 8 17
REMARK Flexibility Score: inf
ROOT
ATOM      1  C   UNL     1      -2.891  -7.656  35.145  1.00  0.00     0.181 C 
ENDROOT
BRANCH   1   2
ATOM      2  C   UNL     1      -1.689  -6.970  34.434  1.00  0.00     0.171 C 
BRANCH   2   3
ATOM      3  C   UNL     1      -0.342  -7.551  34.908  1.00  0.00     0.190 C 
BRANCH   3   4
ATOM      4  O   UNL     1       0.056  -6.988  36.130  1.00  0.00    -0.394 OA
ATOM      5  H   UNL     1      -0.284  -7.588  36.844  1.00  0.00     0.210 HD
ENDBRANCH   3   4
ENDBRANCH   2   3
BRANCH   2   6
ATOM      6  O   UNL     1      -1.792  -7.161  33.047  1.00  0.00    -0.388 OA
ATOM      7  H   UNL     1      -2.185  -6.331  32.669  1.00  0.00     0.211 HD
ENDBRANCH   2   6
ENDBRANCH   1   2
BRANCH   1   8
ATOM      8  C   UNL     1      -4.296  -7.296  34.579  1.00  0.00     0.214 C 
BRANCH   8   9
ATOM      9  C   UNL     1      -5.414  -7.405  35.606  1.00  0.00     0.189 C 
ATOM     10  O   UNL     1      -5.770  -8.503  36.010  1.00  0.00    -0.294 OA
BRANCH   9  11
ATOM     11  C   UNL     1      -6.096  -6.180  36.146  1.00  0.00     0.234 C 
BRANCH  11  12
ATOM     12  O   UNL     1      -5.136  -5.309  36.676  1.00  0.00    -0.388 OA
ATOM     13  H   UNL     1      -5.246  -5.346  37.662  1.00  0.00     0.211 HD
ENDBRANCH  11  12
ENDBRANCH   9  11
ENDBRANCH   8   9
BRANCH   8  14
ATOM     14  O   UNL     1      -4.291  -6.042  33.938  1.00  0.00    -0.382 OA
ATOM     15  H   UNL     1      -4.942  -5.447  34.388  1.00  0.00     0.211 HD
ENDBRANCH   8  14
ENDBRANCH   1   8
BRANCH   1  16
ATOM     16  O   UNL     1      -2.864  -7.407  36.529  1.00  0.00    -0.387 OA
ATOM     17  H   UNL     1      -2.925  -8.282  36.993  1.00  0.00     0.211 HD
ENDBRANCH   1  16
TORSDOF 10
ENDMDL
MODEL 4
REMARK VINA RESULT:    -3.257      8.323      9.867
REMARK INTER + INTRA:          -5.777
REMARK INTER:                  -4.811
REMARK INTRA:                  -0.966
REMARK UNBOUND:                -1.091
REMARK SMILES O=C(CO)[C@@H](O)[C@H](O)[C@H](O)CO
REMARK SMILES IDX 7 1 9 2 11 3 12 4 10 6 5 8 2 9 1 10 3 11 4 12 6 14 8 16
REMARK H PARENT 12 5 10 7 4 13 6 15 8 17
REMARK Flexibility Score: inf
ROOT
ATOM      1  C   UNL     1      -4.136  -7.079  34.188  1.00  0.00     0.181 C 
ENDROOT
BRANCH   1   2
ATOM      2  C   UNL     1      -3.561  -6.790  35.604  1.00  0.00     0.171 C 
BRANCH   2   3
ATOM      3  C   UNL     1      -4.682  -6.585  36.642  1.00  0.00     0.190 C 
BRANCH   3   4
ATOM      4  O   UNL     1      -5.208  -5.286  36.575  1.00  0.00    -0.394 OA
ATOM      5  H   UNL     1      -4.435  -4.669  36.503  1.00  0.00     0.210 HD
ENDBRANCH   3   4
ENDBRANCH   2   3
BRANCH   2   6
ATOM      6  O   UNL     1      -2.765  -7.871  36.018  1.00  0.00    -0.388 OA
ATOM      7  H   UNL     1      -2.164  -7.532  36.732  1.00  0.00     0.211 HD
ENDBRANCH   2   6
ENDBRANCH   1   2
BRANCH   1   8
ATOM      8  C   UNL     1      -3.123  -7.665  33.162  1.00  0.00     0.214 C 
BRANCH   8   9
ATOM      9  C   UNL     1      -3.656  -7.712  31.737  1.00  0.00     0.189 C 
ATOM     10  O   UNL     1      -4.856  -7.834  31.535  1.00  0.00    -0.294 OA
BRANCH   9  11
ATOM     11  C   UNL     1      -2.731  -7.604  30.557  1.00  0.00     0.234 C 
BRANCH  11  12
ATOM     12  O   UNL     1      -2.396  -6.261  30.351  1.00  0.00    -0.388 OA
ATOM     13  H   UNL     1      -2.808  -6.004  29.485  1.00  0.00     0.211 HD
ENDBRANCH  11  12
ENDBRANCH   9  11
ENDBRANCH   8   9
BRANCH   8  14
ATOM     14  O   UNL     1      -1.876  -7.017  33.237  1.00  0.00    -0.382 OA
ATOM     15  H   UNL     1      -1.435  -7.063  32.351  1.00  0.00     0.211 HD
ENDBRANCH   8  14
ENDBRANCH   1   8
BRANCH   1  16
ATOM     16  O   UNL     1      -4.739  -5.928  33.648  1.00  0.00    -0.387 OA
ATOM     17  H   UNL     1      -4.095  -5.178  33.743  1.00  0.00     0.211 HD
ENDBRANCH   1  16
TORSDOF 10
ENDMDL
MODEL 5
REMARK VINA RESULT:    -3.255      1.054      2.060
REMARK INTER + INTRA:          -5.774
REMARK INTER:                  -4.613
REMARK INTRA:                  -1.161
REMARK UNBOUND:                -1.091
REMARK SMILES O=C(CO)[C@@H](O)[C@H](O)[C@H](O)CO
REMARK SMILES IDX 7 1 9 2 11 3 12 4 10 6 5 8 2 9 1 10 3 11 4 12 6 14 8 16
REMARK H PARENT 12 5 10 7 4 13 6 15 8 17
REMARK Flexibility Score: inf
ROOT
ATOM      1  C   UNL     1       5.239  -2.537  32.819  1.00  0.00     0.181 C 
ENDROOT
BRANCH   1   2
ATOM      2  C   UNL     1       4.224  -1.358  32.843  1.00  0.00     0.171 C 
BRANCH   2   3
ATOM      3  C   UNL     1       4.747  -0.143  32.049  1.00  0.00     0.190 C 
BRANCH   3   4
ATOM      4  O   UNL     1       5.903   0.391  32.636  1.00  0.00    -0.394 OA
ATOM      5  H   UNL     1       6.136  -0.202  33.397  1.00  0.00     0.210 HD
ENDBRANCH   3   4
ENDBRANCH   2   3
BRANCH   2   6
ATOM      6  O   UNL     1       3.009  -1.772  32.273  1.00  0.00    -0.388 OA
ATOM      7  H   UNL     1       2.292  -1.231  32.697  1.00  0.00     0.211 HD
ENDBRANCH   2   6
ENDBRANCH   1   2
BRANCH   1   8
ATOM      8  C   UNL     1       4.669  -3.918  33.255  1.00  0.00     0.214 C 
BRANCH   8   9
ATOM      9  C   UNL     1       3.918  -3.879  34.579  1.00  0.00     0.189 C 
ATOM     10  O   UNL     1       4.419  -3.333  35.551  1.00  0.00    -0.294 OA
BRANCH   9  11
ATOM     11  C   UNL     1       2.556  -4.498  34.719  1.00  0.00     0.234 C 
BRANCH  11  12
ATOM     12  O   UNL     1       1.695  -3.946  33.763  1.00  0.00    -0.388 OA
ATOM     13  H   UNL     1       1.629  -4.615  33.032  1.00  0.00     0.211 HD
ENDBRANCH  11  12
ENDBRANCH   9  11
ENDBRANCH   8   9
BRANCH   8  14
ATOM     14  O   UNL     1       3.903  -4.509  32.233  1.00  0.00    -0.382 OA
ATOM     15  H   UNL     1       3.741  -5.459  32.459  1.00  0.00     0.211 HD
ENDBRANCH   8  14
ENDBRANCH   1   8
BRANCH   1  16
ATOM     16  O   UNL     1       6.377  -2.234  33.589  1.00  0.00    -0.387 OA
ATOM     17  H   UNL     1       6.164  -2.441  34.536  1.00  0.00     0.211 HD
ENDBRANCH   1  16
TORSDOF 10
ENDMDL
MODEL 6
REMARK VINA RESULT:    -3.209      0.541      4.263
REMARK INTER + INTRA:          -5.707
REMARK INTER:                  -4.618
REMARK INTRA:                  -1.089
REMARK UNBOUND:                -1.091
REMARK SMILES O=C(CO)[C@@H](O)[C@H](O)[C@H](O)CO
REMARK SMILES IDX 7 1 9 2 11 3 12 4 10 6 5 8 2 9 1 10 3 11 4 12 6 14 8 16
REMARK H PARENT 12 5 10 7 4 13 6 15 8 17
REMARK Flexibility Score: inf
ROOT
ATOM      1  C   UNL     1       4.475  -3.135  33.399  1.00  0.00     0.181 C 
ENDROOT
BRANCH   1   2
ATOM      2  C   UNL     1       3.754  -3.431  34.745  1.00  0.00     0.171 C 
BRANCH   2   3
ATOM      3  C   UNL     1       2.651  -4.495  34.577  1.00  0.00     0.190 C 
BRANCH   3   4
ATOM      4  O   UNL     1       1.637  -4.048  33.718  1.00  0.00    -0.394 OA
ATOM      5  H   UNL     1       1.849  -4.407  32.817  1.00  0.00     0.210 HD
ENDBRANCH   3   4
ENDBRANCH   2   3
BRANCH   2   6
ATOM      6  O   UNL     1       4.687  -3.902  35.683  1.00  0.00    -0.388 OA
ATOM      7  H   UNL     1       5.272  -4.550  35.210  1.00  0.00     0.211 HD
ENDBRANCH   2   6
ENDBRANCH   1   2
BRANCH   1   8
ATOM      8  C   UNL     1       4.198  -1.730  32.787  1.00  0.00     0.214 C 
BRANCH   8   9
ATOM      9  C   UNL     1       5.171  -1.342  31.683  1.00  0.00     0.189 C 
ATOM     10  O   UNL     1       6.333  -1.078  31.957  1.00  0.00    -0.294 OA
BRANCH   9  11
ATOM     11  C   UNL     1       4.733  -1.278  30.248  1.00  0.00     0.234 C 
BRANCH  11  12
ATOM     12  O   UNL     1       4.163  -2.504  29.882  1.00  0.00    -0.388 OA
ATOM     13  H   UNL     1       4.770  -2.899  29.204  1.00  0.00     0.211 HD
ENDBRANCH  11  12
ENDBRANCH   9  11
ENDBRANCH   8   9
BRANCH   8  14
ATOM     14  O   UNL     1       2.857  -1.599  32.378  1.00  0.00    -0.382 OA
ATOM     15  H   UNL     1       2.468  -2.501  32.256  1.00  0.00     0.211 HD
ENDBRANCH   8  14
ENDBRANCH   1   8
BRANCH   1  16
ATOM     16  O   UNL     1       4.183  -4.128  32.446  1.00  0.00    -0.387 OA
ATOM     17  H   UNL     1       4.981  -4.713  32.368  1.00  0.00     0.211 HD
ENDBRANCH   1  16
TORSDOF 10
ENDMDL
MODEL 7
REMARK VINA RESULT:    -3.186      1.532      2.205
REMARK INTER + INTRA:          -5.675
REMARK INTER:                  -4.193
REMARK INTRA:                  -1.482
REMARK UNBOUND:                -1.091
REMARK SMILES O=C(CO)[C@@H](O)[C@H](O)[C@H](O)CO
REMARK SMILES IDX 7 1 9 2 11 3 12 4 10 6 5 8 2 9 1 10 3 11 4 12 6 14 8 16
REMARK H PARENT 12 5 10 7 4 13 6 15 8 17
REMARK Flexibility Score: inf
ROOT
ATOM      1  C   UNL     1       5.030  -3.569  33.973  1.00  0.00     0.181 C 
ENDROOT
BRANCH   1   2
ATOM      2  C   UNL     1       5.357  -2.541  32.852  1.00  0.00     0.171 C 
BRANCH   2   3
ATOM      3  C   UNL     1       4.339  -1.383  32.830  1.00  0.00     0.190 C 
BRANCH   3   4
ATOM      4  O   UNL     1       3.054  -1.839  32.500  1.00  0.00    -0.394 OA
ATOM      5  H   UNL     1       2.418  -1.337  33.074  1.00  0.00     0.210 HD
ENDBRANCH   3   4
ENDBRANCH   2   3
BRANCH   2   6
ATOM      6  O   UNL     1       6.636  -2.003  33.065  1.00  0.00    -0.388 OA
ATOM      7  H   UNL     1       6.549  -1.323  33.784  1.00  0.00     0.211 HD
ENDBRANCH   2   6
ENDBRANCH   1   2
BRANCH   1   8
ATOM      8  C   UNL     1       4.385  -4.901  33.492  1.00  0.00     0.214 C 
BRANCH   8   9
ATOM      9  C   UNL     1       3.306  -5.430  34.425  1.00  0.00     0.189 C 
ATOM     10  O   UNL     1       3.617  -5.955  35.485  1.00  0.00    -0.294 OA
BRANCH   9  11
ATOM     11  C   UNL     1       1.850  -5.315  34.074  1.00  0.00     0.234 C 
BRANCH  11  12
ATOM     12  O   UNL     1       1.562  -3.994  33.710  1.00  0.00    -0.388 OA
ATOM     13  H   UNL     1       2.042  -3.833  32.856  1.00  0.00     0.211 HD
ENDBRANCH  11  12
ENDBRANCH   9  11
ENDBRANCH   8   9
BRANCH   8  14
ATOM     14  O   UNL     1       3.931  -4.806  32.162  1.00  0.00    -0.382 OA
ATOM     15  H   UNL     1       4.601  -4.309  31.628  1.00  0.00     0.211 HD
ENDBRANCH   8  14
ENDBRANCH   1   8
BRANCH   1  16
ATOM     16  O   UNL     1       4.221  -2.987  34.966  1.00  0.00    -0.387 OA
ATOM     17  H   UNL     1       4.822  -2.619  35.666  1.00  0.00     0.211 HD
ENDBRANCH   1  16
TORSDOF 10
ENDMDL
MODEL 8
REMARK VINA RESULT:    -3.181      1.574      4.406
REMARK INTER + INTRA:          -5.667
REMARK INTER:                  -4.186
REMARK INTRA:                  -1.481
REMARK UNBOUND:                -1.091
REMARK SMILES O=C(CO)[C@@H](O)[C@H](O)[C@H](O)CO
REMARK SMILES IDX 7 1 9 2 11 3 12 4 10 6 5 8 2 9 1 10 3 11 4 12 6 14 8 16
REMARK H PARENT 12 5 10 7 4 13 6 15 8 17
REMARK Flexibility Score: inf
ROOT
ATOM      1  C   UNL     1       4.383  -4.955  33.462  1.00  0.00     0.181 C 
ENDROOT
BRANCH   1   2
ATOM      2  C   UNL     1       3.331  -5.619  34.395  1.00  0.00     0.171 C 
BRANCH   2   3
ATOM      3  C   UNL     1       1.898  -5.434  33.857  1.00  0.00     0.190 C 
BRANCH   3   4
ATOM      4  O   UNL     1       1.559  -4.077  33.760  1.00  0.00    -0.394 OA
ATOM      5  H   UNL     1       0.646  -4.038  33.373  1.00  0.00     0.210 HD
ENDBRANCH   3   4
ENDBRANCH   2   3
BRANCH   2   6
ATOM      6  O   UNL     1       3.594  -6.994  34.497  1.00  0.00    -0.388 OA
ATOM      7  H   UNL     1       4.108  -7.130  35.336  1.00  0.00     0.211 HD
ENDBRANCH   2   6
ENDBRANCH   1   2
BRANCH   1   8
ATOM      8  C   UNL     1       4.942  -3.587  33.951  1.00  0.00     0.214 C 
BRANCH   8   9
ATOM      9  C   UNL     1       5.168  -2.583  32.829  1.00  0.00     0.189 C 
ATOM     10  O   UNL     1       6.114  -2.719  32.066  1.00  0.00    -0.294 OA
BRANCH   9  11
ATOM     11  C   UNL     1       4.240  -1.418  32.631  1.00  0.00     0.234 C 
BRANCH  11  12
ATOM     12  O   UNL     1       2.924  -1.884  32.525  1.00  0.00    -0.388 OA
ATOM     13  H   UNL     1       2.841  -2.626  33.179  1.00  0.00     0.211 HD
ENDBRANCH  11  12
ENDBRANCH   9  11
ENDBRANCH   8   9
BRANCH   8  14
ATOM     14  O   UNL     1       4.159  -3.048  34.989  1.00  0.00    -0.382 OA
ATOM     15  H   UNL     1       3.710  -2.228  34.662  1.00  0.00     0.211 HD
ENDBRANCH   8  14
ENDBRANCH   1   8
BRANCH   1  16
ATOM     16  O   UNL     1       3.878  -4.816  32.156  1.00  0.00    -0.387 OA
ATOM     17  H   UNL     1       3.665  -3.857  32.016  1.00  0.00     0.211 HD
ENDBRANCH   1  16
TORSDOF 10
ENDMDL
MODEL 9
REMARK VINA RESULT:    -3.124      2.771      5.510
REMARK INTER + INTRA:          -5.585
REMARK INTER:                  -5.059
REMARK INTRA:                  -0.526
REMARK UNBOUND:                -1.091
REMARK SMILES O=C(CO)[C@@H](O)[C@H](O)[C@H](O)CO
REMARK SMILES IDX 7 1 9 2 11 3 12 4 10 6 5 8 2 9 1 10 3 11 4 12 6 14 8 16
REMARK H PARENT 12 5 10 7 4 13 6 15 8 17
REMARK Flexibility Score: inf
ROOT
ATOM      1  C   UNL     1       6.309  -0.648  32.418  1.00  0.00     0.181 C 
ENDROOT
BRANCH   1   2
ATOM      2  C   UNL     1       4.872  -1.165  32.118  1.00  0.00     0.171 C 
BRANCH   2   3
ATOM      3  C   UNL     1       4.328  -2.030  33.273  1.00  0.00     0.190 C 
BRANCH   3   4
ATOM      4  O   UNL     1       3.110  -2.634  32.928  1.00  0.00    -0.394 OA
ATOM      5  H   UNL     1       2.669  -2.032  32.274  1.00  0.00     0.210 HD
ENDBRANCH   3   4
ENDBRANCH   2   3
BRANCH   2   6
ATOM      6  O   UNL     1       4.008  -0.073  31.936  1.00  0.00    -0.388 OA
ATOM      7  H   UNL     1       3.478   0.019  32.770  1.00  0.00     0.211 HD
ENDBRANCH   2   6
ENDBRANCH   1   2
BRANCH   1   8
ATOM      8  C   UNL     1       6.549   0.863  32.131  1.00  0.00     0.214 C 
BRANCH   8   9
ATOM      9  C   UNL     1       7.779   1.429  32.825  1.00  0.00     0.189 C 
ATOM     10  O   UNL     1       8.660   0.677  33.219  1.00  0.00    -0.294 OA
BRANCH   9  11
ATOM     11  C   UNL     1       7.942   2.907  33.036  1.00  0.00     0.234 C 
BRANCH  11  12
ATOM     12  O   UNL     1       8.174   3.160  34.393  1.00  0.00    -0.388 OA
ATOM     13  H   UNL     1       9.149   3.043  34.533  1.00  0.00     0.211 HD
ENDBRANCH  11  12
ENDBRANCH   9  11
ENDBRANCH   8   9
BRANCH   8  14
ATOM     14  O   UNL     1       6.553   1.133  30.749  1.00  0.00    -0.382 OA
ATOM     15  H   UNL     1       6.872   2.059  30.603  1.00  0.00     0.211 HD
ENDBRANCH   8  14
ENDBRANCH   1   8
BRANCH   1  16
ATOM     16  O   UNL     1       7.270  -1.415  31.735  1.00  0.00    -0.387 OA
ATOM     17  H   UNL     1       7.402  -1.005  30.840  1.00  0.00     0.211 HD
ENDBRANCH   1  16
TORSDOF 10
ENDMDL
