MODEL 1
REMARK VINA RESULT:    -2.819      0.000      0.000
REMARK INTER + INTRA:          -3.654
REMARK INTER:                  -3.396
REMARK INTRA:                  -0.258
REMARK UNBOUND:                -0.258
REMARK SMILES C=CCc1ccc(O)c(OC)c1
REMARK SMILES IDX 9 1 7 2 6 3 5 4 4 5 12 6 10 7 11 8 8 9 3 11 2 12 1 13
REMARK H PARENT 8 10
REMARK Flexibility Score: inf
ROOT
ATOM      1  C   UNL     1     144.018 145.681 138.834  1.00  0.00     0.160 A 
ATOM      2  C   UNL     1     145.085 145.199 139.615  1.00  0.00     0.157 A 
ATOM      3  C   UNL     1     145.005 143.934 140.207  1.00  0.00     0.050 A 
ATOM      4  C   UNL     1     143.869 143.142 140.031  1.00  0.00     0.008 A 
ATOM      5  C   UNL     1     142.793 143.610 139.265  1.00  0.00    -0.040 A 
ATOM      6  C   UNL     1     142.873 144.876 138.662  1.00  0.00     0.054 A 
ENDROOT
BRANCH   1   7
ATOM      7  O   UNL     1     144.128 146.952 138.248  1.00  0.00    -0.493 OA
ATOM      8  C   UNL     1     143.201 148.015 138.444  1.00  0.00     0.278 C 
ENDBRANCH   1   7
BRANCH   2   9
ATOM      9  O   UNL     1     146.235 145.962 139.813  1.00  0.00    -0.504 OA
ATOM     10  H   UNL     1     147.107 145.553 140.128  1.00  0.00     0.293 HD
ENDBRANCH   2   9
BRANCH   5  11
ATOM     11  C   UNL     1     141.582 142.740 139.053  1.00  0.00     0.062 C 
BRANCH  11  12
ATOM     12  C   UNL     1     141.592 142.141 137.674  1.00  0.00    -0.030 C 
ATOM     13  C   UNL     1     142.234 141.000 137.408  1.00  0.00     0.004 C 
ENDBRANCH  11  12
ENDBRANCH   5  11
TORSDOF 4
ENDMDL
MODEL 2
REMARK VINA RESULT:    -2.754      1.619      3.053
REMARK INTER + INTRA:          -3.576
REMARK INTER:                  -3.354
REMARK INTRA:                  -0.222
REMARK UNBOUND:                -0.258
REMARK SMILES C=CCc1ccc(O)c(OC)c1
REMARK SMILES IDX 9 1 7 2 6 3 5 4 4 5 12 6 10 7 11 8 8 9 3 11 2 12 1 13
REMARK H PARENT 8 10
REMARK Flexibility Score: inf
ROOT
ATOM      1  C   UNL     1     144.294 144.282 139.758  1.00  0.00     0.160 A 
ATOM      2  C   UNL     1     144.890 145.503 139.393  1.00  0.00     0.157 A 
ATOM      3  C   UNL     1     144.189 146.416 138.599  1.00  0.00     0.050 A 
ATOM      4  C   UNL     1     142.895 146.124 138.161  1.00  0.00     0.008 A 
ATOM      5  C   UNL     1     142.290 144.908 138.507  1.00  0.00    -0.040 A 
ATOM      6  C   UNL     1     142.989 143.993 139.312  1.00  0.00     0.054 A 
ENDROOT
BRANCH   1   7
ATOM      7  O   UNL     1     145.020 143.388 140.561  1.00  0.00    -0.493 OA
ATOM      8  C   UNL     1     144.849 141.974 140.553  1.00  0.00     0.278 C 
ENDBRANCH   1   7
BRANCH   2   9
ATOM      9  O   UNL     1     146.180 145.830 139.811  1.00  0.00    -0.504 OA
ATOM     10  H   UNL     1     146.354 146.451 140.592  1.00  0.00     0.293 HD
ENDBRANCH   2   9
BRANCH   5  11
ATOM     11  C   UNL     1     140.884 144.610 138.058  1.00  0.00     0.062 C 
BRANCH  11  12
ATOM     12  C   UNL     1     140.851 144.290 136.590  1.00  0.00    -0.030 C 
ATOM     13  C   UNL     1     140.608 143.053 136.146  1.00  0.00     0.004 C 
ENDBRANCH  11  12
ENDBRANCH   5  11
TORSDOF 4
ENDMDL
MODEL 3
REMARK VINA RESULT:    -2.707     10.460     11.644
REMARK INTER + INTRA:          -3.519
REMARK INTER:                  -3.305
REMARK INTRA:                  -0.215
REMARK UNBOUND:                -0.258
REMARK SMILES C=CCc1ccc(O)c(OC)c1
REMARK SMILES IDX 9 1 7 2 6 3 5 4 4 5 12 6 10 7 11 8 8 9 3 11 2 12 1 13
REMARK H PARENT 8 10
REMARK Flexibility Score: inf
ROOT
ATOM      1  C   UNL     1     131.437 145.959 138.247  1.00  0.00     0.160 A 
ATOM      2  C   UNL     1     132.261 146.618 139.178  1.00  0.00     0.157 A 
ATOM      3  C   UNL     1     133.395 145.977 139.687  1.00  0.00     0.050 A 
ATOM      4  C   UNL     1     133.718 144.682 139.278  1.00  0.00     0.008 A 
ATOM      5  C   UNL     1     132.903 144.006 138.359  1.00  0.00    -0.040 A 
ATOM      6  C   UNL     1     131.768 144.651 137.839  1.00  0.00     0.054 A 
ENDROOT
BRANCH   1   7
ATOM      7  O   UNL     1     130.308 146.629 137.749  1.00  0.00    -0.493 OA
ATOM      8  C   UNL     1     128.961 146.260 138.029  1.00  0.00     0.278 C 
ENDBRANCH   1   7
BRANCH   2   9
ATOM      9  O   UNL     1     131.970 147.912 139.609  1.00  0.00    -0.504 OA
ATOM     10  H   UNL     1     131.584 148.614 138.989  1.00  0.00     0.293 HD
ENDBRANCH   2   9
BRANCH   5  11
ATOM     11  C   UNL     1     133.272 142.621 137.898  1.00  0.00     0.062 C 
BRANCH  11  12
ATOM     12  C   UNL     1     132.776 142.376 136.501  1.00  0.00    -0.030 C 
ATOM     13  C   UNL     1     133.570 141.873 135.551  1.00  0.00     0.004 C 
ENDBRANCH  11  12
ENDBRANCH   5  11
TORSDOF 4
ENDMDL
MODEL 4
REMARK VINA RESULT:    -2.705      9.429     10.853
REMARK INTER + INTRA:          -3.517
REMARK INTER:                  -3.280
REMARK INTRA:                  -0.237
REMARK UNBOUND:                -0.258
REMARK SMILES C=CCc1ccc(O)c(OC)c1
REMARK SMILES IDX 9 1 7 2 6 3 5 4 4 5 12 6 10 7 11 8 8 9 3 11 2 12 1 13
REMARK H PARENT 8 10
REMARK Flexibility Score: inf
ROOT
ATOM      1  C   UNL     1     133.549 145.837 139.870  1.00  0.00     0.160 A 
ATOM      2  C   UNL     1     132.636 146.800 139.404  1.00  0.00     0.157 A 
ATOM      3  C   UNL     1     131.638 146.438 138.493  1.00  0.00     0.050 A 
ATOM      4  C   UNL     1     131.541 145.122 138.038  1.00  0.00     0.008 A 
ATOM      5  C   UNL     1     132.449 144.151 138.483  1.00  0.00    -0.040 A 
ATOM      6  C   UNL     1     133.447 144.510 139.405  1.00  0.00     0.054 A 
ENDROOT
BRANCH   1   7
ATOM      7  O   UNL     1     134.536 146.228 140.788  1.00  0.00    -0.493 OA
ATOM      8  C   UNL     1     135.938 146.110 140.566  1.00  0.00     0.278 C 
ENDBRANCH   1   7
BRANCH   2   9
ATOM      9  O   UNL     1     132.701 148.125 139.836  1.00  0.00    -0.504 OA
ATOM     10  H   UNL     1     132.557 148.906 139.207  1.00  0.00     0.293 HD
ENDBRANCH   2   9
BRANCH   5  11
ATOM     11  C   UNL     1     132.322 142.726 138.013  1.00  0.00     0.062 C 
BRANCH  11  12
ATOM     12  C   UNL     1     132.439 142.647 136.517  1.00  0.00    -0.030 C 
ATOM     13  C   UNL     1     133.469 142.037 135.923  1.00  0.00     0.004 C 
ENDBRANCH  11  12
ENDBRANCH   5  11
TORSDOF 4
ENDMDL
MODEL 5
REMARK VINA RESULT:    -2.689      8.901     11.038
REMARK INTER + INTRA:          -3.498
REMARK INTER:                  -3.291
REMARK INTRA:                  -0.206
REMARK UNBOUND:                -0.258
REMARK SMILES C=CCc1ccc(O)c(OC)c1
REMARK SMILES IDX 9 1 7 2 6 3 5 4 4 5 12 6 10 7 11 8 8 9 3 11 2 12 1 13
REMARK H PARENT 8 10
REMARK Flexibility Score: inf
ROOT
ATOM      1  C   UNL     1     145.783 133.359 140.102  1.00  0.00     0.160 A 
ATOM      2  C   UNL     1     147.139 133.257 139.740  1.00  0.00     0.157 A 
ATOM      3  C   UNL     1     147.712 134.210 138.892  1.00  0.00     0.050 A 
ATOM      4  C   UNL     1     146.945 135.266 138.395  1.00  0.00     0.008 A 
ATOM      5  C   UNL     1     145.590 135.377 138.736  1.00  0.00    -0.040 A 
ATOM      6  C   UNL     1     145.014 134.427 139.596  1.00  0.00     0.054 A 
ENDROOT
BRANCH   1   7
ATOM      7  O   UNL     1     145.236 132.391 140.960  1.00  0.00    -0.493 OA
ATOM      8  C   UNL     1     143.959 131.784 140.784  1.00  0.00     0.278 C 
ENDBRANCH   1   7
BRANCH   2   9
ATOM      9  O   UNL     1     147.935 132.216 140.216  1.00  0.00    -0.504 OA
ATOM     10  H   UNL     1     147.957 131.956 141.195  1.00  0.00     0.293 HD
ENDBRANCH   2   9
BRANCH   5  11
ATOM     11  C   UNL     1     144.775 136.535 138.223  1.00  0.00     0.062 C 
BRANCH  11  12
ATOM     12  C   UNL     1     145.038 136.764 136.762  1.00  0.00    -0.030 C 
ATOM     13  C   UNL     1     144.738 137.922 136.167  1.00  0.00     0.004 C 
ENDBRANCH  11  12
ENDBRANCH   5  11
TORSDOF 4
ENDMDL
MODEL 6
REMARK VINA RESULT:    -2.595      4.401      6.642
REMARK INTER + INTRA:          -3.384
REMARK INTER:                  -3.170
REMARK INTRA:                  -0.214
REMARK UNBOUND:                -0.258
REMARK SMILES C=CCc1ccc(O)c(OC)c1
REMARK SMILES IDX 9 1 7 2 6 3 5 4 4 5 12 6 10 7 11 8 8 9 3 11 2 12 1 13
REMARK H PARENT 8 10
REMARK Flexibility Score: inf
ROOT
ATOM      1  C   UNL     1     144.385 138.678 137.386  1.00  0.00     0.160 A 
ATOM      2  C   UNL     1     144.512 138.315 136.032  1.00  0.00     0.157 A 
ATOM      3  C   UNL     1     143.708 138.925 135.064  1.00  0.00     0.050 A 
ATOM      4  C   UNL     1     142.773 139.895 135.432  1.00  0.00     0.008 A 
ATOM      5  C   UNL     1     142.626 140.262 136.776  1.00  0.00    -0.040 A 
ATOM      6  C   UNL     1     143.439 139.657 137.750  1.00  0.00     0.054 A 
ENDROOT
BRANCH   1   7
ATOM      7  O   UNL     1     145.210 138.053 138.334  1.00  0.00    -0.493 OA
ATOM      8  C   UNL     1     146.445 138.584 138.806  1.00  0.00     0.278 C 
ENDBRANCH   1   7
BRANCH   2   9
ATOM      9  O   UNL     1     145.435 137.351 135.627  1.00  0.00    -0.504 OA
ATOM     10  H   UNL     1     145.274 136.360 135.760  1.00  0.00     0.293 HD
ENDBRANCH   2   9
BRANCH   5  11
ATOM     11  C   UNL     1     141.638 141.329 137.164  1.00  0.00     0.062 C 
BRANCH  11  12
ATOM     12  C   UNL     1     142.161 142.148 138.311  1.00  0.00    -0.030 C 
ATOM     13  C   UNL     1     142.116 143.483 138.301  1.00  0.00     0.004 C 
ENDBRANCH  11  12
ENDBRANCH   5  11
TORSDOF 4
ENDMDL
MODEL 7
REMARK VINA RESULT:    -2.565     14.889     16.125
REMARK INTER + INTRA:          -3.349
REMARK INTER:                  -3.097
REMARK INTRA:                  -0.252
REMARK UNBOUND:                -0.258
REMARK SMILES C=CCc1ccc(O)c(OC)c1
REMARK SMILES IDX 9 1 7 2 6 3 5 4 4 5 12 6 10 7 11 8 8 9 3 11 2 12 1 13
REMARK H PARENT 8 10
REMARK Flexibility Score: inf
ROOT
ATOM      1  C   UNL     1     132.369 132.832 137.769  1.00  0.00     0.160 A 
ATOM      2  C   UNL     1     132.503 133.053 136.386  1.00  0.00     0.157 A 
ATOM      3  C   UNL     1     133.773 133.104 135.803  1.00  0.00     0.050 A 
ATOM      4  C   UNL     1     134.917 132.937 136.587  1.00  0.00     0.008 A 
ATOM      5  C   UNL     1     134.803 132.726 137.968  1.00  0.00    -0.040 A 
ATOM      6  C   UNL     1     133.528 132.666 138.554  1.00  0.00     0.054 A 
ENDROOT
BRANCH   1   7
ATOM      7  O   UNL     1     131.081 132.781 138.325  1.00  0.00    -0.493 OA
ATOM      8  C   UNL     1     130.409 131.581 138.699  1.00  0.00     0.278 C 
ENDBRANCH   1   7
BRANCH   2   9
ATOM      9  O   UNL     1     131.383 133.224 135.572  1.00  0.00    -0.504 OA
ATOM     10  H   UNL     1     131.099 132.529 134.892  1.00  0.00     0.293 HD
ENDBRANCH   2   9
BRANCH   5  11
ATOM     11  C   UNL     1     136.037 132.517 138.804  1.00  0.00     0.062 C 
BRANCH  11  12
ATOM     12  C   UNL     1     136.880 131.407 138.240  1.00  0.00    -0.030 C 
ATOM     13  C   UNL     1     137.075 130.265 138.905  1.00  0.00     0.004 C 
ENDBRANCH  11  12
ENDBRANCH   5  11
TORSDOF 4
ENDMDL
MODEL 8
REMARK VINA RESULT:    -2.541     10.630     13.015
REMARK INTER + INTRA:          -3.320
REMARK INTER:                  -3.101
REMARK INTRA:                  -0.219
REMARK UNBOUND:                -0.258
REMARK SMILES C=CCc1ccc(O)c(OC)c1
REMARK SMILES IDX 9 1 7 2 6 3 5 4 4 5 12 6 10 7 11 8 8 9 3 11 2 12 1 13
REMARK H PARENT 8 10
REMARK Flexibility Score: inf
ROOT
ATOM      1  C   UNL     1     140.712 131.748 137.507  1.00  0.00     0.160 A 
ATOM      2  C   UNL     1     140.324 131.493 136.178  1.00  0.00     0.157 A 
ATOM      3  C   UNL     1     140.583 132.436 135.178  1.00  0.00     0.050 A 
ATOM      4  C   UNL     1     141.224 133.636 135.489  1.00  0.00     0.008 A 
ATOM      5  C   UNL     1     141.608 133.912 136.809  1.00  0.00    -0.040 A 
ATOM      6  C   UNL     1     141.358 132.963 137.813  1.00  0.00     0.054 A 
ENDROOT
BRANCH   1   7
ATOM      7  O   UNL     1     140.444 130.781 138.488  1.00  0.00    -0.493 OA
ATOM      8  C   UNL     1     141.424 129.924 139.067  1.00  0.00     0.278 C 
ENDBRANCH   1   7
BRANCH   2   9
ATOM      9  O   UNL     1     139.682 130.304 135.831  1.00  0.00    -0.504 OA
ATOM     10  H   UNL     1     139.075 129.810 136.474  1.00  0.00     0.293 HD
ENDBRANCH   2   9
BRANCH   5  11
ATOM     11  C   UNL     1     142.327 135.195 137.133  1.00  0.00     0.062 C 
BRANCH  11  12
ATOM     12  C   UNL     1     143.146 135.044 138.384  1.00  0.00    -0.030 C 
ATOM     13  C   UNL     1     144.442 135.370 138.419  1.00  0.00     0.004 C 
ENDBRANCH  11  12
ENDBRANCH   5  11
TORSDOF 4
ENDMDL
MODEL 9
REMARK VINA RESULT:    -2.522      4.975      6.644
REMARK INTER + INTRA:          -3.296
REMARK INTER:                  -3.081
REMARK INTRA:                  -0.216
REMARK UNBOUND:                -0.258
REMARK SMILES C=CCc1ccc(O)c(OC)c1
REMARK SMILES IDX 9 1 7 2 6 3 5 4 4 5 12 6 10 7 11 8 8 9 3 11 2 12 1 13
REMARK H PARENT 8 10
REMARK Flexibility Score: inf
ROOT
ATOM      1  C   UNL     1     139.001 144.340 137.434  1.00  0.00     0.160 A 
ATOM      2  C   UNL     1     139.439 144.331 136.097  1.00  0.00     0.157 A 
ATOM      3  C   UNL     1     138.634 143.772 135.099  1.00  0.00     0.050 A 
ATOM      4  C   UNL     1     137.394 143.217 135.420  1.00  0.00     0.008 A 
ATOM      5  C   UNL     1     136.946 143.207 136.748  1.00  0.00    -0.040 A 
ATOM      6  C   UNL     1     137.749 143.776 137.751  1.00  0.00     0.054 A 
ENDROOT
BRANCH   1   7
ATOM      7  O   UNL     1     139.828 144.913 138.413  1.00  0.00    -0.493 OA
ATOM      8  C   UNL     1     140.728 144.181 139.240  1.00  0.00     0.278 C 
ENDBRANCH   1   7
BRANCH   2   9
ATOM      9  O   UNL     1     140.672 144.876 135.738  1.00  0.00    -0.504 OA
ATOM     10  H   UNL     1     141.548 144.416 135.951  1.00  0.00     0.293 HD
ENDBRANCH   2   9
BRANCH   5  11
ATOM     11  C   UNL     1     135.595 142.635 137.086  1.00  0.00     0.062 C 
BRANCH  11  12
ATOM     12  C   UNL     1     135.043 143.272 138.330  1.00  0.00    -0.030 C 
ATOM     13  C   UNL     1     133.773 143.679 138.406  1.00  0.00     0.004 C 
ENDBRANCH  11  12
ENDBRANCH   5  11
TORSDOF 4
ENDMDL
