MODEL 1
REMARK VINA RESULT:    -5.656      0.000      0.000
REMARK INTER + INTRA:          -6.190
REMARK INTER:                  -5.986
REMARK INTRA:                  -0.204
REMARK UNBOUND:                -0.204
REMARK SMILES C=C(C)[C@@H]1CC=C(C)C(=O)C1
REMARK SMILES IDX 8 1 7 2 6 3 5 4 4 5 11 6 9 7 10 8 2 9 1 10 3 11
REMARK H PARENT
REMARK Flexibility Score: inf
ROOT
ATOM      1  C   UNL     1     -12.807 -20.282  31.534  1.00  0.00     0.048 C 
ATOM      2  C   UNL     1     -13.163 -19.115  30.652  1.00  0.00    -0.012 C 
ATOM      3  C   UNL     1     -12.999 -17.864  31.108  1.00  0.00    -0.019 C 
ATOM      4  C   UNL     1     -13.365 -16.652  30.293  1.00  0.00     0.036 C 
ATOM      5  C   UNL     1     -13.245 -16.874  28.770  1.00  0.00     0.025 C 
ATOM      6  C   UNL     1     -13.893 -18.203  28.332  1.00  0.00     0.089 C 
ATOM      7  C   UNL     1     -13.545 -19.350  29.240  1.00  0.00     0.158 C 
ATOM      8  O   UNL     1     -13.619 -20.526  28.793  1.00  0.00    -0.295 OA
ENDROOT
BRANCH   5   9
ATOM      9  C   UNL     1     -11.813 -16.707  28.257  1.00  0.00    -0.077 C 
ATOM     10  C   UNL     1     -10.888 -15.998  28.926  1.00  0.00     0.008 C 
ATOM     11  C   UNL     1     -11.404 -17.353  26.956  1.00  0.00     0.039 C 
ENDBRANCH   5   9
TORSDOF 1
ENDMDL
MODEL 2
REMARK VINA RESULT:    -5.655      1.896      3.883
REMARK INTER + INTRA:          -6.190
REMARK INTER:                  -5.980
REMARK INTRA:                  -0.209
REMARK UNBOUND:                -0.204
REMARK SMILES C=C(C)[C@@H]1CC=C(C)C(=O)C1
REMARK SMILES IDX 8 1 7 2 6 3 5 4 4 5 11 6 9 7 10 8 2 9 1 10 3 11
REMARK H PARENT
REMARK Flexibility Score: inf
ROOT
ATOM      1  C   UNL     1     -14.033 -14.571  28.629  1.00  0.00     0.048 C 
ATOM      2  C   UNL     1     -13.168 -15.791  28.798  1.00  0.00    -0.012 C 
ATOM      3  C   UNL     1     -12.655 -16.079  30.003  1.00  0.00    -0.019 C 
ATOM      4  C   UNL     1     -11.756 -17.264  30.236  1.00  0.00     0.036 C 
ATOM      5  C   UNL     1     -12.031 -18.445  29.282  1.00  0.00     0.025 C 
ATOM      6  C   UNL     1     -12.166 -17.978  27.817  1.00  0.00     0.089 C 
ATOM      7  C   UNL     1     -13.013 -16.744  27.674  1.00  0.00     0.158 C 
ATOM      8  O   UNL     1     -13.565 -16.509  26.566  1.00  0.00    -0.295 OA
ENDROOT
BRANCH   5   9
ATOM      9  C   UNL     1     -13.197 -19.322  29.741  1.00  0.00    -0.077 C 
ATOM     10  C   UNL     1     -14.046 -19.901  28.874  1.00  0.00     0.008 C 
ATOM     11  C   UNL     1     -13.421 -19.558  31.214  1.00  0.00     0.039 C 
ENDBRANCH   5   9
TORSDOF 1
ENDMDL
MODEL 3
REMARK VINA RESULT:    -5.626      1.762      3.611
REMARK INTER + INTRA:          -6.159
REMARK INTER:                  -5.976
REMARK INTRA:                  -0.184
REMARK UNBOUND:                -0.204
REMARK SMILES C=C(C)[C@@H]1CC=C(C)C(=O)C1
REMARK SMILES IDX 8 1 7 2 6 3 5 4 4 5 11 6 9 7 10 8 2 9 1 10 3 11
REMARK H PARENT
REMARK Flexibility Score: inf
ROOT
ATOM      1  C   UNL     1     -13.844 -19.965  28.986  1.00  0.00     0.048 C 
ATOM      2  C   UNL     1     -13.253 -18.846  29.800  1.00  0.00    -0.012 C 
ATOM      3  C   UNL     1     -13.253 -17.597  29.311  1.00  0.00    -0.019 C 
ATOM      4  C   UNL     1     -12.650 -16.437  30.057  1.00  0.00     0.036 C 
ATOM      5  C   UNL     1     -12.698 -16.597  31.591  1.00  0.00     0.025 C 
ATOM      6  C   UNL     1     -12.234 -18.000  32.035  1.00  0.00     0.089 C 
ATOM      7  C   UNL     1     -12.816 -19.101  31.192  1.00  0.00     0.158 C 
ATOM      8  O   UNL     1     -12.894 -20.263  31.676  1.00  0.00    -0.295 OA
ENDROOT
BRANCH   5   9
ATOM      9  C   UNL     1     -14.048 -16.196  32.188  1.00  0.00    -0.077 C 
ATOM     10  C   UNL     1     -14.641 -16.905  33.166  1.00  0.00     0.008 C 
ATOM     11  C   UNL     1     -14.757 -14.966  31.679  1.00  0.00     0.039 C 
ENDBRANCH   5   9
TORSDOF 1
ENDMDL
MODEL 4
REMARK VINA RESULT:    -5.447      1.557      3.765
REMARK INTER + INTRA:          -5.969
REMARK INTER:                  -6.007
REMARK INTRA:                   0.037
REMARK UNBOUND:                -0.204
REMARK SMILES C=C(C)[C@@H]1CC=C(C)C(=O)C1
REMARK SMILES IDX 8 1 7 2 6 3 5 4 4 5 11 6 9 7 10 8 2 9 1 10 3 11
REMARK H PARENT
REMARK Flexibility Score: inf
ROOT
ATOM      1  C   UNL     1     -13.938 -16.498  26.904  1.00  0.00     0.048 C 
ATOM      2  C   UNL     1     -13.291 -16.744  28.240  1.00  0.00    -0.012 C 
ATOM      3  C   UNL     1     -12.633 -15.749  28.854  1.00  0.00    -0.019 C 
ATOM      4  C   UNL     1     -11.937 -15.934  30.175  1.00  0.00     0.036 C 
ATOM      5  C   UNL     1     -12.584 -17.012  31.069  1.00  0.00     0.025 C 
ATOM      6  C   UNL     1     -12.890 -18.302  30.280  1.00  0.00     0.089 C 
ATOM      7  C   UNL     1     -13.512 -18.033  28.938  1.00  0.00     0.158 C 
ATOM      8  O   UNL     1     -14.200 -18.937  28.392  1.00  0.00    -0.295 OA
ENDROOT
BRANCH   5   9
ATOM      9  C   UNL     1     -13.790 -16.489  31.852  1.00  0.00    -0.077 C 
ATOM     10  C   UNL     1     -14.309 -17.152  32.900  1.00  0.00     0.008 C 
ATOM     11  C   UNL     1     -14.434 -15.184  31.452  1.00  0.00     0.039 C 
ENDBRANCH   5   9
TORSDOF 1
ENDMDL
MODEL 5
REMARK VINA RESULT:    -5.412      1.902      2.689
REMARK INTER + INTRA:          -5.933
REMARK INTER:                  -5.791
REMARK INTRA:                  -0.142
REMARK UNBOUND:                -0.204
REMARK SMILES C=C(C)[C@@H]1CC=C(C)C(=O)C1
REMARK SMILES IDX 8 1 7 2 6 3 5 4 4 5 11 6 9 7 10 8 2 9 1 10 3 11
REMARK H PARENT
REMARK Flexibility Score: inf
ROOT
ATOM      1  C   UNL     1     -13.198 -19.026  31.601  1.00  0.00     0.048 C 
ATOM      2  C   UNL     1     -12.439 -18.064  30.728  1.00  0.00    -0.012 C 
ATOM      3  C   UNL     1     -11.353 -18.487  30.062  1.00  0.00    -0.019 C 
ATOM      4  C   UNL     1     -10.529 -17.571  29.197  1.00  0.00     0.036 C 
ATOM      5  C   UNL     1     -11.339 -16.416  28.573  1.00  0.00     0.025 C 
ATOM      6  C   UNL     1     -12.247 -15.727  29.611  1.00  0.00     0.089 C 
ATOM      7  C   UNL     1     -12.977 -16.705  30.490  1.00  0.00     0.158 C 
ATOM      8  O   UNL     1     -14.042 -16.339  31.055  1.00  0.00    -0.295 OA
ENDROOT
BRANCH   5   9
ATOM      9  C   UNL     1     -12.087 -16.833  27.305  1.00  0.00    -0.077 C 
ATOM     10  C   UNL     1     -11.483 -17.485  26.296  1.00  0.00     0.008 C 
ATOM     11  C   UNL     1     -13.553 -16.512  27.161  1.00  0.00     0.039 C 
ENDBRANCH   5   9
TORSDOF 1
ENDMDL
MODEL 6
REMARK VINA RESULT:    -5.406      1.978      2.609
REMARK INTER + INTRA:          -5.926
REMARK INTER:                  -5.733
REMARK INTRA:                  -0.193
REMARK UNBOUND:                -0.204
REMARK SMILES C=C(C)[C@@H]1CC=C(C)C(=O)C1
REMARK SMILES IDX 8 1 7 2 6 3 5 4 4 5 11 6 9 7 10 8 2 9 1 10 3 11
REMARK H PARENT
REMARK Flexibility Score: inf
ROOT
ATOM      1  C   UNL     1     -12.840 -20.248  31.610  1.00  0.00     0.048 C 
ATOM      2  C   UNL     1     -12.214 -18.919  31.286  1.00  0.00    -0.012 C 
ATOM      3  C   UNL     1     -11.139 -18.868  30.485  1.00  0.00    -0.019 C 
ATOM      4  C   UNL     1     -10.444 -17.577  30.146  1.00  0.00     0.036 C 
ATOM      5  C   UNL     1     -11.381 -16.351  30.153  1.00  0.00     0.025 C 
ATOM      6  C   UNL     1     -12.280 -16.325  31.406  1.00  0.00     0.089 C 
ATOM      7  C   UNL     1     -12.874 -17.668  31.727  1.00  0.00     0.158 C 
ATOM      8  O   UNL     1     -13.931 -17.719  32.412  1.00  0.00    -0.295 OA
ENDROOT
BRANCH   5   9
ATOM      9  C   UNL     1     -12.165 -16.195  28.849  1.00  0.00    -0.077 C 
ATOM     10  C   UNL     1     -13.271 -15.434  28.762  1.00  0.00     0.008 C 
ATOM     11  C   UNL     1     -11.701 -16.911  27.605  1.00  0.00     0.039 C 
ENDBRANCH   5   9
TORSDOF 1
ENDMDL
MODEL 7
REMARK VINA RESULT:    -5.383      2.045      3.776
REMARK INTER + INTRA:          -5.901
REMARK INTER:                  -5.694
REMARK INTRA:                  -0.208
REMARK UNBOUND:                -0.204
REMARK SMILES C=C(C)[C@@H]1CC=C(C)C(=O)C1
REMARK SMILES IDX 8 1 7 2 6 3 5 4 4 5 11 6 9 7 10 8 2 9 1 10 3 11
REMARK H PARENT
REMARK Flexibility Score: inf
ROOT
ATOM      1  C   UNL     1     -14.772 -15.022  31.651  1.00  0.00     0.048 C 
ATOM      2  C   UNL     1     -13.615 -15.941  31.367  1.00  0.00    -0.012 C 
ATOM      3  C   UNL     1     -13.134 -16.726  32.342  1.00  0.00    -0.019 C 
ATOM      4  C   UNL     1     -11.959 -17.644  32.136  1.00  0.00     0.036 C 
ATOM      5  C   UNL     1     -11.817 -18.149  30.685  1.00  0.00     0.025 C 
ATOM      6  C   UNL     1     -11.967 -17.003  29.662  1.00  0.00     0.089 C 
ATOM      7  C   UNL     1     -13.113 -16.083  29.980  1.00  0.00     0.158 C 
ATOM      8  O   UNL     1     -13.623 -15.402  29.050  1.00  0.00    -0.295 OA
ENDROOT
BRANCH   5   9
ATOM      9  C   UNL     1     -12.721 -19.345  30.381  1.00  0.00    -0.077 C 
ATOM     10  C   UNL     1     -12.969 -20.307  31.287  1.00  0.00     0.008 C 
ATOM     11  C   UNL     1     -13.368 -19.469  29.024  1.00  0.00     0.039 C 
ENDBRANCH   5   9
TORSDOF 1
ENDMDL
MODEL 8
REMARK VINA RESULT:    -5.253      2.250      3.557
REMARK INTER + INTRA:          -5.764
REMARK INTER:                  -5.646
REMARK INTRA:                  -0.118
REMARK UNBOUND:                -0.204
REMARK SMILES C=C(C)[C@@H]1CC=C(C)C(=O)C1
REMARK SMILES IDX 8 1 7 2 6 3 5 4 4 5 11 6 9 7 10 8 2 9 1 10 3 11
REMARK H PARENT
REMARK Flexibility Score: inf
ROOT
ATOM      1  C   UNL     1     -13.421 -16.114  32.855  1.00  0.00     0.048 C 
ATOM      2  C   UNL     1     -12.916 -17.320  32.109  1.00  0.00    -0.012 C 
ATOM      3  C   UNL     1     -13.579 -18.482  32.198  1.00  0.00    -0.019 C 
ATOM      4  C   UNL     1     -13.113 -19.734  31.505  1.00  0.00     0.036 C 
ATOM      5  C   UNL     1     -12.327 -19.464  30.205  1.00  0.00     0.025 C 
ATOM      6  C   UNL     1     -11.264 -18.363  30.396  1.00  0.00     0.089 C 
ATOM      7  C   UNL     1     -11.782 -17.179  31.165  1.00  0.00     0.158 C 
ATOM      8  O   UNL     1     -11.212 -16.064  31.025  1.00  0.00    -0.295 OA
ENDROOT
BRANCH   5   9
ATOM      9  C   UNL     1     -13.238 -19.216  29.001  1.00  0.00    -0.077 C 
ATOM     10  C   UNL     1     -13.133 -18.114  28.236  1.00  0.00     0.008 C 
ATOM     11  C   UNL     1     -14.296 -20.228  28.640  1.00  0.00     0.039 C 
ENDBRANCH   5   9
TORSDOF 1
ENDMDL
MODEL 9
REMARK VINA RESULT:    -5.165      1.738      2.448
REMARK INTER + INTRA:          -5.671
REMARK INTER:                  -5.456
REMARK INTRA:                  -0.216
REMARK UNBOUND:                -0.204
REMARK SMILES C=C(C)[C@@H]1CC=C(C)C(=O)C1
REMARK SMILES IDX 8 1 7 2 6 3 5 4 4 5 11 6 9 7 10 8 2 9 1 10 3 11
REMARK H PARENT
REMARK Flexibility Score: inf
ROOT
ATOM      1  C   UNL     1     -14.309 -16.859  33.109  1.00  0.00     0.048 C 
ATOM      2  C   UNL     1     -13.796 -16.951  31.698  1.00  0.00    -0.012 C 
ATOM      3  C   UNL     1     -13.667 -15.836  30.963  1.00  0.00    -0.019 C 
ATOM      4  C   UNL     1     -13.191 -15.859  29.536  1.00  0.00     0.036 C 
ATOM      5  C   UNL     1     -12.234 -17.028  29.223  1.00  0.00     0.025 C 
ATOM      6  C   UNL     1     -12.762 -18.366  29.780  1.00  0.00     0.089 C 
ATOM      7  C   UNL     1     -13.294 -18.246  31.181  1.00  0.00     0.158 C 
ATOM      8  O   UNL     1     -13.342 -19.276  31.905  1.00  0.00    -0.295 OA
ENDROOT
BRANCH   5   9
ATOM      9  C   UNL     1     -10.788 -16.738  29.632  1.00  0.00    -0.077 C 
ATOM     10  C   UNL     1     -10.262 -15.502  29.581  1.00  0.00     0.008 C 
ATOM     11  C   UNL     1      -9.906 -17.863  30.112  1.00  0.00     0.039 C 
ENDBRANCH   5   9
TORSDOF 1
ENDMDL
