MODEL 1
REMARK VINA RESULT:    -4.510      0.000      0.000
REMARK INTER + INTRA:          -4.866
REMARK INTER:                  -4.774
REMARK INTRA:                  -0.092
REMARK UNBOUND:                -0.092
REMARK SMILES C=C(C)[C@H]1CC=C(C)C(=O)C1
REMARK SMILES IDX 8 1 7 2 6 3 5 4 4 5 11 6 9 7 10 8 2 9 1 10 3 11
REMARK H PARENT
REMARK Flexibility Score: inf
ROOT
ATOM      1  C   UNL     1      12.842 -12.880  11.876  1.00  0.00     0.048 C 
ATOM      2  C   UNL     1      13.920 -11.890  12.218  1.00  0.00    -0.012 C 
ATOM      3  C   UNL     1      15.205 -12.284  12.248  1.00  0.00    -0.019 C 
ATOM      4  C   UNL     1      16.322 -11.339  12.603  1.00  0.00     0.036 C 
ATOM      5  C   UNL     1      16.005  -9.906  12.134  1.00  0.00     0.025 C 
ATOM      6  C   UNL     1      14.650  -9.445  12.701  1.00  0.00     0.089 C 
ATOM      7  C   UNL     1      13.579 -10.456  12.397  1.00  0.00     0.158 C 
ATOM      8  O   UNL     1      12.378 -10.078  12.332  1.00  0.00    -0.295 OA
ENDROOT
BRANCH   5   9
ATOM      9  C   UNL     1      17.121  -8.939  12.505  1.00  0.00    -0.077 C 
ATOM     10  C   UNL     1      17.223  -7.756  11.877  1.00  0.00     0.008 C 
ATOM     11  C   UNL     1      18.131  -9.276  13.574  1.00  0.00     0.039 C 
ENDBRANCH   5   9
TORSDOF 1
ENDMDL
MODEL 2
REMARK VINA RESULT:    -4.462      1.634      2.521
REMARK INTER + INTRA:          -4.815
REMARK INTER:                  -4.728
REMARK INTRA:                  -0.087
REMARK UNBOUND:                -0.092
REMARK SMILES C=C(C)[C@H]1CC=C(C)C(=O)C1
REMARK SMILES IDX 8 1 7 2 6 3 5 4 4 5 11 6 9 7 10 8 2 9 1 10 3 11
REMARK H PARENT
REMARK Flexibility Score: inf
ROOT
ATOM      1  C   UNL     1      15.550 -11.908  11.966  1.00  0.00     0.048 C 
ATOM      2  C   UNL     1      16.077 -10.595  12.472  1.00  0.00    -0.012 C 
ATOM      3  C   UNL     1      17.373 -10.481  12.813  1.00  0.00    -0.019 C 
ATOM      4  C   UNL     1      17.949  -9.195  13.343  1.00  0.00     0.036 C 
ATOM      5  C   UNL     1      17.243  -7.974  12.722  1.00  0.00     0.025 C 
ATOM      6  C   UNL     1      15.723  -8.066  12.942  1.00  0.00     0.089 C 
ATOM      7  C   UNL     1      15.200  -9.397  12.476  1.00  0.00     0.158 C 
ATOM      8  O   UNL     1      13.994  -9.493  12.122  1.00  0.00    -0.295 OA
ENDROOT
BRANCH   5   9
ATOM      9  C   UNL     1      17.807  -6.668  13.266  1.00  0.00    -0.077 C 
ATOM     10  C   UNL     1      18.714  -5.979  12.556  1.00  0.00     0.008 C 
ATOM     11  C   UNL     1      17.367  -6.117  14.600  1.00  0.00     0.039 C 
ENDBRANCH   5   9
TORSDOF 1
ENDMDL
MODEL 3
REMARK VINA RESULT:    -4.396      1.557      2.377
REMARK INTER + INTRA:          -4.745
REMARK INTER:                  -4.650
REMARK INTRA:                  -0.095
REMARK UNBOUND:                -0.092
REMARK SMILES C=C(C)[C@H]1CC=C(C)C(=O)C1
REMARK SMILES IDX 8 1 7 2 6 3 5 4 4 5 11 6 9 7 10 8 2 9 1 10 3 11
REMARK H PARENT
REMARK Flexibility Score: inf
ROOT
ATOM      1  C   UNL     1      13.009 -12.884  12.854  1.00  0.00     0.048 C 
ATOM      2  C   UNL     1      13.982 -11.766  12.607  1.00  0.00    -0.012 C 
ATOM      3  C   UNL     1      13.552 -10.492  12.607  1.00  0.00    -0.019 C 
ATOM      4  C   UNL     1      14.480  -9.336  12.347  1.00  0.00     0.036 C 
ATOM      5  C   UNL     1      15.896  -9.632  12.878  1.00  0.00     0.025 C 
ATOM      6  C   UNL     1      16.426 -10.949  12.282  1.00  0.00     0.089 C 
ATOM      7  C   UNL     1      15.433 -12.060  12.490  1.00  0.00     0.158 C 
ATOM      8  O   UNL     1      15.843 -13.251  12.526  1.00  0.00    -0.295 OA
ENDROOT
BRANCH   5   9
ATOM      9  C   UNL     1      16.847  -8.475  12.603  1.00  0.00    -0.077 C 
ATOM     10  C   UNL     1      18.126  -8.543  13.009  1.00  0.00     0.008 C 
ATOM     11  C   UNL     1      16.388  -7.236  11.875  1.00  0.00     0.039 C 
ENDBRANCH   5   9
TORSDOF 1
ENDMDL
MODEL 4
REMARK VINA RESULT:    -4.339      1.382      4.325
REMARK INTER + INTRA:          -4.685
REMARK INTER:                  -4.590
REMARK INTRA:                  -0.094
REMARK UNBOUND:                -0.092
REMARK SMILES C=C(C)[C@H]1CC=C(C)C(=O)C1
REMARK SMILES IDX 8 1 7 2 6 3 5 4 4 5 11 6 9 7 10 8 2 9 1 10 3 11
REMARK H PARENT
REMARK Flexibility Score: inf
ROOT
ATOM      1  C   UNL     1      17.751  -8.323  12.528  1.00  0.00     0.048 C 
ATOM      2  C   UNL     1      16.700  -9.379  12.323  1.00  0.00    -0.012 C 
ATOM      3  C   UNL     1      17.052 -10.676  12.290  1.00  0.00    -0.019 C 
ATOM      4  C   UNL     1      16.043 -11.772  12.070  1.00  0.00     0.036 C 
ATOM      5  C   UNL     1      14.677 -11.396  12.676  1.00  0.00     0.025 C 
ATOM      6  C   UNL     1      14.198 -10.043  12.119  1.00  0.00     0.089 C 
ATOM      7  C   UNL     1      15.266  -8.997  12.284  1.00  0.00     0.158 C 
ATOM      8  O   UNL     1      14.931  -7.784  12.351  1.00  0.00    -0.295 OA
ENDROOT
BRANCH   5   9
ATOM      9  C   UNL     1      13.644 -12.491  12.442  1.00  0.00    -0.077 C 
ATOM     10  C   UNL     1      13.936 -13.767  12.742  1.00  0.00     0.008 C 
ATOM     11  C   UNL     1      12.281 -12.178  11.875  1.00  0.00     0.039 C 
ENDBRANCH   5   9
TORSDOF 1
ENDMDL
MODEL 5
REMARK VINA RESULT:    -4.262      1.898      4.576
REMARK INTER + INTRA:          -4.603
REMARK INTER:                  -4.509
REMARK INTRA:                  -0.094
REMARK UNBOUND:                -0.092
REMARK SMILES C=C(C)[C@H]1CC=C(C)C(=O)C1
REMARK SMILES IDX 8 1 7 2 6 3 5 4 4 5 11 6 9 7 10 8 2 9 1 10 3 11
REMARK H PARENT
REMARK Flexibility Score: inf
ROOT
ATOM      1  C   UNL     1      16.116  -7.178  12.495  1.00  0.00     0.048 C 
ATOM      2  C   UNL     1      15.527  -8.557  12.600  1.00  0.00    -0.012 C 
ATOM      3  C   UNL     1      14.192  -8.715  12.621  1.00  0.00    -0.019 C 
ATOM      4  C   UNL     1      13.550 -10.071  12.743  1.00  0.00     0.036 C 
ATOM      5  C   UNL     1      14.407 -11.153  12.058  1.00  0.00     0.025 C 
ATOM      6  C   UNL     1      15.840 -11.135  12.618  1.00  0.00     0.089 C 
ATOM      7  C   UNL     1      16.415  -9.746  12.554  1.00  0.00     0.158 C 
ATOM      8  O   UNL     1      17.666  -9.602  12.498  1.00  0.00    -0.295 OA
ENDROOT
BRANCH   5   9
ATOM      9  C   UNL     1      13.774 -12.532  12.193  1.00  0.00    -0.077 C 
ATOM     10  C   UNL     1      12.483 -12.715  11.875  1.00  0.00     0.008 C 
ATOM     11  C   UNL     1      14.570 -13.718  12.681  1.00  0.00     0.039 C 
ENDBRANCH   5   9
TORSDOF 1
ENDMDL
MODEL 6
REMARK VINA RESULT:    -4.000      3.593      5.261
REMARK INTER + INTRA:          -4.326
REMARK INTER:                  -4.236
REMARK INTRA:                  -0.090
REMARK UNBOUND:                -0.092
REMARK SMILES C=C(C)[C@H]1CC=C(C)C(=O)C1
REMARK SMILES IDX 8 1 7 2 6 3 5 4 4 5 11 6 9 7 10 8 2 9 1 10 3 11
REMARK H PARENT
REMARK Flexibility Score: inf
ROOT
ATOM      1  C   UNL     1      18.133  -8.750  13.202  1.00  0.00     0.048 C 
ATOM      2  C   UNL     1      16.993  -7.823  13.516  1.00  0.00    -0.012 C 
ATOM      3  C   UNL     1      17.169  -6.818  14.392  1.00  0.00    -0.019 C 
ATOM      4  C   UNL     1      16.056  -5.872  14.757  1.00  0.00     0.036 C 
ATOM      5  C   UNL     1      15.108  -5.647  13.563  1.00  0.00     0.025 C 
ATOM      6  C   UNL     1      14.578  -6.994  13.039  1.00  0.00     0.089 C 
ATOM      7  C   UNL     1      15.716  -7.939  12.766  1.00  0.00     0.158 C 
ATOM      8  O   UNL     1      15.561  -8.857  11.917  1.00  0.00    -0.295 OA
ENDROOT
BRANCH   5   9
ATOM      9  C   UNL     1      13.968  -4.705  13.928  1.00  0.00    -0.077 C 
ATOM     10  C   UNL     1      13.419  -3.917  12.990  1.00  0.00     0.008 C 
ATOM     11  C   UNL     1      13.427  -4.632  15.335  1.00  0.00     0.039 C 
ENDBRANCH   5   9
TORSDOF 1
ENDMDL
MODEL 7
REMARK VINA RESULT:    -3.942      4.066      5.254
REMARK INTER + INTRA:          -4.264
REMARK INTER:                  -4.167
REMARK INTRA:                  -0.098
REMARK UNBOUND:                -0.092
REMARK SMILES C=C(C)[C@H]1CC=C(C)C(=O)C1
REMARK SMILES IDX 8 1 7 2 6 3 5 4 4 5 11 6 9 7 10 8 2 9 1 10 3 11
REMARK H PARENT
REMARK Flexibility Score: inf
ROOT
ATOM      1  C   UNL     1      13.305  -4.561  15.234  1.00  0.00     0.048 C 
ATOM      2  C   UNL     1      14.556  -5.201  14.701  1.00  0.00    -0.012 C 
ATOM      3  C   UNL     1      15.458  -5.720  15.552  1.00  0.00    -0.019 C 
ATOM      4  C   UNL     1      16.736  -6.355  15.073  1.00  0.00     0.036 C 
ATOM      5  C   UNL     1      16.535  -7.042  13.709  1.00  0.00     0.025 C 
ATOM      6  C   UNL     1      15.961  -6.045  12.686  1.00  0.00     0.089 C 
ATOM      7  C   UNL     1      14.733  -5.372  13.237  1.00  0.00     0.158 C 
ATOM      8  O   UNL     1      13.871  -4.918  12.436  1.00  0.00    -0.295 OA
ENDROOT
BRANCH   5   9
ATOM      9  C   UNL     1      17.827  -7.673  13.207  1.00  0.00    -0.077 C 
ATOM     10  C   UNL     1      18.617  -7.000  12.355  1.00  0.00     0.008 C 
ATOM     11  C   UNL     1      18.252  -9.052  13.647  1.00  0.00     0.039 C 
ENDBRANCH   5   9
TORSDOF 1
ENDMDL
MODEL 8
REMARK VINA RESULT:    -3.852      4.132      5.702
REMARK INTER + INTRA:          -4.170
REMARK INTER:                  -4.072
REMARK INTRA:                  -0.098
REMARK UNBOUND:                -0.092
REMARK SMILES C=C(C)[C@H]1CC=C(C)C(=O)C1
REMARK SMILES IDX 8 1 7 2 6 3 5 4 4 5 11 6 9 7 10 8 2 9 1 10 3 11
REMARK H PARENT
REMARK Flexibility Score: inf
ROOT
ATOM      1  C   UNL     1      18.138  -8.754  13.217  1.00  0.00     0.048 C 
ATOM      2  C   UNL     1      17.178  -7.608  13.378  1.00  0.00    -0.012 C 
ATOM      3  C   UNL     1      16.360  -7.272  12.366  1.00  0.00    -0.019 C 
ATOM      4  C   UNL     1      15.394  -6.122  12.467  1.00  0.00     0.036 C 
ATOM      5  C   UNL     1      14.882  -5.955  13.910  1.00  0.00     0.025 C 
ATOM      6  C   UNL     1      16.065  -5.810  14.885  1.00  0.00     0.089 C 
ATOM      7  C   UNL     1      17.047  -6.933  14.694  1.00  0.00     0.158 C 
ATOM      8  O   UNL     1      17.788  -7.270  15.656  1.00  0.00    -0.295 OA
ENDROOT
BRANCH   5   9
ATOM      9  C   UNL     1      13.917  -4.782  14.027  1.00  0.00    -0.077 C 
ATOM     10  C   UNL     1      13.595  -4.065  12.939  1.00  0.00     0.008 C 
ATOM     11  C   UNL     1      13.304  -4.398  15.351  1.00  0.00     0.039 C 
ENDBRANCH   5   9
TORSDOF 1
ENDMDL
MODEL 9
REMARK VINA RESULT:    -3.802      2.903      4.002
REMARK INTER + INTRA:          -4.117
REMARK INTER:                  -4.021
REMARK INTRA:                  -0.096
REMARK UNBOUND:                -0.092
REMARK SMILES C=C(C)[C@H]1CC=C(C)C(=O)C1
REMARK SMILES IDX 8 1 7 2 6 3 5 4 4 5 11 6 9 7 10 8 2 9 1 10 3 11
REMARK H PARENT
REMARK Flexibility Score: inf
ROOT
ATOM      1  C   UNL     1      16.241 -11.319  12.412  1.00  0.00     0.048 C 
ATOM      2  C   UNL     1      15.737  -9.904  12.475  1.00  0.00    -0.012 C 
ATOM      3  C   UNL     1      14.415  -9.665  12.517  1.00  0.00    -0.019 C 
ATOM      4  C   UNL     1      13.857  -8.268  12.562  1.00  0.00     0.036 C 
ATOM      5  C   UNL     1      14.799  -7.319  13.327  1.00  0.00     0.025 C 
ATOM      6  C   UNL     1      16.212  -7.363  12.719  1.00  0.00     0.089 C 
ATOM      7  C   UNL     1      16.700  -8.782  12.616  1.00  0.00     0.158 C 
ATOM      8  O   UNL     1      17.940  -9.006  12.612  1.00  0.00    -0.295 OA
ENDROOT
BRANCH   5   9
ATOM      9  C   UNL     1      14.252  -5.898  13.362  1.00  0.00    -0.077 C 
ATOM     10  C   UNL     1      14.194  -5.171  12.235  1.00  0.00     0.008 C 
ATOM     11  C   UNL     1      13.763  -5.275  14.646  1.00  0.00     0.039 C 
ENDBRANCH   5   9
TORSDOF 1
ENDMDL
