MODEL 1
REMARK VINA RESULT:    -7.183      0.000      0.000
REMARK INTER + INTRA:         -11.875
REMARK INTER:                 -10.753
REMARK INTRA:                  -1.123
REMARK UNBOUND:                -1.123
REMARK SMILES C[C@]12C[C@]3(O)O[C@H](O1)[C@@]1(COC(=O)c4ccccc4)[C@@H]3C[C@]12O[C@@H]1O[C@H](CO)[C@H](O)[C@@H](O)[C@H]1O
REMARK SMILES IDX 1 1 2 2 3 3 4 4 20 5 21 6 22 7 9 8 7 9 8 10 6 11 23 12 24 13
REMARK SMILES IDX 33 14 25 15 31 16 26 17 29 18 34 19 32 21 27 23 28 24 30 26
REMARK SMILES IDX 5 28 10 30 11 31 12 32 13 33 14 34 15 35 19 36 16 37 18 38
REMARK SMILES IDX 17 39
REMARK H PARENT 34 20 32 22 28 25 30 27 5 29
REMARK Flexibility Score: inf
ROOT
ATOM      1  C   UNL     1      -0.178  23.262  27.108  1.00  0.00     0.046 C 
ATOM      2  C   UNL     1      -1.237  24.211  27.672  1.00  0.00     0.104 C 
ATOM      3  C   UNL     1      -2.073  23.503  28.803  1.00  0.00     0.104 C 
ATOM      4  C   UNL     1      -3.081  24.612  29.276  1.00  0.00     0.175 C 
ATOM      5  C   UNL     1      -2.328  25.964  29.570  1.00  0.00     0.070 C 
ATOM      6  C   UNL     1      -0.820  25.762  29.756  1.00  0.00     0.050 C 
ATOM      7  C   UNL     1      -0.730  25.602  28.223  1.00  0.00     0.115 C 
ATOM      8  C   UNL     1      -2.061  26.362  28.130  1.00  0.00     0.096 C 
ATOM      9  C   UNL     1      -2.988  25.530  27.264  1.00  0.00     0.267 C 
ATOM     10  O   UNL     1      -2.170  24.540  26.659  1.00  0.00    -0.342 OA
ATOM     11  O   UNL     1      -3.890  24.893  28.152  1.00  0.00    -0.320 OA
ENDROOT
BRANCH   7  12
ATOM     12  O   UNL     1       0.324  26.287  27.556  1.00  0.00    -0.339 OA
BRANCH  12  13
ATOM     13  C   UNL     1       1.548  26.369  28.284  1.00  0.00     0.282 C 
ATOM     14  C   UNL     1       2.738  26.093  27.326  1.00  0.00     0.202 C 
ATOM     15  O   UNL     1       1.727  27.641  28.901  1.00  0.00    -0.341 OA
ATOM     16  C   UNL     1       4.095  26.106  28.096  1.00  0.00     0.179 C 
ATOM     17  C   UNL     1       2.940  27.806  29.640  1.00  0.00     0.178 C 
ATOM     18  C   UNL     1       3.930  26.610  29.561  1.00  0.00     0.177 C 
BRANCH  14  19
ATOM     19  O   UNL     1       2.618  24.896  26.590  1.00  0.00    -0.385 OA
ATOM     20  H   UNL     1       3.451  24.711  26.086  1.00  0.00     0.211 HD
ENDBRANCH  14  19
BRANCH  16  21
ATOM     21  O   UNL     1       4.715  24.836  28.096  1.00  0.00    -0.387 OA
ATOM     22  H   UNL     1       5.676  24.976  28.311  1.00  0.00     0.211 HD
ENDBRANCH  16  21
BRANCH  17  23
ATOM     23  C   UNL     1       3.604  29.114  29.169  1.00  0.00     0.191 C 
BRANCH  23  24
ATOM     24  O   UNL     1       2.907  29.650  28.074  1.00  0.00    -0.394 OA
ATOM     25  H   UNL     1       1.942  29.611  28.310  1.00  0.00     0.210 HD
ENDBRANCH  23  24
ENDBRANCH  17  23
BRANCH  18  26
ATOM     26  O   UNL     1       5.153  26.929  30.193  1.00  0.00    -0.387 OA
ATOM     27  H   UNL     1       4.981  27.221  31.128  1.00  0.00     0.211 HD
ENDBRANCH  18  26
ENDBRANCH  12  13
ENDBRANCH   7  12
BRANCH   4  28
ATOM     28  O   UNL     1      -3.872  24.158  30.342  1.00  0.00    -0.365 OA
ATOM     29  H   UNL     1      -4.794  24.510  30.212  1.00  0.00     0.214 HD
ENDBRANCH   4  28
BRANCH   8  30
ATOM     30  C   UNL     1      -1.988  27.881  27.845  1.00  0.00     0.249 C 
BRANCH  30  31
ATOM     31  O   UNL     1      -1.841  28.215  26.345  1.00  0.00    -0.461 OA
BRANCH  31  32
ATOM     32  C   UNL     1      -1.018  29.309  25.871  1.00  0.00     0.338 C 
ATOM     33  O   UNL     1      -2.002  28.537  25.699  1.00  0.00    -0.246 OA
BRANCH  32  34
ATOM     34  C   UNL     1       0.020  29.285  24.820  1.00  0.00     0.060 A 
ATOM     35  C   UNL     1       1.241  28.597  24.989  1.00  0.00     0.015 A 
ATOM     36  C   UNL     1      -0.202  30.004  23.635  1.00  0.00     0.015 A 
ATOM     37  C   UNL     1       2.209  28.618  23.983  1.00  0.00     0.001 A 
ATOM     38  C   UNL     1       0.783  30.047  22.641  1.00  0.00     0.001 A 
ATOM     39  C   UNL     1       1.985  29.354  22.811  1.00  0.00     0.000 A 
ENDBRANCH  32  34
ENDBRANCH  31  32
ENDBRANCH  30  31
ENDBRANCH   8  30
TORSDOF 12
ENDMDL
MODEL 2
REMARK VINA RESULT:    -7.085      2.736      6.567
REMARK INTER + INTRA:         -11.729
REMARK INTER:                 -10.903
REMARK INTRA:                  -0.826
REMARK UNBOUND:                -1.123
REMARK SMILES C[C@]12C[C@]3(O)O[C@H](O1)[C@@]1(COC(=O)c4ccccc4)[C@@H]3C[C@]12O[C@@H]1O[C@H](CO)[C@H](O)[C@@H](O)[C@H]1O
REMARK SMILES IDX 1 1 2 2 3 3 4 4 20 5 21 6 22 7 9 8 7 9 8 10 6 11 23 12 24 13
REMARK SMILES IDX 33 14 25 15 31 16 26 17 29 18 34 19 32 21 27 23 28 24 30 26
REMARK SMILES IDX 5 28 10 30 11 31 12 32 13 33 14 34 15 35 19 36 16 37 18 38
REMARK SMILES IDX 17 39
REMARK H PARENT 34 20 32 22 28 25 30 27 5 29
REMARK Flexibility Score: inf
ROOT
ATOM      1  C   UNL     1      -4.540  25.362  28.534  1.00  0.00     0.046 C 
ATOM      2  C   UNL     1      -3.057  25.394  28.163  1.00  0.00     0.104 C 
ATOM      3  C   UNL     1      -2.611  26.854  27.776  1.00  0.00     0.104 C 
ATOM      4  C   UNL     1      -1.081  26.707  27.452  1.00  0.00     0.175 C 
ATOM      5  C   UNL     1      -0.338  25.925  28.600  1.00  0.00     0.070 C 
ATOM      6  C   UNL     1      -1.147  25.895  29.902  1.00  0.00     0.050 C 
ATOM      7  C   UNL     1      -2.040  24.829  29.232  1.00  0.00     0.115 C 
ATOM      8  C   UNL     1      -0.871  24.541  28.278  1.00  0.00     0.096 C 
ATOM      9  C   UNL     1      -1.425  24.600  26.867  1.00  0.00     0.267 C 
ATOM     10  O   UNL     1      -2.838  24.610  27.004  1.00  0.00    -0.342 OA
ATOM     11  O   UNL     1      -1.012  25.846  26.333  1.00  0.00    -0.320 OA
ENDROOT
BRANCH   7  12
ATOM     12  O   UNL     1      -2.389  23.688  30.008  1.00  0.00    -0.339 OA
BRANCH  12  13
ATOM     13  C   UNL     1      -3.438  23.896  30.952  1.00  0.00     0.282 C 
ATOM     14  C   UNL     1      -3.570  22.645  31.862  1.00  0.00     0.202 C 
ATOM     15  O   UNL     1      -3.215  25.045  31.765  1.00  0.00    -0.341 OA
ATOM     16  C   UNL     1      -4.752  22.802  32.867  1.00  0.00     0.179 C 
ATOM     17  C   UNL     1      -4.220  25.315  32.746  1.00  0.00     0.178 C 
ATOM     18  C   UNL     1      -5.343  24.245  32.853  1.00  0.00     0.177 C 
BRANCH  14  19
ATOM     19  O   UNL     1      -3.703  21.432  31.154  1.00  0.00    -0.385 OA
ATOM     20  H   UNL     1      -3.035  21.380  30.424  1.00  0.00     0.211 HD
ENDBRANCH  14  19
BRANCH  16  21
ATOM     21  O   UNL     1      -5.781  21.864  32.624  1.00  0.00    -0.387 OA
ATOM     22  H   UNL     1      -5.395  20.958  32.765  1.00  0.00     0.211 HD
ENDBRANCH  16  21
BRANCH  17  23
ATOM     23  C   UNL     1      -3.512  25.519  34.100  1.00  0.00     0.191 C 
BRANCH  23  24
ATOM     24  O   UNL     1      -2.179  25.085  34.024  1.00  0.00    -0.394 OA
ATOM     25  H   UNL     1      -1.690  25.768  33.492  1.00  0.00     0.210 HD
ENDBRANCH  23  24
ENDBRANCH  17  23
BRANCH  18  26
ATOM     26  O   UNL     1      -6.195  24.520  33.946  1.00  0.00    -0.387 OA
ATOM     27  H   UNL     1      -7.050  24.025  33.838  1.00  0.00     0.211 HD
ENDBRANCH  18  26
ENDBRANCH  12  13
ENDBRANCH   7  12
BRANCH   4  28
ATOM     28  O   UNL     1      -0.505  27.949  27.144  1.00  0.00    -0.365 OA
ATOM     29  H   UNL     1      -0.273  27.948  26.177  1.00  0.00     0.214 HD
ENDBRANCH   4  28
BRANCH   8  30
ATOM     30  C   UNL     1       0.054  23.354  28.634  1.00  0.00     0.249 C 
BRANCH  30  31
ATOM     31  O   UNL     1       0.802  22.775  27.414  1.00  0.00    -0.461 OA
BRANCH  31  32
ATOM     32  C   UNL     1       2.124  23.226  27.029  1.00  0.00     0.338 C 
ATOM     33  O   UNL     1       1.344  22.783  27.917  1.00  0.00    -0.246 OA
BRANCH  32  34
ATOM     34  C   UNL     1       2.768  24.524  27.316  1.00  0.00     0.060 A 
ATOM     35  C   UNL     1       3.639  24.702  28.412  1.00  0.00     0.015 A 
ATOM     36  C   UNL     1       2.471  25.622  26.493  1.00  0.00     0.015 A 
ATOM     37  C   UNL     1       4.209  25.950  28.667  1.00  0.00     0.001 A 
ATOM     38  C   UNL     1       3.022  26.879  26.768  1.00  0.00     0.001 A 
ATOM     39  C   UNL     1       3.892  27.045  27.850  1.00  0.00     0.000 A 
ENDBRANCH  32  34
ENDBRANCH  31  32
ENDBRANCH  30  31
ENDBRANCH   8  30
TORSDOF 12
ENDMDL
MODEL 3
REMARK VINA RESULT:    -6.811      2.181      6.653
REMARK INTER + INTRA:         -11.318
REMARK INTER:                 -10.677
REMARK INTRA:                  -0.641
REMARK UNBOUND:                -1.123
REMARK SMILES C[C@]12C[C@]3(O)O[C@H](O1)[C@@]1(COC(=O)c4ccccc4)[C@@H]3C[C@]12O[C@@H]1O[C@H](CO)[C@H](O)[C@@H](O)[C@H]1O
REMARK SMILES IDX 1 1 2 2 3 3 4 4 20 5 21 6 22 7 9 8 7 9 8 10 6 11 23 12 24 13
REMARK SMILES IDX 33 14 25 15 31 16 26 17 29 18 34 19 32 21 27 23 28 24 30 26
REMARK SMILES IDX 5 28 10 30 11 31 12 32 13 33 14 34 15 35 19 36 16 37 18 38
REMARK SMILES IDX 17 39
REMARK H PARENT 34 20 32 22 28 25 30 27 5 29
REMARK Flexibility Score: inf
ROOT
ATOM      1  C   UNL     1       0.573  24.266  27.494  1.00  0.00     0.046 C 
ATOM      2  C   UNL     1       1.054  25.653  27.068  1.00  0.00     0.104 C 
ATOM      3  C   UNL     1       1.167  25.746  25.500  1.00  0.00     0.104 C 
ATOM      4  C   UNL     1       1.644  27.221  25.244  1.00  0.00     0.175 C 
ATOM      5  C   UNL     1       0.750  28.245  26.040  1.00  0.00     0.070 C 
ATOM      6  C   UNL     1      -0.582  27.630  26.487  1.00  0.00     0.050 C 
ATOM      7  C   UNL     1       0.216  26.890  27.582  1.00  0.00     0.115 C 
ATOM      8  C   UNL     1       1.304  27.962  27.424  1.00  0.00     0.096 C 
ATOM      9  C   UNL     1       2.620  27.232  27.230  1.00  0.00     0.267 C 
ATOM     10  O   UNL     1       2.365  25.875  27.557  1.00  0.00    -0.342 OA
ATOM     11  O   UNL     1       2.918  27.318  25.848  1.00  0.00    -0.320 OA
ENDROOT
BRANCH   7  12
ATOM     12  O   UNL     1      -0.334  26.877  28.894  1.00  0.00    -0.339 OA
BRANCH  12  13
ATOM     13  C   UNL     1      -1.082  25.708  29.226  1.00  0.00     0.282 C 
ATOM     14  C   UNL     1      -1.240  25.615  30.767  1.00  0.00     0.202 C 
ATOM     15  O   UNL     1      -2.371  25.699  28.620  1.00  0.00    -0.341 OA
ATOM     16  C   UNL     1      -1.993  24.313  31.179  1.00  0.00     0.179 C 
ATOM     17  C   UNL     1      -3.186  24.562  28.915  1.00  0.00     0.178 C 
ATOM     18  C   UNL     1      -2.583  23.565  29.946  1.00  0.00     0.177 C 
BRANCH  14  19
ATOM     19  O   UNL     1      -0.024  25.708  31.476  1.00  0.00    -0.385 OA
ATOM     20  H   UNL     1       0.613  26.301  30.999  1.00  0.00     0.211 HD
ENDBRANCH  14  19
BRANCH  16  21
ATOM     21  O   UNL     1      -1.167  23.436  31.918  1.00  0.00    -0.387 OA
ATOM     22  H   UNL     1      -0.224  23.712  31.756  1.00  0.00     0.211 HD
ENDBRANCH  16  21
BRANCH  17  23
ATOM     23  C   UNL     1      -4.563  25.078  29.377  1.00  0.00     0.191 C 
BRANCH  23  24
ATOM     24  O   UNL     1      -5.374  25.367  28.268  1.00  0.00    -0.394 OA
ATOM     25  H   UNL     1      -4.757  25.558  27.511  1.00  0.00     0.210 HD
ENDBRANCH  23  24
ENDBRANCH  17  23
BRANCH  18  26
ATOM     26  O   UNL     1      -3.522  22.565  30.284  1.00  0.00    -0.387 OA
ATOM     27  H   UNL     1      -3.918  22.763  31.173  1.00  0.00     0.211 HD
ENDBRANCH  18  26
ENDBRANCH  12  13
ENDBRANCH   7  12
BRANCH   4  28
ATOM     28  O   UNL     1       1.736  27.494  23.870  1.00  0.00    -0.365 OA
ATOM     29  H   UNL     1       2.687  27.697  23.661  1.00  0.00     0.214 HD
ENDBRANCH   4  28
BRANCH   8  30
ATOM     30  C   UNL     1       1.282  29.143  28.422  1.00  0.00     0.249 C 
BRANCH  30  31
ATOM     31  O   UNL     1       2.684  29.541  28.930  1.00  0.00    -0.461 OA
BRANCH  31  32
ATOM     32  C   UNL     1       3.109  29.308  30.296  1.00  0.00     0.338 C 
ATOM     33  O   UNL     1       3.044  30.074  29.295  1.00  0.00    -0.246 OA
BRANCH  32  34
ATOM     34  C   UNL     1       4.465  29.000  30.793  1.00  0.00     0.060 A 
ATOM     35  C   UNL     1       5.024  27.708  30.693  1.00  0.00     0.015 A 
ATOM     36  C   UNL     1       5.203  30.017  31.420  1.00  0.00     0.015 A 
ATOM     37  C   UNL     1       6.299  27.448  31.197  1.00  0.00     0.001 A 
ATOM     38  C   UNL     1       6.469  29.746  31.951  1.00  0.00     0.001 A 
ATOM     39  C   UNL     1       7.020  28.466  31.838  1.00  0.00     0.000 A 
ENDBRANCH  32  34
ENDBRANCH  31  32
ENDBRANCH  30  31
ENDBRANCH   8  30
TORSDOF 12
ENDMDL
MODEL 4
REMARK VINA RESULT:    -6.679      2.557      7.035
REMARK INTER + INTRA:         -11.120
REMARK INTER:                 -10.363
REMARK INTRA:                  -0.757
REMARK UNBOUND:                -1.123
REMARK SMILES C[C@]12C[C@]3(O)O[C@H](O1)[C@@]1(COC(=O)c4ccccc4)[C@@H]3C[C@]12O[C@@H]1O[C@H](CO)[C@H](O)[C@@H](O)[C@H]1O
REMARK SMILES IDX 1 1 2 2 3 3 4 4 20 5 21 6 22 7 9 8 7 9 8 10 6 11 23 12 24 13
REMARK SMILES IDX 33 14 25 15 31 16 26 17 29 18 34 19 32 21 27 23 28 24 30 26
REMARK SMILES IDX 5 28 10 30 11 31 12 32 13 33 14 34 15 35 19 36 16 37 18 38
REMARK SMILES IDX 17 39
REMARK H PARENT 34 20 32 22 28 25 30 27 5 29
REMARK Flexibility Score: inf
ROOT
ATOM      1  C   UNL     1      -1.139  23.748  27.546  1.00  0.00     0.046 C 
ATOM      2  C   UNL     1       0.038  24.705  27.354  1.00  0.00     0.104 C 
ATOM      3  C   UNL     1       0.119  25.197  25.861  1.00  0.00     0.104 C 
ATOM      4  C   UNL     1       1.350  26.173  25.852  1.00  0.00     0.175 C 
ATOM      5  C   UNL     1       1.248  27.214  27.029  1.00  0.00     0.070 C 
ATOM      6  C   UNL     1      -0.173  27.316  27.595  1.00  0.00     0.050 C 
ATOM      7  C   UNL     1       0.093  25.969  28.300  1.00  0.00     0.115 C 
ATOM      8  C   UNL     1       1.593  26.268  28.164  1.00  0.00     0.096 C 
ATOM      9  C   UNL     1       2.235  25.044  27.537  1.00  0.00     0.267 C 
ATOM     10  O   UNL     1       1.254  24.020  27.594  1.00  0.00    -0.342 OA
ATOM     11  O   UNL     1       2.469  25.374  26.180  1.00  0.00    -0.320 OA
ENDROOT
BRANCH   7  12
ATOM     12  O   UNL     1      -0.308  25.855  29.660  1.00  0.00    -0.339 OA
BRANCH  12  13
ATOM     13  C   UNL     1      -1.686  25.546  29.862  1.00  0.00     0.282 C 
ATOM     14  C   UNL     1      -1.838  24.655  31.124  1.00  0.00     0.202 C 
ATOM     15  O   UNL     1      -2.486  26.715  30.013  1.00  0.00    -0.341 OA
ATOM     16  C   UNL     1      -3.324  24.237  31.343  1.00  0.00     0.179 C 
ATOM     17  C   UNL     1      -3.881  26.487  30.231  1.00  0.00     0.178 C 
ATOM     18  C   UNL     1      -4.291  24.995  30.384  1.00  0.00     0.177 C 
BRANCH  14  19
ATOM     19  O   UNL     1      -1.015  23.510  31.121  1.00  0.00    -0.385 OA
ATOM     20  H   UNL     1      -1.512  22.724  30.776  1.00  0.00     0.211 HD
ENDBRANCH  14  19
BRANCH  16  21
ATOM     21  O   UNL     1      -3.508  22.843  31.200  1.00  0.00    -0.387 OA
ATOM     22  H   UNL     1      -2.725  22.397  31.623  1.00  0.00     0.211 HD
ENDBRANCH  16  21
BRANCH  17  23
ATOM     23  C   UNL     1      -4.306  27.313  31.461  1.00  0.00     0.191 C 
BRANCH  23  24
ATOM     24  O   UNL     1      -5.622  27.778  31.306  1.00  0.00    -0.394 OA
ATOM     25  H   UNL     1      -5.981  27.914  32.223  1.00  0.00     0.210 HD
ENDBRANCH  23  24
ENDBRANCH  17  23
BRANCH  18  26
ATOM     26  O   UNL     1      -5.652  24.884  30.746  1.00  0.00    -0.387 OA
ATOM     27  H   UNL     1      -5.858  25.522  31.480  1.00  0.00     0.211 HD
ENDBRANCH  18  26
ENDBRANCH  12  13
ENDBRANCH   7  12
BRANCH   4  28
ATOM     28  O   UNL     1       1.525  26.758  24.588  1.00  0.00    -0.365 OA
ATOM     29  H   UNL     1       0.827  27.458  24.475  1.00  0.00     0.214 HD
ENDBRANCH   4  28
BRANCH   8  30
ATOM     30  C   UNL     1       2.300  26.899  29.387  1.00  0.00     0.249 C 
BRANCH  30  31
ATOM     31  O   UNL     1       3.840  26.806  29.318  1.00  0.00    -0.461 OA
BRANCH  31  32
ATOM     32  C   UNL     1       4.700  27.925  29.649  1.00  0.00     0.338 C 
ATOM     33  O   UNL     1       4.566  26.694  29.402  1.00  0.00    -0.246 OA
BRANCH  32  34
ATOM     34  C   UNL     1       5.295  28.266  30.957  1.00  0.00     0.060 A 
ATOM     35  C   UNL     1       4.505  28.624  32.070  1.00  0.00     0.015 A 
ATOM     36  C   UNL     1       6.694  28.270  31.082  1.00  0.00     0.015 A 
ATOM     37  C   UNL     1       5.105  28.965  33.283  1.00  0.00     0.001 A 
ATOM     38  C   UNL     1       7.294  28.640  32.291  1.00  0.00     0.001 A 
ATOM     39  C   UNL     1       6.503  28.984  33.392  1.00  0.00     0.000 A 
ENDBRANCH  32  34
ENDBRANCH  31  32
ENDBRANCH  30  31
ENDBRANCH   8  30
TORSDOF 12
ENDMDL
MODEL 5
REMARK VINA RESULT:    -6.626      2.031      6.349
REMARK INTER + INTRA:         -11.041
REMARK INTER:                  -9.638
REMARK INTRA:                  -1.402
REMARK UNBOUND:                -1.123
REMARK SMILES C[C@]12C[C@]3(O)O[C@H](O1)[C@@]1(COC(=O)c4ccccc4)[C@@H]3C[C@]12O[C@@H]1O[C@H](CO)[C@H](O)[C@@H](O)[C@H]1O
REMARK SMILES IDX 1 1 2 2 3 3 4 4 20 5 21 6 22 7 9 8 7 9 8 10 6 11 23 12 24 13
REMARK SMILES IDX 33 14 25 15 31 16 26 17 29 18 34 19 32 21 27 23 28 24 30 26
REMARK SMILES IDX 5 28 10 30 11 31 12 32 13 33 14 34 15 35 19 36 16 37 18 38
REMARK SMILES IDX 17 39
REMARK H PARENT 34 20 32 22 28 25 30 27 5 29
REMARK Flexibility Score: inf
ROOT
ATOM      1  C   UNL     1      -2.638  25.931  26.744  1.00  0.00     0.046 C 
ATOM      2  C   UNL     1      -1.555  27.000  26.595  1.00  0.00     0.104 C 
ATOM      3  C   UNL     1      -1.919  28.005  25.439  1.00  0.00     0.104 C 
ATOM      4  C   UNL     1      -0.729  29.030  25.443  1.00  0.00     0.175 C 
ATOM      5  C   UNL     1      -0.450  29.560  26.900  1.00  0.00     0.070 C 
ATOM      6  C   UNL     1      -1.632  29.314  27.845  1.00  0.00     0.050 C 
ATOM      7  C   UNL     1      -1.192  27.835  27.887  1.00  0.00     0.115 C 
ATOM      8  C   UNL     1       0.203  28.304  27.448  1.00  0.00     0.096 C 
ATOM      9  C   UNL     1       0.601  27.458  26.253  1.00  0.00     0.267 C 
ATOM     10  O   UNL     1      -0.337  26.394  26.201  1.00  0.00    -0.342 OA
ATOM     11  O   UNL     1       0.421  28.278  25.112  1.00  0.00    -0.320 OA
ENDROOT
BRANCH   7  12
ATOM     12  O   UNL     1      -1.165  27.197  29.158  1.00  0.00    -0.339 OA
BRANCH  12  13
ATOM     13  C   UNL     1      -1.657  25.858  29.174  1.00  0.00     0.282 C 
ATOM     14  C   UNL     1      -0.498  24.886  29.525  1.00  0.00     0.202 C 
ATOM     15  O   UNL     1      -2.717  25.681  30.110  1.00  0.00    -0.341 OA
ATOM     16  C   UNL     1      -0.977  23.402  29.487  1.00  0.00     0.179 C 
ATOM     17  C   UNL     1      -3.256  24.360  30.193  1.00  0.00     0.178 C 
ATOM     18  C   UNL     1      -2.524  23.292  29.333  1.00  0.00     0.177 C 
BRANCH  14  19
ATOM     19  O   UNL     1       0.646  25.040  28.714  1.00  0.00    -0.385 OA
ATOM     20  H   UNL     1       1.370  25.493  29.216  1.00  0.00     0.211 HD
ENDBRANCH  14  19
BRANCH  16  21
ATOM     21  O   UNL     1      -0.342  22.668  28.459  1.00  0.00    -0.387 OA
ATOM     22  H   UNL     1      -0.970  21.948  28.179  1.00  0.00     0.211 HD
ENDBRANCH  16  21
BRANCH  17  23
ATOM     23  C   UNL     1      -3.284  23.956  31.680  1.00  0.00     0.191 C 
BRANCH  23  24
ATOM     24  O   UNL     1      -4.308  23.025  31.915  1.00  0.00    -0.394 OA
ATOM     25  H   UNL     1      -3.871  22.133  31.959  1.00  0.00     0.210 HD
ENDBRANCH  23  24
ENDBRANCH  17  23
BRANCH  18  26
ATOM     26  O   UNL     1      -3.031  22.000  29.599  1.00  0.00    -0.387 OA
ATOM     27  H   UNL     1      -2.688  21.679  30.475  1.00  0.00     0.211 HD
ENDBRANCH  18  26
ENDBRANCH  12  13
ENDBRANCH   7  12
BRANCH   4  28
ATOM     28  O   UNL     1      -0.932  30.048  24.497  1.00  0.00    -0.365 OA
ATOM     29  H   UNL     1      -1.913  30.183  24.398  1.00  0.00     0.214 HD
ENDBRANCH   4  28
BRANCH   8  30
ATOM     30  C   UNL     1       1.259  28.514  28.559  1.00  0.00     0.249 C 
BRANCH  30  31
ATOM     31  O   UNL     1       2.301  27.377  28.634  1.00  0.00    -0.461 OA
BRANCH  31  32
ATOM     32  C   UNL     1       3.725  27.635  28.713  1.00  0.00     0.338 C 
ATOM     33  O   UNL     1       2.743  26.879  28.954  1.00  0.00    -0.246 OA
BRANCH  32  34
ATOM     34  C   UNL     1       4.512  28.074  29.884  1.00  0.00     0.060 A 
ATOM     35  C   UNL     1       4.443  29.393  30.381  1.00  0.00     0.015 A 
ATOM     36  C   UNL     1       5.385  27.158  30.492  1.00  0.00     0.015 A 
ATOM     37  C   UNL     1       5.221  29.778  31.474  1.00  0.00     0.001 A 
ATOM     38  C   UNL     1       6.186  27.556  31.569  1.00  0.00     0.001 A 
ATOM     39  C   UNL     1       6.103  28.861  32.063  1.00  0.00     0.000 A 
ENDBRANCH  32  34
ENDBRANCH  31  32
ENDBRANCH  30  31
ENDBRANCH   8  30
TORSDOF 12
ENDMDL
MODEL 6
REMARK VINA RESULT:    -6.483      2.627      5.124
REMARK INTER + INTRA:         -10.827
REMARK INTER:                  -9.884
REMARK INTRA:                  -0.943
REMARK UNBOUND:                -1.123
REMARK SMILES C[C@]12C[C@]3(O)O[C@H](O1)[C@@]1(COC(=O)c4ccccc4)[C@@H]3C[C@]12O[C@@H]1O[C@H](CO)[C@H](O)[C@@H](O)[C@H]1O
REMARK SMILES IDX 1 1 2 2 3 3 4 4 20 5 21 6 22 7 9 8 7 9 8 10 6 11 23 12 24 13
REMARK SMILES IDX 33 14 25 15 31 16 26 17 29 18 34 19 32 21 27 23 28 24 30 26
REMARK SMILES IDX 5 28 10 30 11 31 12 32 13 33 14 34 15 35 19 36 16 37 18 38
REMARK SMILES IDX 17 39
REMARK H PARENT 34 20 32 22 28 25 30 27 5 29
REMARK Flexibility Score: inf
ROOT
ATOM      1  C   UNL     1      -0.647  24.021  25.941  1.00  0.00     0.046 C 
ATOM      2  C   UNL     1      -1.360  24.314  27.261  1.00  0.00     0.104 C 
ATOM      3  C   UNL     1      -1.817  22.977  27.956  1.00  0.00     0.104 C 
ATOM      4  C   UNL     1      -2.500  23.458  29.286  1.00  0.00     0.175 C 
ATOM      5  C   UNL     1      -1.577  24.478  30.052  1.00  0.00     0.070 C 
ATOM      6  C   UNL     1      -0.120  24.415  29.579  1.00  0.00     0.050 C 
ATOM      7  C   UNL     1      -0.575  25.184  28.320  1.00  0.00     0.115 C 
ATOM      8  C   UNL     1      -1.786  25.668  29.133  1.00  0.00     0.096 C 
ATOM      9  C   UNL     1      -3.023  25.372  28.305  1.00  0.00     0.267 C 
ATOM     10  O   UNL     1      -2.552  25.037  27.009  1.00  0.00    -0.342 OA
ATOM     11  O   UNL     1      -3.618  24.223  28.883  1.00  0.00    -0.320 OA
ENDROOT
BRANCH   7  12
ATOM     12  O   UNL     1       0.241  26.264  27.885  1.00  0.00    -0.339 OA
BRANCH  12  13
ATOM     13  C   UNL     1       1.513  26.357  28.524  1.00  0.00     0.282 C 
ATOM     14  C   UNL     1       2.635  26.088  27.485  1.00  0.00     0.202 C 
ATOM     15  O   UNL     1       1.726  27.632  29.124  1.00  0.00    -0.341 OA
ATOM     16  C   UNL     1       4.043  26.112  28.156  1.00  0.00     0.179 C 
ATOM     17  C   UNL     1       2.987  27.807  29.776  1.00  0.00     0.178 C 
ATOM     18  C   UNL     1       3.978  26.618  29.629  1.00  0.00     0.177 C 
BRANCH  14  19
ATOM     19  O   UNL     1       2.472  24.887  26.762  1.00  0.00    -0.385 OA
ATOM     20  H   UNL     1       1.760  24.330  27.169  1.00  0.00     0.211 HD
ENDBRANCH  14  19
BRANCH  16  21
ATOM     21  O   UNL     1       4.670  24.846  28.115  1.00  0.00    -0.387 OA
ATOM     22  H   UNL     1       5.284  24.846  27.332  1.00  0.00     0.211 HD
ENDBRANCH  16  21
BRANCH  17  23
ATOM     23  C   UNL     1       3.607  29.119  29.255  1.00  0.00     0.191 C 
BRANCH  23  24
ATOM     24  O   UNL     1       2.892  29.590  28.143  1.00  0.00    -0.394 OA
ATOM     25  H   UNL     1       2.128  30.116  28.502  1.00  0.00     0.210 HD
ENDBRANCH  23  24
ENDBRANCH  17  23
BRANCH  18  26
ATOM     26  O   UNL     1       5.240  26.948  30.172  1.00  0.00    -0.387 OA
ATOM     27  H   UNL     1       5.583  26.186  30.710  1.00  0.00     0.211 HD
ENDBRANCH  18  26
ENDBRANCH  12  13
ENDBRANCH   7  12
BRANCH   4  28
ATOM     28  O   UNL     1      -2.914  22.368  30.068  1.00  0.00    -0.365 OA
ATOM     29  H   UNL     1      -2.607  21.535  29.619  1.00  0.00     0.214 HD
ENDBRANCH   4  28
BRANCH   8  30
ATOM     30  C   UNL     1      -1.682  27.064  29.790  1.00  0.00     0.249 C 
BRANCH  30  31
ATOM     31  O   UNL     1      -3.050  27.755  29.977  1.00  0.00    -0.461 OA
BRANCH  31  32
ATOM     32  C   UNL     1      -3.836  27.603  31.185  1.00  0.00     0.338 C 
ATOM     33  O   UNL     1      -2.707  27.635  30.621  1.00  0.00    -0.246 OA
BRANCH  32  34
ATOM     34  C   UNL     1      -4.165  26.361  31.914  1.00  0.00     0.060 A 
ATOM     35  C   UNL     1      -5.280  25.566  31.573  1.00  0.00     0.015 A 
ATOM     36  C   UNL     1      -3.364  25.984  33.003  1.00  0.00     0.015 A 
ATOM     37  C   UNL     1      -5.575  24.413  32.302  1.00  0.00     0.001 A 
ATOM     38  C   UNL     1      -3.678  24.843  33.749  1.00  0.00     0.001 A 
ATOM     39  C   UNL     1      -4.779  24.055  33.399  1.00  0.00     0.000 A 
ENDBRANCH  32  34
ENDBRANCH  31  32
ENDBRANCH  30  31
ENDBRANCH   8  30
TORSDOF 12
ENDMDL
MODEL 7
REMARK VINA RESULT:    -6.466      2.792      6.280
REMARK INTER + INTRA:         -10.802
REMARK INTER:                 -10.092
REMARK INTRA:                  -0.710
REMARK UNBOUND:                -1.123
REMARK SMILES C[C@]12C[C@]3(O)O[C@H](O1)[C@@]1(COC(=O)c4ccccc4)[C@@H]3C[C@]12O[C@@H]1O[C@H](CO)[C@H](O)[C@@H](O)[C@H]1O
REMARK SMILES IDX 1 1 2 2 3 3 4 4 20 5 21 6 22 7 9 8 7 9 8 10 6 11 23 12 24 13
REMARK SMILES IDX 33 14 25 15 31 16 26 17 29 18 34 19 32 21 27 23 28 24 30 26
REMARK SMILES IDX 5 28 10 30 11 31 12 32 13 33 14 34 15 35 19 36 16 37 18 38
REMARK SMILES IDX 17 39
REMARK H PARENT 34 20 32 22 28 25 30 27 5 29
REMARK Flexibility Score: inf
ROOT
ATOM      1  C   UNL     1      -2.741  22.985  29.702  1.00  0.00     0.046 C 
ATOM      2  C   UNL     1      -1.829  23.764  28.755  1.00  0.00     0.104 C 
ATOM      3  C   UNL     1      -1.729  23.043  27.358  1.00  0.00     0.104 C 
ATOM      4  C   UNL     1      -0.786  23.977  26.518  1.00  0.00     0.175 C 
ATOM      5  C   UNL     1      -1.260  25.477  26.608  1.00  0.00     0.070 C 
ATOM      6  C   UNL     1      -2.710  25.602  27.091  1.00  0.00     0.050 C 
ATOM      7  C   UNL     1      -2.185  25.283  28.507  1.00  0.00     0.115 C 
ATOM      8  C   UNL     1      -0.801  25.748  28.029  1.00  0.00     0.096 C 
ATOM      9  C   UNL     1       0.184  24.652  28.389  1.00  0.00     0.267 C 
ATOM     10  O   UNL     1      -0.509  23.780  29.269  1.00  0.00    -0.342 OA
ATOM     11  O   UNL     1       0.459  23.958  27.186  1.00  0.00    -0.320 OA
ENDROOT
BRANCH   7  12
ATOM     12  O   UNL     1      -2.674  26.080  29.579  1.00  0.00    -0.339 OA
BRANCH  12  13
ATOM     13  C   UNL     1      -3.139  25.350  30.713  1.00  0.00     0.282 C 
ATOM     14  C   UNL     1      -2.291  25.730  31.957  1.00  0.00     0.202 C 
ATOM     15  O   UNL     1      -4.514  25.597  30.991  1.00  0.00    -0.341 OA
ATOM     16  C   UNL     1      -2.721  24.903  33.207  1.00  0.00     0.179 C 
ATOM     17  C   UNL     1      -5.052  24.908  32.122  1.00  0.00     0.178 C 
ATOM     18  C   UNL     1      -4.021  24.085  32.946  1.00  0.00     0.177 C 
BRANCH  14  19
ATOM     19  O   UNL     1      -0.899  25.611  31.761  1.00  0.00    -0.385 OA
ATOM     20  H   UNL     1      -0.553  24.796  32.208  1.00  0.00     0.211 HD
ENDBRANCH  14  19
BRANCH  16  21
ATOM     21  O   UNL     1      -1.694  24.037  33.647  1.00  0.00    -0.387 OA
ATOM     22  H   UNL     1      -1.006  24.599  34.097  1.00  0.00     0.211 HD
ENDBRANCH  16  21
BRANCH  17  23
ATOM     23  C   UNL     1      -5.772  25.946  33.006  1.00  0.00     0.191 C 
BRANCH  23  24
ATOM     24  O   UNL     1      -6.968  25.411  33.511  1.00  0.00    -0.394 OA
ATOM     25  H   UNL     1      -7.515  26.184  33.814  1.00  0.00     0.210 HD
ENDBRANCH  23  24
ENDBRANCH  17  23
BRANCH  18  26
ATOM     26  O   UNL     1      -4.615  23.571  34.121  1.00  0.00    -0.387 OA
ATOM     27  H   UNL     1      -3.914  23.404  34.805  1.00  0.00     0.211 HD
ENDBRANCH  18  26
ENDBRANCH  12  13
ENDBRANCH   7  12
BRANCH   4  28
ATOM     28  O   UNL     1      -0.641  23.504  25.205  1.00  0.00    -0.365 OA
ATOM     29  H   UNL     1      -1.491  23.056  24.945  1.00  0.00     0.214 HD
ENDBRANCH   4  28
BRANCH   8  30
ATOM     30  C   UNL     1      -0.397  27.206  28.349  1.00  0.00     0.249 C 
BRANCH  30  31
ATOM     31  O   UNL     1       0.862  27.673  27.587  1.00  0.00    -0.461 OA
BRANCH  31  32
ATOM     32  C   UNL     1       1.861  28.531  28.191  1.00  0.00     0.338 C 
ATOM     33  O   UNL     1       1.514  27.763  27.251  1.00  0.00    -0.246 OA
BRANCH  32  34
ATOM     34  C   UNL     1       3.073  28.139  28.939  1.00  0.00     0.060 A 
ATOM     35  C   UNL     1       3.573  26.820  28.917  1.00  0.00     0.015 A 
ATOM     36  C   UNL     1       3.722  29.103  29.727  1.00  0.00     0.015 A 
ATOM     37  C   UNL     1       4.707  26.481  29.657  1.00  0.00     0.001 A 
ATOM     38  C   UNL     1       4.841  28.753  30.491  1.00  0.00     0.001 A 
ATOM     39  C   UNL     1       5.337  27.447  30.455  1.00  0.00     0.000 A 
ENDBRANCH  32  34
ENDBRANCH  31  32
ENDBRANCH  30  31
ENDBRANCH   8  30
TORSDOF 12
ENDMDL
MODEL 8
REMARK VINA RESULT:    -6.465      2.066      5.514
REMARK INTER + INTRA:         -10.800
REMARK INTER:                  -9.746
REMARK INTRA:                  -1.054
REMARK UNBOUND:                -1.123
REMARK SMILES C[C@]12C[C@]3(O)O[C@H](O1)[C@@]1(COC(=O)c4ccccc4)[C@@H]3C[C@]12O[C@@H]1O[C@H](CO)[C@H](O)[C@@H](O)[C@H]1O
REMARK SMILES IDX 1 1 2 2 3 3 4 4 20 5 21 6 22 7 9 8 7 9 8 10 6 11 23 12 24 13
REMARK SMILES IDX 33 14 25 15 31 16 26 17 29 18 34 19 32 21 27 23 28 24 30 26
REMARK SMILES IDX 5 28 10 30 11 31 12 32 13 33 14 34 15 35 19 36 16 37 18 38
REMARK SMILES IDX 17 39
REMARK H PARENT 34 20 32 22 28 25 30 27 5 29
REMARK Flexibility Score: inf
ROOT
ATOM      1  C   UNL     1      -1.372  24.393  30.471  1.00  0.00     0.046 C 
ATOM      2  C   UNL     1      -0.571  24.730  29.213  1.00  0.00     0.104 C 
ATOM      3  C   UNL     1       0.603  23.701  29.008  1.00  0.00     0.104 C 
ATOM      4  C   UNL     1       1.294  24.178  27.680  1.00  0.00     0.175 C 
ATOM      5  C   UNL     1       0.228  24.407  26.544  1.00  0.00     0.070 C 
ATOM      6  C   UNL     1      -1.104  23.710  26.847  1.00  0.00     0.050 C 
ATOM      7  C   UNL     1      -1.378  24.843  27.860  1.00  0.00     0.115 C 
ATOM      8  C   UNL     1      -0.365  25.696  27.082  1.00  0.00     0.096 C 
ATOM      9  C   UNL     1       0.622  26.246  28.094  1.00  0.00     0.267 C 
ATOM     10  O   UNL     1       0.054  25.992  29.369  1.00  0.00    -0.342 OA
ATOM     11  O   UNL     1       1.799  25.469  27.959  1.00  0.00    -0.320 OA
ENDROOT
BRANCH   7  12
ATOM     12  O   UNL     1      -2.678  25.421  27.856  1.00  0.00    -0.339 OA
BRANCH  12  13
ATOM     13  C   UNL     1      -3.223  25.694  29.146  1.00  0.00     0.282 C 
ATOM     14  C   UNL     1      -3.441  27.223  29.302  1.00  0.00     0.202 C 
ATOM     15  O   UNL     1      -4.458  25.019  29.366  1.00  0.00    -0.341 OA
ATOM     16  C   UNL     1      -3.973  27.574  30.726  1.00  0.00     0.179 C 
ATOM     17  C   UNL     1      -5.074  25.252  30.635  1.00  0.00     0.178 C 
ATOM     18  C   UNL     1      -4.358  26.298  31.536  1.00  0.00     0.177 C 
BRANCH  14  19
ATOM     19  O   UNL     1      -2.298  27.999  29.015  1.00  0.00    -0.385 OA
ATOM     20  H   UNL     1      -1.530  27.706  29.570  1.00  0.00     0.211 HD
ENDBRANCH  14  19
BRANCH  16  21
ATOM     21  O   UNL     1      -3.044  28.342  31.463  1.00  0.00    -0.387 OA
ATOM     22  H   UNL     1      -3.555  29.060  31.927  1.00  0.00     0.211 HD
ENDBRANCH  16  21
BRANCH  17  23
ATOM     23  C   UNL     1      -6.542  25.645  30.380  1.00  0.00     0.191 C 
BRANCH  23  24
ATOM     24  O   UNL     1      -6.935  25.257  29.089  1.00  0.00    -0.394 OA
ATOM     25  H   UNL     1      -6.885  24.264  29.067  1.00  0.00     0.210 HD
ENDBRANCH  23  24
ENDBRANCH  17  23
BRANCH  18  26
ATOM     26  O   UNL     1      -5.121  26.569  32.693  1.00  0.00    -0.387 OA
ATOM     27  H   UNL     1      -4.673  27.271  33.234  1.00  0.00     0.211 HD
ENDBRANCH  18  26
ENDBRANCH  12  13
ENDBRANCH   7  12
BRANCH   4  28
ATOM     28  O   UNL     1       2.340  23.317  27.314  1.00  0.00    -0.365 OA
ATOM     29  H   UNL     1       2.336  22.545  27.942  1.00  0.00     0.214 HD
ENDBRANCH   4  28
BRANCH   8  30
ATOM     30  C   UNL     1      -0.931  26.678  26.029  1.00  0.00     0.249 C 
BRANCH  30  31
ATOM     31  O   UNL     1      -1.140  28.106  26.575  1.00  0.00    -0.461 OA
BRANCH  31  32
ATOM     32  C   UNL     1      -0.437  29.253  26.037  1.00  0.00     0.338 C 
ATOM     33  O   UNL     1      -1.422  28.465  25.993  1.00  0.00    -0.246 OA
BRANCH  32  34
ATOM     34  C   UNL     1       0.392  29.329  24.816  1.00  0.00     0.060 A 
ATOM     35  C   UNL     1      -0.066  29.955  23.637  1.00  0.00     0.015 A 
ATOM     36  C   UNL     1       1.659  28.723  24.821  1.00  0.00     0.015 A 
ATOM     37  C   UNL     1       0.735  29.984  22.495  1.00  0.00     0.001 A 
ATOM     38  C   UNL     1       2.448  28.728  23.665  1.00  0.00     0.001 A 
ATOM     39  C   UNL     1       1.991  29.360  22.504  1.00  0.00     0.000 A 
ENDBRANCH  32  34
ENDBRANCH  31  32
ENDBRANCH  30  31
ENDBRANCH   8  30
TORSDOF 12
ENDMDL
MODEL 9
REMARK VINA RESULT:    -6.455      2.247      5.695
REMARK INTER + INTRA:         -10.786
REMARK INTER:                 -10.224
REMARK INTRA:                  -0.562
REMARK UNBOUND:                -1.123
REMARK SMILES C[C@]12C[C@]3(O)O[C@H](O1)[C@@]1(COC(=O)c4ccccc4)[C@@H]3C[C@]12O[C@@H]1O[C@H](CO)[C@H](O)[C@@H](O)[C@H]1O
REMARK SMILES IDX 1 1 2 2 3 3 4 4 20 5 21 6 22 7 9 8 7 9 8 10 6 11 23 12 24 13
REMARK SMILES IDX 33 14 25 15 31 16 26 17 29 18 34 19 32 21 27 23 28 24 30 26
REMARK SMILES IDX 5 28 10 30 11 31 12 32 13 33 14 34 15 35 19 36 16 37 18 38
REMARK SMILES IDX 17 39
REMARK H PARENT 34 20 32 22 28 25 30 27 5 29
REMARK Flexibility Score: inf
ROOT
ATOM      1  C   UNL     1       0.509  22.975  27.469  1.00  0.00     0.046 C 
ATOM      2  C   UNL     1      -0.580  23.643  28.309  1.00  0.00     0.104 C 
ATOM      3  C   UNL     1      -0.119  23.783  29.809  1.00  0.00     0.104 C 
ATOM      4  C   UNL     1      -1.330  24.499  30.509  1.00  0.00     0.175 C 
ATOM      5  C   UNL     1      -1.779  25.768  29.692  1.00  0.00     0.070 C 
ATOM      6  C   UNL     1      -0.701  26.240  28.710  1.00  0.00     0.050 C 
ATOM      7  C   UNL     1      -1.103  25.049  27.814  1.00  0.00     0.115 C 
ATOM      8  C   UNL     1      -2.454  25.039  28.545  1.00  0.00     0.096 C 
ATOM      9  C   UNL     1      -2.697  23.616  29.010  1.00  0.00     0.267 C 
ATOM     10  O   UNL     1      -1.731  22.819  28.342  1.00  0.00    -0.342 OA
ATOM     11  O   UNL     1      -2.416  23.601  30.398  1.00  0.00    -0.320 OA
ENDROOT
BRANCH   7  12
ATOM     12  O   UNL     1      -1.250  25.301  26.422  1.00  0.00    -0.339 OA
BRANCH  12  13
ATOM     13  C   UNL     1      -0.202  26.066  25.831  1.00  0.00     0.282 C 
ATOM     14  C   UNL     1      -0.601  27.566  25.816  1.00  0.00     0.202 C 
ATOM     15  O   UNL     1       1.035  25.916  26.522  1.00  0.00    -0.341 OA
ATOM     16  C   UNL     1       0.490  28.432  25.114  1.00  0.00     0.179 C 
ATOM     17  C   UNL     1       2.134  26.663  25.995  1.00  0.00     0.178 C 
ATOM     18  C   UNL     1       1.783  27.614  24.816  1.00  0.00     0.177 C 
BRANCH  14  19
ATOM     19  O   UNL     1      -1.860  27.820  25.233  1.00  0.00    -0.385 OA
ATOM     20  H   UNL     1      -2.385  26.982  25.160  1.00  0.00     0.211 HD
ENDBRANCH  14  19
BRANCH  16  21
ATOM     21  O   UNL     1       0.012  29.019  23.920  1.00  0.00    -0.387 OA
ATOM     22  H   UNL     1       0.056  30.006  24.038  1.00  0.00     0.211 HD
ENDBRANCH  16  21
BRANCH  17  23
ATOM     23  C   UNL     1       2.782  27.434  27.162  1.00  0.00     0.191 C 
BRANCH  23  24
ATOM     24  O   UNL     1       4.173  27.251  27.156  1.00  0.00    -0.394 OA
ATOM     25  H   UNL     1       4.528  27.814  26.418  1.00  0.00     0.210 HD
ENDBRANCH  23  24
ENDBRANCH  17  23
BRANCH  18  26
ATOM     26  O   UNL     1       2.894  28.414  24.470  1.00  0.00    -0.387 OA
ATOM     27  H   UNL     1       3.712  28.062  24.911  1.00  0.00     0.211 HD
ENDBRANCH  18  26
ENDBRANCH  12  13
ENDBRANCH   7  12
BRANCH   4  28
ATOM     28  O   UNL     1      -1.053  24.760  31.860  1.00  0.00    -0.365 OA
ATOM     29  H   UNL     1      -1.891  24.619  32.378  1.00  0.00     0.214 HD
ENDBRANCH   4  28
BRANCH   8  30
ATOM     30  C   UNL     1      -3.630  25.780  27.864  1.00  0.00     0.249 C 
BRANCH  30  31
ATOM     31  O   UNL     1      -5.013  25.210  28.244  1.00  0.00    -0.461 OA
BRANCH  31  32
ATOM     32  C   UNL     1      -5.767  25.698  29.380  1.00  0.00     0.338 C 
ATOM     33  O   UNL     1      -4.952  25.919  28.442  1.00  0.00    -0.246 OA
BRANCH  32  34
ATOM     34  C   UNL     1      -5.282  25.986  30.746  1.00  0.00     0.060 A 
ATOM     35  C   UNL     1      -4.831  27.268  31.126  1.00  0.00     0.015 A 
ATOM     36  C   UNL     1      -5.234  24.939  31.680  1.00  0.00     0.015 A 
ATOM     37  C   UNL     1      -4.355  27.496  32.418  1.00  0.00     0.001 A 
ATOM     38  C   UNL     1      -4.730  25.164  32.966  1.00  0.00     0.001 A 
ATOM     39  C   UNL     1      -4.294  26.439  33.338  1.00  0.00     0.000 A 
ENDBRANCH  32  34
ENDBRANCH  31  32
ENDBRANCH  30  31
ENDBRANCH   8  30
TORSDOF 12
ENDMDL
