MODEL 1
REMARK VINA RESULT:    -6.888      0.000      0.000
REMARK INTER + INTRA:          -8.360
REMARK INTER:                  -8.096
REMARK INTRA:                  -0.265
REMARK UNBOUND:                -0.265
REMARK SMILES O=c1c(O)c(-c2ccc(O)c(O)c2)oc2cc(O)ccc12
REMARK SMILES IDX 5 1 3 2 2 3 1 4 21 5 15 6 14 7 16 8 17 9 19 10 20 11 6 12
REMARK SMILES IDX 7 13 8 14 9 15 13 16 11 17 10 18 12 20 4 22 18 24
REMARK H PARENT 10 19 12 21 4 23 18 25
REMARK Flexibility Score: inf
ROOT
ATOM      1  C   UNL     1      34.670  12.428  20.207  1.00  0.00     0.180 A 
ATOM      2  C   UNL     1      34.662  11.019  20.262  1.00  0.00     0.208 A 
ATOM      3  C   UNL     1      33.448  10.341  20.069  1.00  0.00     0.235 A 
ATOM      4  O   UNL     1      33.414   9.081  20.124  1.00  0.00    -0.285 OA
ATOM      5  C   UNL     1      32.281  11.076  19.807  1.00  0.00     0.069 A 
ATOM      6  C   UNL     1      32.377  12.483  19.745  1.00  0.00     0.142 A 
ATOM      7  O   UNL     1      33.544  13.087  19.942  1.00  0.00    -0.452 OA
ATOM      8  C   UNL     1      31.238  13.251  19.477  1.00  0.00     0.094 A 
ATOM      9  C   UNL     1      30.002  12.630  19.272  1.00  0.00     0.119 A 
ATOM     10  C   UNL     1      29.902  11.234  19.334  1.00  0.00     0.047 A 
ATOM     11  C   UNL     1      31.035  10.458  19.601  1.00  0.00     0.020 A 
ENDROOT
BRANCH   1  12
ATOM     12  C   UNL     1      35.906  13.216  20.419  1.00  0.00     0.025 A 
ATOM     13  C   UNL     1      36.845  13.318  19.380  1.00  0.00     0.016 A 
ATOM     14  C   UNL     1      38.010  14.072  19.550  1.00  0.00     0.051 A 
ATOM     15  C   UNL     1      38.243  14.749  20.754  1.00  0.00     0.157 A 
ATOM     16  C   UNL     1      36.135  13.913  21.618  1.00  0.00     0.062 A 
ATOM     17  C   UNL     1      37.297  14.672  21.791  1.00  0.00     0.158 A 
BRANCH  15  18
ATOM     18  O   UNL     1      39.405  15.499  20.922  1.00  0.00    -0.504 OA
ATOM     19  H   UNL     1      39.437  16.298  21.546  1.00  0.00     0.293 HD
ENDBRANCH  15  18
BRANCH  17  20
ATOM     20  O   UNL     1      37.494  15.346  22.996  1.00  0.00    -0.504 OA
ATOM     21  H   UNL     1      38.309  15.924  23.163  1.00  0.00     0.293 HD
ENDBRANCH  17  20
ENDBRANCH   1  12
BRANCH   2  22
ATOM     22  O   UNL     1      35.849  10.312  20.475  1.00  0.00    -0.502 OA
ATOM     23  H   UNL     1      36.705  10.768  20.770  1.00  0.00     0.293 HD
ENDBRANCH   2  22
BRANCH   9  24
ATOM     24  O   UNL     1      28.878  13.410  19.007  1.00  0.00    -0.508 OA
ATOM     25  H   UNL     1      28.225  13.166  18.271  1.00  0.00     0.293 HD
ENDBRANCH   9  24
TORSDOF 5
ENDMDL
MODEL 2
REMARK VINA RESULT:    -6.629      2.339      2.536
REMARK INTER + INTRA:          -8.056
REMARK INTER:                  -7.993
REMARK INTRA:                  -0.063
REMARK UNBOUND:                -0.265
REMARK SMILES O=c1c(O)c(-c2ccc(O)c(O)c2)oc2cc(O)ccc12
REMARK SMILES IDX 5 1 3 2 2 3 1 4 21 5 15 6 14 7 16 8 17 9 19 10 20 11 6 12
REMARK SMILES IDX 7 13 8 14 9 15 13 16 11 17 10 18 12 20 4 22 18 24
REMARK H PARENT 10 19 12 21 4 23 18 25
REMARK Flexibility Score: inf
ROOT
ATOM      1  C   UNL     1      34.195  10.422  20.136  1.00  0.00     0.180 A 
ATOM      2  C   UNL     1      33.671   9.122  20.292  1.00  0.00     0.208 A 
ATOM      3  C   UNL     1      32.280   8.940  20.228  1.00  0.00     0.235 A 
ATOM      4  O   UNL     1      31.787   7.788  20.374  1.00  0.00    -0.285 OA
ATOM      5  C   UNL     1      31.450  10.047  19.990  1.00  0.00     0.069 A 
ATOM      6  C   UNL     1      32.053  11.312  19.821  1.00  0.00     0.142 A 
ATOM      7  O   UNL     1      33.373  11.442  19.899  1.00  0.00    -0.452 OA
ATOM      8  C   UNL     1      31.261  12.438  19.574  1.00  0.00     0.094 A 
ATOM      9  C   UNL     1      29.870  12.318  19.494  1.00  0.00     0.119 A 
ATOM     10  C   UNL     1      29.267  11.064  19.663  1.00  0.00     0.047 A 
ATOM     11  C   UNL     1      30.051   9.932  19.910  1.00  0.00     0.020 A 
ENDROOT
BRANCH   1  12
ATOM     12  C   UNL     1      35.648  10.698  20.210  1.00  0.00     0.025 A 
ATOM     13  C   UNL     1      36.264  11.431  19.183  1.00  0.00     0.016 A 
ATOM     14  C   UNL     1      37.630  11.720  19.242  1.00  0.00     0.051 A 
ATOM     15  C   UNL     1      38.395  11.296  20.336  1.00  0.00     0.157 A 
ATOM     16  C   UNL     1      36.415  10.292  21.315  1.00  0.00     0.062 A 
ATOM     17  C   UNL     1      37.783  10.582  21.380  1.00  0.00     0.158 A 
BRANCH  15  18
ATOM     18  O   UNL     1      39.758  11.584  20.391  1.00  0.00    -0.504 OA
ATOM     19  H   UNL     1      40.096  12.497  20.673  1.00  0.00     0.293 HD
ENDBRANCH  15  18
BRANCH  17  20
ATOM     20  O   UNL     1      38.515  10.159  22.489  1.00  0.00    -0.504 OA
ATOM     21  H   UNL     1      39.521  10.047  22.459  1.00  0.00     0.293 HD
ENDBRANCH  17  20
ENDBRANCH   1  12
BRANCH   2  22
ATOM     22  O   UNL     1      34.526   8.032  20.477  1.00  0.00    -0.502 OA
ATOM     23  H   UNL     1      35.445   8.129  20.892  1.00  0.00     0.293 HD
ENDBRANCH   2  22
BRANCH   9  24
ATOM     24  O   UNL     1      29.096  13.449  19.248  1.00  0.00    -0.508 OA
ATOM     25  H   UNL     1      28.291  13.675  19.821  1.00  0.00     0.293 HD
ENDBRANCH   9  24
TORSDOF 5
ENDMDL
MODEL 3
REMARK VINA RESULT:    -6.628      1.188      1.478
REMARK INTER + INTRA:          -8.055
REMARK INTER:                  -7.731
REMARK INTRA:                  -0.324
REMARK UNBOUND:                -0.265
REMARK SMILES O=c1c(O)c(-c2ccc(O)c(O)c2)oc2cc(O)ccc12
REMARK SMILES IDX 5 1 3 2 2 3 1 4 21 5 15 6 14 7 16 8 17 9 19 10 20 11 6 12
REMARK SMILES IDX 7 13 8 14 9 15 13 16 11 17 10 18 12 20 4 22 18 24
REMARK H PARENT 10 19 12 21 4 23 18 25
REMARK Flexibility Score: inf
ROOT
ATOM      1  C   UNL     1      35.096  11.561  20.416  1.00  0.00     0.180 A 
ATOM      2  C   UNL     1      35.419  10.242  20.796  1.00  0.00     0.208 A 
ATOM      3  C   UNL     1      34.416   9.261  20.754  1.00  0.00     0.235 A 
ATOM      4  O   UNL     1      34.678   8.076  21.099  1.00  0.00    -0.285 OA
ATOM      5  C   UNL     1      33.128   9.608  20.317  1.00  0.00     0.069 A 
ATOM      6  C   UNL     1      32.891  10.945  19.931  1.00  0.00     0.142 A 
ATOM      7  O   UNL     1      33.866  11.846  19.995  1.00  0.00    -0.452 OA
ATOM      8  C   UNL     1      31.623  11.330  19.481  1.00  0.00     0.094 A 
ATOM      9  C   UNL     1      30.586  10.394  19.413  1.00  0.00     0.119 A 
ATOM     10  C   UNL     1      30.817   9.066  19.797  1.00  0.00     0.047 A 
ATOM     11  C   UNL     1      32.081   8.672  20.247  1.00  0.00     0.020 A 
ENDROOT
BRANCH   1  12
ATOM     12  C   UNL     1      36.093  12.656  20.451  1.00  0.00     0.025 A 
ATOM     13  C   UNL     1      36.823  12.961  19.292  1.00  0.00     0.016 A 
ATOM     14  C   UNL     1      37.755  14.002  19.296  1.00  0.00     0.051 A 
ATOM     15  C   UNL     1      37.957  14.764  20.454  1.00  0.00     0.157 A 
ATOM     16  C   UNL     1      36.284  13.436  21.605  1.00  0.00     0.062 A 
ATOM     17  C   UNL     1      37.213  14.482  21.612  1.00  0.00     0.158 A 
BRANCH  15  18
ATOM     18  O   UNL     1      38.888  15.802  20.456  1.00  0.00    -0.504 OA
ATOM     19  H   UNL     1      38.603  16.771  20.541  1.00  0.00     0.293 HD
ENDBRANCH  15  18
BRANCH  17  20
ATOM     20  O   UNL     1      37.381  15.232  22.776  1.00  0.00    -0.504 OA
ATOM     21  H   UNL     1      38.208  15.793  22.941  1.00  0.00     0.293 HD
ENDBRANCH  17  20
ENDBRANCH   1  12
BRANCH   2  22
ATOM     22  O   UNL     1      36.723   9.915  21.179  1.00  0.00    -0.502 OA
ATOM     23  H   UNL     1      37.163  10.315  22.000  1.00  0.00     0.293 HD
ENDBRANCH   2  22
BRANCH   9  24
ATOM     24  O   UNL     1      29.329  10.794  18.963  1.00  0.00    -0.508 OA
ATOM     25  H   UNL     1      28.478  10.421  19.369  1.00  0.00     0.293 HD
ENDBRANCH   9  24
TORSDOF 5
ENDMDL
MODEL 4
REMARK VINA RESULT:    -6.619      2.211      6.981
REMARK INTER + INTRA:          -8.044
REMARK INTER:                  -7.762
REMARK INTRA:                  -0.282
REMARK UNBOUND:                -0.265
REMARK SMILES O=c1c(O)c(-c2ccc(O)c(O)c2)oc2cc(O)ccc12
REMARK SMILES IDX 5 1 3 2 2 3 1 4 21 5 15 6 14 7 16 8 17 9 19 10 20 11 6 12
REMARK SMILES IDX 7 13 8 14 9 15 13 16 11 17 10 18 12 20 4 22 18 24
REMARK H PARENT 10 19 12 21 4 23 18 25
REMARK Flexibility Score: inf
ROOT
ATOM      1  C   UNL     1      34.305  10.433  19.887  1.00  0.00     0.180 A 
ATOM      2  C   UNL     1      35.034   9.617  20.777  1.00  0.00     0.208 A 
ATOM      3  C   UNL     1      36.356   9.970  21.089  1.00  0.00     0.235 A 
ATOM      4  O   UNL     1      37.032   9.250  21.876  1.00  0.00    -0.285 OA
ATOM      5  C   UNL     1      36.912  11.129  20.527  1.00  0.00     0.069 A 
ATOM      6  C   UNL     1      36.110  11.905  19.663  1.00  0.00     0.142 A 
ATOM      7  O   UNL     1      34.865  11.532  19.386  1.00  0.00    -0.452 OA
ATOM      8  C   UNL     1      36.625  13.073  19.090  1.00  0.00     0.094 A 
ATOM      9  C   UNL     1      37.935  13.476  19.367  1.00  0.00     0.119 A 
ATOM     10  C   UNL     1      38.736  12.708  20.223  1.00  0.00     0.047 A 
ATOM     11  C   UNL     1      38.229  11.539  20.802  1.00  0.00     0.020 A 
ENDROOT
BRANCH   1  12
ATOM     12  C   UNL     1      32.912  10.119  19.494  1.00  0.00     0.025 A 
ATOM     13  C   UNL     1      31.858  10.460  20.357  1.00  0.00     0.016 A 
ATOM     14  C   UNL     1      30.535  10.191  19.998  1.00  0.00     0.051 A 
ATOM     15  C   UNL     1      30.245   9.593  18.765  1.00  0.00     0.157 A 
ATOM     16  C   UNL     1      32.615   9.538  18.249  1.00  0.00     0.062 A 
ATOM     17  C   UNL     1      31.291   9.270  17.884  1.00  0.00     0.158 A 
BRANCH  15  18
ATOM     18  O   UNL     1      28.924   9.325  18.410  1.00  0.00    -0.504 OA
ATOM     19  H   UNL     1      28.170   9.957  18.653  1.00  0.00     0.293 HD
ENDBRANCH  15  18
BRANCH  17  20
ATOM     20  O   UNL     1      31.034   8.687  16.643  1.00  0.00    -0.504 OA
ATOM     21  H   UNL     1      30.987   7.683  16.519  1.00  0.00     0.293 HD
ENDBRANCH  17  20
ENDBRANCH   1  12
BRANCH   2  22
ATOM     22  O   UNL     1      34.436   8.497  21.360  1.00  0.00    -0.502 OA
ATOM     23  H   UNL     1      33.682   8.574  22.033  1.00  0.00     0.293 HD
ENDBRANCH   2  22
BRANCH   9  24
ATOM     24  O   UNL     1      38.432  14.641  18.788  1.00  0.00    -0.508 OA
ATOM     25  H   UNL     1      37.891  15.499  18.774  1.00  0.00     0.293 HD
ENDBRANCH   9  24
TORSDOF 5
ENDMDL
MODEL 5
REMARK VINA RESULT:    -6.569      2.515      3.064
REMARK INTER + INTRA:          -7.985
REMARK INTER:                  -7.695
REMARK INTRA:                  -0.290
REMARK UNBOUND:                -0.265
REMARK SMILES O=c1c(O)c(-c2ccc(O)c(O)c2)oc2cc(O)ccc12
REMARK SMILES IDX 5 1 3 2 2 3 1 4 21 5 15 6 14 7 16 8 17 9 19 10 20 11 6 12
REMARK SMILES IDX 7 13 8 14 9 15 13 16 11 17 10 18 12 20 4 22 18 24
REMARK H PARENT 10 19 12 21 4 23 18 25
REMARK Flexibility Score: inf
ROOT
ATOM      1  C   UNL     1      34.277  10.868  20.046  1.00  0.00     0.180 A 
ATOM      2  C   UNL     1      34.043  10.261  21.297  1.00  0.00     0.208 A 
ATOM      3  C   UNL     1      33.020   9.306  21.405  1.00  0.00     0.235 A 
ATOM      4  O   UNL     1      32.786   8.756  22.517  1.00  0.00    -0.285 OA
ATOM      5  C   UNL     1      32.272   8.964  20.268  1.00  0.00     0.069 A 
ATOM      6  C   UNL     1      32.583   9.599  19.046  1.00  0.00     0.142 A 
ATOM      7  O   UNL     1      33.554  10.505  18.989  1.00  0.00    -0.452 OA
ATOM      8  C   UNL     1      31.867   9.279  17.888  1.00  0.00     0.094 A 
ATOM      9  C   UNL     1      30.840   8.331  17.934  1.00  0.00     0.119 A 
ATOM     10  C   UNL     1      30.527   7.699  19.145  1.00  0.00     0.047 A 
ATOM     11  C   UNL     1      31.238   8.012  20.308  1.00  0.00     0.020 A 
ENDROOT
BRANCH   1  12
ATOM     12  C   UNL     1      35.324  11.898  19.855  1.00  0.00     0.025 A 
ATOM     13  C   UNL     1      34.970  13.256  19.895  1.00  0.00     0.016 A 
ATOM     14  C   UNL     1      35.945  14.245  19.738  1.00  0.00     0.051 A 
ATOM     15  C   UNL     1      37.288  13.891  19.555  1.00  0.00     0.157 A 
ATOM     16  C   UNL     1      36.675  11.548  19.691  1.00  0.00     0.062 A 
ATOM     17  C   UNL     1      37.654  12.535  19.537  1.00  0.00     0.158 A 
BRANCH  15  18
ATOM     18  O   UNL     1      38.257  14.880  19.397  1.00  0.00    -0.504 OA
ATOM     19  H   UNL     1      38.298  15.687  20.009  1.00  0.00     0.293 HD
ENDBRANCH  15  18
BRANCH  17  20
ATOM     20  O   UNL     1      38.985  12.151  19.371  1.00  0.00    -0.504 OA
ATOM     21  H   UNL     1      39.756  12.756  19.627  1.00  0.00     0.293 HD
ENDBRANCH  17  20
ENDBRANCH   1  12
BRANCH   2  22
ATOM     22  O   UNL     1      34.837  10.585  22.400  1.00  0.00    -0.502 OA
ATOM     23  H   UNL     1      35.822  10.810  22.312  1.00  0.00     0.293 HD
ENDBRANCH   2  22
BRANCH   9  24
ATOM     24  O   UNL     1      30.136   8.024  16.772  1.00  0.00    -0.508 OA
ATOM     25  H   UNL     1      30.513   8.231  15.854  1.00  0.00     0.293 HD
ENDBRANCH   9  24
TORSDOF 5
ENDMDL
MODEL 6
REMARK VINA RESULT:    -6.514      2.090      6.777
REMARK INTER + INTRA:          -7.920
REMARK INTER:                  -7.607
REMARK INTRA:                  -0.313
REMARK UNBOUND:                -0.265
REMARK SMILES O=c1c(O)c(-c2ccc(O)c(O)c2)oc2cc(O)ccc12
REMARK SMILES IDX 5 1 3 2 2 3 1 4 21 5 15 6 14 7 16 8 17 9 19 10 20 11 6 12
REMARK SMILES IDX 7 13 8 14 9 15 13 16 11 17 10 18 12 20 4 22 18 24
REMARK H PARENT 10 19 12 21 4 23 18 25
REMARK Flexibility Score: inf
ROOT
ATOM      1  C   UNL     1      34.777  10.940  20.056  1.00  0.00     0.180 A 
ATOM      2  C   UNL     1      35.609  10.980  18.918  1.00  0.00     0.208 A 
ATOM      3  C   UNL     1      36.587  11.983  18.830  1.00  0.00     0.235 A 
ATOM      4  O   UNL     1      37.337  12.046  17.817  1.00  0.00    -0.285 OA
ATOM      5  C   UNL     1      36.727  12.905  19.879  1.00  0.00     0.069 A 
ATOM      6  C   UNL     1      35.871  12.784  20.995  1.00  0.00     0.142 A 
ATOM      7  O   UNL     1      34.952  11.825  21.035  1.00  0.00    -0.452 OA
ATOM      8  C   UNL     1      35.985  13.677  22.066  1.00  0.00     0.094 A 
ATOM      9  C   UNL     1      36.944  14.694  22.036  1.00  0.00     0.119 A 
ATOM     10  C   UNL     1      37.795  14.820  20.929  1.00  0.00     0.047 A 
ATOM     11  C   UNL     1      37.689  13.930  19.855  1.00  0.00     0.020 A 
ENDROOT
BRANCH   1  12
ATOM     12  C   UNL     1      33.710   9.925  20.214  1.00  0.00     0.025 A 
ATOM     13  C   UNL     1      33.939   8.806  21.031  1.00  0.00     0.016 A 
ATOM     14  C   UNL     1      32.940   7.845  21.210  1.00  0.00     0.051 A 
ATOM     15  C   UNL     1      31.693   7.999  20.591  1.00  0.00     0.157 A 
ATOM     16  C   UNL     1      32.451  10.085  19.611  1.00  0.00     0.062 A 
ATOM     17  C   UNL     1      31.446   9.128  19.792  1.00  0.00     0.158 A 
BRANCH  15  18
ATOM     18  O   UNL     1      30.699   7.039  20.771  1.00  0.00    -0.504 OA
ATOM     19  H   UNL     1      30.809   6.277  21.431  1.00  0.00     0.293 HD
ENDBRANCH  15  18
BRANCH  17  20
ATOM     20  O   UNL     1      30.211   9.316  19.173  1.00  0.00    -0.504 OA
ATOM     21  H   UNL     1      29.973   8.868  18.297  1.00  0.00     0.293 HD
ENDBRANCH  17  20
ENDBRANCH   1  12
BRANCH   2  22
ATOM     22  O   UNL     1      35.480  10.018  17.913  1.00  0.00    -0.502 OA
ATOM     23  H   UNL     1      35.182  10.254  16.973  1.00  0.00     0.293 HD
ENDBRANCH   2  22
BRANCH   9  24
ATOM     24  O   UNL     1      37.043  15.576  23.110  1.00  0.00    -0.508 OA
ATOM     25  H   UNL     1      37.735  16.317  23.125  1.00  0.00     0.293 HD
ENDBRANCH   9  24
TORSDOF 5
ENDMDL
MODEL 7
REMARK VINA RESULT:    -6.464      2.316      3.320
REMARK INTER + INTRA:          -7.863
REMARK INTER:                  -7.552
REMARK INTRA:                  -0.310
REMARK UNBOUND:                -0.265
REMARK SMILES O=c1c(O)c(-c2ccc(O)c(O)c2)oc2cc(O)ccc12
REMARK SMILES IDX 5 1 3 2 2 3 1 4 21 5 15 6 14 7 16 8 17 9 19 10 20 11 6 12
REMARK SMILES IDX 7 13 8 14 9 15 13 16 11 17 10 18 12 20 4 22 18 24
REMARK H PARENT 10 19 12 21 4 23 18 25
REMARK Flexibility Score: inf
ROOT
ATOM      1  C   UNL     1      34.124  11.178  19.864  1.00  0.00     0.180 A 
ATOM      2  C   UNL     1      33.259  12.076  20.524  1.00  0.00     0.208 A 
ATOM      3  C   UNL     1      31.879  11.983  20.288  1.00  0.00     0.235 A 
ATOM      4  O   UNL     1      31.086  12.781  20.859  1.00  0.00    -0.285 OA
ATOM      5  C   UNL     1      31.392  10.991  19.422  1.00  0.00     0.069 A 
ATOM      6  C   UNL     1      32.320  10.115  18.818  1.00  0.00     0.142 A 
ATOM      7  O   UNL     1      33.620  10.243  19.061  1.00  0.00    -0.452 OA
ATOM      8  C   UNL     1      31.874   9.107  17.957  1.00  0.00     0.094 A 
ATOM      9  C   UNL     1      30.509   8.963  17.688  1.00  0.00     0.119 A 
ATOM     10  C   UNL     1      29.584   9.831  18.284  1.00  0.00     0.047 A 
ATOM     11  C   UNL     1      30.021  10.841  19.148  1.00  0.00     0.020 A 
ENDROOT
BRANCH   1  12
ATOM     12  C   UNL     1      35.593  11.225  20.045  1.00  0.00     0.025 A 
ATOM     13  C   UNL     1      36.373  11.986  19.160  1.00  0.00     0.016 A 
ATOM     14  C   UNL     1      37.759  12.061  19.323  1.00  0.00     0.051 A 
ATOM     15  C   UNL     1      38.382  11.391  20.384  1.00  0.00     0.157 A 
ATOM     16  C   UNL     1      36.220  10.570  21.119  1.00  0.00     0.062 A 
ATOM     17  C   UNL     1      37.607  10.646  21.289  1.00  0.00     0.158 A 
BRANCH  15  18
ATOM     18  O   UNL     1      39.765  11.466  20.544  1.00  0.00    -0.504 OA
ATOM     19  H   UNL     1      40.345  10.635  20.548  1.00  0.00     0.293 HD
ENDBRANCH  15  18
BRANCH  17  20
ATOM     20  O   UNL     1      38.196   9.979  22.363  1.00  0.00    -0.504 OA
ATOM     21  H   UNL     1      39.199   9.968  22.505  1.00  0.00     0.293 HD
ENDBRANCH  17  20
ENDBRANCH   1  12
BRANCH   2  22
ATOM     22  O   UNL     1      33.769  13.021  21.419  1.00  0.00    -0.502 OA
ATOM     23  H   UNL     1      34.748  13.283  21.430  1.00  0.00     0.293 HD
ENDBRANCH   2  22
BRANCH   9  24
ATOM     24  O   UNL     1      30.082   7.955  16.827  1.00  0.00    -0.508 OA
ATOM     25  H   UNL     1      30.023   8.103  15.825  1.00  0.00     0.293 HD
ENDBRANCH   9  24
TORSDOF 5
ENDMDL
MODEL 8
REMARK VINA RESULT:    -6.337      1.306      3.037
REMARK INTER + INTRA:          -7.713
REMARK INTER:                  -7.397
REMARK INTRA:                  -0.316
REMARK UNBOUND:                -0.265
REMARK SMILES O=c1c(O)c(-c2ccc(O)c(O)c2)oc2cc(O)ccc12
REMARK SMILES IDX 5 1 3 2 2 3 1 4 21 5 15 6 14 7 16 8 17 9 19 10 20 11 6 12
REMARK SMILES IDX 7 13 8 14 9 15 13 16 11 17 10 18 12 20 4 22 18 24
REMARK H PARENT 10 19 12 21 4 23 18 25
REMARK Flexibility Score: inf
ROOT
ATOM      1  C   UNL     1      34.435  12.522  20.594  1.00  0.00     0.180 A 
ATOM      2  C   UNL     1      33.246  13.119  20.126  1.00  0.00     0.208 A 
ATOM      3  C   UNL     1      32.088  12.333  20.026  1.00  0.00     0.235 A 
ATOM      4  O   UNL     1      31.015  12.842  19.600  1.00  0.00    -0.285 OA
ATOM      5  C   UNL     1      32.134  10.984  20.411  1.00  0.00     0.069 A 
ATOM      6  C   UNL     1      33.356  10.466  20.891  1.00  0.00     0.142 A 
ATOM      7  O   UNL     1      34.433  11.242  20.961  1.00  0.00    -0.452 OA
ATOM      8  C   UNL     1      33.441   9.129  21.293  1.00  0.00     0.094 A 
ATOM      9  C   UNL     1      32.318   8.299  21.220  1.00  0.00     0.119 A 
ATOM     10  C   UNL     1      31.103   8.808  20.742  1.00  0.00     0.047 A 
ATOM     11  C   UNL     1      31.008  10.144  20.339  1.00  0.00     0.020 A 
ENDROOT
BRANCH   1  12
ATOM     12  C   UNL     1      35.703  13.279  20.709  1.00  0.00     0.025 A 
ATOM     13  C   UNL     1      36.582  13.323  19.616  1.00  0.00     0.016 A 
ATOM     14  C   UNL     1      37.774  14.048  19.695  1.00  0.00     0.051 A 
ATOM     15  C   UNL     1      38.096  14.753  20.863  1.00  0.00     0.157 A 
ATOM     16  C   UNL     1      36.020  14.003  21.872  1.00  0.00     0.062 A 
ATOM     17  C   UNL     1      37.211  14.733  21.954  1.00  0.00     0.158 A 
BRANCH  15  18
ATOM     18  O   UNL     1      39.286  15.474  20.940  1.00  0.00    -0.504 OA
ATOM     19  H   UNL     1      40.116  15.184  20.436  1.00  0.00     0.293 HD
ENDBRANCH  15  18
BRANCH  17  20
ATOM     20  O   UNL     1      37.496  15.436  23.125  1.00  0.00    -0.504 OA
ATOM     21  H   UNL     1      37.098  15.177  24.019  1.00  0.00     0.293 HD
ENDBRANCH  17  20
ENDBRANCH   1  12
BRANCH   2  22
ATOM     22  O   UNL     1      33.219  14.477  19.797  1.00  0.00    -0.502 OA
ATOM     23  H   UNL     1      33.790  14.868  19.057  1.00  0.00     0.293 HD
ENDBRANCH   2  22
BRANCH   9  24
ATOM     24  O   UNL     1      32.420   6.970  21.624  1.00  0.00    -0.508 OA
ATOM     25  H   UNL     1      33.266   6.609  22.051  1.00  0.00     0.293 HD
ENDBRANCH   9  24
TORSDOF 5
ENDMDL
MODEL 9
REMARK VINA RESULT:    -6.290      2.150      7.285
REMARK INTER + INTRA:          -7.657
REMARK INTER:                  -7.357
REMARK INTRA:                  -0.300
REMARK UNBOUND:                -0.265
REMARK SMILES O=c1c(O)c(-c2ccc(O)c(O)c2)oc2cc(O)ccc12
REMARK SMILES IDX 5 1 3 2 2 3 1 4 21 5 15 6 14 7 16 8 17 9 19 10 20 11 6 12
REMARK SMILES IDX 7 13 8 14 9 15 13 16 11 17 10 18 12 20 4 22 18 24
REMARK H PARENT 10 19 12 21 4 23 18 25
REMARK Flexibility Score: inf
ROOT
ATOM      1  C   UNL     1      33.819  11.208  19.894  1.00  0.00     0.180 A 
ATOM      2  C   UNL     1      33.402  12.544  20.066  1.00  0.00     0.208 A 
ATOM      3  C   UNL     1      34.370  13.527  20.329  1.00  0.00     0.235 A 
ATOM      4  O   UNL     1      34.020  14.727  20.496  1.00  0.00    -0.285 OA
ATOM      5  C   UNL     1      35.724  13.162  20.394  1.00  0.00     0.069 A 
ATOM      6  C   UNL     1      36.062  11.807  20.187  1.00  0.00     0.142 A 
ATOM      7  O   UNL     1      35.115  10.906  19.950  1.00  0.00    -0.452 OA
ATOM      8  C   UNL     1      37.402  11.405  20.235  1.00  0.00     0.094 A 
ATOM      9  C   UNL     1      38.410  12.340  20.489  1.00  0.00     0.119 A 
ATOM     10  C   UNL     1      38.078  13.686  20.696  1.00  0.00     0.047 A 
ATOM     11  C   UNL     1      36.742  14.097  20.649  1.00  0.00     0.020 A 
ENDROOT
BRANCH   1  12
ATOM     12  C   UNL     1      32.858  10.112  19.632  1.00  0.00     0.025 A 
ATOM     13  C   UNL     1      32.164   9.533  20.706  1.00  0.00     0.016 A 
ATOM     14  C   UNL     1      31.238   8.511  20.481  1.00  0.00     0.051 A 
ATOM     15  C   UNL     1      30.979   8.067  19.178  1.00  0.00     0.157 A 
ATOM     16  C   UNL     1      32.581   9.677  18.325  1.00  0.00     0.062 A 
ATOM     17  C   UNL     1      31.651   8.657  18.094  1.00  0.00     0.158 A 
BRANCH  15  18
ATOM     18  O   UNL     1      30.055   7.046  18.957  1.00  0.00    -0.504 OA
ATOM     19  H   UNL     1      29.059   7.201  19.058  1.00  0.00     0.293 HD
ENDBRANCH  15  18
BRANCH  17  20
ATOM     20  O   UNL     1      31.405   8.246  16.785  1.00  0.00    -0.504 OA
ATOM     21  H   UNL     1      30.483   7.966  16.472  1.00  0.00     0.293 HD
ENDBRANCH  17  20
ENDBRANCH   1  12
BRANCH   2  22
ATOM     22  O   UNL     1      32.052  12.885  19.945  1.00  0.00    -0.502 OA
ATOM     23  H   UNL     1      31.690  13.779  20.256  1.00  0.00     0.293 HD
ENDBRANCH   2  22
BRANCH   9  24
ATOM     24  O   UNL     1      39.738  11.923  20.534  1.00  0.00    -0.508 OA
ATOM     25  H   UNL     1      40.435  12.304  19.904  1.00  0.00     0.293 HD
ENDBRANCH   9  24
TORSDOF 5
ENDMDL
