MODEL 1
REMARK VINA RESULT:    -3.574      0.000      0.000
REMARK INTER + INTRA:          -4.310
REMARK INTER:                  -4.201
REMARK INTRA:                  -0.109
REMARK UNBOUND:                -0.109
REMARK SMILES O=C([O-])CCC(=O)[O-]
REMARK SMILES IDX 4 1 2 2 1 3 3 4 5 5 6 6 7 7 8 8
REMARK H PARENT
REMARK Flexibility Score: inf
ROOT
ATOM      1  C   UNL     1     110.248 135.411 121.564  1.00  0.00     0.059 C 
ENDROOT
BRANCH   1   2
ATOM      2  C   UNL     1     109.173 134.384 121.738  1.00  0.00     0.042 C 
ATOM      3  O   UNL     1     108.082 134.498 121.120  1.00  0.00    -0.550 OA
ATOM      4  O   UNL     1     109.358 133.329 122.622  1.00  0.00    -0.550 OA
ENDBRANCH   1   2
BRANCH   1   5
ATOM      5  C   UNL     1     111.125 135.485 122.815  1.00  0.00     0.059 C 
BRANCH   5   6
ATOM      6  C   UNL     1     110.648 136.574 123.724  1.00  0.00     0.042 C 
ATOM      7  O   UNL     1     110.449 136.339 124.945  1.00  0.00    -0.550 OA
ATOM      8  O   UNL     1     110.377 137.837 123.212  1.00  0.00    -0.550 OA
ENDBRANCH   5   6
ENDBRANCH   1   5
TORSDOF 3
ENDMDL
MODEL 2
REMARK VINA RESULT:    -3.454      0.764      1.287
REMARK INTER + INTRA:          -4.169
REMARK INTER:                  -4.096
REMARK INTRA:                  -0.073
REMARK UNBOUND:                -0.109
REMARK SMILES O=C([O-])CCC(=O)[O-]
REMARK SMILES IDX 4 1 2 2 1 3 3 4 5 5 6 6 7 7 8 8
REMARK H PARENT
REMARK Flexibility Score: inf
ROOT
ATOM      1  C   UNL     1     110.244 135.149 121.511  1.00  0.00     0.059 C 
ENDROOT
BRANCH   1   2
ATOM      2  C   UNL     1     109.084 134.220 121.685  1.00  0.00     0.042 C 
ATOM      3  O   UNL     1     108.031 134.390 121.015  1.00  0.00    -0.550 OA
ATOM      4  O   UNL     1     109.148 133.196 122.621  1.00  0.00    -0.550 OA
ENDBRANCH   1   2
BRANCH   1   5
ATOM      5  C   UNL     1     109.940 136.508 122.144  1.00  0.00     0.059 C 
BRANCH   5   6
ATOM      6  C   UNL     1     110.627 136.635 123.467  1.00  0.00     0.042 C 
ATOM      7  O   UNL     1     110.913 137.772 123.926  1.00  0.00    -0.550 OA
ATOM      8  O   UNL     1     110.995 135.495 124.170  1.00  0.00    -0.550 OA
ENDBRANCH   5   6
ENDBRANCH   1   5
TORSDOF 3
ENDMDL
MODEL 3
REMARK VINA RESULT:    -3.429      0.701      3.584
REMARK INTER + INTRA:          -4.140
REMARK INTER:                  -4.054
REMARK INTRA:                  -0.086
REMARK UNBOUND:                -0.109
REMARK SMILES O=C([O-])CCC(=O)[O-]
REMARK SMILES IDX 4 1 2 2 1 3 3 4 5 5 6 6 7 7 8 8
REMARK H PARENT
REMARK Flexibility Score: inf
ROOT
ATOM      1  C   UNL     1     110.010 136.399 122.074  1.00  0.00     0.059 C 
ENDROOT
BRANCH   1   2
ATOM      2  C   UNL     1     110.511 136.746 123.440  1.00  0.00     0.042 C 
ATOM      3  O   UNL     1     110.782 137.941 123.731  1.00  0.00    -0.550 OA
ATOM      4  O   UNL     1     110.726 135.742 124.376  1.00  0.00    -0.550 OA
ENDBRANCH   1   2
BRANCH   1   5
ATOM      5  C   UNL     1     110.335 134.942 121.738  1.00  0.00     0.059 C 
BRANCH   5   6
ATOM      6  C   UNL     1     109.103 134.098 121.822  1.00  0.00     0.042 C 
ATOM      7  O   UNL     1     109.055 133.124 122.617  1.00  0.00    -0.550 OA
ATOM      8  O   UNL     1     108.024 134.359 120.986  1.00  0.00    -0.550 OA
ENDBRANCH   5   6
ENDBRANCH   1   5
TORSDOF 3
ENDMDL
MODEL 4
REMARK VINA RESULT:    -3.116      8.856      9.435
REMARK INTER + INTRA:          -3.772
REMARK INTER:                  -3.589
REMARK INTRA:                  -0.183
REMARK UNBOUND:                -0.109
REMARK SMILES O=C([O-])CCC(=O)[O-]
REMARK SMILES IDX 4 1 2 2 1 3 3 4 5 5 6 6 7 7 8 8
REMARK H PARENT
REMARK Flexibility Score: inf
ROOT
ATOM      1  C   UNL     1     105.309 128.793 122.388  1.00  0.00     0.059 C 
ENDROOT
BRANCH   1   2
ATOM      2  C   UNL     1     104.337 127.852 121.749  1.00  0.00     0.042 C 
ATOM      3  O   UNL     1     103.337 127.440 122.394  1.00  0.00    -0.550 OA
ATOM      4  O   UNL     1     104.563 127.392 120.458  1.00  0.00    -0.550 OA
ENDBRANCH   1   2
BRANCH   1   5
ATOM      5  C   UNL     1     106.717 128.196 122.379  1.00  0.00     0.059 C 
BRANCH   5   6
ATOM      6  C   UNL     1     106.771 126.970 123.236  1.00  0.00     0.042 C 
ATOM      7  O   UNL     1     107.232 125.894 122.773  1.00  0.00    -0.550 OA
ATOM      8  O   UNL     1     106.268 127.005 124.530  1.00  0.00    -0.550 OA
ENDBRANCH   5   6
ENDBRANCH   1   5
TORSDOF 3
ENDMDL
MODEL 5
REMARK VINA RESULT:    -3.099      8.345      9.353
REMARK INTER + INTRA:          -3.752
REMARK INTER:                  -3.701
REMARK INTRA:                  -0.051
REMARK UNBOUND:                -0.109
REMARK SMILES O=C([O-])CCC(=O)[O-]
REMARK SMILES IDX 4 1 2 2 1 3 3 4 5 5 6 6 7 7 8 8
REMARK H PARENT
REMARK Flexibility Score: inf
ROOT
ATOM      1  C   UNL     1     106.497 127.025 123.715  1.00  0.00     0.059 C 
ENDROOT
BRANCH   1   2
ATOM      2  C   UNL     1     107.932 127.051 124.137  1.00  0.00     0.042 C 
ATOM      3  O   UNL     1     108.559 125.973 124.313  1.00  0.00    -0.550 OA
ATOM      4  O   UNL     1     108.562 128.264 124.383  1.00  0.00    -0.550 OA
ENDBRANCH   1   2
BRANCH   1   5
ATOM      5  C   UNL     1     106.386 127.057 122.190  1.00  0.00     0.059 C 
BRANCH   5   6
ATOM      6  C   UNL     1     105.239 127.921 121.766  1.00  0.00     0.042 C 
ATOM      7  O   UNL     1     104.637 127.690 120.685  1.00  0.00    -0.550 OA
ATOM      8  O   UNL     1     104.868 129.011 122.543  1.00  0.00    -0.550 OA
ENDBRANCH   5   6
ENDBRANCH   1   5
TORSDOF 3
ENDMDL
MODEL 6
REMARK VINA RESULT:    -3.061      8.506      9.078
REMARK INTER + INTRA:          -3.707
REMARK INTER:                  -3.584
REMARK INTRA:                  -0.123
REMARK UNBOUND:                -0.109
REMARK SMILES O=C([O-])CCC(=O)[O-]
REMARK SMILES IDX 4 1 2 2 1 3 3 4 5 5 6 6 7 7 8 8
REMARK H PARENT
REMARK Flexibility Score: inf
ROOT
ATOM      1  C   UNL     1     106.592 127.913 122.075  1.00  0.00     0.059 C 
ENDROOT
BRANCH   1   2
ATOM      2  C   UNL     1     105.139 128.134 121.792  1.00  0.00     0.042 C 
ATOM      3  O   UNL     1     104.468 128.923 122.508  1.00  0.00    -0.550 OA
ATOM      4  O   UNL     1     104.515 127.430 120.770  1.00  0.00    -0.550 OA
ENDBRANCH   1   2
BRANCH   1   5
ATOM      5  C   UNL     1     106.788 126.652 122.918  1.00  0.00     0.059 C 
BRANCH   5   6
ATOM      6  C   UNL     1     106.953 127.007 124.361  1.00  0.00     0.042 C 
ATOM      7  O   UNL     1     105.958 127.005 125.132  1.00  0.00    -0.550 OA
ATOM      8  O   UNL     1     108.198 127.388 124.844  1.00  0.00    -0.550 OA
ENDBRANCH   5   6
ENDBRANCH   1   5
TORSDOF 3
ENDMDL
MODEL 7
REMARK VINA RESULT:    -3.048      8.498      9.388
REMARK INTER + INTRA:          -3.692
REMARK INTER:                  -3.567
REMARK INTRA:                  -0.125
REMARK UNBOUND:                -0.109
REMARK SMILES O=C([O-])CCC(=O)[O-]
REMARK SMILES IDX 4 1 2 2 1 3 3 4 5 5 6 6 7 7 8 8
REMARK H PARENT
REMARK Flexibility Score: inf
ROOT
ATOM      1  C   UNL     1     106.811 126.678 122.883  1.00  0.00     0.059 C 
ENDROOT
BRANCH   1   2
ATOM      2  C   UNL     1     106.968 127.001 124.335  1.00  0.00     0.042 C 
ATOM      3  O   UNL     1     108.114 127.189 124.822  1.00  0.00    -0.550 OA
ATOM      4  O   UNL     1     105.852 127.046 125.161  1.00  0.00    -0.550 OA
ENDBRANCH   1   2
BRANCH   1   5
ATOM      5  C   UNL     1     106.621 127.958 122.067  1.00  0.00     0.059 C 
BRANCH   5   6
ATOM      6  C   UNL     1     105.169 128.192 121.792  1.00  0.00     0.042 C 
ATOM      7  O   UNL     1     104.506 128.981 122.515  1.00  0.00    -0.550 OA
ATOM      8  O   UNL     1     104.536 127.500 120.767  1.00  0.00    -0.550 OA
ENDBRANCH   5   6
ENDBRANCH   1   5
TORSDOF 3
ENDMDL
MODEL 8
REMARK VINA RESULT:    -3.014      7.777      8.741
REMARK INTER + INTRA:          -3.652
REMARK INTER:                  -3.478
REMARK INTRA:                  -0.174
REMARK UNBOUND:                -0.109
REMARK SMILES O=C([O-])CCC(=O)[O-]
REMARK SMILES IDX 4 1 2 2 1 3 3 4 5 5 6 6 7 7 8 8
REMARK H PARENT
REMARK Flexibility Score: inf
ROOT
ATOM      1  C   UNL     1     105.876 127.133 122.031  1.00  0.00     0.059 C 
ENDROOT
BRANCH   1   2
ATOM      2  C   UNL     1     105.940 128.627 122.044  1.00  0.00     0.042 C 
ATOM      3  O   UNL     1     104.993 129.298 122.534  1.00  0.00    -0.550 OA
ATOM      4  O   UNL     1     107.022 129.281 121.469  1.00  0.00    -0.550 OA
ENDBRANCH   1   2
BRANCH   1   5
ATOM      5  C   UNL     1     107.109 126.538 122.713  1.00  0.00     0.059 C 
BRANCH   5   6
ATOM      6  C   UNL     1     107.192 126.995 124.136  1.00  0.00     0.042 C 
ATOM      7  O   UNL     1     106.250 126.752 124.935  1.00  0.00    -0.550 OA
ATOM      8  O   UNL     1     108.289 127.731 124.566  1.00  0.00    -0.550 OA
ENDBRANCH   5   6
ENDBRANCH   1   5
TORSDOF 3
ENDMDL
