MODEL 1
REMARK VINA RESULT:    -5.690      0.000      0.000
REMARK INTER + INTRA:          -6.622
REMARK INTER:                  -6.521
REMARK INTRA:                  -0.101
REMARK UNBOUND:                -0.101
REMARK SMILES COc1cc(C(=O)[O-])ccc1O
REMARK SMILES IDX 5 1 9 2 4 3 10 4 3 5 11 6 6 7 7 8 8 9 2 10 1 11 12 12
REMARK H PARENT 12 13
REMARK Flexibility Score: inf
ROOT
ATOM      1  C   UNL     1      57.366   1.454  16.743  1.00  0.00     0.001 A 
ATOM      2  C   UNL     1      56.484   1.961  15.775  1.00  0.00     0.014 A 
ATOM      3  C   UNL     1      57.863   0.145  16.600  1.00  0.00     0.060 A 
ATOM      4  C   UNL     1      56.107   1.176  14.684  1.00  0.00     0.051 A 
ATOM      5  C   UNL     1      57.484  -0.650  15.499  1.00  0.00     0.161 A 
ATOM      6  C   UNL     1      56.604  -0.126  14.543  1.00  0.00     0.157 A 
ENDROOT
BRANCH   1   7
ATOM      7  C   UNL     1      57.763   2.291  17.898  1.00  0.00     0.072 C 
ATOM      8  O   UNL     1      57.997   1.767  19.019  1.00  0.00    -0.545 OA
ATOM      9  O   UNL     1      57.884   3.669  17.760  1.00  0.00    -0.545 OA
ENDBRANCH   1   7
BRANCH   5  10
ATOM     10  O   UNL     1      57.960  -1.959  15.323  1.00  0.00    -0.493 OA
ATOM     11  C   UNL     1      57.452  -3.101  16.007  1.00  0.00     0.278 C 
ENDBRANCH   5  10
BRANCH   6  12
ATOM     12  O   UNL     1      56.224  -0.909  13.454  1.00  0.00    -0.504 OA
ATOM     13  H   UNL     1      55.573  -1.678  13.554  1.00  0.00     0.293 HD
ENDBRANCH   6  12
TORSDOF 3
ENDMDL
MODEL 2
REMARK VINA RESULT:    -5.687      1.813      2.975
REMARK INTER + INTRA:          -6.618
REMARK INTER:                  -6.567
REMARK INTRA:                  -0.052
REMARK UNBOUND:                -0.101
REMARK SMILES COc1cc(C(=O)[O-])ccc1O
REMARK SMILES IDX 5 1 9 2 4 3 10 4 3 5 11 6 6 7 7 8 8 9 2 10 1 11 12 12
REMARK H PARENT 12 13
REMARK Flexibility Score: inf
ROOT
ATOM      1  C   UNL     1      57.949   1.236  17.650  1.00  0.00     0.001 A 
ATOM      2  C   UNL     1      58.104   0.736  18.953  1.00  0.00     0.014 A 
ATOM      3  C   UNL     1      58.065   0.355  16.559  1.00  0.00     0.060 A 
ATOM      4  C   UNL     1      58.369  -0.619  19.162  1.00  0.00     0.051 A 
ATOM      5  C   UNL     1      58.333  -1.013  16.767  1.00  0.00     0.161 A 
ATOM      6  C   UNL     1      58.484  -1.493  18.074  1.00  0.00     0.157 A 
ENDROOT
BRANCH   1   7
ATOM      7  C   UNL     1      57.667   2.674  17.433  1.00  0.00     0.072 C 
ATOM      8  O   UNL     1      58.034   3.533  18.278  1.00  0.00    -0.545 OA
ATOM      9  O   UNL     1      56.994   3.095  16.292  1.00  0.00    -0.545 OA
ENDBRANCH   1   7
BRANCH   5  10
ATOM     10  O   UNL     1      58.455  -1.922  15.703  1.00  0.00    -0.493 OA
ATOM     11  C   UNL     1      57.392  -2.727  15.204  1.00  0.00     0.278 C 
ENDBRANCH   5  10
BRANCH   6  12
ATOM     12  O   UNL     1      58.750  -2.845  18.286  1.00  0.00    -0.504 OA
ATOM     13  H   UNL     1      58.109  -3.566  17.977  1.00  0.00     0.293 HD
ENDBRANCH   6  12
TORSDOF 3
ENDMDL
MODEL 3
REMARK VINA RESULT:    -5.626      2.390      3.296
REMARK INTER + INTRA:          -6.549
REMARK INTER:                  -6.468
REMARK INTRA:                  -0.081
REMARK UNBOUND:                -0.101
REMARK SMILES COc1cc(C(=O)[O-])ccc1O
REMARK SMILES IDX 5 1 9 2 4 3 10 4 3 5 11 6 6 7 7 8 8 9 2 10 1 11 12 12
REMARK H PARENT 12 13
REMARK Flexibility Score: inf
ROOT
ATOM      1  C   UNL     1      57.448  -1.207  15.209  1.00  0.00     0.001 A 
ATOM      2  C   UNL     1      56.309  -0.894  14.449  1.00  0.00     0.014 A 
ATOM      3  C   UNL     1      57.745  -2.556  15.474  1.00  0.00     0.060 A 
ATOM      4  C   UNL     1      55.483  -1.909  13.963  1.00  0.00     0.051 A 
ATOM      5  C   UNL     1      56.913  -3.584  14.985  1.00  0.00     0.161 A 
ATOM      6  C   UNL     1      55.782  -3.251  14.229  1.00  0.00     0.157 A 
ENDROOT
BRANCH   1   7
ATOM      7  C   UNL     1      58.320  -0.125  15.722  1.00  0.00     0.072 C 
ATOM      8  O   UNL     1      57.831   0.980  16.075  1.00  0.00    -0.545 OA
ATOM      9  O   UNL     1      59.694  -0.316  15.821  1.00  0.00    -0.545 OA
ENDBRANCH   1   7
BRANCH   5  10
ATOM     10  O   UNL     1      57.179  -4.941  15.229  1.00  0.00    -0.493 OA
ATOM     11  C   UNL     1      58.445  -5.457  15.627  1.00  0.00     0.278 C 
ENDBRANCH   5  10
BRANCH   6  12
ATOM     12  O   UNL     1      54.956  -4.264  13.743  1.00  0.00    -0.504 OA
ATOM     13  H   UNL     1      54.685  -5.050  14.322  1.00  0.00     0.293 HD
ENDBRANCH   6  12
TORSDOF 3
ENDMDL
MODEL 4
REMARK VINA RESULT:    -5.590      1.581      4.302
REMARK INTER + INTRA:          -6.507
REMARK INTER:                  -6.413
REMARK INTRA:                  -0.094
REMARK UNBOUND:                -0.101
REMARK SMILES COc1cc(C(=O)[O-])ccc1O
REMARK SMILES IDX 5 1 9 2 4 3 10 4 3 5 11 6 6 7 7 8 8 9 2 10 1 11 12 12
REMARK H PARENT 12 13
REMARK Flexibility Score: inf
ROOT
ATOM      1  C   UNL     1      57.058   1.278  15.490  1.00  0.00     0.001 A 
ATOM      2  C   UNL     1      56.760   2.635  15.692  1.00  0.00     0.014 A 
ATOM      3  C   UNL     1      57.700   0.557  16.515  1.00  0.00     0.060 A 
ATOM      4  C   UNL     1      57.095   3.261  16.894  1.00  0.00     0.051 A 
ATOM      5  C   UNL     1      58.040   1.186  17.729  1.00  0.00     0.161 A 
ATOM      6  C   UNL     1      57.733   2.541  17.912  1.00  0.00     0.157 A 
ENDROOT
BRANCH   1   7
ATOM      7  C   UNL     1      56.700   0.619  14.213  1.00  0.00     0.072 C 
ATOM      8  O   UNL     1      56.792   1.242  13.123  1.00  0.00    -0.545 OA
ATOM      9  O   UNL     1      56.257  -0.699  14.201  1.00  0.00    -0.545 OA
ENDBRANCH   1   7
BRANCH   5  10
ATOM     10  O   UNL     1      58.680   0.500  18.774  1.00  0.00    -0.493 OA
ATOM     11  C   UNL     1      58.009  -0.296  19.747  1.00  0.00     0.278 C 
ENDBRANCH   5  10
BRANCH   6  12
ATOM     12  O   UNL     1      58.068   3.168  19.111  1.00  0.00    -0.504 OA
ATOM     13  H   UNL     1      58.717   2.748  19.766  1.00  0.00     0.293 HD
ENDBRANCH   6  12
TORSDOF 3
ENDMDL
MODEL 5
REMARK VINA RESULT:    -5.589      2.564      4.680
REMARK INTER + INTRA:          -6.506
REMARK INTER:                  -6.409
REMARK INTRA:                  -0.097
REMARK UNBOUND:                -0.101
REMARK SMILES COc1cc(C(=O)[O-])ccc1O
REMARK SMILES IDX 5 1 9 2 4 3 10 4 3 5 11 6 6 7 7 8 8 9 2 10 1 11 12 12
REMARK H PARENT 12 13
REMARK Flexibility Score: inf
ROOT
ATOM      1  C   UNL     1      57.002  -1.650  15.303  1.00  0.00     0.001 A 
ATOM      2  C   UNL     1      57.332  -3.001  15.108  1.00  0.00     0.014 A 
ATOM      3  C   UNL     1      57.520  -0.972  16.422  1.00  0.00     0.060 A 
ATOM      4  C   UNL     1      58.164  -3.662  16.013  1.00  0.00     0.051 A 
ATOM      5  C   UNL     1      58.361  -1.637  17.338  1.00  0.00     0.161 A 
ATOM      6  C   UNL     1      58.679  -2.984  17.126  1.00  0.00     0.157 A 
ENDROOT
BRANCH   1   7
ATOM      7  C   UNL     1      56.119  -0.953  14.340  1.00  0.00     0.072 C 
ATOM      8  O   UNL     1      55.132  -1.547  13.830  1.00  0.00    -0.545 OA
ATOM      9  O   UNL     1      56.368   0.368  13.985  1.00  0.00    -0.545 OA
ENDBRANCH   1   7
BRANCH   5  10
ATOM     10  O   UNL     1      58.897  -0.993  18.465  1.00  0.00    -0.493 OA
ATOM     11  C   UNL     1      58.123  -0.484  19.547  1.00  0.00     0.278 C 
ENDBRANCH   5  10
BRANCH   6  12
ATOM     12  O   UNL     1      59.509  -3.647  18.029  1.00  0.00    -0.504 OA
ATOM     13  H   UNL     1      59.139  -4.092  18.861  1.00  0.00     0.293 HD
ENDBRANCH   6  12
TORSDOF 3
ENDMDL
MODEL 6
REMARK VINA RESULT:    -5.563      2.504      4.076
REMARK INTER + INTRA:          -6.477
REMARK INTER:                  -6.394
REMARK INTRA:                  -0.083
REMARK UNBOUND:                -0.101
REMARK SMILES COc1cc(C(=O)[O-])ccc1O
REMARK SMILES IDX 5 1 9 2 4 3 10 4 3 5 11 6 6 7 7 8 8 9 2 10 1 11 12 12
REMARK H PARENT 12 13
REMARK Flexibility Score: inf
ROOT
ATOM      1  C   UNL     1      57.293  -1.615  16.900  1.00  0.00     0.001 A 
ATOM      2  C   UNL     1      58.420  -1.876  17.696  1.00  0.00     0.014 A 
ATOM      3  C   UNL     1      56.918  -2.547  15.914  1.00  0.00     0.060 A 
ATOM      4  C   UNL     1      59.158  -3.047  17.512  1.00  0.00     0.051 A 
ATOM      5  C   UNL     1      57.662  -3.730  15.726  1.00  0.00     0.161 A 
ATOM      6  C   UNL     1      58.783  -3.973  16.531  1.00  0.00     0.157 A 
ENDROOT
BRANCH   1   7
ATOM      7  C   UNL     1      56.513  -0.372  17.099  1.00  0.00     0.072 C 
ATOM      8  O   UNL     1      57.019   0.613  17.700  1.00  0.00    -0.545 OA
ATOM      9  O   UNL     1      55.210  -0.274  16.625  1.00  0.00    -0.545 OA
ENDBRANCH   1   7
BRANCH   5  10
ATOM     10  O   UNL     1      57.318  -4.682  14.753  1.00  0.00    -0.493 OA
ATOM     11  C   UNL     1      56.007  -4.862  14.228  1.00  0.00     0.278 C 
ENDBRANCH   5  10
BRANCH   6  12
ATOM     12  O   UNL     1      59.522  -5.140  16.348  1.00  0.00    -0.504 OA
ATOM     13  H   UNL     1      60.251  -5.202  15.647  1.00  0.00     0.293 HD
ENDBRANCH   6  12
TORSDOF 3
ENDMDL
MODEL 7
REMARK VINA RESULT:    -5.524      2.105      3.813
REMARK INTER + INTRA:          -6.432
REMARK INTER:                  -6.337
REMARK INTRA:                  -0.095
REMARK UNBOUND:                -0.101
REMARK SMILES COc1cc(C(=O)[O-])ccc1O
REMARK SMILES IDX 5 1 9 2 4 3 10 4 3 5 11 6 6 7 7 8 8 9 2 10 1 11 12 12
REMARK H PARENT 12 13
REMARK Flexibility Score: inf
ROOT
ATOM      1  C   UNL     1      57.869   0.647  18.157  1.00  0.00     0.001 A 
ATOM      2  C   UNL     1      58.144   1.898  18.732  1.00  0.00     0.014 A 
ATOM      3  C   UNL     1      57.295   0.593  16.874  1.00  0.00     0.060 A 
ATOM      4  C   UNL     1      57.852   3.073  18.037  1.00  0.00     0.051 A 
ATOM      5  C   UNL     1      56.999   1.778  16.170  1.00  0.00     0.161 A 
ATOM      6  C   UNL     1      57.281   3.017  16.760  1.00  0.00     0.157 A 
ENDROOT
BRANCH   1   7
ATOM      7  C   UNL     1      58.182  -0.597  18.898  1.00  0.00     0.072 C 
ATOM      8  O   UNL     1      58.143  -0.620  20.156  1.00  0.00    -0.545 OA
ATOM      9  O   UNL     1      58.522  -1.758  18.213  1.00  0.00    -0.545 OA
ENDBRANCH   1   7
BRANCH   5  10
ATOM     10  O   UNL     1      56.426   1.764  14.888  1.00  0.00    -0.493 OA
ATOM     11  C   UNL     1      57.015   1.146  13.748  1.00  0.00     0.278 C 
ENDBRANCH   5  10
BRANCH   6  12
ATOM     12  O   UNL     1      56.989   4.192  16.069  1.00  0.00    -0.504 OA
ATOM     13  H   UNL     1      57.658   4.950  16.006  1.00  0.00     0.293 HD
ENDBRANCH   6  12
TORSDOF 3
ENDMDL
MODEL 8
REMARK VINA RESULT:    -5.487      2.433      3.879
REMARK INTER + INTRA:          -6.389
REMARK INTER:                  -6.307
REMARK INTRA:                  -0.083
REMARK UNBOUND:                -0.101
REMARK SMILES COc1cc(C(=O)[O-])ccc1O
REMARK SMILES IDX 5 1 9 2 4 3 10 4 3 5 11 6 6 7 7 8 8 9 2 10 1 11 12 12
REMARK H PARENT 12 13
REMARK Flexibility Score: inf
ROOT
ATOM      1  C   UNL     1      57.791  -2.144  16.501  1.00  0.00     0.001 A 
ATOM      2  C   UNL     1      57.603  -3.388  15.877  1.00  0.00     0.014 A 
ATOM      3  C   UNL     1      57.075  -1.027  16.030  1.00  0.00     0.060 A 
ATOM      4  C   UNL     1      56.717  -3.515  14.806  1.00  0.00     0.051 A 
ATOM      5  C   UNL     1      56.180  -1.152  14.949  1.00  0.00     0.161 A 
ATOM      6  C   UNL     1      56.007  -2.402  14.341  1.00  0.00     0.157 A 
ENDROOT
BRANCH   1   7
ATOM      7  C   UNL     1      58.732  -2.015  17.637  1.00  0.00     0.072 C 
ATOM      8  O   UNL     1      59.436  -2.994  18.000  1.00  0.00    -0.545 OA
ATOM      9  O   UNL     1      58.850  -0.810  18.320  1.00  0.00    -0.545 OA
ENDBRANCH   1   7
BRANCH   5  10
ATOM     10  O   UNL     1      55.449  -0.060  14.453  1.00  0.00    -0.493 OA
ATOM     11  C   UNL     1      55.338   1.200  15.107  1.00  0.00     0.278 C 
ENDBRANCH   5  10
BRANCH   6  12
ATOM     12  O   UNL     1      55.123  -2.531  13.270  1.00  0.00    -0.504 OA
ATOM     13  H   UNL     1      54.121  -2.471  13.399  1.00  0.00     0.293 HD
ENDBRANCH   6  12
TORSDOF 3
ENDMDL
MODEL 9
REMARK VINA RESULT:    -5.438      1.852      3.237
REMARK INTER + INTRA:          -6.334
REMARK INTER:                  -6.230
REMARK INTRA:                  -0.104
REMARK UNBOUND:                -0.101
REMARK SMILES COc1cc(C(=O)[O-])ccc1O
REMARK SMILES IDX 5 1 9 2 4 3 10 4 3 5 11 6 6 7 7 8 8 9 2 10 1 11 12 12
REMARK H PARENT 12 13
REMARK Flexibility Score: inf
ROOT
ATOM      1  C   UNL     1      57.870   0.159  16.644  1.00  0.00     0.001 A 
ATOM      2  C   UNL     1      58.405  -0.029  17.929  1.00  0.00     0.014 A 
ATOM      3  C   UNL     1      57.805  -0.936  15.762  1.00  0.00     0.060 A 
ATOM      4  C   UNL     1      58.865  -1.286  18.326  1.00  0.00     0.051 A 
ATOM      5  C   UNL     1      58.270  -2.206  16.160  1.00  0.00     0.161 A 
ATOM      6  C   UNL     1      58.799  -2.373  17.446  1.00  0.00     0.157 A 
ENDROOT
BRANCH   1   7
ATOM      7  C   UNL     1      57.383   1.494  16.229  1.00  0.00     0.072 C 
ATOM      8  O   UNL     1      57.363   2.452  17.046  1.00  0.00    -0.545 OA
ATOM      9  O   UNL     1      56.940   1.709  14.929  1.00  0.00    -0.545 OA
ENDBRANCH   1   7
BRANCH   5  10
ATOM     10  O   UNL     1      58.221  -3.321  15.308  1.00  0.00    -0.493 OA
ATOM     11  C   UNL     1      57.042  -4.070  15.026  1.00  0.00     0.278 C 
ENDBRANCH   5  10
BRANCH   6  12
ATOM     12  O   UNL     1      59.261  -3.627  17.844  1.00  0.00    -0.504 OA
ATOM     13  H   UNL     1      59.057  -4.000  18.763  1.00  0.00     0.293 HD
ENDBRANCH   6  12
TORSDOF 3
ENDMDL
