MODEL 1
REMARK VINA RESULT:    -3.031      0.000      0.000
REMARK INTER + INTRA:          -3.031
REMARK INTER:                  -3.031
REMARK INTRA:                   0.000
REMARK UNBOUND:                 0.000
REMARK SMILES CC(=O)[O-]
REMARK SMILES IDX 1 1 2 2 3 3 4 4
REMARK H PARENT
REMARK Flexibility Score: inf
ROOT
ATOM      1  C   UNL     1     -31.417  34.684  -4.232  1.00  0.00     0.063 C 
ATOM      2  C   UNL     1     -32.476  34.489  -5.264  1.00  0.00     0.038 C 
ATOM      3  O   UNL     1     -33.656  34.864  -5.036  1.00  0.00    -0.550 OA
ATOM      4  O   UNL     1     -32.153  33.941  -6.498  1.00  0.00    -0.550 OA
ENDROOT
TORSDOF 0
ENDMDL
MODEL 2
REMARK VINA RESULT:    -2.876      1.518      2.130
REMARK INTER + INTRA:          -2.876
REMARK INTER:                  -2.876
REMARK INTRA:                   0.000
REMARK UNBOUND:                 0.000
REMARK SMILES CC(=O)[O-]
REMARK SMILES IDX 1 1 2 2 3 3 4 4
REMARK H PARENT
REMARK Flexibility Score: inf
ROOT
ATOM      1  C   UNL     1     -33.743  34.617  -4.596  1.00  0.00     0.063 C 
ATOM      2  C   UNL     1     -32.288  34.546  -4.913  1.00  0.00     0.038 C 
ATOM      3  O   UNL     1     -31.908  34.344  -6.096  1.00  0.00    -0.550 OA
ATOM      4  O   UNL     1     -31.347  34.754  -3.913  1.00  0.00    -0.550 OA
ENDROOT
TORSDOF 0
ENDMDL
MODEL 3
REMARK VINA RESULT:    -2.871      1.503      1.829
REMARK INTER + INTRA:          -2.871
REMARK INTER:                  -2.871
REMARK INTRA:                   0.000
REMARK UNBOUND:                 0.000
REMARK SMILES CC(=O)[O-]
REMARK SMILES IDX 1 1 2 2 3 3 4 4
REMARK H PARENT
REMARK Flexibility Score: inf
ROOT
ATOM      1  C   UNL     1     -32.122  34.002  -6.131  1.00  0.00     0.063 C 
ATOM      2  C   UNL     1     -32.406  34.547  -4.772  1.00  0.00     0.038 C 
ATOM      3  O   UNL     1     -33.594  34.763  -4.414  1.00  0.00    -0.550 OA
ATOM      4  O   UNL     1     -31.367  34.767  -3.879  1.00  0.00    -0.550 OA
ENDROOT
TORSDOF 0
ENDMDL
MODEL 4
REMARK VINA RESULT:    -2.682     18.256     18.634
REMARK INTER + INTRA:          -2.682
REMARK INTER:                  -2.682
REMARK INTRA:                   0.000
REMARK UNBOUND:                 0.000
REMARK SMILES CC(=O)[O-]
REMARK SMILES IDX 1 1 2 2 3 3 4 4
REMARK H PARENT
REMARK Flexibility Score: inf
ROOT
ATOM      1  C   UNL     1     -19.294  43.579   2.827  1.00  0.00     0.063 C 
ATOM      2  C   UNL     1     -19.231  43.299   4.290  1.00  0.00     0.038 C 
ATOM      3  O   UNL     1     -19.749  42.249   4.755  1.00  0.00    -0.550 OA
ATOM      4  O   UNL     1     -18.556  44.167   5.137  1.00  0.00    -0.550 OA
ENDROOT
TORSDOF 0
ENDMDL
MODEL 5
REMARK VINA RESULT:    -2.677     18.161     18.537
REMARK INTER + INTRA:          -2.677
REMARK INTER:                  -2.677
REMARK INTRA:                   0.000
REMARK UNBOUND:                 0.000
REMARK SMILES CC(=O)[O-]
REMARK SMILES IDX 1 1 2 2 3 3 4 4
REMARK H PARENT
REMARK Flexibility Score: inf
ROOT
ATOM      1  C   UNL     1     -19.674  41.955   4.396  1.00  0.00     0.063 C 
ATOM      2  C   UNL     1     -19.175  43.316   4.051  1.00  0.00     0.038 C 
ATOM      3  O   UNL     1     -19.302  43.758   2.878  1.00  0.00    -0.550 OA
ATOM      4  O   UNL     1     -18.615  44.123   5.033  1.00  0.00    -0.550 OA
ENDROOT
TORSDOF 0
ENDMDL
MODEL 6
REMARK VINA RESULT:    -2.668     17.782     18.133
REMARK INTER + INTRA:          -2.668
REMARK INTER:                  -2.668
REMARK INTRA:                   0.000
REMARK UNBOUND:                 0.000
REMARK SMILES CC(=O)[O-]
REMARK SMILES IDX 1 1 2 2 3 3 4 4
REMARK H PARENT
REMARK Flexibility Score: inf
ROOT
ATOM      1  C   UNL     1     -18.711  43.849   4.825  1.00  0.00     0.063 C 
ATOM      2  C   UNL     1     -19.355  43.187   3.654  1.00  0.00     0.038 C 
ATOM      3  O   UNL     1     -19.269  43.706   2.509  1.00  0.00    -0.550 OA
ATOM      4  O   UNL     1     -20.005  41.971   3.811  1.00  0.00    -0.550 OA
ENDROOT
TORSDOF 0
ENDMDL
MODEL 7
REMARK VINA RESULT:    -2.509     17.209     17.698
REMARK INTER + INTRA:          -2.509
REMARK INTER:                  -2.509
REMARK INTRA:                   0.000
REMARK UNBOUND:                 0.000
REMARK SMILES CC(=O)[O-]
REMARK SMILES IDX 1 1 2 2 3 3 4 4
REMARK H PARENT
REMARK Flexibility Score: inf
ROOT
ATOM      1  C   UNL     1     -16.409  40.730  -3.654  1.00  0.00     0.063 C 
ATOM      2  C   UNL     1     -16.659  42.198  -3.591  1.00  0.00     0.038 C 
ATOM      3  O   UNL     1     -15.801  43.005  -4.036  1.00  0.00    -0.550 OA
ATOM      4  O   UNL     1     -17.861  42.679  -3.089  1.00  0.00    -0.550 OA
ENDROOT
TORSDOF 0
ENDMDL
MODEL 8
REMARK VINA RESULT:    -2.475     16.489     16.932
REMARK INTER + INTRA:          -2.475
REMARK INTER:                  -2.475
REMARK INTRA:                   0.000
REMARK UNBOUND:                 0.000
REMARK SMILES CC(=O)[O-]
REMARK SMILES IDX 1 1 2 2 3 3 4 4
REMARK H PARENT
REMARK Flexibility Score: inf
ROOT
ATOM      1  C   UNL     1     -23.271  36.324   7.444  1.00  0.00     0.063 C 
ATOM      2  C   UNL     1     -21.927  35.774   7.782  1.00  0.00     0.038 C 
ATOM      3  O   UNL     1     -21.129  35.447   6.864  1.00  0.00    -0.550 OA
ATOM      4  O   UNL     1     -21.530  35.670   9.108  1.00  0.00    -0.550 OA
ENDROOT
TORSDOF 0
ENDMDL
MODEL 9
REMARK VINA RESULT:    -2.473     16.531     16.911
REMARK INTER + INTRA:          -2.473
REMARK INTER:                  -2.473
REMARK INTRA:                   0.000
REMARK UNBOUND:                 0.000
REMARK SMILES CC(=O)[O-]
REMARK SMILES IDX 1 1 2 2 3 3 4 4
REMARK H PARENT
REMARK Flexibility Score: inf
ROOT
ATOM      1  C   UNL     1     -21.304  35.884   9.210  1.00  0.00     0.063 C 
ATOM      2  C   UNL     1     -21.899  35.787   7.846  1.00  0.00     0.038 C 
ATOM      3  O   UNL     1     -23.088  36.152   7.648  1.00  0.00    -0.550 OA
ATOM      4  O   UNL     1     -21.127  35.346   6.779  1.00  0.00    -0.550 OA
ENDROOT
TORSDOF 0
ENDMDL
