MODEL 1
REMARK VINA RESULT:    -5.763      0.000      0.000
REMARK INTER + INTRA:         -10.313
REMARK INTER:                  -8.964
REMARK INTRA:                  -1.349
REMARK UNBOUND:                -1.349
REMARK SMILES C[C@@]12C[C@@]3(O)O[C@@H](O1)[C@]1(COC(=O)c4ccccc4)[C@H]3C[C@@]12O[C@@H]1O[C@H](CO)[C@@H](O)[C@@H](O)[C@@H]1O
REMARK SMILES IDX 1 1 2 2 3 3 4 4 20 5 21 6 22 7 9 8 7 9 8 10 6 11 23 12 24 13
REMARK SMILES IDX 33 14 25 15 31 16 26 17 29 18 34 19 32 21 27 23 28 24 30 26
REMARK SMILES IDX 5 28 10 30 11 31 12 32 13 33 14 34 15 35 19 36 16 37 18 38
REMARK SMILES IDX 17 39
REMARK H PARENT 34 20 32 22 28 25 30 27 5 29
REMARK Flexibility Score: inf
ROOT
ATOM      1  C   UNL     1      41.401  40.876  10.594  1.00  0.00     0.046 C 
ATOM      2  C   UNL     1      42.578  40.484   9.707  1.00  0.00     0.104 C 
ATOM      3  C   UNL     1      43.361  39.271  10.315  1.00  0.00     0.104 C 
ATOM      4  C   UNL     1      44.519  39.029   9.302  1.00  0.00     0.175 C 
ATOM      5  C   UNL     1      45.274  40.359   8.978  1.00  0.00     0.070 C 
ATOM      6  C   UNL     1      45.041  41.431  10.028  1.00  0.00     0.050 C 
ATOM      7  C   UNL     1      43.638  41.625   9.398  1.00  0.00     0.115 C 
ATOM      8  C   UNL     1      44.205  41.033   8.115  1.00  0.00     0.096 C 
ATOM      9  C   UNL     1      43.277  39.900   7.666  1.00  0.00     0.267 C 
ATOM     10  O   UNL     1      42.099  40.072   8.444  1.00  0.00    -0.342 OA
ATOM     11  O   UNL     1      43.916  38.700   8.067  1.00  0.00    -0.320 OA
ENDROOT
BRANCH   7  12
ATOM     12  O   UNL     1      43.162  42.976   9.357  1.00  0.00    -0.339 OA
BRANCH  12  13
ATOM     13  C   UNL     1      43.694  43.758  10.437  1.00  0.00     0.282 C 
ATOM     14  C   UNL     1      44.426  45.020   9.898  1.00  0.00     0.202 C 
ATOM     15  O   UNL     1      42.643  44.114  11.328  1.00  0.00    -0.341 OA
ATOM     16  C   UNL     1      43.434  45.854   9.108  1.00  0.00     0.179 C 
ATOM     17  C   UNL     1      41.709  45.080  10.843  1.00  0.00     0.178 C 
ATOM     18  C   UNL     1      42.306  46.298  10.085  1.00  0.00     0.177 C 
BRANCH  14  19
ATOM     19  O   UNL     1      45.509  44.672   9.085  1.00  0.00    -0.385 OA
ATOM     20  H   UNL     1      45.116  44.378   8.221  1.00  0.00     0.211 HD
ENDBRANCH  14  19
BRANCH  16  21
ATOM     21  O   UNL     1      44.065  46.966   8.466  1.00  0.00    -0.387 OA
ATOM     22  H   UNL     1      44.434  47.671   9.101  1.00  0.00     0.211 HD
ENDBRANCH  16  21
BRANCH  17  23
ATOM     23  C   UNL     1      40.544  44.427  10.056  1.00  0.00     0.191 C 
BRANCH  23  24
ATOM     24  O   UNL     1      40.782  44.400   8.662  1.00  0.00    -0.394 OA
ATOM     25  H   UNL     1      41.732  44.145   8.540  1.00  0.00     0.210 HD
ENDBRANCH  23  24
ENDBRANCH  17  23
BRANCH  18  26
ATOM     26  O   UNL     1      42.845  47.216  11.002  1.00  0.00    -0.387 OA
ATOM     27  H   UNL     1      42.449  47.020  11.897  1.00  0.00     0.211 HD
ENDBRANCH  18  26
ENDBRANCH  12  13
ENDBRANCH   7  12
BRANCH   4  28
ATOM     28  O   UNL     1      45.361  37.984   9.729  1.00  0.00    -0.365 OA
ATOM     29  H   UNL     1      46.274  38.200   9.405  1.00  0.00     0.214 HD
ENDBRANCH   4  28
BRANCH   8  30
ATOM     30  C   UNL     1      44.695  42.019   7.010  1.00  0.00     0.249 C 
BRANCH  30  31
ATOM     31  O   UNL     1      43.798  42.061   5.893  1.00  0.00    -0.461 OA
BRANCH  31  32
ATOM     32  C   UNL     1      42.742  42.968   5.769  1.00  0.00     0.338 C 
ATOM     33  O   UNL     1      42.807  44.106   6.325  1.00  0.00    -0.246 OA
BRANCH  32  34
ATOM     34  C   UNL     1      41.564  42.607   4.950  1.00  0.00     0.060 A 
ATOM     35  C   UNL     1      41.202  41.275   4.780  1.00  0.00     0.015 A 
ATOM     36  C   UNL     1      40.780  43.611   4.334  1.00  0.00     0.015 A 
ATOM     37  C   UNL     1      40.103  40.920   3.996  1.00  0.00     0.001 A 
ATOM     38  C   UNL     1      39.678  43.263   3.551  1.00  0.00     0.001 A 
ATOM     39  C   UNL     1      39.348  41.925   3.352  1.00  0.00     0.000 A 
ENDBRANCH  32  34
ENDBRANCH  31  32
ENDBRANCH  30  31
ENDBRANCH   8  30
TORSDOF 12
ENDMDL
MODEL 2
REMARK VINA RESULT:    -5.674      1.975      6.080
REMARK INTER + INTRA:         -10.174
REMARK INTER:                  -9.192
REMARK INTRA:                  -0.982
REMARK UNBOUND:                -1.349
REMARK SMILES C[C@@]12C[C@@]3(O)O[C@@H](O1)[C@]1(COC(=O)c4ccccc4)[C@H]3C[C@@]12O[C@@H]1O[C@H](CO)[C@@H](O)[C@@H](O)[C@@H]1O
REMARK SMILES IDX 1 1 2 2 3 3 4 4 20 5 21 6 22 7 9 8 7 9 8 10 6 11 23 12 24 13
REMARK SMILES IDX 33 14 25 15 31 16 26 17 29 18 34 19 32 21 27 23 28 24 30 26
REMARK SMILES IDX 5 28 10 30 11 31 12 32 13 33 14 34 15 35 19 36 16 37 18 38
REMARK SMILES IDX 17 39
REMARK H PARENT 34 20 32 22 28 25 30 27 5 29
REMARK Flexibility Score: inf
ROOT
ATOM      1  C   UNL     1      41.095  45.055   9.717  1.00  0.00     0.046 C 
ATOM      2  C   UNL     1      42.548  44.929  10.162  1.00  0.00     0.104 C 
ATOM      3  C   UNL     1      43.168  46.336  10.464  1.00  0.00     0.104 C 
ATOM      4  C   UNL     1      44.635  46.015  10.877  1.00  0.00     0.175 C 
ATOM      5  C   UNL     1      45.322  45.070   9.839  1.00  0.00     0.070 C 
ATOM      6  C   UNL     1      44.613  45.070   8.495  1.00  0.00     0.050 C 
ATOM      7  C   UNL     1      43.529  44.184   9.160  1.00  0.00     0.115 C 
ATOM      8  C   UNL     1      44.584  43.773  10.178  1.00  0.00     0.096 C 
ATOM      9  C   UNL     1      44.003  43.994  11.578  1.00  0.00     0.267 C 
ATOM     10  O   UNL     1      42.610  44.186  11.362  1.00  0.00    -0.342 OA
ATOM     11  O   UNL     1      44.565  45.211  12.037  1.00  0.00    -0.320 OA
ENDROOT
BRANCH   7  12
ATOM     12  O   UNL     1      42.970  43.162   8.326  1.00  0.00    -0.339 OA
BRANCH  12  13
ATOM     13  C   UNL     1      42.872  43.589   6.958  1.00  0.00     0.282 C 
ATOM     14  C   UNL     1      43.488  42.528   6.001  1.00  0.00     0.202 C 
ATOM     15  O   UNL     1      41.510  43.843   6.637  1.00  0.00    -0.341 OA
ATOM     16  C   UNL     1      42.736  41.222   6.180  1.00  0.00     0.179 C 
ATOM     17  C   UNL     1      40.665  42.696   6.533  1.00  0.00     0.178 C 
ATOM     18  C   UNL     1      41.252  41.473   5.778  1.00  0.00     0.177 C 
BRANCH  14  19
ATOM     19  O   UNL     1      44.847  42.334   6.263  1.00  0.00    -0.385 OA
ATOM     20  H   UNL     1      45.286  42.253   5.375  1.00  0.00     0.211 HD
ENDBRANCH  14  19
BRANCH  16  21
ATOM     21  O   UNL     1      43.329  40.159   5.431  1.00  0.00    -0.387 OA
ATOM     22  H   UNL     1      42.881  39.965   4.538  1.00  0.00     0.211 HD
ENDBRANCH  16  21
BRANCH  17  23
ATOM     23  C   UNL     1      40.054  42.292   7.899  1.00  0.00     0.191 C 
BRANCH  23  24
ATOM     24  O   UNL     1      40.771  41.244   8.522  1.00  0.00    -0.394 OA
ATOM     25  H   UNL     1      41.722  41.361   8.270  1.00  0.00     0.210 HD
ENDBRANCH  23  24
ENDBRANCH  17  23
BRANCH  18  26
ATOM     26  O   UNL     1      41.196  41.692   4.392  1.00  0.00    -0.387 OA
ATOM     27  H   UNL     1      40.470  42.354   4.218  1.00  0.00     0.211 HD
ENDBRANCH  18  26
ENDBRANCH  12  13
ENDBRANCH   7  12
BRANCH   4  28
ATOM     28  O   UNL     1      45.360  47.193  11.142  1.00  0.00    -0.365 OA
ATOM     29  H   UNL     1      45.845  47.426  10.309  1.00  0.00     0.214 HD
ENDBRANCH   4  28
BRANCH   8  30
ATOM     30  C   UNL     1      45.346  42.432   9.938  1.00  0.00     0.249 C 
BRANCH  30  31
ATOM     31  O   UNL     1      44.761  41.345  10.665  1.00  0.00    -0.461 OA
BRANCH  31  32
ATOM     32  C   UNL     1      45.370  40.100  10.839  1.00  0.00     0.338 C 
ATOM     33  O   UNL     1      46.334  39.967  11.652  1.00  0.00    -0.246 OA
BRANCH  32  34
ATOM     34  C   UNL     1      44.856  38.927  10.097  1.00  0.00     0.060 A 
ATOM     35  C   UNL     1      44.108  39.096   8.936  1.00  0.00     0.015 A 
ATOM     36  C   UNL     1      45.126  37.614  10.549  1.00  0.00     0.015 A 
ATOM     37  C   UNL     1      43.604  37.999   8.236  1.00  0.00     0.001 A 
ATOM     38  C   UNL     1      44.626  36.512   9.853  1.00  0.00     0.001 A 
ATOM     39  C   UNL     1      43.843  36.692   8.716  1.00  0.00     0.000 A 
ENDBRANCH  32  34
ENDBRANCH  31  32
ENDBRANCH  30  31
ENDBRANCH   8  30
TORSDOF 12
ENDMDL
MODEL 3
REMARK VINA RESULT:    -5.642      1.913      6.443
REMARK INTER + INTRA:         -10.125
REMARK INTER:                  -9.020
REMARK INTRA:                  -1.105
REMARK UNBOUND:                -1.349
REMARK SMILES C[C@@]12C[C@@]3(O)O[C@@H](O1)[C@]1(COC(=O)c4ccccc4)[C@H]3C[C@@]12O[C@@H]1O[C@H](CO)[C@@H](O)[C@@H](O)[C@@H]1O
REMARK SMILES IDX 1 1 2 2 3 3 4 4 20 5 21 6 22 7 9 8 7 9 8 10 6 11 23 12 24 13
REMARK SMILES IDX 33 14 25 15 31 16 26 17 29 18 34 19 32 21 27 23 28 24 30 26
REMARK SMILES IDX 5 28 10 30 11 31 12 32 13 33 14 34 15 35 19 36 16 37 18 38
REMARK SMILES IDX 17 39
REMARK H PARENT 34 20 32 22 28 25 30 27 5 29
REMARK Flexibility Score: inf
ROOT
ATOM      1  C   UNL     1      41.077  45.022   9.721  1.00  0.00     0.046 C 
ATOM      2  C   UNL     1      42.534  44.894  10.153  1.00  0.00     0.104 C 
ATOM      3  C   UNL     1      43.156  46.299  10.457  1.00  0.00     0.104 C 
ATOM      4  C   UNL     1      44.626  45.977  10.856  1.00  0.00     0.175 C 
ATOM      5  C   UNL     1      45.305  45.037   9.808  1.00  0.00     0.070 C 
ATOM      6  C   UNL     1      44.585  45.043   8.470  1.00  0.00     0.050 C 
ATOM      7  C   UNL     1      43.507  44.154   9.140  1.00  0.00     0.115 C 
ATOM      8  C   UNL     1      44.570  43.738  10.147  1.00  0.00     0.096 C 
ATOM      9  C   UNL     1      44.000  43.953  11.552  1.00  0.00     0.267 C 
ATOM     10  O   UNL     1      42.606  44.145  11.349  1.00  0.00    -0.342 OA
ATOM     11  O   UNL     1      44.566  45.167  12.013  1.00  0.00    -0.320 OA
ENDROOT
BRANCH   7  12
ATOM     12  O   UNL     1      42.941  43.136   8.305  1.00  0.00    -0.339 OA
BRANCH  12  13
ATOM     13  C   UNL     1      42.851  43.562   6.937  1.00  0.00     0.282 C 
ATOM     14  C   UNL     1      43.469  42.499   5.984  1.00  0.00     0.202 C 
ATOM     15  O   UNL     1      41.491  43.818   6.609  1.00  0.00    -0.341 OA
ATOM     16  C   UNL     1      42.714  41.194   6.160  1.00  0.00     0.179 C 
ATOM     17  C   UNL     1      40.644  42.672   6.501  1.00  0.00     0.178 C 
ATOM     18  C   UNL     1      41.233  41.447   5.750  1.00  0.00     0.177 C 
BRANCH  14  19
ATOM     19  O   UNL     1      44.826  42.302   6.253  1.00  0.00    -0.385 OA
ATOM     20  H   UNL     1      44.932  42.439   7.231  1.00  0.00     0.211 HD
ENDBRANCH  14  19
BRANCH  16  21
ATOM     21  O   UNL     1      43.309  40.129   5.415  1.00  0.00    -0.387 OA
ATOM     22  H   UNL     1      42.785  39.256   5.427  1.00  0.00     0.211 HD
ENDBRANCH  16  21
BRANCH  17  23
ATOM     23  C   UNL     1      40.025  42.271   7.865  1.00  0.00     0.191 C 
BRANCH  23  24
ATOM     24  O   UNL     1      40.769  41.261   8.518  1.00  0.00    -0.394 OA
ATOM     25  H   UNL     1      40.460  40.395   8.147  1.00  0.00     0.210 HD
ENDBRANCH  23  24
ENDBRANCH  17  23
BRANCH  18  26
ATOM     26  O   UNL     1      41.185  41.666   4.364  1.00  0.00    -0.387 OA
ATOM     27  H   UNL     1      40.224  41.694   4.093  1.00  0.00     0.211 HD
ENDBRANCH  18  26
ENDBRANCH  12  13
ENDBRANCH   7  12
BRANCH   4  28
ATOM     28  O   UNL     1      45.353  47.154  11.121  1.00  0.00    -0.365 OA
ATOM     29  H   UNL     1      45.350  47.279  12.105  1.00  0.00     0.214 HD
ENDBRANCH   4  28
BRANCH   8  30
ATOM     30  C   UNL     1      45.330  42.399   9.894  1.00  0.00     0.249 C 
BRANCH  30  31
ATOM     31  O   UNL     1      44.794  41.322  10.673  1.00  0.00    -0.461 OA
BRANCH  31  32
ATOM     32  C   UNL     1      44.406  40.089  10.144  1.00  0.00     0.338 C 
ATOM     33  O   UNL     1      43.404  40.011   9.371  1.00  0.00    -0.246 OA
BRANCH  32  34
ATOM     34  C   UNL     1      45.197  38.879  10.460  1.00  0.00     0.060 A 
ATOM     35  C   UNL     1      46.325  38.962  11.270  1.00  0.00     0.015 A 
ATOM     36  C   UNL     1      44.814  37.615   9.952  1.00  0.00     0.015 A 
ATOM     37  C   UNL     1      47.089  37.831  11.562  1.00  0.00     0.001 A 
ATOM     38  C   UNL     1      45.572  36.480  10.241  1.00  0.00     0.001 A 
ATOM     39  C   UNL     1      46.723  36.579  11.019  1.00  0.00     0.000 A 
ENDBRANCH  32  34
ENDBRANCH  31  32
ENDBRANCH  30  31
ENDBRANCH   8  30
TORSDOF 12
ENDMDL
MODEL 4
REMARK VINA RESULT:    -5.640      1.978      6.684
REMARK INTER + INTRA:         -10.121
REMARK INTER:                  -9.155
REMARK INTRA:                  -0.965
REMARK UNBOUND:                -1.349
REMARK SMILES C[C@@]12C[C@@]3(O)O[C@@H](O1)[C@]1(COC(=O)c4ccccc4)[C@H]3C[C@@]12O[C@@H]1O[C@H](CO)[C@@H](O)[C@@H](O)[C@@H]1O
REMARK SMILES IDX 1 1 2 2 3 3 4 4 20 5 21 6 22 7 9 8 7 9 8 10 6 11 23 12 24 13
REMARK SMILES IDX 33 14 25 15 31 16 26 17 29 18 34 19 32 21 27 23 28 24 30 26
REMARK SMILES IDX 5 28 10 30 11 31 12 32 13 33 14 34 15 35 19 36 16 37 18 38
REMARK SMILES IDX 17 39
REMARK H PARENT 34 20 32 22 28 25 30 27 5 29
REMARK Flexibility Score: inf
ROOT
ATOM      1  C   UNL     1      40.024  44.981   9.605  1.00  0.00     0.046 C 
ATOM      2  C   UNL     1      41.460  45.495   9.600  1.00  0.00     0.104 C 
ATOM      3  C   UNL     1      41.497  47.060   9.649  1.00  0.00     0.104 C 
ATOM      4  C   UNL     1      43.017  47.397   9.616  1.00  0.00     0.175 C 
ATOM      5  C   UNL     1      43.741  46.638   8.457  1.00  0.00     0.070 C 
ATOM      6  C   UNL     1      42.776  46.155   7.387  1.00  0.00     0.050 C 
ATOM      7  C   UNL     1      42.367  45.037   8.380  1.00  0.00     0.115 C 
ATOM      8  C   UNL     1      43.720  45.228   9.050  1.00  0.00     0.096 C 
ATOM      9  C   UNL     1      43.481  45.426  10.550  1.00  0.00     0.267 C 
ATOM     10  O   UNL     1      42.130  45.031  10.753  1.00  0.00    -0.342 OA
ATOM     11  O   UNL     1      43.588  46.821  10.774  1.00  0.00    -0.320 OA
ENDROOT
BRANCH   7  12
ATOM     12  O   UNL     1      42.086  43.762   7.790  1.00  0.00    -0.339 OA
BRANCH  12  13
ATOM     13  C   UNL     1      41.862  43.870   6.376  1.00  0.00     0.282 C 
ATOM     14  C   UNL     1      42.744  42.852   5.596  1.00  0.00     0.202 C 
ATOM     15  O   UNL     1      40.481  43.672   6.098  1.00  0.00    -0.341 OA
ATOM     16  C   UNL     1      42.391  41.451   6.061  1.00  0.00     0.179 C 
ATOM     17  C   UNL     1      39.992  42.339   6.261  1.00  0.00     0.178 C 
ATOM     18  C   UNL     1      40.895  41.201   5.711  1.00  0.00     0.177 C 
BRANCH  14  19
ATOM     19  O   UNL     1      44.105  43.094   5.805  1.00  0.00    -0.385 OA
ATOM     20  H   UNL     1      44.363  42.537   6.586  1.00  0.00     0.211 HD
ENDBRANCH  14  19
BRANCH  16  21
ATOM     21  O   UNL     1      43.255  40.466   5.486  1.00  0.00    -0.387 OA
ATOM     22  H   UNL     1      44.138  40.829   5.132  1.00  0.00     0.211 HD
ENDBRANCH  16  21
BRANCH  17  23
ATOM     23  C   UNL     1      39.530  42.058   7.713  1.00  0.00     0.191 C 
BRANCH  23  24
ATOM     24  O   UNL     1      40.517  41.390   8.475  1.00  0.00    -0.394 OA
ATOM     25  H   UNL     1      40.062  40.638   8.934  1.00  0.00     0.210 HD
ENDBRANCH  23  24
ENDBRANCH  17  23
BRANCH  18  26
ATOM     26  O   UNL     1      40.769  41.122   4.315  1.00  0.00    -0.387 OA
ATOM     27  H   UNL     1      40.969  40.182   4.044  1.00  0.00     0.211 HD
ENDBRANCH  18  26
ENDBRANCH  12  13
ENDBRANCH   7  12
BRANCH   4  28
ATOM     28  O   UNL     1      43.231  48.789   9.608  1.00  0.00    -0.365 OA
ATOM     29  H   UNL     1      43.848  48.981   8.854  1.00  0.00     0.214 HD
ENDBRANCH   4  28
BRANCH   8  30
ATOM     30  C   UNL     1      44.878  44.264   8.644  1.00  0.00     0.249 C 
BRANCH  30  31
ATOM     31  O   UNL     1      45.070  43.221   9.607  1.00  0.00    -0.461 OA
BRANCH  31  32
ATOM     32  C   UNL     1      45.117  41.861   9.292  1.00  0.00     0.338 C 
ATOM     33  O   UNL     1      44.850  41.467   8.116  1.00  0.00    -0.246 OA
BRANCH  32  34
ATOM     34  C   UNL     1      45.518  40.885  10.330  1.00  0.00     0.060 A 
ATOM     35  C   UNL     1      45.549  39.524  10.046  1.00  0.00     0.015 A 
ATOM     36  C   UNL     1      45.885  41.321  11.625  1.00  0.00     0.015 A 
ATOM     37  C   UNL     1      45.908  38.591  11.021  1.00  0.00     0.001 A 
ATOM     38  C   UNL     1      46.248  40.395  12.603  1.00  0.00     0.001 A 
ATOM     39  C   UNL     1      46.237  39.031  12.323  1.00  0.00     0.000 A 
ENDBRANCH  32  34
ENDBRANCH  31  32
ENDBRANCH  30  31
ENDBRANCH   8  30
TORSDOF 12
ENDMDL
MODEL 5
REMARK VINA RESULT:    -5.606      2.511      4.537
REMARK INTER + INTRA:         -10.068
REMARK INTER:                  -9.038
REMARK INTRA:                  -1.030
REMARK UNBOUND:                -1.349
REMARK SMILES C[C@@]12C[C@@]3(O)O[C@@H](O1)[C@]1(COC(=O)c4ccccc4)[C@H]3C[C@@]12O[C@@H]1O[C@H](CO)[C@@H](O)[C@@H](O)[C@@H]1O
REMARK SMILES IDX 1 1 2 2 3 3 4 4 20 5 21 6 22 7 9 8 7 9 8 10 6 11 23 12 24 13
REMARK SMILES IDX 33 14 25 15 31 16 26 17 29 18 34 19 32 21 27 23 28 24 30 26
REMARK SMILES IDX 5 28 10 30 11 31 12 32 13 33 14 34 15 35 19 36 16 37 18 38
REMARK SMILES IDX 17 39
REMARK H PARENT 34 20 32 22 28 25 30 27 5 29
REMARK Flexibility Score: inf
ROOT
ATOM      1  C   UNL     1      40.383  39.386   8.854  1.00  0.00     0.046 C 
ATOM      2  C   UNL     1      40.368  39.572   7.340  1.00  0.00     0.104 C 
ATOM      3  C   UNL     1      40.197  38.198   6.607  1.00  0.00     0.104 C 
ATOM      4  C   UNL     1      40.223  38.576   5.097  1.00  0.00     0.175 C 
ATOM      5  C   UNL     1      41.448  39.489   4.763  1.00  0.00     0.070 C 
ATOM      6  C   UNL     1      42.539  39.405   5.817  1.00  0.00     0.050 C 
ATOM      7  C   UNL     1      41.632  40.293   6.706  1.00  0.00     0.115 C 
ATOM      8  C   UNL     1      40.967  40.781   5.427  1.00  0.00     0.096 C 
ATOM      9  C   UNL     1      39.453  40.611   5.586  1.00  0.00     0.267 C 
ATOM     10  O   UNL     1      39.263  40.373   6.975  1.00  0.00    -0.342 OA
ATOM     11  O   UNL     1      39.122  39.433   4.871  1.00  0.00    -0.320 OA
ENDROOT
BRANCH   7  12
ATOM     12  O   UNL     1      42.316  41.259   7.514  1.00  0.00    -0.339 OA
BRANCH  12  13
ATOM     13  C   UNL     1      43.604  40.782   7.933  1.00  0.00     0.282 C 
ATOM     14  C   UNL     1      44.711  41.830   7.619  1.00  0.00     0.202 C 
ATOM     15  O   UNL     1      43.567  40.473   9.321  1.00  0.00    -0.341 OA
ATOM     16  C   UNL     1      44.381  43.116   8.355  1.00  0.00     0.179 C 
ATOM     17  C   UNL     1      43.485  41.588  10.211  1.00  0.00     0.178 C 
ATOM     18  C   UNL     1      44.393  42.803   9.881  1.00  0.00     0.177 C 
BRANCH  14  19
ATOM     19  O   UNL     1      44.803  42.077   6.247  1.00  0.00    -0.385 OA
ATOM     20  H   UNL     1      44.737  43.063   6.144  1.00  0.00     0.211 HD
ENDBRANCH  14  19
BRANCH  16  21
ATOM     21  O   UNL     1      45.282  44.172   8.011  1.00  0.00    -0.387 OA
ATOM     22  H   UNL     1      46.141  43.869   7.556  1.00  0.00     0.211 HD
ENDBRANCH  16  21
BRANCH  17  23
ATOM     23  C   UNL     1      42.019  42.018  10.478  1.00  0.00     0.191 C 
BRANCH  23  24
ATOM     24  O   UNL     1      41.621  43.107   9.668  1.00  0.00    -0.394 OA
ATOM     25  H   UNL     1      40.919  42.766   9.057  1.00  0.00     0.210 HD
ENDBRANCH  23  24
ENDBRANCH  17  23
BRANCH  18  26
ATOM     26  O   UNL     1      45.715  42.534  10.271  1.00  0.00    -0.387 OA
ATOM     27  H   UNL     1      45.759  41.580  10.559  1.00  0.00     0.211 HD
ENDBRANCH  18  26
ENDBRANCH  12  13
ENDBRANCH   7  12
BRANCH   4  28
ATOM     28  O   UNL     1      40.126  37.432   4.282  1.00  0.00    -0.365 OA
ATOM     29  H   UNL     1      39.675  37.713   3.444  1.00  0.00     0.214 HD
ENDBRANCH   4  28
BRANCH   8  30
ATOM     30  C   UNL     1      41.463  42.127   4.814  1.00  0.00     0.249 C 
BRANCH  30  31
ATOM     31  O   UNL     1      40.598  43.219   5.149  1.00  0.00    -0.461 OA
BRANCH  31  32
ATOM     32  C   UNL     1      40.708  44.502   4.606  1.00  0.00     0.338 C 
ATOM     33  O   UNL     1      40.335  44.726   3.414  1.00  0.00    -0.246 OA
BRANCH  32  34
ATOM     34  C   UNL     1      41.225  45.606   5.443  1.00  0.00     0.060 A 
ATOM     35  C   UNL     1      40.804  46.915   5.228  1.00  0.00     0.015 A 
ATOM     36  C   UNL     1      42.150  45.350   6.483  1.00  0.00     0.015 A 
ATOM     37  C   UNL     1      41.297  47.968   6.000  1.00  0.00     0.001 A 
ATOM     38  C   UNL     1      42.645  46.398   7.260  1.00  0.00     0.001 A 
ATOM     39  C   UNL     1      42.249  47.709   7.011  1.00  0.00     0.000 A 
ENDBRANCH  32  34
ENDBRANCH  31  32
ENDBRANCH  30  31
ENDBRANCH   8  30
TORSDOF 12
ENDMDL
MODEL 6
REMARK VINA RESULT:    -5.585      2.223      5.507
REMARK INTER + INTRA:         -10.036
REMARK INTER:                  -9.076
REMARK INTRA:                  -0.960
REMARK UNBOUND:                -1.349
REMARK SMILES C[C@@]12C[C@@]3(O)O[C@@H](O1)[C@]1(COC(=O)c4ccccc4)[C@H]3C[C@@]12O[C@@H]1O[C@H](CO)[C@@H](O)[C@@H](O)[C@@H]1O
REMARK SMILES IDX 1 1 2 2 3 3 4 4 20 5 21 6 22 7 9 8 7 9 8 10 6 11 23 12 24 13
REMARK SMILES IDX 33 14 25 15 31 16 26 17 29 18 34 19 32 21 27 23 28 24 30 26
REMARK SMILES IDX 5 28 10 30 11 31 12 32 13 33 14 34 15 35 19 36 16 37 18 38
REMARK SMILES IDX 17 39
REMARK H PARENT 34 20 32 22 28 25 30 27 5 29
REMARK Flexibility Score: inf
ROOT
ATOM      1  C   UNL     1      40.002  40.650   8.864  1.00  0.00     0.046 C 
ATOM      2  C   UNL     1      40.829  40.976   7.624  1.00  0.00     0.104 C 
ATOM      3  C   UNL     1      40.268  40.235   6.363  1.00  0.00     0.104 C 
ATOM      4  C   UNL     1      41.233  40.666   5.219  1.00  0.00     0.175 C 
ATOM      5  C   UNL     1      42.727  40.471   5.636  1.00  0.00     0.070 C 
ATOM      6  C   UNL     1      42.885  39.508   6.801  1.00  0.00     0.050 C 
ATOM      7  C   UNL     1      42.382  40.658   7.710  1.00  0.00     0.115 C 
ATOM      8  C   UNL     1      42.847  41.626   6.632  1.00  0.00     0.096 C 
ATOM      9  C   UNL     1      41.681  42.563   6.302  1.00  0.00     0.267 C 
ATOM     10  O   UNL     1      40.749  42.361   7.357  1.00  0.00    -0.342 OA
ATOM     11  O   UNL     1      41.121  42.069   5.098  1.00  0.00    -0.320 OA
ENDROOT
BRANCH   7  12
ATOM     12  O   UNL     1      43.003  40.743   8.998  1.00  0.00    -0.339 OA
BRANCH  12  13
ATOM     13  C   UNL     1      43.666  39.518   9.348  1.00  0.00     0.282 C 
ATOM     14  C   UNL     1      45.123  39.792   9.821  1.00  0.00     0.202 C 
ATOM     15  O   UNL     1      42.918  38.843  10.352  1.00  0.00    -0.341 OA
ATOM     16  C   UNL     1      45.073  40.707  11.032  1.00  0.00     0.179 C 
ATOM     17  C   UNL     1      42.931  39.438  11.651  1.00  0.00     0.178 C 
ATOM     18  C   UNL     1      44.303  39.957  12.159  1.00  0.00     0.177 C 
BRANCH  14  19
ATOM     19  O   UNL     1      45.884  40.384   8.810  1.00  0.00    -0.385 OA
ATOM     20  H   UNL     1      45.451  41.258   8.619  1.00  0.00     0.211 HD
ENDBRANCH  14  19
BRANCH  16  21
ATOM     21  O   UNL     1      46.380  41.114  11.446  1.00  0.00    -0.387 OA
ATOM     22  H   UNL     1      46.818  41.812  10.848  1.00  0.00     0.211 HD
ENDBRANCH  16  21
BRANCH  17  23
ATOM     23  C   UNL     1      41.814  40.499  11.822  1.00  0.00     0.191 C 
BRANCH  23  24
ATOM     24  O   UNL     1      42.255  41.803  11.497  1.00  0.00    -0.394 OA
ATOM     25  H   UNL     1      41.457  42.306  11.192  1.00  0.00     0.210 HD
ENDBRANCH  23  24
ENDBRANCH  17  23
BRANCH  18  26
ATOM     26  O   UNL     1      45.091  38.880  12.597  1.00  0.00    -0.387 OA
ATOM     27  H   UNL     1      44.677  38.040  12.251  1.00  0.00     0.211 HD
ENDBRANCH  18  26
ENDBRANCH  12  13
ENDBRANCH   7  12
BRANCH   4  28
ATOM     28  O   UNL     1      40.894  40.042   4.003  1.00  0.00    -0.365 OA
ATOM     29  H   UNL     1      41.252  39.117   4.045  1.00  0.00     0.214 HD
ENDBRANCH   4  28
BRANCH   8  30
ATOM     30  C   UNL     1      44.252  42.284   6.798  1.00  0.00     0.249 C 
BRANCH  30  31
ATOM     31  O   UNL     1      44.158  43.643   7.245  1.00  0.00    -0.461 OA
BRANCH  31  32
ATOM     32  C   UNL     1      44.665  44.105   8.462  1.00  0.00     0.338 C 
ATOM     33  O   UNL     1      45.290  43.317   9.235  1.00  0.00    -0.246 OA
BRANCH  32  34
ATOM     34  C   UNL     1      44.504  45.530   8.825  1.00  0.00     0.060 A 
ATOM     35  C   UNL     1      43.548  46.317   8.191  1.00  0.00     0.015 A 
ATOM     36  C   UNL     1      45.311  46.114   9.829  1.00  0.00     0.015 A 
ATOM     37  C   UNL     1      43.396  47.667   8.512  1.00  0.00     0.001 A 
ATOM     38  C   UNL     1      45.164  47.463  10.157  1.00  0.00     0.001 A 
ATOM     39  C   UNL     1      44.233  48.253   9.488  1.00  0.00     0.000 A 
ENDBRANCH  32  34
ENDBRANCH  31  32
ENDBRANCH  30  31
ENDBRANCH   8  30
TORSDOF 12
ENDMDL
MODEL 7
REMARK VINA RESULT:    -5.524      3.276      6.826
REMARK INTER + INTRA:          -9.941
REMARK INTER:                  -9.262
REMARK INTRA:                  -0.679
REMARK UNBOUND:                -1.349
REMARK SMILES C[C@@]12C[C@@]3(O)O[C@@H](O1)[C@]1(COC(=O)c4ccccc4)[C@H]3C[C@@]12O[C@@H]1O[C@H](CO)[C@@H](O)[C@@H](O)[C@@H]1O
REMARK SMILES IDX 1 1 2 2 3 3 4 4 20 5 21 6 22 7 9 8 7 9 8 10 6 11 23 12 24 13
REMARK SMILES IDX 33 14 25 15 31 16 26 17 29 18 34 19 32 21 27 23 28 24 30 26
REMARK SMILES IDX 5 28 10 30 11 31 12 32 13 33 14 34 15 35 19 36 16 37 18 38
REMARK SMILES IDX 17 39
REMARK H PARENT 34 20 32 22 28 25 30 27 5 29
REMARK Flexibility Score: inf
ROOT
ATOM      1  C   UNL     1      42.215  38.843   7.150  1.00  0.00     0.046 C 
ATOM      2  C   UNL     1      42.648  38.084   8.400  1.00  0.00     0.104 C 
ATOM      3  C   UNL     1      41.476  37.209   8.961  1.00  0.00     0.104 C 
ATOM      4  C   UNL     1      42.087  36.534  10.224  1.00  0.00     0.175 C 
ATOM      5  C   UNL     1      42.782  37.587  11.147  1.00  0.00     0.070 C 
ATOM      6  C   UNL     1      42.312  39.004  10.870  1.00  0.00     0.050 C 
ATOM      7  C   UNL     1      43.201  38.962   9.601  1.00  0.00     0.115 C 
ATOM      8  C   UNL     1      44.015  37.875  10.289  1.00  0.00     0.096 C 
ATOM      9  C   UNL     1      44.124  36.686   9.329  1.00  0.00     0.267 C 
ATOM     10  O   UNL     1      43.701  37.201   8.072  1.00  0.00    -0.342 OA
ATOM     11  O   UNL     1      43.169  35.741   9.780  1.00  0.00    -0.320 OA
ENDROOT
BRANCH   7  12
ATOM     12  O   UNL     1      43.865  40.188   9.272  1.00  0.00    -0.339 OA
BRANCH  12  13
ATOM     13  C   UNL     1      43.059  41.331   9.599  1.00  0.00     0.282 C 
ATOM     14  C   UNL     1      43.869  42.355  10.446  1.00  0.00     0.202 C 
ATOM     15  O   UNL     1      42.572  41.926   8.402  1.00  0.00    -0.341 OA
ATOM     16  C   UNL     1      45.077  42.799   9.643  1.00  0.00     0.179 C 
ATOM     17  C   UNL     1      43.538  42.605   7.599  1.00  0.00     0.178 C 
ATOM     18  C   UNL     1      44.556  43.502   8.355  1.00  0.00     0.177 C 
BRANCH  14  19
ATOM     19  O   UNL     1      44.283  41.797  11.659  1.00  0.00    -0.385 OA
ATOM     20  H   UNL     1      43.451  41.597  12.164  1.00  0.00     0.211 HD
ENDBRANCH  14  19
BRANCH  16  21
ATOM     21  O   UNL     1      45.946  43.640  10.407  1.00  0.00    -0.387 OA
ATOM     22  H   UNL     1      46.689  43.149  10.900  1.00  0.00     0.211 HD
ENDBRANCH  16  21
BRANCH  17  23
ATOM     23  C   UNL     1      44.241  41.653   6.597  1.00  0.00     0.191 C 
BRANCH  23  24
ATOM     24  O   UNL     1      45.254  42.304   5.855  1.00  0.00    -0.394 OA
ATOM     25  H   UNL     1      44.922  43.218   5.661  1.00  0.00     0.210 HD
ENDBRANCH  23  24
ENDBRANCH  17  23
BRANCH  18  26
ATOM     26  O   UNL     1      43.948  44.713   8.723  1.00  0.00    -0.387 OA
ATOM     27  H   UNL     1      43.058  44.756   8.271  1.00  0.00     0.211 HD
ENDBRANCH  18  26
ENDBRANCH  12  13
ENDBRANCH   7  12
BRANCH   4  28
ATOM     28  O   UNL     1      41.136  35.735  10.887  1.00  0.00    -0.365 OA
ATOM     29  H   UNL     1      40.683  36.317  11.551  1.00  0.00     0.214 HD
ENDBRANCH   4  28
BRANCH   8  30
ATOM     30  C   UNL     1      45.320  38.300  11.031  1.00  0.00     0.249 C 
BRANCH  30  31
ATOM     31  O   UNL     1      46.048  37.170  11.526  1.00  0.00    -0.461 OA
BRANCH  31  32
ATOM     32  C   UNL     1      47.424  36.990  11.364  1.00  0.00     0.338 C 
ATOM     33  O   UNL     1      48.242  37.814  11.874  1.00  0.00    -0.246 OA
BRANCH  32  34
ATOM     34  C   UNL     1      47.923  35.809  10.625  1.00  0.00     0.060 A 
ATOM     35  C   UNL     1      47.045  34.814  10.206  1.00  0.00     0.015 A 
ATOM     36  C   UNL     1      49.299  35.676  10.324  1.00  0.00     0.015 A 
ATOM     37  C   UNL     1      47.505  33.687   9.524  1.00  0.00     0.001 A 
ATOM     38  C   UNL     1      49.765  34.552   9.640  1.00  0.00     0.001 A 
ATOM     39  C   UNL     1      48.885  33.542   9.261  1.00  0.00     0.000 A 
ENDBRANCH  32  34
ENDBRANCH  31  32
ENDBRANCH  30  31
ENDBRANCH   8  30
TORSDOF 12
ENDMDL
MODEL 8
REMARK VINA RESULT:    -5.505      1.697      2.594
REMARK INTER + INTRA:          -9.911
REMARK INTER:                  -9.672
REMARK INTRA:                  -0.238
REMARK UNBOUND:                -1.349
REMARK SMILES C[C@@]12C[C@@]3(O)O[C@@H](O1)[C@]1(COC(=O)c4ccccc4)[C@H]3C[C@@]12O[C@@H]1O[C@H](CO)[C@@H](O)[C@@H](O)[C@@H]1O
REMARK SMILES IDX 1 1 2 2 3 3 4 4 20 5 21 6 22 7 9 8 7 9 8 10 6 11 23 12 24 13
REMARK SMILES IDX 33 14 25 15 31 16 26 17 29 18 34 19 32 21 27 23 28 24 30 26
REMARK SMILES IDX 5 28 10 30 11 31 12 32 13 33 14 34 15 35 19 36 16 37 18 38
REMARK SMILES IDX 17 39
REMARK H PARENT 34 20 32 22 28 25 30 27 5 29
REMARK Flexibility Score: inf
ROOT
ATOM      1  C   UNL     1      44.988  41.094  12.562  1.00  0.00     0.046 C 
ATOM      2  C   UNL     1      44.451  40.254  11.408  1.00  0.00     0.104 C 
ATOM      3  C   UNL     1      45.324  38.971  11.193  1.00  0.00     0.104 C 
ATOM      4  C   UNL     1      44.649  38.260   9.983  1.00  0.00     0.175 C 
ATOM      5  C   UNL     1      44.423  39.253   8.798  1.00  0.00     0.070 C 
ATOM      6  C   UNL     1      45.299  40.490   8.900  1.00  0.00     0.050 C 
ATOM      7  C   UNL     1      44.328  40.984  10.003  1.00  0.00     0.115 C 
ATOM      8  C   UNL     1      43.274  40.071   9.392  1.00  0.00     0.096 C 
ATOM      9  C   UNL     1      42.697  39.200  10.511  1.00  0.00     0.267 C 
ATOM     10  O   UNL     1      43.143  39.816  11.713  1.00  0.00    -0.342 OA
ATOM     11  O   UNL     1      43.332  37.939  10.382  1.00  0.00    -0.320 OA
ENDROOT
BRANCH   7  12
ATOM     12  O   UNL     1      44.070  42.393  10.011  1.00  0.00    -0.339 OA
BRANCH  12  13
ATOM     13  C   UNL     1      45.226  43.146   9.613  1.00  0.00     0.282 C 
ATOM     14  C   UNL     1      44.920  44.001   8.349  1.00  0.00     0.202 C 
ATOM     15  O   UNL     1      45.656  43.963  10.695  1.00  0.00    -0.341 OA
ATOM     16  C   UNL     1      43.782  44.951   8.673  1.00  0.00     0.179 C 
ATOM     17  C   UNL     1      44.816  45.072  11.018  1.00  0.00     0.178 C 
ATOM     18  C   UNL     1      44.261  45.889   9.820  1.00  0.00     0.177 C 
BRANCH  14  19
ATOM     19  O   UNL     1      44.573  43.196   7.261  1.00  0.00    -0.385 OA
ATOM     20  H   UNL     1      45.120  42.371   7.348  1.00  0.00     0.211 HD
ENDBRANCH  14  19
BRANCH  16  21
ATOM     21  O   UNL     1      43.352  45.680   7.520  1.00  0.00    -0.387 OA
ATOM     22  H   UNL     1      44.008  45.672   6.741  1.00  0.00     0.211 HD
ENDBRANCH  16  21
BRANCH  17  23
ATOM     23  C   UNL     1      43.698  44.688  12.021  1.00  0.00     0.191 C 
BRANCH  23  24
ATOM     24  O   UNL     1      44.209  44.365  13.300  1.00  0.00    -0.394 OA
ATOM     25  H   UNL     1      44.317  45.222  13.788  1.00  0.00     0.210 HD
ENDBRANCH  23  24
ENDBRANCH  17  23
BRANCH  18  26
ATOM     26  O   UNL     1      45.259  46.738   9.315  1.00  0.00    -0.387 OA
ATOM     27  H   UNL     1      45.245  47.578   9.854  1.00  0.00     0.211 HD
ENDBRANCH  18  26
ENDBRANCH  12  13
ENDBRANCH   7  12
BRANCH   4  28
ATOM     28  O   UNL     1      45.348  37.091   9.623  1.00  0.00    -0.365 OA
ATOM     29  H   UNL     1      45.988  36.901  10.357  1.00  0.00     0.214 HD
ENDBRANCH   4  28
BRANCH   8  30
ATOM     30  C   UNL     1      42.254  40.701   8.394  1.00  0.00     0.249 C 
BRANCH  30  31
ATOM     31  O   UNL     1      42.875  41.083   7.161  1.00  0.00    -0.461 OA
BRANCH  31  32
ATOM     32  C   UNL     1      42.426  40.683   5.900  1.00  0.00     0.338 C 
ATOM     33  O   UNL     1      42.714  39.532   5.453  1.00  0.00    -0.246 OA
BRANCH  32  34
ATOM     34  C   UNL     1      41.578  41.599   5.104  1.00  0.00     0.060 A 
ATOM     35  C   UNL     1      41.810  42.970   5.118  1.00  0.00     0.015 A 
ATOM     36  C   UNL     1      40.522  41.094   4.309  1.00  0.00     0.015 A 
ATOM     37  C   UNL     1      41.007  43.846   4.386  1.00  0.00     0.001 A 
ATOM     38  C   UNL     1      39.717  41.963   3.572  1.00  0.00     0.001 A 
ATOM     39  C   UNL     1      39.931  43.338   3.625  1.00  0.00     0.000 A 
ENDBRANCH  32  34
ENDBRANCH  31  32
ENDBRANCH  30  31
ENDBRANCH   8  30
TORSDOF 12
ENDMDL
MODEL 9
REMARK VINA RESULT:    -5.477      2.759      6.637
REMARK INTER + INTRA:          -9.868
REMARK INTER:                  -9.392
REMARK INTRA:                  -0.476
REMARK UNBOUND:                -1.349
REMARK SMILES C[C@@]12C[C@@]3(O)O[C@@H](O1)[C@]1(COC(=O)c4ccccc4)[C@H]3C[C@@]12O[C@@H]1O[C@H](CO)[C@@H](O)[C@@H](O)[C@@H]1O
REMARK SMILES IDX 1 1 2 2 3 3 4 4 20 5 21 6 22 7 9 8 7 9 8 10 6 11 23 12 24 13
REMARK SMILES IDX 33 14 25 15 31 16 26 17 29 18 34 19 32 21 27 23 28 24 30 26
REMARK SMILES IDX 5 28 10 30 11 31 12 32 13 33 14 34 15 35 19 36 16 37 18 38
REMARK SMILES IDX 17 39
REMARK H PARENT 34 20 32 22 28 25 30 27 5 29
REMARK Flexibility Score: inf
ROOT
ATOM      1  C   UNL     1      42.062  44.247  11.245  1.00  0.00     0.046 C 
ATOM      2  C   UNL     1      43.280  43.433  11.667  1.00  0.00     0.104 C 
ATOM      3  C   UNL     1      44.196  44.253  12.638  1.00  0.00     0.104 C 
ATOM      4  C   UNL     1      45.378  43.285  12.941  1.00  0.00     0.175 C 
ATOM      5  C   UNL     1      45.976  42.693  11.624  1.00  0.00     0.070 C 
ATOM      6  C   UNL     1      45.615  43.516  10.400  1.00  0.00     0.050 C 
ATOM      7  C   UNL     1      44.202  42.886  10.496  1.00  0.00     0.115 C 
ATOM      8  C   UNL     1      44.840  41.735  11.260  1.00  0.00     0.096 C 
ATOM      9  C   UNL     1      44.051  41.534  12.558  1.00  0.00     0.267 C 
ATOM     10  O   UNL     1      42.857  42.284  12.372  1.00  0.00    -0.342 OA
ATOM     11  O   UNL     1      44.824  42.150  13.574  1.00  0.00    -0.320 OA
ENDROOT
BRANCH   7  12
ATOM     12  O   UNL     1      43.572  42.590   9.243  1.00  0.00    -0.339 OA
BRANCH  12  13
ATOM     13  C   UNL     1      44.199  43.289   8.157  1.00  0.00     0.282 C 
ATOM     14  C   UNL     1      44.435  42.338   6.949  1.00  0.00     0.202 C 
ATOM     15  O   UNL     1      43.397  44.404   7.785  1.00  0.00    -0.341 OA
ATOM     16  C   UNL     1      43.093  41.792   6.495  1.00  0.00     0.179 C 
ATOM     17  C   UNL     1      42.167  44.100   7.125  1.00  0.00     0.178 C 
ATOM     18  C   UNL     1      42.224  42.998   6.032  1.00  0.00     0.177 C 
BRANCH  14  19
ATOM     19  O   UNL     1      45.286  41.284   7.290  1.00  0.00    -0.385 OA
ATOM     20  H   UNL     1      44.754  40.682   7.874  1.00  0.00     0.211 HD
ENDBRANCH  14  19
BRANCH  16  21
ATOM     21  O   UNL     1      43.239  40.803   5.471  1.00  0.00    -0.387 OA
ATOM     22  H   UNL     1      43.688  39.941   5.773  1.00  0.00     0.211 HD
ENDBRANCH  16  21
BRANCH  17  23
ATOM     23  C   UNL     1      41.007  43.861   8.125  1.00  0.00     0.191 C 
BRANCH  23  24
ATOM     24  O   UNL     1      40.790  42.487   8.380  1.00  0.00    -0.394 OA
ATOM     25  H   UNL     1      41.100  42.317   9.307  1.00  0.00     0.210 HD
ENDBRANCH  23  24
ENDBRANCH  17  23
BRANCH  18  26
ATOM     26  O   UNL     1      42.779  43.521   4.852  1.00  0.00    -0.387 OA
ATOM     27  H   UNL     1      43.024  42.752   4.264  1.00  0.00     0.211 HD
ENDBRANCH  18  26
ENDBRANCH  12  13
ENDBRANCH   7  12
BRANCH   4  28
ATOM     28  O   UNL     1      46.334  43.893  13.778  1.00  0.00    -0.365 OA
ATOM     29  H   UNL     1      46.228  44.874  13.671  1.00  0.00     0.214 HD
ENDBRANCH   4  28
BRANCH   8  30
ATOM     30  C   UNL     1      45.217  40.448  10.462  1.00  0.00     0.249 C 
BRANCH  30  31
ATOM     31  O   UNL     1      45.243  39.286  11.299  1.00  0.00    -0.461 OA
BRANCH  31  32
ATOM     32  C   UNL     1      46.404  38.758  11.872  1.00  0.00     0.338 C 
ATOM     33  O   UNL     1      46.969  39.355  12.838  1.00  0.00    -0.246 OA
BRANCH  32  34
ATOM     34  C   UNL     1      46.947  37.477  11.369  1.00  0.00     0.060 A 
ATOM     35  C   UNL     1      46.125  36.572  10.706  1.00  0.00     0.015 A 
ATOM     36  C   UNL     1      48.313  37.154  11.547  1.00  0.00     0.015 A 
ATOM     37  C   UNL     1      46.620  35.352  10.242  1.00  0.00     0.001 A 
ATOM     38  C   UNL     1      48.816  35.937  11.084  1.00  0.00     0.001 A 
ATOM     39  C   UNL     1      47.977  35.020  10.457  1.00  0.00     0.000 A 
ENDBRANCH  32  34
ENDBRANCH  31  32
ENDBRANCH  30  31
ENDBRANCH   8  30
TORSDOF 12
ENDMDL
