MODEL 1
REMARK VINA RESULT:    -3.874      0.000      0.000
REMARK INTER + INTRA:          -8.692
REMARK INTER:                  -7.271
REMARK INTRA:                  -1.421
REMARK UNBOUND:                -1.421
REMARK SMILES O=C([O-])CCCCCCCCCCCCCCC(=O)[O-]
REMARK SMILES IDX 10 1 9 2 8 3 7 4 6 5 5 6 4 7 2 8 1 9 3 10 11 11 12 12 13 13
REMARK SMILES IDX 14 14 15 15 16 16 17 17 18 18 19 19 20 20
REMARK H PARENT
REMARK Flexibility Score: inf
ROOT
ATOM      1  C   UNL     1      -1.263   3.122   9.628  1.00  0.00     0.000 C 
ENDROOT
BRANCH   1   2
ATOM      2  C   UNL     1      -1.499   4.507   9.016  1.00  0.00     0.000 C 
BRANCH   2   3
ATOM      3  C   UNL     1      -1.706   5.564  10.110  1.00  0.00     0.000 C 
BRANCH   3   4
ATOM      4  C   UNL     1      -1.477   6.996   9.600  1.00  0.00     0.000 C 
BRANCH   4   5
ATOM      5  C   UNL     1      -0.201   7.123   8.749  1.00  0.00     0.000 C 
BRANCH   5   6
ATOM      6  C   UNL     1      -0.036   8.523   8.137  1.00  0.00     0.006 C 
BRANCH   6   7
ATOM      7  C   UNL     1       1.409   9.033   8.215  1.00  0.00     0.053 C 
BRANCH   7   8
ATOM      8  C   UNL     1       2.243   8.401   7.147  1.00  0.00     0.041 C 
ATOM      9  O   UNL     1       1.865   8.430   5.946  1.00  0.00    -0.550 OA
ATOM     10  O   UNL     1       3.464   7.823   7.469  1.00  0.00    -0.550 OA
ENDBRANCH   7   8
ENDBRANCH   6   7
ENDBRANCH   5   6
ENDBRANCH   4   5
ENDBRANCH   3   4
ENDBRANCH   2   3
ENDBRANCH   1   2
BRANCH   1  11
ATOM     11  C   UNL     1      -2.313   2.116   9.142  1.00  0.00     0.000 C 
BRANCH  11  12
ATOM     12  C   UNL     1      -3.522   2.084  10.089  1.00  0.00     0.000 C 
BRANCH  12  13
ATOM     13  C   UNL     1      -4.846   1.819   9.353  1.00  0.00     0.000 C 
BRANCH  13  14
ATOM     14  C   UNL     1      -5.863   2.959   9.541  1.00  0.00     0.000 C 
BRANCH  14  15
ATOM     15  C   UNL     1      -5.190   4.305   9.857  1.00  0.00     0.000 C 
BRANCH  15  16
ATOM     16  C   UNL     1      -5.057   5.208   8.617  1.00  0.00     0.006 C 
BRANCH  16  17
ATOM     17  C   UNL     1      -6.329   6.029   8.362  1.00  0.00     0.053 C 
BRANCH  17  18
ATOM     18  C   UNL     1      -6.060   7.502   8.420  1.00  0.00     0.041 C 
ATOM     19  O   UNL     1      -5.197   7.959   9.214  1.00  0.00    -0.550 OA
ATOM     20  O   UNL     1      -6.745   8.367   7.576  1.00  0.00    -0.550 OA
ENDBRANCH  17  18
ENDBRANCH  16  17
ENDBRANCH  15  16
ENDBRANCH  14  15
ENDBRANCH  13  14
ENDBRANCH  12  13
ENDBRANCH  11  12
ENDBRANCH   1  11
TORSDOF 15
ENDMDL
MODEL 2
REMARK VINA RESULT:    -3.805      0.932      6.766
REMARK INTER + INTRA:          -8.562
REMARK INTER:                  -7.035
REMARK INTRA:                  -1.527
REMARK UNBOUND:                -1.421
REMARK SMILES O=C([O-])CCCCCCCCCCCCCCC(=O)[O-]
REMARK SMILES IDX 10 1 9 2 8 3 7 4 6 5 5 6 4 7 2 8 1 9 3 10 11 11 12 12 13 13
REMARK SMILES IDX 14 14 15 15 16 16 17 17 18 18 19 19 20 20
REMARK H PARENT
REMARK Flexibility Score: inf
ROOT
ATOM      1  C   UNL     1      -2.796   1.867   9.106  1.00  0.00     0.000 C 
ENDROOT
BRANCH   1   2
ATOM      2  C   UNL     1      -3.840   2.339  10.125  1.00  0.00     0.000 C 
BRANCH   2   3
ATOM      3  C   UNL     1      -5.260   1.981   9.663  1.00  0.00     0.000 C 
BRANCH   3   4
ATOM      4  C   UNL     1      -6.120   3.224   9.381  1.00  0.00     0.000 C 
BRANCH   4   5
ATOM      5  C   UNL     1      -5.393   4.536   9.726  1.00  0.00     0.000 C 
BRANCH   5   6
ATOM      6  C   UNL     1      -5.143   5.414   8.489  1.00  0.00     0.006 C 
BRANCH   6   7
ATOM      7  C   UNL     1      -5.750   6.816   8.629  1.00  0.00     0.053 C 
BRANCH   7   8
ATOM      8  C   UNL     1      -6.941   6.959   7.736  1.00  0.00     0.041 C 
ATOM      9  O   UNL     1      -7.008   7.912   6.915  1.00  0.00    -0.550 OA
ATOM     10  O   UNL     1      -7.955   6.010   7.772  1.00  0.00    -0.550 OA
ENDBRANCH   7   8
ENDBRANCH   6   7
ENDBRANCH   5   6
ENDBRANCH   4   5
ENDBRANCH   3   4
ENDBRANCH   2   3
ENDBRANCH   1   2
BRANCH   1  11
ATOM     11  C   UNL     1      -1.545   2.753   9.146  1.00  0.00     0.000 C 
BRANCH  11  12
ATOM     12  C   UNL     1      -1.851   4.107   9.805  1.00  0.00     0.000 C 
BRANCH  12  13
ATOM     13  C   UNL     1      -1.437   5.301   8.930  1.00  0.00     0.000 C 
BRANCH  13  14
ATOM     14  C   UNL     1      -1.828   6.652   9.554  1.00  0.00     0.000 C 
BRANCH  14  15
ATOM     15  C   UNL     1      -1.036   7.830   8.963  1.00  0.00     0.000 C 
BRANCH  15  16
ATOM     16  C   UNL     1       0.401   7.441   8.572  1.00  0.00     0.006 C 
BRANCH  16  17
ATOM     17  C   UNL     1       1.228   8.657   8.131  1.00  0.00     0.053 C 
BRANCH  17  18
ATOM     18  C   UNL     1       2.123   8.330   6.974  1.00  0.00     0.041 C 
ATOM     19  O   UNL     1       3.286   7.893   7.175  1.00  0.00    -0.550 OA
ATOM     20  O   UNL     1       1.660   8.482   5.673  1.00  0.00    -0.550 OA
ENDBRANCH  17  18
ENDBRANCH  16  17
ENDBRANCH  15  16
ENDBRANCH  14  15
ENDBRANCH  13  14
ENDBRANCH  12  13
ENDBRANCH  11  12
ENDBRANCH   1  11
TORSDOF 15
ENDMDL
MODEL 3
REMARK VINA RESULT:    -3.713      1.055      1.501
REMARK INTER + INTRA:          -8.389
REMARK INTER:                  -6.990
REMARK INTRA:                  -1.399
REMARK UNBOUND:                -1.421
REMARK SMILES O=C([O-])CCCCCCCCCCCCCCC(=O)[O-]
REMARK SMILES IDX 10 1 9 2 8 3 7 4 6 5 5 6 4 7 2 8 1 9 3 10 11 11 12 12 13 13
REMARK SMILES IDX 14 14 15 15 16 16 17 17 18 18 19 19 20 20
REMARK H PARENT
REMARK Flexibility Score: inf
ROOT
ATOM      1  C   UNL     1      -1.812   2.629   9.283  1.00  0.00     0.000 C 
ENDROOT
BRANCH   1   2
ATOM      2  C   UNL     1      -1.103   3.906   9.747  1.00  0.00     0.000 C 
BRANCH   2   3
ATOM      3  C   UNL     1      -1.499   5.104   8.872  1.00  0.00     0.000 C 
BRANCH   3   4
ATOM      4  C   UNL     1      -1.842   6.353   9.700  1.00  0.00     0.000 C 
BRANCH   4   5
ATOM      5  C   UNL     1      -1.045   7.593   9.258  1.00  0.00     0.000 C 
BRANCH   5   6
ATOM      6  C   UNL     1       0.137   7.238   8.342  1.00  0.00     0.006 C 
BRANCH   6   7
ATOM      7  C   UNL     1       1.375   8.102   8.616  1.00  0.00     0.053 C 
BRANCH   7   8
ATOM      8  C   UNL     1       1.898   8.683   7.341  1.00  0.00     0.041 C 
ATOM      9  O   UNL     1       1.500   8.239   6.231  1.00  0.00    -0.550 OA
ATOM     10  O   UNL     1       2.787   9.750   7.376  1.00  0.00    -0.550 OA
ENDBRANCH   7   8
ENDBRANCH   6   7
ENDBRANCH   5   6
ENDBRANCH   4   5
ENDBRANCH   3   4
ENDBRANCH   2   3
ENDBRANCH   1   2
BRANCH   1  11
ATOM     11  C   UNL     1      -3.072   2.363  10.115  1.00  0.00     0.000 C 
BRANCH  11  12
ATOM     12  C   UNL     1      -4.260   1.998   9.212  1.00  0.00     0.000 C 
BRANCH  12  13
ATOM     13  C   UNL     1      -5.479   2.908   9.439  1.00  0.00     0.000 C 
BRANCH  13  14
ATOM     14  C   UNL     1      -5.079   4.360   9.758  1.00  0.00     0.000 C 
BRANCH  14  15
ATOM     15  C   UNL     1      -5.187   5.286   8.536  1.00  0.00     0.000 C 
BRANCH  15  16
ATOM     16  C   UNL     1      -6.025   6.545   8.818  1.00  0.00     0.006 C 
BRANCH  16  17
ATOM     17  C   UNL     1      -7.326   6.568   8.004  1.00  0.00     0.053 C 
BRANCH  17  18
ATOM     18  C   UNL     1      -7.245   7.523   6.852  1.00  0.00     0.041 C 
ATOM     19  O   UNL     1      -6.914   8.722   7.043  1.00  0.00    -0.550 OA
ATOM     20  O   UNL     1      -7.508   7.079   5.562  1.00  0.00    -0.550 OA
ENDBRANCH  17  18
ENDBRANCH  16  17
ENDBRANCH  15  16
ENDBRANCH  14  15
ENDBRANCH  13  14
ENDBRANCH  12  13
ENDBRANCH  11  12
ENDBRANCH   1  11
TORSDOF 15
ENDMDL
MODEL 4
REMARK VINA RESULT:    -3.469      2.793      3.234
REMARK INTER + INTRA:          -7.931
REMARK INTER:                  -7.203
REMARK INTRA:                  -0.729
REMARK UNBOUND:                -1.421
REMARK SMILES O=C([O-])CCCCCCCCCCCCCCC(=O)[O-]
REMARK SMILES IDX 10 1 9 2 8 3 7 4 6 5 5 6 4 7 2 8 1 9 3 10 11 11 12 12 13 13
REMARK SMILES IDX 14 14 15 15 16 16 17 17 18 18 19 19 20 20
REMARK H PARENT
REMARK Flexibility Score: inf
ROOT
ATOM      1  C   UNL     1      -1.636   4.418   8.887  1.00  0.00     0.000 C 
ENDROOT
BRANCH   1   2
ATOM      2  C   UNL     1      -1.441   5.642   9.789  1.00  0.00     0.000 C 
BRANCH   2   3
ATOM      3  C   UNL     1      -0.640   6.736   9.068  1.00  0.00     0.000 C 
BRANCH   3   4
ATOM      4  C   UNL     1      -1.263   8.131   9.236  1.00  0.00     0.000 C 
BRANCH   4   5
ATOM      5  C   UNL     1      -0.204   9.243   9.330  1.00  0.00     0.000 C 
BRANCH   5   6
ATOM      6  C   UNL     1       1.231   8.699   9.262  1.00  0.00     0.006 C 
BRANCH   6   7
ATOM      7  C   UNL     1       2.072   9.385   8.178  1.00  0.00     0.053 C 
BRANCH   7   8
ATOM      8  C   UNL     1       2.421   8.413   7.097  1.00  0.00     0.041 C 
ATOM      9  O   UNL     1       1.701   8.321   6.068  1.00  0.00    -0.550 OA
ATOM     10  O   UNL     1       3.572   7.642   7.201  1.00  0.00    -0.550 OA
ENDBRANCH   7   8
ENDBRANCH   6   7
ENDBRANCH   5   6
ENDBRANCH   4   5
ENDBRANCH   3   4
ENDBRANCH   2   3
ENDBRANCH   1   2
BRANCH   1  11
ATOM     11  C   UNL     1      -1.457   3.115   9.676  1.00  0.00     0.000 C 
BRANCH  11  12
ATOM     12  C   UNL     1      -2.329   1.994   9.090  1.00  0.00     0.000 C 
BRANCH  12  13
ATOM     13  C   UNL     1      -3.785   2.057   9.579  1.00  0.00     0.000 C 
BRANCH  13  14
ATOM     14  C   UNL     1      -4.613   0.842   9.121  1.00  0.00     0.000 C 
BRANCH  14  15
ATOM     15  C   UNL     1      -6.112   0.999   9.424  1.00  0.00     0.000 C 
BRANCH  15  16
ATOM     16  C   UNL     1      -6.469   2.403   9.943  1.00  0.00     0.006 C 
BRANCH  16  17
ATOM     17  C   UNL     1      -7.513   3.098   9.058  1.00  0.00     0.053 C 
BRANCH  17  18
ATOM     18  C   UNL     1      -8.677   2.202   8.764  1.00  0.00     0.041 C 
ATOM     19  O   UNL     1      -8.931   1.860   7.579  1.00  0.00    -0.550 OA
ATOM     20  O   UNL     1      -9.465   1.721   9.802  1.00  0.00    -0.550 OA
ENDBRANCH  17  18
ENDBRANCH  16  17
ENDBRANCH  15  16
ENDBRANCH  14  15
ENDBRANCH  13  14
ENDBRANCH  12  13
ENDBRANCH  11  12
ENDBRANCH   1  11
TORSDOF 15
ENDMDL
MODEL 5
REMARK VINA RESULT:    -3.446      2.595      8.464
REMARK INTER + INTRA:          -7.887
REMARK INTER:                  -7.171
REMARK INTRA:                  -0.716
REMARK UNBOUND:                -1.421
REMARK SMILES O=C([O-])CCCCCCCCCCCCCCC(=O)[O-]
REMARK SMILES IDX 10 1 9 2 8 3 7 4 6 5 5 6 4 7 2 8 1 9 3 10 11 11 12 12 13 13
REMARK SMILES IDX 14 14 15 15 16 16 17 17 18 18 19 19 20 20
REMARK H PARENT
REMARK Flexibility Score: inf
ROOT
ATOM      1  C   UNL     1      -2.060   2.268   9.286  1.00  0.00     0.000 C 
ENDROOT
BRANCH   1   2
ATOM      2  C   UNL     1      -3.370   2.175  10.078  1.00  0.00     0.000 C 
BRANCH   2   3
ATOM      3  C   UNL     1      -4.540   1.784   9.163  1.00  0.00     0.000 C 
BRANCH   3   4
ATOM      4  C   UNL     1      -5.078   0.375   9.461  1.00  0.00     0.000 C 
BRANCH   4   5
ATOM      5  C   UNL     1      -6.500   0.398  10.048  1.00  0.00     0.000 C 
BRANCH   5   6
ATOM      6  C   UNL     1      -7.565   0.759   9.000  1.00  0.00     0.006 C 
BRANCH   6   7
ATOM      7  C   UNL     1      -8.173   2.148   9.232  1.00  0.00     0.053 C 
BRANCH   7   8
ATOM      8  C   UNL     1      -9.024   2.545   8.068  1.00  0.00     0.041 C 
ATOM      9  O   UNL     1      -9.237   1.731   7.131  1.00  0.00    -0.550 OA
ATOM     10  O   UNL     1      -9.626   3.797   8.041  1.00  0.00    -0.550 OA
ENDBRANCH   7   8
ENDBRANCH   6   7
ENDBRANCH   5   6
ENDBRANCH   4   5
ENDBRANCH   3   4
ENDBRANCH   2   3
ENDBRANCH   1   2
BRANCH   1  11
ATOM     11  C   UNL     1      -1.214   3.458   9.755  1.00  0.00     0.000 C 
BRANCH  11  12
ATOM     12  C   UNL     1      -1.500   4.704   8.904  1.00  0.00     0.000 C 
BRANCH  12  13
ATOM     13  C   UNL     1      -1.914   5.919   9.751  1.00  0.00     0.000 C 
BRANCH  13  14
ATOM     14  C   UNL     1      -1.022   7.148   9.493  1.00  0.00     0.000 C 
BRANCH  14  15
ATOM     15  C   UNL     1       0.443   6.769   9.221  1.00  0.00     0.000 C 
BRANCH  15  16
ATOM     16  C   UNL     1       1.410   7.946   9.438  1.00  0.00     0.006 C 
BRANCH  16  17
ATOM     17  C   UNL     1       1.408   8.920   8.251  1.00  0.00     0.053 C 
BRANCH  17  18
ATOM     18  C   UNL     1       2.264   8.426   7.125  1.00  0.00     0.041 C 
ATOM     19  O   UNL     1       1.874   8.541   5.934  1.00  0.00    -0.550 OA
ATOM     20  O   UNL     1       3.507   7.865   7.391  1.00  0.00    -0.550 OA
ENDBRANCH  17  18
ENDBRANCH  16  17
ENDBRANCH  15  16
ENDBRANCH  14  15
ENDBRANCH  13  14
ENDBRANCH  12  13
ENDBRANCH  11  12
ENDBRANCH   1  11
TORSDOF 15
ENDMDL
MODEL 6
REMARK VINA RESULT:    -3.443      1.886      7.068
REMARK INTER + INTRA:          -7.883
REMARK INTER:                  -6.558
REMARK INTRA:                  -1.326
REMARK UNBOUND:                -1.421
REMARK SMILES O=C([O-])CCCCCCCCCCCCCCC(=O)[O-]
REMARK SMILES IDX 10 1 9 2 8 3 7 4 6 5 5 6 4 7 2 8 1 9 3 10 11 11 12 12 13 13
REMARK SMILES IDX 14 14 15 15 16 16 17 17 18 18 19 19 20 20
REMARK H PARENT
REMARK Flexibility Score: inf
ROOT
ATOM      1  C   UNL     1      -4.491   5.161   8.619  1.00  0.00     0.000 C 
ENDROOT
BRANCH   1   2
ATOM      2  C   UNL     1      -5.351   6.413   8.829  1.00  0.00     0.000 C 
BRANCH   2   3
ATOM      3  C   UNL     1      -4.638   7.424   9.739  1.00  0.00     0.000 C 
BRANCH   3   4
ATOM      4  C   UNL     1      -4.903   8.881   9.326  1.00  0.00     0.000 C 
BRANCH   4   5
ATOM      5  C   UNL     1      -6.335   9.096   8.805  1.00  0.00     0.000 C 
BRANCH   5   6
ATOM      6  C   UNL     1      -6.365   9.757   7.418  1.00  0.00     0.006 C 
BRANCH   6   7
ATOM      7  C   UNL     1      -7.756   9.709   6.772  1.00  0.00     0.053 C 
BRANCH   7   8
ATOM      8  C   UNL     1      -7.767   8.744   5.630  1.00  0.00     0.041 C 
ATOM      9  O   UNL     1      -8.232   9.089   4.512  1.00  0.00    -0.550 OA
ATOM     10  O   UNL     1      -7.216   7.477   5.785  1.00  0.00    -0.550 OA
ENDBRANCH   7   8
ENDBRANCH   6   7
ENDBRANCH   5   6
ENDBRANCH   4   5
ENDBRANCH   3   4
ENDBRANCH   2   3
ENDBRANCH   1   2
BRANCH   1  11
ATOM     11  C   UNL     1      -3.553   4.929   9.809  1.00  0.00     0.000 C 
BRANCH  11  12
ATOM     12  C   UNL     1      -2.205   4.357   9.344  1.00  0.00     0.000 C 
BRANCH  12  13
ATOM     13  C   UNL     1      -1.024   5.291   9.654  1.00  0.00     0.000 C 
BRANCH  13  14
ATOM     14  C   UNL     1      -0.867   6.409   8.607  1.00  0.00     0.000 C 
BRANCH  14  15
ATOM     15  C   UNL     1      -0.985   7.815   9.220  1.00  0.00     0.000 C 
BRANCH  15  16
ATOM     16  C   UNL     1      -0.012   8.823   8.583  1.00  0.00     0.006 C 
BRANCH  16  17
ATOM     17  C   UNL     1       0.796   8.200   7.435  1.00  0.00     0.053 C 
BRANCH  17  18
ATOM     18  C   UNL     1       2.214   8.683   7.428  1.00  0.00     0.041 C 
ATOM     19  O   UNL     1       2.477   9.884   7.697  1.00  0.00    -0.550 OA
ATOM     20  O   UNL     1       3.248   7.797   7.152  1.00  0.00    -0.550 OA
ENDBRANCH  17  18
ENDBRANCH  16  17
ENDBRANCH  15  16
ENDBRANCH  14  15
ENDBRANCH  13  14
ENDBRANCH  12  13
ENDBRANCH  11  12
ENDBRANCH   1  11
TORSDOF 15
ENDMDL
MODEL 7
REMARK VINA RESULT:    -3.379      2.829      8.893
REMARK INTER + INTRA:          -7.762
REMARK INTER:                  -6.931
REMARK INTRA:                  -0.832
REMARK UNBOUND:                -1.421
REMARK SMILES O=C([O-])CCCCCCCCCCCCCCC(=O)[O-]
REMARK SMILES IDX 10 1 9 2 8 3 7 4 6 5 5 6 4 7 2 8 1 9 3 10 11 11 12 12 13 13
REMARK SMILES IDX 14 14 15 15 16 16 17 17 18 18 19 19 20 20
REMARK H PARENT
REMARK Flexibility Score: inf
ROOT
ATOM      1  C   UNL     1      -2.009   3.488   9.559  1.00  0.00     0.000 C 
ENDROOT
BRANCH   1   2
ATOM      2  C   UNL     1      -3.416   4.067   9.373  1.00  0.00     0.000 C 
BRANCH   2   3
ATOM      3  C   UNL     1      -4.461   2.948   9.257  1.00  0.00     0.000 C 
BRANCH   3   4
ATOM      4  C   UNL     1      -3.824   1.559   9.089  1.00  0.00     0.000 C 
BRANCH   4   5
ATOM      5  C   UNL     1      -4.684   0.437   9.696  1.00  0.00     0.000 C 
BRANCH   5   6
ATOM      6  C   UNL     1      -5.989   0.207   8.917  1.00  0.00     0.006 C 
BRANCH   6   7
ATOM      7  C   UNL     1      -7.238   0.461   9.771  1.00  0.00     0.053 C 
BRANCH   7   8
ATOM      8  C   UNL     1      -8.107   1.494   9.127  1.00  0.00     0.041 C 
ATOM      9  O   UNL     1      -8.494   1.346   7.937  1.00  0.00    -0.550 OA
ATOM     10  O   UNL     1      -8.534   2.596   9.856  1.00  0.00    -0.550 OA
ENDBRANCH   7   8
ENDBRANCH   6   7
ENDBRANCH   5   6
ENDBRANCH   4   5
ENDBRANCH   3   4
ENDBRANCH   2   3
ENDBRANCH   1   2
BRANCH   1  11
ATOM     11  C   UNL     1      -0.960   4.602   9.650  1.00  0.00     0.000 C 
BRANCH  11  12
ATOM     12  C   UNL     1      -1.447   5.875   8.941  1.00  0.00     0.000 C 
BRANCH  12  13
ATOM     13  C   UNL     1      -0.842   7.156   9.538  1.00  0.00     0.000 C 
BRANCH  13  14
ATOM     14  C   UNL     1       0.635   7.347   9.147  1.00  0.00     0.000 C 
BRANCH  14  15
ATOM     15  C   UNL     1       0.801   8.043   7.786  1.00  0.00     0.000 C 
BRANCH  15  16
ATOM     16  C   UNL     1       2.120   8.830   7.680  1.00  0.00     0.006 C 
BRANCH  16  17
ATOM     17  C   UNL     1       3.330   7.905   7.492  1.00  0.00     0.053 C 
BRANCH  17  18
ATOM     18  C   UNL     1       4.450   8.258   8.423  1.00  0.00     0.041 C 
ATOM     19  O   UNL     1       4.260   8.274   9.667  1.00  0.00    -0.550 OA
ATOM     20  O   UNL     1       5.712   8.542   7.916  1.00  0.00    -0.550 OA
ENDBRANCH  17  18
ENDBRANCH  16  17
ENDBRANCH  15  16
ENDBRANCH  14  15
ENDBRANCH  13  14
ENDBRANCH  12  13
ENDBRANCH  11  12
ENDBRANCH   1  11
TORSDOF 15
ENDMDL
MODEL 8
REMARK VINA RESULT:    -3.367      3.278      3.991
REMARK INTER + INTRA:          -7.740
REMARK INTER:                  -6.768
REMARK INTRA:                  -0.971
REMARK UNBOUND:                -1.421
REMARK SMILES O=C([O-])CCCCCCCCCCCCCCC(=O)[O-]
REMARK SMILES IDX 10 1 9 2 8 3 7 4 6 5 5 6 4 7 2 8 1 9 3 10 11 11 12 12 13 13
REMARK SMILES IDX 14 14 15 15 16 16 17 17 18 18 19 19 20 20
REMARK H PARENT
REMARK Flexibility Score: inf
ROOT
ATOM      1  C   UNL     1      -2.078   2.317   9.176  1.00  0.00     0.000 C 
ENDROOT
BRANCH   1   2
ATOM      2  C   UNL     1      -1.496   3.724   9.355  1.00  0.00     0.000 C 
BRANCH   2   3
ATOM      3  C   UNL     1      -2.605   4.786   9.327  1.00  0.00     0.000 C 
BRANCH   3   4
ATOM      4  C   UNL     1      -2.051   6.217   9.232  1.00  0.00     0.000 C 
BRANCH   4   5
ATOM      5  C   UNL     1      -0.520   6.250   9.092  1.00  0.00     0.000 C 
BRANCH   5   6
ATOM      6  C   UNL     1      -0.023   7.493   8.337  1.00  0.00     0.006 C 
BRANCH   6   7
ATOM      7  C   UNL     1       1.367   7.948   8.803  1.00  0.00     0.053 C 
BRANCH   7   8
ATOM      8  C   UNL     1       2.271   8.143   7.628  1.00  0.00     0.041 C 
ATOM      9  O   UNL     1       3.521   8.100   7.775  1.00  0.00    -0.550 OA
ATOM     10  O   UNL     1       1.735   8.321   6.359  1.00  0.00    -0.550 OA
ENDBRANCH   7   8
ENDBRANCH   6   7
ENDBRANCH   5   6
ENDBRANCH   4   5
ENDBRANCH   3   4
ENDBRANCH   2   3
ENDBRANCH   1   2
BRANCH   1  11
ATOM     11  C   UNL     1      -3.372   2.148   9.982  1.00  0.00     0.000 C 
BRANCH  11  12
ATOM     12  C   UNL     1      -4.186   0.951   9.468  1.00  0.00     0.000 C 
BRANCH  12  13
ATOM     13  C   UNL     1      -5.701   1.211   9.487  1.00  0.00     0.000 C 
BRANCH  13  14
ATOM     14  C   UNL     1      -6.040   2.712   9.527  1.00  0.00     0.000 C 
BRANCH  14  15
ATOM     15  C   UNL     1      -7.537   2.987   9.308  1.00  0.00     0.000 C 
BRANCH  15  16
ATOM     16  C   UNL     1      -8.438   1.941   9.989  1.00  0.00     0.006 C 
BRANCH  16  17
ATOM     17  C   UNL     1      -9.519   1.405   9.040  1.00  0.00     0.053 C 
BRANCH  17  18
ATOM     18  C   UNL     1      -9.022   0.250   8.226  1.00  0.00     0.041 C 
ATOM     19  O   UNL     1      -8.993   0.325   6.970  1.00  0.00    -0.550 OA
ATOM     20  O   UNL     1      -8.565  -0.900   8.857  1.00  0.00    -0.550 OA
ENDBRANCH  17  18
ENDBRANCH  16  17
ENDBRANCH  15  16
ENDBRANCH  14  15
ENDBRANCH  13  14
ENDBRANCH  12  13
ENDBRANCH  11  12
ENDBRANCH   1  11
TORSDOF 15
ENDMDL
MODEL 9
REMARK VINA RESULT:    -3.293      1.349      6.531
REMARK INTER + INTRA:          -7.601
REMARK INTER:                  -6.436
REMARK INTRA:                  -1.165
REMARK UNBOUND:                -1.421
REMARK SMILES O=C([O-])CCCCCCCCCCCCCCC(=O)[O-]
REMARK SMILES IDX 10 1 9 2 8 3 7 4 6 5 5 6 4 7 2 8 1 9 3 10 11 11 12 12 13 13
REMARK SMILES IDX 14 14 15 15 16 16 17 17 18 18 19 19 20 20
REMARK H PARENT
REMARK Flexibility Score: inf
ROOT
ATOM      1  C   UNL     1      -3.974   1.824   9.141  1.00  0.00     0.000 C 
ENDROOT
BRANCH   1   2
ATOM      2  C   UNL     1      -5.381   2.265   9.563  1.00  0.00     0.000 C 
BRANCH   2   3
ATOM      3  C   UNL     1      -5.368   3.702  10.105  1.00  0.00     0.000 C 
BRANCH   3   4
ATOM      4  C   UNL     1      -5.549   4.752   8.997  1.00  0.00     0.000 C 
BRANCH   4   5
ATOM      5  C   UNL     1      -5.909   6.141   9.552  1.00  0.00     0.000 C 
BRANCH   5   6
ATOM      6  C   UNL     1      -5.689   7.262   8.525  1.00  0.00     0.006 C 
BRANCH   6   7
ATOM      7  C   UNL     1      -6.933   8.140   8.334  1.00  0.00     0.053 C 
BRANCH   7   8
ATOM      8  C   UNL     1      -7.248   8.287   6.880  1.00  0.00     0.041 C 
ATOM      9  O   UNL     1      -7.219   7.284   6.119  1.00  0.00    -0.550 OA
ATOM     10  O   UNL     1      -7.625   9.525   6.372  1.00  0.00    -0.550 OA
ENDBRANCH   7   8
ENDBRANCH   6   7
ENDBRANCH   5   6
ENDBRANCH   4   5
ENDBRANCH   3   4
ENDBRANCH   2   3
ENDBRANCH   1   2
BRANCH   1  11
ATOM     11  C   UNL     1      -2.910   2.391  10.088  1.00  0.00     0.000 C 
BRANCH  11  12
ATOM     12  C   UNL     1      -1.656   2.821   9.311  1.00  0.00     0.000 C 
BRANCH  12  13
ATOM     13  C   UNL     1      -1.088   4.165   9.797  1.00  0.00     0.000 C 
BRANCH  13  14
ATOM     14  C   UNL     1      -1.759   5.369   9.112  1.00  0.00     0.000 C 
BRANCH  14  15
ATOM     15  C   UNL     1      -0.741   6.407   8.610  1.00  0.00     0.000 C 
BRANCH  15  16
ATOM     16  C   UNL     1       0.388   6.668   9.622  1.00  0.00     0.006 C 
BRANCH  16  17
ATOM     17  C   UNL     1       1.691   7.102   8.935  1.00  0.00     0.053 C 
BRANCH  17  18
ATOM     18  C   UNL     1       1.474   8.267   8.018  1.00  0.00     0.041 C 
ATOM     19  O   UNL     1       1.852   8.209   6.818  1.00  0.00    -0.550 OA
ATOM     20  O   UNL     1       0.828   9.406   8.481  1.00  0.00    -0.550 OA
ENDBRANCH  17  18
ENDBRANCH  16  17
ENDBRANCH  15  16
ENDBRANCH  14  15
ENDBRANCH  13  14
ENDBRANCH  12  13
ENDBRANCH  11  12
ENDBRANCH   1  11
TORSDOF 15
ENDMDL
