MODEL 1
REMARK VINA RESULT:    -3.202      0.000      0.000
REMARK INTER + INTRA:          -3.859
REMARK INTER:                  -3.763
REMARK INTRA:                  -0.095
REMARK UNBOUND:                -0.095
REMARK SMILES CCCCC(=O)[O-]
REMARK SMILES IDX 4 1 5 2 6 3 7 4 3 5 2 6 1 7
REMARK H PARENT
REMARK Flexibility Score: inf
ROOT
ATOM      1  C   UNL     1     -17.520 -16.908  -3.007  1.00  0.00     0.053 C 
ENDROOT
BRANCH   1   2
ATOM      2  C   UNL     1     -17.877 -18.137  -3.781  1.00  0.00     0.041 C 
ATOM      3  O   UNL     1     -18.812 -18.885  -3.388  1.00  0.00    -0.550 OA
ATOM      4  O   UNL     1     -17.147 -18.485  -4.910  1.00  0.00    -0.550 OA
ENDBRANCH   1   2
BRANCH   1   5
ATOM      5  C   UNL     1     -16.041 -16.936  -2.610  1.00  0.00     0.006 C 
BRANCH   5   6
ATOM      6  C   UNL     1     -15.249 -15.861  -3.363  1.00  0.00    -0.003 C 
ATOM      7  C   UNL     1     -16.161 -14.732  -3.835  1.00  0.00     0.004 C 
ENDBRANCH   5   6
ENDBRANCH   1   5
TORSDOF 3
ENDMDL
MODEL 2
REMARK VINA RESULT:    -3.150      2.335      3.565
REMARK INTER + INTRA:          -3.798
REMARK INTER:                  -3.686
REMARK INTRA:                  -0.112
REMARK UNBOUND:                -0.095
REMARK SMILES CCCCC(=O)[O-]
REMARK SMILES IDX 4 1 5 2 6 3 7 4 3 5 2 6 1 7
REMARK H PARENT
REMARK Flexibility Score: inf
ROOT
ATOM      1  C   UNL     1     -16.333 -15.442  -3.373  1.00  0.00     0.053 C 
ENDROOT
BRANCH   1   2
ATOM      2  C   UNL     1     -16.072 -15.144  -4.816  1.00  0.00     0.041 C 
ATOM      3  O   UNL     1     -15.394 -15.944  -5.515  1.00  0.00    -0.550 OA
ATOM      4  O   UNL     1     -16.534 -13.961  -5.377  1.00  0.00    -0.550 OA
ENDBRANCH   1   2
BRANCH   1   5
ATOM      5  C   UNL     1     -16.301 -16.953  -3.123  1.00  0.00     0.006 C 
BRANCH   5   6
ATOM      6  C   UNL     1     -17.712 -17.549  -3.178  1.00  0.00    -0.003 C 
ATOM      7  C   UNL     1     -17.906 -18.392  -4.435  1.00  0.00     0.004 C 
ENDBRANCH   5   6
ENDBRANCH   1   5
TORSDOF 3
ENDMDL
MODEL 3
REMARK VINA RESULT:    -3.103      3.379      4.449
REMARK INTER + INTRA:          -3.743
REMARK INTER:                  -3.722
REMARK INTRA:                  -0.020
REMARK UNBOUND:                -0.095
REMARK SMILES CCCCC(=O)[O-]
REMARK SMILES IDX 4 1 5 2 6 3 7 4 3 5 2 6 1 7
REMARK H PARENT
REMARK Flexibility Score: inf
ROOT
ATOM      1  C   UNL     1     -16.121 -14.820  -5.277  1.00  0.00     0.053 C 
ENDROOT
BRANCH   1   2
ATOM      2  C   UNL     1     -16.364 -13.478  -5.890  1.00  0.00     0.041 C 
ATOM      3  O   UNL     1     -15.744 -12.466  -5.467  1.00  0.00    -0.550 OA
ATOM      4  O   UNL     1     -17.312 -13.334  -6.895  1.00  0.00    -0.550 OA
ENDBRANCH   1   2
BRANCH   1   5
ATOM      5  C   UNL     1     -16.161 -14.727  -3.748  1.00  0.00     0.006 C 
BRANCH   5   6
ATOM      6  C   UNL     1     -15.886 -16.092  -3.107  1.00  0.00    -0.003 C 
ATOM      7  C   UNL     1     -17.142 -16.958  -3.091  1.00  0.00     0.004 C 
ENDBRANCH   5   6
ENDBRANCH   1   5
TORSDOF 3
ENDMDL
MODEL 4
REMARK VINA RESULT:    -3.026      2.315      3.612
REMARK INTER + INTRA:          -3.652
REMARK INTER:                  -3.585
REMARK INTRA:                  -0.067
REMARK UNBOUND:                -0.095
REMARK SMILES CCCCC(=O)[O-]
REMARK SMILES IDX 4 1 5 2 6 3 7 4 3 5 2 6 1 7
REMARK H PARENT
REMARK Flexibility Score: inf
ROOT
ATOM      1  C   UNL     1     -16.126 -16.856  -3.120  1.00  0.00     0.053 C 
ENDROOT
BRANCH   1   2
ATOM      2  C   UNL     1     -15.912 -15.694  -4.038  1.00  0.00     0.041 C 
ATOM      3  O   UNL     1     -16.307 -14.544  -3.707  1.00  0.00    -0.550 OA
ATOM      4  O   UNL     1     -15.321 -15.887  -5.279  1.00  0.00    -0.550 OA
ENDBRANCH   1   2
BRANCH   1   5
ATOM      5  C   UNL     1     -17.614 -17.211  -3.042  1.00  0.00     0.006 C 
BRANCH   5   6
ATOM      6  C   UNL     1     -18.032 -18.089  -4.227  1.00  0.00    -0.003 C 
ATOM      7  C   UNL     1     -19.020 -19.168  -3.793  1.00  0.00     0.004 C 
ENDBRANCH   5   6
ENDBRANCH   1   5
TORSDOF 3
ENDMDL
MODEL 5
REMARK VINA RESULT:    -2.962      1.997      2.593
REMARK INTER + INTRA:          -3.576
REMARK INTER:                  -3.528
REMARK INTRA:                  -0.048
REMARK UNBOUND:                -0.095
REMARK SMILES CCCCC(=O)[O-]
REMARK SMILES IDX 4 1 5 2 6 3 7 4 3 5 2 6 1 7
REMARK H PARENT
REMARK Flexibility Score: inf
ROOT
ATOM      1  C   UNL     1     -15.669 -16.034  -3.389  1.00  0.00     0.053 C 
ENDROOT
BRANCH   1   2
ATOM      2  C   UNL     1     -16.968 -16.480  -2.796  1.00  0.00     0.041 C 
ATOM      3  O   UNL     1     -17.610 -15.715  -2.028  1.00  0.00    -0.550 OA
ATOM      4  O   UNL     1     -17.448 -17.758  -3.052  1.00  0.00    -0.550 OA
ENDBRANCH   1   2
BRANCH   1   5
ATOM      5  C   UNL     1     -15.877 -15.536  -4.823  1.00  0.00     0.006 C 
BRANCH   5   6
ATOM      6  C   UNL     1     -16.274 -14.056  -4.838  1.00  0.00    -0.003 C 
ATOM      7  C   UNL     1     -16.358 -13.521  -6.265  1.00  0.00     0.004 C 
ENDBRANCH   5   6
ENDBRANCH   1   5
TORSDOF 3
ENDMDL
MODEL 6
REMARK VINA RESULT:    -2.879      9.867     10.668
REMARK INTER + INTRA:          -3.479
REMARK INTER:                  -3.437
REMARK INTRA:                  -0.042
REMARK UNBOUND:                -0.095
REMARK SMILES CCCCC(=O)[O-]
REMARK SMILES IDX 4 1 5 2 6 3 7 4 3 5 2 6 1 7
REMARK H PARENT
REMARK Flexibility Score: inf
ROOT
ATOM      1  C   UNL     1     -21.079 -12.510   3.776  1.00  0.00     0.053 C 
ENDROOT
BRANCH   1   2
ATOM      2  C   UNL     1     -20.226 -11.284   3.857  1.00  0.00     0.041 C 
ATOM      3  O   UNL     1     -18.993 -11.352   3.608  1.00  0.00    -0.550 OA
ATOM      4  O   UNL     1     -20.781 -10.075   4.256  1.00  0.00    -0.550 OA
ENDBRANCH   1   2
BRANCH   1   5
ATOM      5  C   UNL     1     -22.417 -12.281   4.486  1.00  0.00     0.006 C 
BRANCH   5   6
ATOM      6  C   UNL     1     -23.421 -13.385   4.136  1.00  0.00    -0.003 C 
ATOM      7  C   UNL     1     -22.899 -14.268   3.006  1.00  0.00     0.004 C 
ENDBRANCH   5   6
ENDBRANCH   1   5
TORSDOF 3
ENDMDL
MODEL 7
REMARK VINA RESULT:    -2.867      9.570     10.149
REMARK INTER + INTRA:          -3.465
REMARK INTER:                  -3.432
REMARK INTRA:                  -0.033
REMARK UNBOUND:                -0.095
REMARK SMILES CCCCC(=O)[O-]
REMARK SMILES IDX 4 1 5 2 6 3 7 4 3 5 2 6 1 7
REMARK H PARENT
REMARK Flexibility Score: inf
ROOT
ATOM      1  C   UNL     1     -21.510 -12.863   3.765  1.00  0.00     0.053 C 
ENDROOT
BRANCH   1   2
ATOM      2  C   UNL     1     -22.831 -13.562   3.692  1.00  0.00     0.041 C 
ATOM      3  O   UNL     1     -23.063 -14.382   2.764  1.00  0.00    -0.550 OA
ATOM      4  O   UNL     1     -23.823 -13.272   4.619  1.00  0.00    -0.550 OA
ENDBRANCH   1   2
BRANCH   1   5
ATOM      5  C   UNL     1     -21.634 -11.564   4.567  1.00  0.00     0.006 C 
BRANCH   5   6
ATOM      6  C   UNL     1     -20.562 -10.553   4.145  1.00  0.00    -0.003 C 
ATOM      7  C   UNL     1     -19.292 -11.257   3.678  1.00  0.00     0.004 C 
ENDBRANCH   5   6
ENDBRANCH   1   5
TORSDOF 3
ENDMDL
MODEL 8
REMARK VINA RESULT:    -2.854     10.841     11.460
REMARK INTER + INTRA:          -3.450
REMARK INTER:                  -3.338
REMARK INTRA:                  -0.112
REMARK UNBOUND:                -0.095
REMARK SMILES CCCCC(=O)[O-]
REMARK SMILES IDX 4 1 5 2 6 3 7 4 3 5 2 6 1 7
REMARK H PARENT
REMARK Flexibility Score: inf
ROOT
ATOM      1  C   UNL     1     -20.779 -10.054   4.120  1.00  0.00     0.053 C 
ENDROOT
BRANCH   1   2
ATOM      2  C   UNL     1     -20.148 -11.372   3.799  1.00  0.00     0.041 C 
ATOM      3  O   UNL     1     -18.947 -11.424   3.422  1.00  0.00    -0.550 OA
ATOM      4  O   UNL     1     -20.899 -12.538   3.867  1.00  0.00    -0.550 OA
ENDBRANCH   1   2
BRANCH   1   5
ATOM      5  C   UNL     1     -22.111 -10.260   4.847  1.00  0.00     0.006 C 
BRANCH   5   6
ATOM      6  C   UNL     1     -21.947 -10.067   6.359  1.00  0.00    -0.003 C 
ATOM      7  C   UNL     1     -21.959 -11.406   7.091  1.00  0.00     0.004 C 
ENDBRANCH   5   6
ENDBRANCH   1   5
TORSDOF 3
ENDMDL
MODEL 9
REMARK VINA RESULT:    -2.775      1.814      2.433
REMARK INTER + INTRA:          -3.357
REMARK INTER:                  -3.341
REMARK INTRA:                  -0.016
REMARK UNBOUND:                -0.095
REMARK SMILES CCCCC(=O)[O-]
REMARK SMILES IDX 4 1 5 2 6 3 7 4 3 5 2 6 1 7
REMARK H PARENT
REMARK Flexibility Score: inf
ROOT
ATOM      1  C   UNL     1     -18.302 -18.929  -4.510  1.00  0.00     0.053 C 
ENDROOT
BRANCH   1   2
ATOM      2  C   UNL     1     -19.547 -19.668  -4.137  1.00  0.00     0.041 C 
ATOM      3  O   UNL     1     -19.478 -20.719  -3.446  1.00  0.00    -0.550 OA
ATOM      4  O   UNL     1     -20.782 -19.225  -4.592  1.00  0.00    -0.550 OA
ENDBRANCH   1   2
BRANCH   1   5
ATOM      5  C   UNL     1     -17.960 -17.882  -3.445  1.00  0.00     0.006 C 
BRANCH   5   6
ATOM      6  C   UNL     1     -16.585 -17.257  -3.709  1.00  0.00    -0.003 C 
ATOM      7  C   UNL     1     -16.406 -15.963  -2.921  1.00  0.00     0.004 C 
ENDBRANCH   5   6
ENDBRANCH   1   5
TORSDOF 3
ENDMDL
