MODEL 1
REMARK VINA RESULT:    -3.298      0.000      0.000
REMARK INTER + INTRA:          -3.718
REMARK INTER:                  -3.684
REMARK INTRA:                  -0.035
REMARK UNBOUND:                -0.035
REMARK SMILES CCCC(=O)[O-]
REMARK SMILES IDX 3 1 4 2 5 3 6 4 2 5 1 6
REMARK H PARENT
REMARK Flexibility Score: inf
ROOT
ATOM      1  C   UNL     1      -2.076  37.117  16.710  1.00  0.00     0.052 C 
ENDROOT
BRANCH   1   2
ATOM      2  C   UNL     1      -2.490  37.479  18.100  1.00  0.00     0.041 C 
ATOM      3  O   UNL     1      -3.690  37.345  18.460  1.00  0.00    -0.550 OA
ATOM      4  O   UNL     1      -1.562  38.012  18.986  1.00  0.00    -0.550 OA
ENDBRANCH   1   2
BRANCH   1   5
ATOM      5  C   UNL     1      -3.224  36.422  15.973  1.00  0.00     0.003 C 
ATOM      6  C   UNL     1      -3.584  37.164  14.689  1.00  0.00     0.004 C 
ENDBRANCH   1   5
TORSDOF 2
ENDMDL
MODEL 2
REMARK VINA RESULT:    -3.262      0.319      1.360
REMARK INTER + INTRA:          -3.678
REMARK INTER:                  -3.660
REMARK INTRA:                  -0.017
REMARK UNBOUND:                -0.035
REMARK SMILES CCCC(=O)[O-]
REMARK SMILES IDX 3 1 4 2 5 3 6 4 2 5 1 6
REMARK H PARENT
REMARK Flexibility Score: inf
ROOT
ATOM      1  C   UNL     1      -2.072  37.119  16.894  1.00  0.00     0.052 C 
ENDROOT
BRANCH   1   2
ATOM      2  C   UNL     1      -2.512  37.513  18.267  1.00  0.00     0.041 C 
ATOM      3  O   UNL     1      -1.680  37.982  19.090  1.00  0.00    -0.550 OA
ATOM      4  O   UNL     1      -3.831  37.319  18.659  1.00  0.00    -0.550 OA
ENDBRANCH   1   2
BRANCH   1   5
ATOM      5  C   UNL     1      -3.190  36.362  16.170  1.00  0.00     0.003 C 
ATOM      6  C   UNL     1      -3.176  36.661  14.674  1.00  0.00     0.004 C 
ENDBRANCH   1   5
TORSDOF 2
ENDMDL
MODEL 3
REMARK VINA RESULT:    -3.162      2.635      3.572
REMARK INTER + INTRA:          -3.566
REMARK INTER:                  -3.554
REMARK INTRA:                  -0.012
REMARK UNBOUND:                -0.035
REMARK SMILES CCCC(=O)[O-]
REMARK SMILES IDX 3 1 4 2 5 3 6 4 2 5 1 6
REMARK H PARENT
REMARK Flexibility Score: inf
ROOT
ATOM      1  C   UNL     1      -3.288  36.318  16.449  1.00  0.00     0.052 C 
ENDROOT
BRANCH   1   2
ATOM      2  C   UNL     1      -3.109  36.897  15.083  1.00  0.00     0.041 C 
ATOM      3  O   UNL     1      -2.186  36.480  14.333  1.00  0.00    -0.550 OA
ATOM      4  O   UNL     1      -3.929  37.932  14.652  1.00  0.00    -0.550 OA
ENDBRANCH   1   2
BRANCH   1   5
ATOM      5  C   UNL     1      -2.804  37.304  17.517  1.00  0.00     0.003 C 
ATOM      6  C   UNL     1      -3.645  37.198  18.785  1.00  0.00     0.004 C 
ENDBRANCH   1   5
TORSDOF 2
ENDMDL
MODEL 4
REMARK VINA RESULT:    -2.964      1.387      2.178
REMARK INTER + INTRA:          -3.345
REMARK INTER:                  -3.330
REMARK INTRA:                  -0.014
REMARK UNBOUND:                -0.035
REMARK SMILES CCCC(=O)[O-]
REMARK SMILES IDX 3 1 4 2 5 3 6 4 2 5 1 6
REMARK H PARENT
REMARK Flexibility Score: inf
ROOT
ATOM      1  C   UNL     1      -3.587  36.863  17.842  1.00  0.00     0.052 C 
ENDROOT
BRANCH   1   2
ATOM      2  C   UNL     1      -3.535  37.186  19.300  1.00  0.00     0.041 C 
ATOM      3  O   UNL     1      -2.471  37.620  19.816  1.00  0.00    -0.550 OA
ATOM      4  O   UNL     1      -4.647  36.964  20.103  1.00  0.00    -0.550 OA
ENDBRANCH   1   2
BRANCH   1   5
ATOM      5  C   UNL     1      -2.256  37.208  17.168  1.00  0.00     0.003 C 
ATOM      6  C   UNL     1      -2.108  36.481  15.835  1.00  0.00     0.004 C 
ENDBRANCH   1   5
TORSDOF 2
ENDMDL
MODEL 5
REMARK VINA RESULT:    -2.948      2.430      3.420
REMARK INTER + INTRA:          -3.327
REMARK INTER:                  -3.287
REMARK INTRA:                  -0.040
REMARK UNBOUND:                -0.035
REMARK SMILES CCCC(=O)[O-]
REMARK SMILES IDX 3 1 4 2 5 3 6 4 2 5 1 6
REMARK H PARENT
REMARK Flexibility Score: inf
ROOT
ATOM      1  C   UNL     1      -4.224  37.314  19.516  1.00  0.00     0.052 C 
ENDROOT
BRANCH   1   2
ATOM      2  C   UNL     1      -4.430  35.904  19.966  1.00  0.00     0.041 C 
ATOM      3  O   UNL     1      -3.937  35.507  21.056  1.00  0.00    -0.550 OA
ATOM      4  O   UNL     1      -5.124  35.010  19.160  1.00  0.00    -0.550 OA
ENDBRANCH   1   2
BRANCH   1   5
ATOM      5  C   UNL     1      -2.892  37.451  18.772  1.00  0.00     0.003 C 
ATOM      6  C   UNL     1      -3.063  37.175  17.282  1.00  0.00     0.004 C 
ENDBRANCH   1   5
TORSDOF 2
ENDMDL
MODEL 6
REMARK VINA RESULT:    -2.909      2.370      3.762
REMARK INTER + INTRA:          -3.283
REMARK INTER:                  -3.274
REMARK INTRA:                  -0.009
REMARK UNBOUND:                -0.035
REMARK SMILES CCCC(=O)[O-]
REMARK SMILES IDX 3 1 4 2 5 3 6 4 2 5 1 6
REMARK H PARENT
REMARK Flexibility Score: inf
ROOT
ATOM      1  C   UNL     1      -4.065  37.464  19.518  1.00  0.00     0.052 C 
ENDROOT
BRANCH   1   2
ATOM      2  C   UNL     1      -2.954  37.460  18.518  1.00  0.00     0.041 C 
ATOM      3  O   UNL     1      -1.812  37.886  18.837  1.00  0.00    -0.550 OA
ATOM      4  O   UNL     1      -3.189  37.032  17.217  1.00  0.00    -0.550 OA
ENDBRANCH   1   2
BRANCH   1   5
ATOM      5  C   UNL     1      -4.611  36.047  19.718  1.00  0.00     0.003 C 
ATOM      6  C   UNL     1      -4.690  35.691  21.199  1.00  0.00     0.004 C 
ENDBRANCH   1   5
TORSDOF 2
ENDMDL
MODEL 7
REMARK VINA RESULT:    -2.894      2.239      3.235
REMARK INTER + INTRA:          -3.267
REMARK INTER:                  -3.245
REMARK INTRA:                  -0.022
REMARK UNBOUND:                -0.035
REMARK SMILES CCCC(=O)[O-]
REMARK SMILES IDX 3 1 4 2 5 3 6 4 2 5 1 6
REMARK H PARENT
REMARK Flexibility Score: inf
ROOT
ATOM      1  C   UNL     1      -3.166  37.456  18.351  1.00  0.00     0.052 C 
ENDROOT
BRANCH   1   2
ATOM      2  C   UNL     1      -2.974  36.748  17.048  1.00  0.00     0.041 C 
ATOM      3  O   UNL     1      -3.749  35.812  16.715  1.00  0.00    -0.550 OA
ATOM      4  O   UNL     1      -1.910  37.086  16.222  1.00  0.00    -0.550 OA
ENDBRANCH   1   2
BRANCH   1   5
ATOM      5  C   UNL     1      -4.106  36.659  19.261  1.00  0.00     0.003 C 
ATOM      6  C   UNL     1      -4.996  37.588  20.080  1.00  0.00     0.004 C 
ENDBRANCH   1   5
TORSDOF 2
ENDMDL
MODEL 8
REMARK VINA RESULT:    -2.824      1.272      1.769
REMARK INTER + INTRA:          -3.189
REMARK INTER:                  -3.153
REMARK INTRA:                  -0.036
REMARK UNBOUND:                -0.035
REMARK SMILES CCCC(=O)[O-]
REMARK SMILES IDX 3 1 4 2 5 3 6 4 2 5 1 6
REMARK H PARENT
REMARK Flexibility Score: inf
ROOT
ATOM      1  C   UNL     1      -2.546  37.213  17.265  1.00  0.00     0.052 C 
ENDROOT
BRANCH   1   2
ATOM      2  C   UNL     1      -3.601  36.889  18.273  1.00  0.00     0.041 C 
ATOM      3  O   UNL     1      -3.829  37.677  19.229  1.00  0.00    -0.550 OA
ATOM      4  O   UNL     1      -4.302  35.692  18.187  1.00  0.00    -0.550 OA
ENDBRANCH   1   2
BRANCH   1   5
ATOM      5  C   UNL     1      -3.180  37.518  15.904  1.00  0.00     0.003 C 
ATOM      6  C   UNL     1      -2.765  36.486  14.861  1.00  0.00     0.004 C 
ENDBRANCH   1   5
TORSDOF 2
ENDMDL
MODEL 9
REMARK VINA RESULT:    -2.823      2.739      3.908
REMARK INTER + INTRA:          -3.187
REMARK INTER:                  -3.151
REMARK INTRA:                  -0.036
REMARK UNBOUND:                -0.035
REMARK SMILES CCCC(=O)[O-]
REMARK SMILES IDX 3 1 4 2 5 3 6 4 2 5 1 6
REMARK H PARENT
REMARK Flexibility Score: inf
ROOT
ATOM      1  C   UNL     1      -4.509  36.383  19.162  1.00  0.00     0.052 C 
ENDROOT
BRANCH   1   2
ATOM      2  C   UNL     1      -3.293  37.171  18.799  1.00  0.00     0.041 C 
ATOM      3  O   UNL     1      -3.042  37.430  17.591  1.00  0.00    -0.550 OA
ATOM      4  O   UNL     1      -2.407  37.580  19.787  1.00  0.00    -0.550 OA
ENDBRANCH   1   2
BRANCH   1   5
ATOM      5  C   UNL     1      -5.051  36.830  20.523  1.00  0.00     0.003 C 
ATOM      6  C   UNL     1      -5.123  35.659  21.499  1.00  0.00     0.004 C 
ENDBRANCH   1   5
TORSDOF 2
ENDMDL
