MODEL 1
REMARK VINA RESULT:    -3.817      0.000      0.000
REMARK INTER + INTRA:          -5.299
REMARK INTER:                  -4.710
REMARK INTRA:                  -0.589
REMARK UNBOUND:                -0.589
REMARK SMILES COc1ccc(-c2cc3cc(O)c(OC)cc3o2)c(O)c1
REMARK SMILES IDX 7 1 8 2 9 3 10 4 11 5 13 6 16 7 17 8 18 9 6 10 3 11 21 12
REMARK SMILES IDX 4 13 19 14 5 15 2 16 1 17 20 18 12 20 14 22 15 23
REMARK H PARENT 20 19 12 21
REMARK Flexibility Score: inf
ROOT
ATOM      1  C   UNL     1     121.712 126.113 129.281  1.00  0.00     0.139 A 
ATOM      2  C   UNL     1     122.403 124.914 129.475  1.00  0.00     0.060 A 
ATOM      3  C   UNL     1     122.236 124.634 130.812  1.00  0.00     0.025 A 
ATOM      4  C   UNL     1     122.689 123.568 131.582  1.00  0.00     0.062 A 
ATOM      5  C   UNL     1     122.346 123.549 132.950  1.00  0.00     0.158 A 
ATOM      6  C   UNL     1     121.560 124.588 133.510  1.00  0.00     0.164 A 
ATOM      7  C   UNL     1     121.117 125.654 132.686  1.00  0.00     0.098 A 
ATOM      8  C   UNL     1     121.476 125.637 131.342  1.00  0.00     0.138 A 
ATOM      9  O   UNL     1     121.167 126.513 130.419  1.00  0.00    -0.456 OA
ENDROOT
BRANCH   1  10
ATOM     10  C   UNL     1     121.553 126.854 128.008  1.00  0.00     0.059 A 
ATOM     11  C   UNL     1     121.290 128.184 125.530  1.00  0.00     0.122 A 
ATOM     12  C   UNL     1     121.050 128.865 126.727  1.00  0.00     0.093 A 
ATOM     13  C   UNL     1     121.651 126.827 125.574  1.00  0.00     0.047 A 
ATOM     14  C   UNL     1     121.168 128.212 127.964  1.00  0.00     0.130 A 
ATOM     15  C   UNL     1     121.777 126.171 126.800  1.00  0.00     0.020 A 
BRANCH  11  16
ATOM     16  O   UNL     1     121.156 128.889 124.324  1.00  0.00    -0.497 OA
ATOM     17  C   UNL     1     121.898 130.056 123.988  1.00  0.00     0.278 C 
ENDBRANCH  11  16
BRANCH  14  18
ATOM     18  O   UNL     1     120.875 128.909 129.134  1.00  0.00    -0.507 OA
ATOM     19  H   UNL     1     121.531 129.565 129.543  1.00  0.00     0.293 HD
ENDBRANCH  14  18
ENDBRANCH   1  10
BRANCH   5  20
ATOM     20  O   UNL     1     122.778 122.503 133.763  1.00  0.00    -0.504 OA
ATOM     21  H   UNL     1     122.170 121.726 133.996  1.00  0.00     0.293 HD
ENDBRANCH   5  20
BRANCH   6  22
ATOM     22  O   UNL     1     121.245 124.525 134.875  1.00  0.00    -0.493 OA
ATOM     23  C   UNL     1     121.955 125.218 135.897  1.00  0.00     0.278 C 
ENDBRANCH   6  22
TORSDOF 5
ENDMDL
MODEL 2
REMARK VINA RESULT:    -3.805      2.313      4.628
REMARK INTER + INTRA:          -5.283
REMARK INTER:                  -4.675
REMARK INTRA:                  -0.609
REMARK UNBOUND:                -0.589
REMARK SMILES COc1ccc(-c2cc3cc(O)c(OC)cc3o2)c(O)c1
REMARK SMILES IDX 7 1 8 2 9 3 10 4 11 5 13 6 16 7 17 8 18 9 6 10 3 11 21 12
REMARK SMILES IDX 4 13 19 14 5 15 2 16 1 17 20 18 12 20 14 22 15 23
REMARK H PARENT 20 19 12 21
REMARK Flexibility Score: inf
ROOT
ATOM      1  C   UNL     1     122.227 125.146 133.608  1.00  0.00     0.139 A 
ATOM      2  C   UNL     1     123.334 124.434 134.079  1.00  0.00     0.060 A 
ATOM      3  C   UNL     1     123.213 124.479 135.448  1.00  0.00     0.025 A 
ATOM      4  C   UNL     1     124.012 123.939 136.450  1.00  0.00     0.062 A 
ATOM      5  C   UNL     1     123.623 124.148 137.791  1.00  0.00     0.158 A 
ATOM      6  C   UNL     1     122.450 124.885 138.092  1.00  0.00     0.164 A 
ATOM      7  C   UNL     1     121.663 125.414 137.039  1.00  0.00     0.098 A 
ATOM      8  C   UNL     1     122.079 125.186 135.731  1.00  0.00     0.138 A 
ATOM      9  O   UNL     1     121.497 125.578 134.625  1.00  0.00    -0.456 OA
ENDROOT
BRANCH   1  10
ATOM     10  C   UNL     1     121.859 125.388 132.194  1.00  0.00     0.059 A 
ATOM     11  C   UNL     1     121.208 125.761 129.470  1.00  0.00     0.122 A 
ATOM     12  C   UNL     1     120.916 126.753 130.410  1.00  0.00     0.093 A 
ATOM     13  C   UNL     1     121.819 124.570 129.899  1.00  0.00     0.047 A 
ATOM     14  C   UNL     1     121.224 126.575 131.767  1.00  0.00     0.130 A 
ATOM     15  C   UNL     1     122.136 124.387 131.246  1.00  0.00     0.020 A 
BRANCH  11  16
ATOM     16  O   UNL     1     120.875 125.994 128.127  1.00  0.00    -0.497 OA
ATOM     17  C   UNL     1     121.816 126.326 127.111  1.00  0.00     0.278 C 
ENDBRANCH  11  16
BRANCH  14  18
ATOM     18  O   UNL     1     120.875 127.566 132.682  1.00  0.00    -0.507 OA
ATOM     19  H   UNL     1     121.493 127.835 133.439  1.00  0.00     0.293 HD
ENDBRANCH  14  18
ENDBRANCH   1  10
BRANCH   5  20
ATOM     20  O   UNL     1     124.393 123.629 138.830  1.00  0.00    -0.504 OA
ATOM     21  H   UNL     1     124.011 123.500 139.759  1.00  0.00     0.293 HD
ENDBRANCH   5  20
BRANCH   6  22
ATOM     22  O   UNL     1     122.105 125.067 139.439  1.00  0.00    -0.493 OA
ATOM     23  C   UNL     1     120.931 124.537 140.048  1.00  0.00     0.278 C 
ENDBRANCH   6  22
TORSDOF 5
ENDMDL
MODEL 3
REMARK VINA RESULT:    -3.718      1.443      2.417
REMARK INTER + INTRA:          -5.177
REMARK INTER:                  -4.588
REMARK INTRA:                  -0.589
REMARK UNBOUND:                -0.589
REMARK SMILES COc1ccc(-c2cc3cc(O)c(OC)cc3o2)c(O)c1
REMARK SMILES IDX 7 1 8 2 9 3 10 4 11 5 13 6 16 7 17 8 18 9 6 10 3 11 21 12
REMARK SMILES IDX 4 13 19 14 5 15 2 16 1 17 20 18 12 20 14 22 15 23
REMARK H PARENT 20 19 12 21
REMARK Flexibility Score: inf
ROOT
ATOM      1  C   UNL     1     121.893 125.790 129.313  1.00  0.00     0.139 A 
ATOM      2  C   UNL     1     121.153 126.311 130.379  1.00  0.00     0.060 A 
ATOM      3  C   UNL     1     121.399 125.447 131.420  1.00  0.00     0.025 A 
ATOM      4  C   UNL     1     120.944 125.455 132.735  1.00  0.00     0.062 A 
ATOM      5  C   UNL     1     121.382 124.422 133.592  1.00  0.00     0.158 A 
ATOM      6  C   UNL     1     122.261 123.416 133.115  1.00  0.00     0.164 A 
ATOM      7  C   UNL     1     122.702 123.450 131.768  1.00  0.00     0.098 A 
ATOM      8  C   UNL     1     122.248 124.484 130.955  1.00  0.00     0.138 A 
ATOM      9  O   UNL     1     122.538 124.700 129.696  1.00  0.00    -0.456 OA
ENDROOT
BRANCH   1  10
ATOM     10  C   UNL     1     122.001 126.350 127.946  1.00  0.00     0.059 A 
ATOM     11  C   UNL     1     122.119 127.473 125.356  1.00  0.00     0.122 A 
ATOM     12  C   UNL     1     123.000 126.451 125.725  1.00  0.00     0.093 A 
ATOM     13  C   UNL     1     121.183 127.943 126.293  1.00  0.00     0.047 A 
ATOM     14  C   UNL     1     122.957 125.893 127.012  1.00  0.00     0.130 A 
ATOM     15  C   UNL     1     121.130 127.388 127.573  1.00  0.00     0.020 A 
BRANCH  11  16
ATOM     16  O   UNL     1     122.209 127.993 124.056  1.00  0.00    -0.497 OA
ATOM     17  C   UNL     1     121.286 128.921 123.495  1.00  0.00     0.278 C 
ENDBRANCH  11  16
BRANCH  14  18
ATOM     18  O   UNL     1     123.881 124.910 127.360  1.00  0.00    -0.507 OA
ATOM     19  H   UNL     1     124.563 125.054 128.096  1.00  0.00     0.293 HD
ENDBRANCH  14  18
ENDBRANCH   1  10
BRANCH   5  20
ATOM     20  O   UNL     1     120.953 124.386 134.917  1.00  0.00    -0.504 OA
ATOM     21  H   UNL     1     120.362 125.113 135.302  1.00  0.00     0.293 HD
ENDBRANCH   5  20
BRANCH   6  22
ATOM     22  O   UNL     1     122.668 122.411 134.004  1.00  0.00    -0.493 OA
ATOM     23  C   UNL     1     123.987 122.283 134.525  1.00  0.00     0.278 C 
ENDBRANCH   6  22
TORSDOF 5
ENDMDL
MODEL 4
REMARK VINA RESULT:    -3.683     18.636     20.275
REMARK INTER + INTRA:          -5.134
REMARK INTER:                  -4.542
REMARK INTRA:                  -0.592
REMARK UNBOUND:                -0.589
REMARK SMILES COc1ccc(-c2cc3cc(O)c(OC)cc3o2)c(O)c1
REMARK SMILES IDX 7 1 8 2 9 3 10 4 11 5 13 6 16 7 17 8 18 9 6 10 3 11 21 12
REMARK SMILES IDX 4 13 19 14 5 15 2 16 1 17 20 18 12 20 14 22 15 23
REMARK H PARENT 20 19 12 21
REMARK Flexibility Score: inf
ROOT
ATOM      1  C   UNL     1     140.513 125.987 132.885  1.00  0.00     0.139 A 
ATOM      2  C   UNL     1     139.891 124.754 132.672  1.00  0.00     0.060 A 
ATOM      3  C   UNL     1     140.071 124.508 131.330  1.00  0.00     0.025 A 
ATOM      4  C   UNL     1     139.678 123.431 130.543  1.00  0.00     0.062 A 
ATOM      5  C   UNL     1     140.019 123.455 129.173  1.00  0.00     0.158 A 
ATOM      6  C   UNL     1     140.742 124.548 128.631  1.00  0.00     0.164 A 
ATOM      7  C   UNL     1     141.124 125.623 129.472  1.00  0.00     0.098 A 
ATOM      8  C   UNL     1     140.770 125.562 130.816  1.00  0.00     0.138 A 
ATOM      9  O   UNL     1     141.031 126.439 131.754  1.00  0.00    -0.456 OA
ENDROOT
BRANCH   1  10
ATOM     10  C   UNL     1     140.632 126.714 134.171  1.00  0.00     0.059 A 
ATOM     11  C   UNL     1     140.826 128.014 136.672  1.00  0.00     0.122 A 
ATOM     12  C   UNL     1     140.992 128.734 135.486  1.00  0.00     0.093 A 
ATOM     13  C   UNL     1     140.574 126.633 136.606  1.00  0.00     0.047 A 
ATOM     14  C   UNL     1     140.908 128.098 134.238  1.00  0.00     0.130 A 
ATOM     15  C   UNL     1     140.482 125.993 135.368  1.00  0.00     0.020 A 
BRANCH  11  16
ATOM     16  O   UNL     1     140.922 128.703 137.890  1.00  0.00    -0.497 OA
ATOM     17  C   UNL     1     139.983 129.674 138.341  1.00  0.00     0.278 C 
ENDBRANCH  11  16
BRANCH  14  18
ATOM     18  O   UNL     1     141.125 128.839 133.078  1.00  0.00    -0.507 OA
ATOM     19  H   UNL     1     140.367 129.082 132.450  1.00  0.00     0.293 HD
ENDBRANCH  14  18
ENDBRANCH   1  10
BRANCH   5  20
ATOM     20  O   UNL     1     139.646 122.400 128.343  1.00  0.00    -0.504 OA
ATOM     21  H   UNL     1     138.733 121.967 128.415  1.00  0.00     0.293 HD
ENDBRANCH   5  20
BRANCH   6  22
ATOM     22  O   UNL     1     141.056 124.527 127.264  1.00  0.00    -0.493 OA
ATOM     23  C   UNL     1     140.355 125.262 126.266  1.00  0.00     0.278 C 
ENDBRANCH   6  22
TORSDOF 5
ENDMDL
MODEL 5
REMARK VINA RESULT:    -3.666      1.364      7.956
REMARK INTER + INTRA:          -5.113
REMARK INTER:                  -4.540
REMARK INTRA:                  -0.573
REMARK UNBOUND:                -0.589
REMARK SMILES COc1ccc(-c2cc3cc(O)c(OC)cc3o2)c(O)c1
REMARK SMILES IDX 7 1 8 2 9 3 10 4 11 5 13 6 16 7 17 8 18 9 6 10 3 11 21 12
REMARK SMILES IDX 4 13 19 14 5 15 2 16 1 17 20 18 12 20 14 22 15 23
REMARK H PARENT 20 19 12 21
REMARK Flexibility Score: inf
ROOT
ATOM      1  C   UNL     1     121.584 126.371 129.205  1.00  0.00     0.139 A 
ATOM      2  C   UNL     1     121.112 127.634 128.838  1.00  0.00     0.060 A 
ATOM      3  C   UNL     1     121.272 127.676 127.473  1.00  0.00     0.025 A 
ATOM      4  C   UNL     1     120.972 128.675 126.552  1.00  0.00     0.062 A 
ATOM      5  C   UNL     1     121.247 128.423 125.191  1.00  0.00     0.158 A 
ATOM      6  C   UNL     1     121.809 127.185 124.788  1.00  0.00     0.164 A 
ATOM      7  C   UNL     1     122.096 126.194 125.761  1.00  0.00     0.098 A 
ATOM      8  C   UNL     1     121.810 126.480 127.092  1.00  0.00     0.138 A 
ATOM      9  O   UNL     1     121.990 125.707 128.134  1.00  0.00    -0.456 OA
ENDROOT
BRANCH   1  10
ATOM     10  C   UNL     1     121.621 125.795 130.570  1.00  0.00     0.059 A 
ATOM     11  C   UNL     1     121.639 124.781 133.207  1.00  0.00     0.122 A 
ATOM     12  C   UNL     1     122.370 124.145 132.199  1.00  0.00     0.093 A 
ATOM     13  C   UNL     1     120.885 125.923 132.889  1.00  0.00     0.047 A 
ATOM     14  C   UNL     1     122.361 124.633 130.884  1.00  0.00     0.130 A 
ATOM     15  C   UNL     1     120.875 126.420 131.584  1.00  0.00     0.020 A 
BRANCH  11  16
ATOM     16  O   UNL     1     121.686 124.247 134.503  1.00  0.00    -0.497 OA
ATOM     17  C   UNL     1     122.002 124.997 135.671  1.00  0.00     0.278 C 
ENDBRANCH  11  16
BRANCH  14  18
ATOM     18  O   UNL     1     123.064 123.946 129.896  1.00  0.00    -0.507 OA
ATOM     19  H   UNL     1     123.947 123.488 130.090  1.00  0.00     0.293 HD
ENDBRANCH  14  18
ENDBRANCH   1  10
BRANCH   5  20
ATOM     20  O   UNL     1     120.966 129.393 124.231  1.00  0.00    -0.504 OA
ATOM     21  H   UNL     1     120.072 129.869 124.205  1.00  0.00     0.293 HD
ENDBRANCH   5  20
BRANCH   6  22
ATOM     22  O   UNL     1     122.065 126.982 123.424  1.00  0.00    -0.493 OA
ATOM     23  C   UNL     1     123.090 126.135 122.915  1.00  0.00     0.278 C 
ENDBRANCH   6  22
TORSDOF 5
ENDMDL
MODEL 6
REMARK VINA RESULT:    -3.663      1.486      7.626
REMARK INTER + INTRA:          -5.108
REMARK INTER:                  -4.501
REMARK INTRA:                  -0.608
REMARK UNBOUND:                -0.589
REMARK SMILES COc1ccc(-c2cc3cc(O)c(OC)cc3o2)c(O)c1
REMARK SMILES IDX 7 1 8 2 9 3 10 4 11 5 13 6 16 7 17 8 18 9 6 10 3 11 21 12
REMARK SMILES IDX 4 13 19 14 5 15 2 16 1 17 20 18 12 20 14 22 15 23
REMARK H PARENT 20 19 12 21
REMARK Flexibility Score: inf
ROOT
ATOM      1  C   UNL     1     122.301 125.531 129.090  1.00  0.00     0.139 A 
ATOM      2  C   UNL     1     123.477 125.283 128.376  1.00  0.00     0.060 A 
ATOM      3  C   UNL     1     123.213 125.749 127.109  1.00  0.00     0.025 A 
ATOM      4  C   UNL     1     124.007 125.781 125.968  1.00  0.00     0.062 A 
ATOM      5  C   UNL     1     123.456 126.338 124.794  1.00  0.00     0.158 A 
ATOM      6  C   UNL     1     122.133 126.849 124.793  1.00  0.00     0.164 A 
ATOM      7  C   UNL     1     121.360 126.799 125.981  1.00  0.00     0.098 A 
ATOM      8  C   UNL     1     121.940 126.243 127.117  1.00  0.00     0.138 A 
ATOM      9  O   UNL     1     121.405 126.109 128.306  1.00  0.00    -0.456 OA
ENDROOT
BRANCH   1  10
ATOM     10  C   UNL     1     122.049 125.239 130.520  1.00  0.00     0.059 A 
ATOM     11  C   UNL     1     121.607 124.586 133.233  1.00  0.00     0.122 A 
ATOM     12  C   UNL     1     121.116 125.783 132.705  1.00  0.00     0.093 A 
ATOM     13  C   UNL     1     122.333 123.716 132.401  1.00  0.00     0.047 A 
ATOM     14  C   UNL     1     121.338 126.123 131.362  1.00  0.00     0.130 A 
ATOM     15  C   UNL     1     122.553 124.044 131.062  1.00  0.00     0.020 A 
BRANCH  11  16
ATOM     16  O   UNL     1     121.355 124.300 134.584  1.00  0.00    -0.497 OA
ATOM     17  C   UNL     1     121.865 125.059 135.675  1.00  0.00     0.278 C 
ENDBRANCH  11  16
BRANCH  14  18
ATOM     18  O   UNL     1     120.875 127.347 130.882  1.00  0.00    -0.507 OA
ATOM     19  H   UNL     1     120.138 127.404 130.188  1.00  0.00     0.293 HD
ENDBRANCH  14  18
ENDBRANCH   1  10
BRANCH   5  20
ATOM     20  O   UNL     1     124.212 126.390 123.625  1.00  0.00    -0.504 OA
ATOM     21  H   UNL     1     123.797 126.217 122.717  1.00  0.00     0.293 HD
ENDBRANCH   5  20
BRANCH   6  22
ATOM     22  O   UNL     1     121.629 127.392 123.603  1.00  0.00    -0.493 OA
ATOM     23  C   UNL     1     120.935 128.633 123.515  1.00  0.00     0.278 C 
ENDBRANCH   6  22
TORSDOF 5
ENDMDL
MODEL 7
REMARK VINA RESULT:    -3.592      4.261      7.688
REMARK INTER + INTRA:          -5.021
REMARK INTER:                  -4.436
REMARK INTRA:                  -0.586
REMARK UNBOUND:                -0.589
REMARK SMILES COc1ccc(-c2cc3cc(O)c(OC)cc3o2)c(O)c1
REMARK SMILES IDX 7 1 8 2 9 3 10 4 11 5 13 6 16 7 17 8 18 9 6 10 3 11 21 12
REMARK SMILES IDX 4 13 19 14 5 15 2 16 1 17 20 18 12 20 14 22 15 23
REMARK H PARENT 20 19 12 21
REMARK Flexibility Score: inf
ROOT
ATOM      1  C   UNL     1     121.843 125.866 125.061  1.00  0.00     0.139 A 
ATOM      2  C   UNL     1     120.890 125.360 124.174  1.00  0.00     0.060 A 
ATOM      3  C   UNL     1     121.507 124.280 123.588  1.00  0.00     0.025 A 
ATOM      4  C   UNL     1     121.049 123.380 122.631  1.00  0.00     0.062 A 
ATOM      5  C   UNL     1     121.923 122.350 122.222  1.00  0.00     0.158 A 
ATOM      6  C   UNL     1     123.223 122.245 122.778  1.00  0.00     0.164 A 
ATOM      7  C   UNL     1     123.646 123.183 123.754  1.00  0.00     0.098 A 
ATOM      8  C   UNL     1     122.756 124.184 124.131  1.00  0.00     0.138 A 
ATOM      9  O   UNL     1     122.945 125.135 125.012  1.00  0.00    -0.456 OA
ENDROOT
BRANCH   1  10
ATOM     10  C   UNL     1     121.688 127.026 125.970  1.00  0.00     0.059 A 
ATOM     11  C   UNL     1     121.380 129.300 127.618  1.00  0.00     0.122 A 
ATOM     12  C   UNL     1     121.766 128.075 128.168  1.00  0.00     0.093 A 
ATOM     13  C   UNL     1     121.136 129.384 126.236  1.00  0.00     0.047 A 
ATOM     14  C   UNL     1     121.912 126.936 127.362  1.00  0.00     0.130 A 
ATOM     15  C   UNL     1     121.285 128.258 125.425  1.00  0.00     0.020 A 
BRANCH  11  16
ATOM     16  O   UNL     1     121.249 130.404 128.474  1.00  0.00    -0.497 OA
ATOM     17  C   UNL     1     121.037 130.312 129.879  1.00  0.00     0.278 C 
ENDBRANCH  11  16
BRANCH  14  18
ATOM     18  O   UNL     1     122.252 125.720 127.952  1.00  0.00    -0.507 OA
ATOM     19  H   UNL     1     121.681 124.891 127.833  1.00  0.00     0.293 HD
ENDBRANCH  14  18
ENDBRANCH   1  10
BRANCH   5  20
ATOM     20  O   UNL     1     121.511 121.425 121.264  1.00  0.00    -0.504 OA
ATOM     21  H   UNL     1     121.394 121.685 120.292  1.00  0.00     0.293 HD
ENDBRANCH   5  20
BRANCH   6  22
ATOM     22  O   UNL     1     124.055 121.205 122.339  1.00  0.00    -0.493 OA
ATOM     23  C   UNL     1     125.399 121.014 122.770  1.00  0.00     0.278 C 
ENDBRANCH   6  22
TORSDOF 5
ENDMDL
MODEL 8
REMARK VINA RESULT:    -3.537      1.486      2.632
REMARK INTER + INTRA:          -4.954
REMARK INTER:                  -4.372
REMARK INTRA:                  -0.582
REMARK UNBOUND:                -0.589
REMARK SMILES COc1ccc(-c2cc3cc(O)c(OC)cc3o2)c(O)c1
REMARK SMILES IDX 7 1 8 2 9 3 10 4 11 5 13 6 16 7 17 8 18 9 6 10 3 11 21 12
REMARK SMILES IDX 4 13 19 14 5 15 2 16 1 17 20 18 12 20 14 22 15 23
REMARK H PARENT 20 19 12 21
REMARK Flexibility Score: inf
ROOT
ATOM      1  C   UNL     1     121.554 126.701 128.352  1.00  0.00     0.139 A 
ATOM      2  C   UNL     1     120.875 127.058 129.520  1.00  0.00     0.060 A 
ATOM      3  C   UNL     1     121.289 126.135 130.452  1.00  0.00     0.025 A 
ATOM      4  C   UNL     1     120.959 125.988 131.795  1.00  0.00     0.062 A 
ATOM      5  C   UNL     1     121.560 124.931 132.512  1.00  0.00     0.158 A 
ATOM      6  C   UNL     1     122.472 124.055 131.870  1.00  0.00     0.164 A 
ATOM      7  C   UNL     1     122.781 124.243 130.499  1.00  0.00     0.098 A 
ATOM      8  C   UNL     1     122.168 125.297 129.828  1.00  0.00     0.138 A 
ATOM      9  O   UNL     1     122.321 125.646 128.575  1.00  0.00    -0.456 OA
ENDROOT
BRANCH   1  10
ATOM     10  C   UNL     1     121.487 127.384 127.038  1.00  0.00     0.059 A 
ATOM     11  C   UNL     1     121.305 128.763 124.579  1.00  0.00     0.122 A 
ATOM     12  C   UNL     1     121.825 127.466 124.627  1.00  0.00     0.093 A 
ATOM     13  C   UNL     1     120.886 129.376 125.772  1.00  0.00     0.047 A 
ATOM     14  C   UNL     1     121.930 126.775 125.843  1.00  0.00     0.130 A 
ATOM     15  C   UNL     1     120.980 128.694 126.986  1.00  0.00     0.020 A 
BRANCH  11  16
ATOM     16  O   UNL     1     121.226 129.405 123.334  1.00  0.00    -0.497 OA
ATOM     17  C   UNL     1     121.256 130.817 123.154  1.00  0.00     0.278 C 
ENDBRANCH  11  16
BRANCH  14  18
ATOM     18  O   UNL     1     122.497 125.502 125.858  1.00  0.00    -0.507 OA
ATOM     19  H   UNL     1     123.004 125.153 126.664  1.00  0.00     0.293 HD
ENDBRANCH  14  18
ENDBRANCH   1  10
BRANCH   5  20
ATOM     20  O   UNL     1     121.260 124.742 133.859  1.00  0.00    -0.504 OA
ATOM     21  H   UNL     1     121.119 123.817 134.246  1.00  0.00     0.293 HD
ENDBRANCH   5  20
BRANCH   6  22
ATOM     22  O   UNL     1     123.042 123.018 132.623  1.00  0.00    -0.493 OA
ATOM     23  C   UNL     1     124.402 122.607 132.525  1.00  0.00     0.278 C 
ENDBRANCH   6  22
TORSDOF 5
ENDMDL
MODEL 9
REMARK VINA RESULT:    -3.486     18.256     18.825
REMARK INTER + INTRA:          -4.890
REMARK INTER:                  -4.281
REMARK INTRA:                  -0.609
REMARK UNBOUND:                -0.589
REMARK SMILES COc1ccc(-c2cc3cc(O)c(OC)cc3o2)c(O)c1
REMARK SMILES IDX 7 1 8 2 9 3 10 4 11 5 13 6 16 7 17 8 18 9 6 10 3 11 21 12
REMARK SMILES IDX 4 13 19 14 5 15 2 16 1 17 20 18 12 20 14 22 15 23
REMARK H PARENT 20 19 12 21
REMARK Flexibility Score: inf
ROOT
ATOM      1  C   UNL     1     140.181 125.252 126.408  1.00  0.00     0.139 A 
ATOM      2  C   UNL     1     139.362 124.155 126.690  1.00  0.00     0.060 A 
ATOM      3  C   UNL     1     139.464 123.994 128.053  1.00  0.00     0.025 A 
ATOM      4  C   UNL     1     138.869 123.071 128.906  1.00  0.00     0.062 A 
ATOM      5  C   UNL     1     139.163 123.159 130.284  1.00  0.00     0.158 A 
ATOM      6  C   UNL     1     140.038 124.164 130.769  1.00  0.00     0.164 A 
ATOM      7  C   UNL     1     140.620 125.086 129.863  1.00  0.00     0.098 A 
ATOM      8  C   UNL     1     140.305 124.966 128.513  1.00  0.00     0.138 A 
ATOM      9  O   UNL     1     140.725 125.714 127.523  1.00  0.00    -0.456 OA
ENDROOT
BRANCH   1  10
ATOM     10  C   UNL     1     140.418 125.869 125.082  1.00  0.00     0.059 A 
ATOM     11  C   UNL     1     140.884 126.949 122.513  1.00  0.00     0.122 A 
ATOM     12  C   UNL     1     140.773 127.789 123.625  1.00  0.00     0.093 A 
ATOM     13  C   UNL     1     140.749 125.561 122.688  1.00  0.00     0.047 A 
ATOM     14  C   UNL     1     140.531 127.266 124.903  1.00  0.00     0.130 A 
ATOM     15  C   UNL     1     140.515 125.031 123.958  1.00  0.00     0.020 A 
BRANCH  11  16
ATOM     16  O   UNL     1     141.125 127.530 121.259  1.00  0.00    -0.497 OA
ATOM     17  C   UNL     1     141.057 128.927 120.993  1.00  0.00     0.278 C 
ENDBRANCH  11  16
BRANCH  14  18
ATOM     18  O   UNL     1     140.380 128.137 125.981  1.00  0.00    -0.507 OA
ATOM     19  H   UNL     1     139.715 128.902 125.959  1.00  0.00     0.293 HD
ENDBRANCH  14  18
ENDBRANCH   1  10
BRANCH   5  20
ATOM     20  O   UNL     1     138.593 122.256 131.178  1.00  0.00    -0.504 OA
ATOM     21  H   UNL     1     138.912 121.297 131.238  1.00  0.00     0.293 HD
ENDBRANCH   5  20
BRANCH   6  22
ATOM     22  O   UNL     1     140.301 124.211 132.146  1.00  0.00    -0.493 OA
ATOM     23  C   UNL     1     140.522 125.410 132.882  1.00  0.00     0.278 C 
ENDBRANCH   6  22
TORSDOF 5
ENDMDL
