MODEL 1
REMARK VINA RESULT:    -6.949      0.000      0.000
REMARK INTER + INTRA:         -11.013
REMARK INTER:                 -10.605
REMARK INTRA:                  -0.408
REMARK UNBOUND:                -0.408
REMARK SMILES CCCCCCCCCC=CC(=O)[O-]
REMARK SMILES IDX 7 1 8 2 9 3 10 4 11 5 12 6 13 7 14 8 6 9 5 10 4 11 3 12 2 13
REMARK SMILES IDX 1 14
REMARK H PARENT
REMARK Flexibility Score: inf
ROOT
ATOM      1  C   UNL     1       4.349  -0.634  -2.910  1.00  0.00     0.000 C 
ENDROOT
BRANCH   1   2
ATOM      2  C   UNL     1       4.515   0.078  -4.265  1.00  0.00     0.004 C 
BRANCH   2   3
ATOM      3  C   UNL     1       3.190   0.533  -4.904  1.00  0.00     0.027 C 
BRANCH   3   4
ATOM      4  C   UNL     1       3.286   0.666  -6.401  1.00  0.00    -0.025 C 
ATOM      5  C   UNL     1       2.276   0.970  -7.235  1.00  0.00     0.020 C 
BRANCH   5   6
ATOM      6  C   UNL     1       0.884   1.291  -6.856  1.00  0.00     0.064 C 
ATOM      7  O   UNL     1       0.081   0.411  -6.451  1.00  0.00    -0.545 OA
ATOM      8  O   UNL     1       0.460   2.611  -6.919  1.00  0.00    -0.545 OA
ENDBRANCH   5   6
ENDBRANCH   3   4
ENDBRANCH   2   3
ENDBRANCH   1   2
BRANCH   1   9
ATOM      9  C   UNL     1       5.662  -1.248  -2.395  1.00  0.00     0.000 C 
BRANCH   9  10
ATOM     10  C   UNL     1       5.716  -2.778  -2.561  1.00  0.00     0.000 C 
BRANCH  10  11
ATOM     11  C   UNL     1       4.349  -3.488  -2.566  1.00  0.00    -0.000 C 
BRANCH  11  12
ATOM     12  C   UNL     1       4.439  -4.960  -3.005  1.00  0.00    -0.000 C 
BRANCH  12  13
ATOM     13  C   UNL     1       3.055  -5.604  -3.186  1.00  0.00    -0.003 C 
ATOM     14  C   UNL     1       2.938  -6.401  -4.485  1.00  0.00     0.004 C 
ENDBRANCH  12  13
ENDBRANCH  11  12
ENDBRANCH  10  11
ENDBRANCH   9  10
ENDBRANCH   1   9
TORSDOF 9
ENDMDL
MODEL 2
REMARK VINA RESULT:    -6.949      0.785      1.235
REMARK INTER + INTRA:         -11.013
REMARK INTER:                 -10.400
REMARK INTRA:                  -0.613
REMARK UNBOUND:                -0.408
REMARK SMILES CCCCCCCCCC=CC(=O)[O-]
REMARK SMILES IDX 7 1 8 2 9 3 10 4 11 5 12 6 13 7 14 8 6 9 5 10 4 11 3 12 2 13
REMARK SMILES IDX 1 14
REMARK H PARENT
REMARK Flexibility Score: inf
ROOT
ATOM      1  C   UNL     1       4.165  -0.604  -2.645  1.00  0.00     0.000 C 
ENDROOT
BRANCH   1   2
ATOM      2  C   UNL     1       3.366  -0.161  -3.885  1.00  0.00     0.004 C 
BRANCH   2   3
ATOM      3  C   UNL     1       4.058   0.931  -4.722  1.00  0.00     0.027 C 
BRANCH   3   4
ATOM      4  C   UNL     1       4.355   0.480  -6.129  1.00  0.00    -0.025 C 
ATOM      5  C   UNL     1       3.499   0.505  -7.165  1.00  0.00     0.020 C 
BRANCH   5   6
ATOM      6  C   UNL     1       2.117   1.028  -7.155  1.00  0.00     0.064 C 
ATOM      7  O   UNL     1       1.835   2.184  -7.565  1.00  0.00    -0.545 OA
ATOM      8  O   UNL     1       1.093   0.204  -6.706  1.00  0.00    -0.545 OA
ENDBRANCH   5   6
ENDBRANCH   3   4
ENDBRANCH   2   3
ENDBRANCH   1   2
BRANCH   1   9
ATOM      9  C   UNL     1       5.525  -1.227  -3.005  1.00  0.00     0.000 C 
BRANCH   9  10
ATOM     10  C   UNL     1       5.621  -2.718  -2.632  1.00  0.00     0.000 C 
BRANCH  10  11
ATOM     11  C   UNL     1       4.274  -3.453  -2.507  1.00  0.00    -0.000 C 
BRANCH  11  12
ATOM     12  C   UNL     1       4.350  -4.925  -2.949  1.00  0.00    -0.000 C 
BRANCH  12  13
ATOM     13  C   UNL     1       2.965  -5.521  -3.246  1.00  0.00    -0.003 C 
ATOM     14  C   UNL     1       2.953  -6.396  -4.499  1.00  0.00     0.004 C 
ENDBRANCH  12  13
ENDBRANCH  11  12
ENDBRANCH  10  11
ENDBRANCH   9  10
ENDBRANCH   1   9
TORSDOF 9
ENDMDL
MODEL 3
REMARK VINA RESULT:    -6.799      2.006      2.433
REMARK INTER + INTRA:         -10.784
REMARK INTER:                 -10.265
REMARK INTRA:                  -0.519
REMARK UNBOUND:                -0.408
REMARK SMILES CCCCCCCCCC=CC(=O)[O-]
REMARK SMILES IDX 7 1 8 2 9 3 10 4 11 5 12 6 13 7 14 8 6 9 5 10 4 11 3 12 2 13
REMARK SMILES IDX 1 14
REMARK H PARENT
REMARK Flexibility Score: inf
ROOT
ATOM      1  C   UNL     1       4.970  -0.899  -3.579  1.00  0.00     0.000 C 
ENDROOT
BRANCH   1   2
ATOM      2  C   UNL     1       3.931   0.232  -3.687  1.00  0.00     0.004 C 
BRANCH   2   3
ATOM      3  C   UNL     1       3.413   0.477  -5.117  1.00  0.00     0.027 C 
BRANCH   3   4
ATOM      4  C   UNL     1       4.503   0.920  -6.058  1.00  0.00    -0.025 C 
ATOM      5  C   UNL     1       4.854   2.191  -6.320  1.00  0.00     0.020 C 
BRANCH   5   6
ATOM      6  C   UNL     1       4.286   3.408  -5.703  1.00  0.00     0.064 C 
ATOM      7  O   UNL     1       4.902   4.062  -4.822  1.00  0.00    -0.545 OA
ATOM      8  O   UNL     1       3.045   3.860  -6.132  1.00  0.00    -0.545 OA
ENDBRANCH   5   6
ENDBRANCH   3   4
ENDBRANCH   2   3
ENDBRANCH   1   2
BRANCH   1   9
ATOM      9  C   UNL     1       4.614  -1.932  -2.495  1.00  0.00     0.000 C 
BRANCH   9  10
ATOM     10  C   UNL     1       5.520  -3.177  -2.531  1.00  0.00     0.000 C 
BRANCH  10  11
ATOM     11  C   UNL     1       4.821  -4.488  -2.938  1.00  0.00    -0.000 C 
BRANCH  11  12
ATOM     12  C   UNL     1       3.331  -4.517  -2.557  1.00  0.00    -0.000 C 
BRANCH  12  13
ATOM     13  C   UNL     1       2.629  -5.801  -3.027  1.00  0.00    -0.003 C 
ATOM     14  C   UNL     1       3.077  -6.245  -4.419  1.00  0.00     0.004 C 
ENDBRANCH  12  13
ENDBRANCH  11  12
ENDBRANCH  10  11
ENDBRANCH   9  10
ENDBRANCH   1   9
TORSDOF 9
ENDMDL
MODEL 4
REMARK VINA RESULT:    -6.600      4.061      7.427
REMARK INTER + INTRA:         -10.480
REMARK INTER:                  -9.808
REMARK INTRA:                  -0.672
REMARK UNBOUND:                -0.408
REMARK SMILES CCCCCCCCCC=CC(=O)[O-]
REMARK SMILES IDX 7 1 8 2 9 3 10 4 11 5 12 6 13 7 14 8 6 9 5 10 4 11 3 12 2 13
REMARK SMILES IDX 1 14
REMARK H PARENT
REMARK Flexibility Score: inf
ROOT
ATOM      1  C   UNL     1       3.219   0.643  -6.144  1.00  0.00     0.000 C 
ENDROOT
BRANCH   1   2
ATOM      2  C   UNL     1       2.956   0.307  -4.664  1.00  0.00     0.004 C 
BRANCH   2   3
ATOM      3  C   UNL     1       4.233   0.073  -3.835  1.00  0.00     0.027 C 
BRANCH   3   4
ATOM      4  C   UNL     1       3.940  -0.483  -2.466  1.00  0.00    -0.025 C 
ATOM      5  C   UNL     1       4.680  -1.387  -1.803  1.00  0.00     0.020 C 
BRANCH   5   6
ATOM      6  C   UNL     1       5.958  -1.980  -2.252  1.00  0.00     0.064 C 
ATOM      7  O   UNL     1       6.007  -3.076  -2.869  1.00  0.00    -0.545 OA
ATOM      8  O   UNL     1       7.138  -1.290  -2.010  1.00  0.00    -0.545 OA
ENDBRANCH   5   6
ENDBRANCH   3   4
ENDBRANCH   2   3
ENDBRANCH   1   2
BRANCH   1   9
ATOM      9  C   UNL     1       4.626   1.218  -6.382  1.00  0.00     0.000 C 
BRANCH   9  10
ATOM     10  C   UNL     1       4.605   2.691  -6.833  1.00  0.00     0.000 C 
BRANCH  10  11
ATOM     11  C   UNL     1       4.178   3.703  -5.753  1.00  0.00    -0.000 C 
BRANCH  11  12
ATOM     12  C   UNL     1       5.372   4.321  -5.005  1.00  0.00    -0.000 C 
BRANCH  12  13
ATOM     13  C   UNL     1       5.005   4.765  -3.580  1.00  0.00    -0.003 C 
ATOM     14  C   UNL     1       6.079   5.643  -2.938  1.00  0.00     0.004 C 
ENDBRANCH  12  13
ENDBRANCH  11  12
ENDBRANCH  10  11
ENDBRANCH   9  10
ENDBRANCH   1   9
TORSDOF 9
ENDMDL
MODEL 5
REMARK VINA RESULT:    -6.598      1.776      3.119
REMARK INTER + INTRA:         -10.477
REMARK INTER:                  -9.662
REMARK INTRA:                  -0.815
REMARK UNBOUND:                -0.408
REMARK SMILES CCCCCCCCCC=CC(=O)[O-]
REMARK SMILES IDX 7 1 8 2 9 3 10 4 11 5 12 6 13 7 14 8 6 9 5 10 4 11 3 12 2 13
REMARK SMILES IDX 1 14
REMARK H PARENT
REMARK Flexibility Score: inf
ROOT
ATOM      1  C   UNL     1       4.063   1.262  -5.997  1.00  0.00     0.000 C 
ENDROOT
BRANCH   1   2
ATOM      2  C   UNL     1       3.908   0.297  -7.187  1.00  0.00     0.004 C 
BRANCH   2   3
ATOM      3  C   UNL     1       2.474   0.209  -7.743  1.00  0.00     0.027 C 
BRANCH   3   4
ATOM      4  C   UNL     1       1.570   1.274  -7.179  1.00  0.00    -0.025 C 
ATOM      5  C   UNL     1       0.368   1.073  -6.613  1.00  0.00     0.020 C 
BRANCH   5   6
ATOM      6  C   UNL     1      -0.290  -0.230  -6.377  1.00  0.00     0.064 C 
ATOM      7  O   UNL     1      -0.756  -0.924  -7.317  1.00  0.00    -0.545 OA
ATOM      8  O   UNL     1      -0.367  -0.715  -5.079  1.00  0.00    -0.545 OA
ENDBRANCH   5   6
ENDBRANCH   3   4
ENDBRANCH   2   3
ENDBRANCH   1   2
BRANCH   1   9
ATOM      9  C   UNL     1       4.570   0.560  -4.725  1.00  0.00     0.000 C 
BRANCH   9  10
ATOM     10  C   UNL     1       3.440  -0.099  -3.911  1.00  0.00     0.000 C 
BRANCH  10  11
ATOM     11  C   UNL     1       3.901  -0.930  -2.699  1.00  0.00    -0.000 C 
BRANCH  11  12
ATOM     12  C   UNL     1       5.408  -1.237  -2.720  1.00  0.00    -0.000 C 
BRANCH  12  13
ATOM     13  C   UNL     1       5.703  -2.742  -2.627  1.00  0.00    -0.003 C 
ATOM     14  C   UNL     1       4.434  -3.591  -2.553  1.00  0.00     0.004 C 
ENDBRANCH  12  13
ENDBRANCH  11  12
ENDBRANCH  10  11
ENDBRANCH   9  10
ENDBRANCH   1   9
TORSDOF 9
ENDMDL
MODEL 6
REMARK VINA RESULT:    -6.559      3.319      6.657
REMARK INTER + INTRA:         -10.418
REMARK INTER:                 -10.009
REMARK INTRA:                  -0.409
REMARK UNBOUND:                -0.408
REMARK SMILES CCCCCCCCCC=CC(=O)[O-]
REMARK SMILES IDX 7 1 8 2 9 3 10 4 11 5 12 6 13 7 14 8 6 9 5 10 4 11 3 12 2 13
REMARK SMILES IDX 1 14
REMARK H PARENT
REMARK Flexibility Score: inf
ROOT
ATOM      1  C   UNL     1       4.421  -0.326  -3.191  1.00  0.00     0.000 C 
ENDROOT
BRANCH   1   2
ATOM      2  C   UNL     1       5.245  -1.581  -2.849  1.00  0.00     0.004 C 
BRANCH   2   3
ATOM      3  C   UNL     1       4.397  -2.845  -2.610  1.00  0.00     0.027 C 
BRANCH   3   4
ATOM      4  C   UNL     1       5.218  -4.107  -2.650  1.00  0.00    -0.025 C 
ATOM      5  C   UNL     1       4.759  -5.342  -2.916  1.00  0.00     0.020 C 
BRANCH   5   6
ATOM      6  C   UNL     1       3.373  -5.709  -3.276  1.00  0.00     0.064 C 
ATOM      7  O   UNL     1       2.425  -5.638  -2.452  1.00  0.00    -0.545 OA
ATOM      8  O   UNL     1       3.106  -6.117  -4.577  1.00  0.00    -0.545 OA
ENDBRANCH   5   6
ENDBRANCH   3   4
ENDBRANCH   2   3
ENDBRANCH   1   2
BRANCH   1   9
ATOM      9  C   UNL     1       4.514   0.059  -4.678  1.00  0.00     0.000 C 
BRANCH   9  10
ATOM     10  C   UNL     1       4.110   1.522  -4.946  1.00  0.00     0.000 C 
BRANCH  10  11
ATOM     11  C   UNL     1       3.059   1.722  -6.053  1.00  0.00    -0.000 C 
BRANCH  11  12
ATOM     12  C   UNL     1       1.999   0.607  -6.082  1.00  0.00    -0.000 C 
BRANCH  12  13
ATOM     13  C   UNL     1       0.653   1.091  -6.644  1.00  0.00    -0.003 C 
ATOM     14  C   UNL     1       0.705   2.533  -7.148  1.00  0.00     0.004 C 
ENDBRANCH  12  13
ENDBRANCH  11  12
ENDBRANCH  10  11
ENDBRANCH   9  10
ENDBRANCH   1   9
TORSDOF 9
ENDMDL
MODEL 7
REMARK VINA RESULT:    -6.443      1.040      1.453
REMARK INTER + INTRA:         -10.241
REMARK INTER:                  -9.764
REMARK INTRA:                  -0.477
REMARK UNBOUND:                -0.408
REMARK SMILES CCCCCCCCCC=CC(=O)[O-]
REMARK SMILES IDX 7 1 8 2 9 3 10 4 11 5 12 6 13 7 14 8 6 9 5 10 4 11 3 12 2 13
REMARK SMILES IDX 1 14
REMARK H PARENT
REMARK Flexibility Score: inf
ROOT
ATOM      1  C   UNL     1       4.234   0.268  -3.554  1.00  0.00     0.000 C 
ENDROOT
BRANCH   1   2
ATOM      2  C   UNL     1       3.524   0.266  -4.920  1.00  0.00     0.004 C 
BRANCH   2   3
ATOM      3  C   UNL     1       4.415   0.715  -6.093  1.00  0.00     0.027 C 
BRANCH   3   4
ATOM      4  C   UNL     1       3.854   0.311  -7.432  1.00  0.00    -0.025 C 
ATOM      5  C   UNL     1       2.833   0.904  -8.074  1.00  0.00     0.020 C 
BRANCH   5   6
ATOM      6  C   UNL     1       2.088   2.101  -7.631  1.00  0.00     0.064 C 
ATOM      7  O   UNL     1       1.019   2.019  -6.971  1.00  0.00    -0.545 OA
ATOM      8  O   UNL     1       2.602   3.356  -7.927  1.00  0.00    -0.545 OA
ENDBRANCH   5   6
ENDBRANCH   3   4
ENDBRANCH   2   3
ENDBRANCH   1   2
BRANCH   1   9
ATOM      9  C   UNL     1       4.203  -1.107  -2.865  1.00  0.00     0.000 C 
BRANCH   9  10
ATOM     10  C   UNL     1       5.550  -1.850  -2.945  1.00  0.00     0.000 C 
BRANCH  10  11
ATOM     11  C   UNL     1       5.514  -3.327  -2.508  1.00  0.00    -0.000 C 
BRANCH  11  12
ATOM     12  C   UNL     1       4.096  -3.924  -2.529  1.00  0.00    -0.000 C 
BRANCH  12  13
ATOM     13  C   UNL     1       4.051  -5.306  -3.201  1.00  0.00    -0.003 C 
ATOM     14  C   UNL     1       2.626  -5.780  -3.486  1.00  0.00     0.004 C 
ENDBRANCH  12  13
ENDBRANCH  11  12
ENDBRANCH  10  11
ENDBRANCH   9  10
ENDBRANCH   1   9
TORSDOF 9
ENDMDL
MODEL 8
REMARK VINA RESULT:    -6.419      1.784      2.898
REMARK INTER + INTRA:         -10.204
REMARK INTER:                  -9.551
REMARK INTRA:                  -0.654
REMARK UNBOUND:                -0.408
REMARK SMILES CCCCCCCCCC=CC(=O)[O-]
REMARK SMILES IDX 7 1 8 2 9 3 10 4 11 5 12 6 13 7 14 8 6 9 5 10 4 11 3 12 2 13
REMARK SMILES IDX 1 14
REMARK H PARENT
REMARK Flexibility Score: inf
ROOT
ATOM      1  C   UNL     1       3.691   0.830  -5.278  1.00  0.00     0.000 C 
ENDROOT
BRANCH   1   2
ATOM      2  C   UNL     1       2.193   0.478  -5.218  1.00  0.00     0.004 C 
BRANCH   2   3
ATOM      3  C   UNL     1       1.508   0.405  -6.596  1.00  0.00     0.027 C 
BRANCH   3   4
ATOM      4  C   UNL     1       0.592   1.574  -6.849  1.00  0.00    -0.025 C 
ATOM      5  C   UNL     1       0.934   2.736  -7.431  1.00  0.00     0.020 C 
BRANCH   5   6
ATOM      6  C   UNL     1       2.256   3.087  -7.991  1.00  0.00     0.064 C 
ATOM      7  O   UNL     1       3.076   3.812  -7.369  1.00  0.00    -0.545 OA
ATOM      8  O   UNL     1       2.615   2.574  -9.230  1.00  0.00    -0.545 OA
ENDBRANCH   5   6
ENDBRANCH   3   4
ENDBRANCH   2   3
ENDBRANCH   1   2
BRANCH   1   9
ATOM      9  C   UNL     1       4.549  -0.068  -4.370  1.00  0.00     0.000 C 
BRANCH   9  10
ATOM     10  C   UNL     1       3.833  -0.462  -3.064  1.00  0.00     0.000 C 
BRANCH  10  11
ATOM     11  C   UNL     1       4.627  -1.399  -2.135  1.00  0.00    -0.000 C 
BRANCH  11  12
ATOM     12  C   UNL     1       5.571  -2.343  -2.900  1.00  0.00    -0.000 C 
BRANCH  12  13
ATOM     13  C   UNL     1       5.487  -3.793  -2.396  1.00  0.00    -0.003 C 
ATOM     14  C   UNL     1       4.208  -4.502  -2.842  1.00  0.00     0.004 C 
ENDBRANCH  12  13
ENDBRANCH  11  12
ENDBRANCH  10  11
ENDBRANCH   9  10
ENDBRANCH   1   9
TORSDOF 9
ENDMDL
MODEL 9
REMARK VINA RESULT:    -6.344      3.979      7.347
REMARK INTER + INTRA:         -10.090
REMARK INTER:                  -9.227
REMARK INTRA:                  -0.863
REMARK UNBOUND:                -0.408
REMARK SMILES CCCCCCCCCC=CC(=O)[O-]
REMARK SMILES IDX 7 1 8 2 9 3 10 4 11 5 12 6 13 7 14 8 6 9 5 10 4 11 3 12 2 13
REMARK SMILES IDX 1 14
REMARK H PARENT
REMARK Flexibility Score: inf
ROOT
ATOM      1  C   UNL     1       2.146   0.313  -5.267  1.00  0.00     0.000 C 
ENDROOT
BRANCH   1   2
ATOM      2  C   UNL     1       3.563   0.898  -5.119  1.00  0.00     0.004 C 
BRANCH   2   3
ATOM      3  C   UNL     1       4.538  -0.004  -4.339  1.00  0.00     0.027 C 
BRANCH   3   4
ATOM      4  C   UNL     1       4.068  -0.283  -2.935  1.00  0.00    -0.025 C 
ATOM      5  C   UNL     1       4.689  -1.064  -2.034  1.00  0.00     0.020 C 
BRANCH   5   6
ATOM      6  C   UNL     1       5.979  -1.761  -2.210  1.00  0.00     0.064 C 
ATOM      7  O   UNL     1       7.056  -1.307  -1.743  1.00  0.00    -0.545 OA
ATOM      8  O   UNL     1       5.998  -2.973  -2.888  1.00  0.00    -0.545 OA
ENDBRANCH   5   6
ENDBRANCH   3   4
ENDBRANCH   2   3
ENDBRANCH   1   2
BRANCH   1   9
ATOM      9  C   UNL     1       1.607   0.416  -6.704  1.00  0.00     0.000 C 
BRANCH   9  10
ATOM     10  C   UNL     1       0.469   1.444  -6.847  1.00  0.00     0.000 C 
BRANCH  10  11
ATOM     11  C   UNL     1       0.907   2.854  -7.284  1.00  0.00    -0.000 C 
BRANCH  11  12
ATOM     12  C   UNL     1       2.161   2.844  -8.175  1.00  0.00    -0.000 C 
BRANCH  12  13
ATOM     13  C   UNL     1       3.299   3.699  -7.597  1.00  0.00    -0.003 C 
ATOM     14  C   UNL     1       4.684   3.135  -7.914  1.00  0.00     0.004 C 
ENDBRANCH  12  13
ENDBRANCH  11  12
ENDBRANCH  10  11
ENDBRANCH   9  10
ENDBRANCH   1   9
TORSDOF 9
ENDMDL
