MODEL 1
REMARK VINA RESULT:    -3.099      0.000      0.000
REMARK INTER + INTRA:          -4.117
REMARK INTER:                  -4.005
REMARK INTRA:                  -0.112
REMARK UNBOUND:                -0.112
REMARK SMILES CCCCCCC(=O)[O-]
REMARK SMILES IDX 5 1 6 2 7 3 8 4 9 5 4 6 3 7 2 8 1 9
REMARK H PARENT
REMARK Flexibility Score: inf
ROOT
ATOM      1  C   UNL     1     -18.055 -18.947   2.200  1.00  0.00     0.006 C 
ENDROOT
BRANCH   1   2
ATOM      2  C   UNL     1     -16.809 -19.812   1.965  1.00  0.00     0.053 C 
BRANCH   2   3
ATOM      3  C   UNL     1     -16.088 -20.108   3.245  1.00  0.00     0.041 C 
ATOM      4  O   UNL     1     -14.830 -20.116   3.275  1.00  0.00    -0.550 OA
ATOM      5  O   UNL     1     -16.807 -20.338   4.411  1.00  0.00    -0.550 OA
ENDBRANCH   2   3
ENDBRANCH   1   2
BRANCH   1   6
ATOM      6  C   UNL     1     -19.357 -19.755   2.064  1.00  0.00     0.000 C 
BRANCH   6   7
ATOM      7  C   UNL     1     -20.264 -19.228   0.940  1.00  0.00    -0.000 C 
BRANCH   7   8
ATOM      8  C   UNL     1     -21.318 -20.258   0.502  1.00  0.00    -0.003 C 
ATOM      9  C   UNL     1     -21.375 -20.371  -1.018  1.00  0.00     0.004 C 
ENDBRANCH   7   8
ENDBRANCH   6   7
ENDBRANCH   1   6
TORSDOF 5
ENDMDL
MODEL 2
REMARK VINA RESULT:    -3.075      2.376      3.655
REMARK INTER + INTRA:          -4.086
REMARK INTER:                  -3.850
REMARK INTRA:                  -0.236
REMARK UNBOUND:                -0.112
REMARK SMILES CCCCCCC(=O)[O-]
REMARK SMILES IDX 5 1 6 2 7 3 8 4 9 5 4 6 3 7 2 8 1 9
REMARK H PARENT
REMARK Flexibility Score: inf
ROOT
ATOM      1  C   UNL     1     -16.144 -19.497   4.276  1.00  0.00     0.006 C 
ENDROOT
BRANCH   1   2
ATOM      2  C   UNL     1     -16.321 -20.494   5.429  1.00  0.00     0.053 C 
BRANCH   2   3
ATOM      3  C   UNL     1     -15.091 -20.582   6.282  1.00  0.00     0.041 C 
ATOM      4  O   UNL     1     -14.657 -19.560   6.873  1.00  0.00    -0.550 OA
ATOM      5  O   UNL     1     -14.448 -21.801   6.449  1.00  0.00    -0.550 OA
ENDBRANCH   2   3
ENDBRANCH   1   2
BRANCH   1   6
ATOM      6  C   UNL     1     -15.618 -20.176   2.999  1.00  0.00     0.000 C 
BRANCH   6   7
ATOM      7  C   UNL     1     -16.536 -19.949   1.787  1.00  0.00    -0.000 C 
BRANCH   7   8
ATOM      8  C   UNL     1     -17.534 -18.802   2.011  1.00  0.00    -0.003 C 
ATOM      9  C   UNL     1     -18.967 -19.266   1.767  1.00  0.00     0.004 C 
ENDBRANCH   7   8
ENDBRANCH   6   7
ENDBRANCH   1   6
TORSDOF 5
ENDMDL
MODEL 3
REMARK VINA RESULT:    -3.063      7.795      8.859
REMARK INTER + INTRA:          -4.071
REMARK INTER:                  -3.797
REMARK INTRA:                  -0.274
REMARK UNBOUND:                -0.112
REMARK SMILES CCCCCCC(=O)[O-]
REMARK SMILES IDX 5 1 6 2 7 3 8 4 9 5 4 6 3 7 2 8 1 9
REMARK H PARENT
REMARK Flexibility Score: inf
ROOT
ATOM      1  C   UNL     1     -17.505 -14.257  -3.070  1.00  0.00     0.006 C 
ENDROOT
BRANCH   1   2
ATOM      2  C   UNL     1     -18.394 -13.033  -2.814  1.00  0.00     0.053 C 
BRANCH   2   3
ATOM      3  C   UNL     1     -19.647 -13.074  -3.637  1.00  0.00     0.041 C 
ATOM      4  O   UNL     1     -20.648 -13.719  -3.231  1.00  0.00    -0.550 OA
ATOM      5  O   UNL     1     -19.717 -12.370  -4.831  1.00  0.00    -0.550 OA
ENDBRANCH   2   3
ENDBRANCH   1   2
BRANCH   1   6
ATOM      6  C   UNL     1     -16.951 -14.855  -1.764  1.00  0.00     0.000 C 
BRANCH   6   7
ATOM      7  C   UNL     1     -17.884 -14.622  -0.566  1.00  0.00    -0.000 C 
BRANCH   7   8
ATOM      8  C   UNL     1     -17.119 -14.488   0.760  1.00  0.00    -0.003 C 
ATOM      9  C   UNL     1     -15.740 -13.873   0.537  1.00  0.00     0.004 C 
ENDBRANCH   7   8
ENDBRANCH   6   7
ENDBRANCH   1   6
TORSDOF 5
ENDMDL
MODEL 4
REMARK VINA RESULT:    -3.057      8.627      9.666
REMARK INTER + INTRA:          -4.062
REMARK INTER:                  -3.845
REMARK INTRA:                  -0.217
REMARK UNBOUND:                -0.112
REMARK SMILES CCCCCCC(=O)[O-]
REMARK SMILES IDX 5 1 6 2 7 3 8 4 9 5 4 6 3 7 2 8 1 9
REMARK H PARENT
REMARK Flexibility Score: inf
ROOT
ATOM      1  C   UNL     1     -18.787 -13.266  -2.558  1.00  0.00     0.006 C 
ENDROOT
BRANCH   1   2
ATOM      2  C   UNL     1     -19.037 -12.022  -3.420  1.00  0.00     0.053 C 
BRANCH   2   3
ATOM      3  C   UNL     1     -20.140 -12.244  -4.411  1.00  0.00     0.041 C 
ATOM      4  O   UNL     1     -21.259 -12.674  -4.027  1.00  0.00    -0.550 OA
ATOM      5  O   UNL     1     -19.942 -11.942  -5.752  1.00  0.00    -0.550 OA
ENDBRANCH   2   3
ENDBRANCH   1   2
BRANCH   1   6
ATOM      6  C   UNL     1     -17.698 -14.175  -3.154  1.00  0.00     0.000 C 
BRANCH   6   7
ATOM      7  C   UNL     1     -16.878 -14.900  -2.074  1.00  0.00    -0.000 C 
BRANCH   7   8
ATOM      8  C   UNL     1     -17.320 -14.529  -0.650  1.00  0.00    -0.003 C 
ATOM      9  C   UNL     1     -16.156 -13.953   0.152  1.00  0.00     0.004 C 
ENDBRANCH   7   8
ENDBRANCH   6   7
ENDBRANCH   1   6
TORSDOF 5
ENDMDL
MODEL 5
REMARK VINA RESULT:    -3.041      3.827      5.413
REMARK INTER + INTRA:          -4.042
REMARK INTER:                  -3.877
REMARK INTRA:                  -0.165
REMARK UNBOUND:                -0.112
REMARK SMILES CCCCCCC(=O)[O-]
REMARK SMILES IDX 5 1 6 2 7 3 8 4 9 5 4 6 3 7 2 8 1 9
REMARK H PARENT
REMARK Flexibility Score: inf
ROOT
ATOM      1  C   UNL     1     -21.079 -19.025   0.595  1.00  0.00     0.006 C 
ENDROOT
BRANCH   1   2
ATOM      2  C   UNL     1     -21.209 -20.536   0.826  1.00  0.00     0.053 C 
BRANCH   2   3
ATOM      3  C   UNL     1     -21.765 -21.237  -0.377  1.00  0.00     0.041 C 
ATOM      4  O   UNL     1     -21.598 -20.751  -1.526  1.00  0.00    -0.550 OA
ATOM      5  O   UNL     1     -22.436 -22.444  -0.230  1.00  0.00    -0.550 OA
ENDBRANCH   2   3
ENDBRANCH   1   2
BRANCH   1   6
ATOM      6  C   UNL     1     -19.900 -18.418   1.375  1.00  0.00     0.000 C 
BRANCH   6   7
ATOM      7  C   UNL     1     -18.907 -19.482   1.867  1.00  0.00    -0.000 C 
BRANCH   7   8
ATOM      8  C   UNL     1     -17.449 -19.000   1.809  1.00  0.00    -0.003 C 
ATOM      9  C   UNL     1     -16.481 -20.143   2.101  1.00  0.00     0.004 C 
ENDBRANCH   7   8
ENDBRANCH   6   7
ENDBRANCH   1   6
TORSDOF 5
ENDMDL
MODEL 6
REMARK VINA RESULT:    -3.025      9.650     10.447
REMARK INTER + INTRA:          -4.021
REMARK INTER:                  -3.782
REMARK INTRA:                  -0.239
REMARK UNBOUND:                -0.112
REMARK SMILES CCCCCCC(=O)[O-]
REMARK SMILES IDX 5 1 6 2 7 3 8 4 9 5 4 6 3 7 2 8 1 9
REMARK H PARENT
REMARK Flexibility Score: inf
ROOT
ATOM      1  C   UNL     1     -18.835 -10.998  -2.789  1.00  0.00     0.006 C 
ENDROOT
BRANCH   1   2
ATOM      2  C   UNL     1     -19.377 -10.633  -4.178  1.00  0.00     0.053 C 
BRANCH   2   3
ATOM      3  C   UNL     1     -20.043 -11.801  -4.840  1.00  0.00     0.041 C 
ATOM      4  O   UNL     1     -19.876 -12.013  -6.069  1.00  0.00    -0.550 OA
ATOM      5  O   UNL     1     -20.819 -12.675  -4.089  1.00  0.00    -0.550 OA
ENDBRANCH   2   3
ENDBRANCH   1   2
BRANCH   1   6
ATOM      6  C   UNL     1     -17.302 -11.136  -2.783  1.00  0.00     0.000 C 
BRANCH   6   7
ATOM      7  C   UNL     1     -16.832 -12.476  -2.193  1.00  0.00    -0.000 C 
BRANCH   7   8
ATOM      8  C   UNL     1     -17.594 -13.676  -2.775  1.00  0.00    -0.003 C 
ATOM      9  C   UNL     1     -16.810 -14.970  -2.579  1.00  0.00     0.004 C 
ENDBRANCH   7   8
ENDBRANCH   6   7
ENDBRANCH   1   6
TORSDOF 5
ENDMDL
MODEL 7
REMARK VINA RESULT:    -3.022      4.029      5.705
REMARK INTER + INTRA:          -4.018
REMARK INTER:                  -3.797
REMARK INTRA:                  -0.221
REMARK UNBOUND:                -0.112
REMARK SMILES CCCCCCC(=O)[O-]
REMARK SMILES IDX 5 1 6 2 7 3 8 4 9 5 4 6 3 7 2 8 1 9
REMARK H PARENT
REMARK Flexibility Score: inf
ROOT
ATOM      1  C   UNL     1     -20.897 -20.040   0.948  1.00  0.00     0.006 C 
ENDROOT
BRANCH   1   2
ATOM      2  C   UNL     1     -21.745 -21.318   0.892  1.00  0.00     0.053 C 
BRANCH   2   3
ATOM      3  C   UNL     1     -22.029 -21.736  -0.519  1.00  0.00     0.041 C 
ATOM      4  O   UNL     1     -22.562 -22.852  -0.754  1.00  0.00    -0.550 OA
ATOM      5  O   UNL     1     -21.737 -20.877  -1.570  1.00  0.00    -0.550 OA
ENDBRANCH   2   3
ENDBRANCH   1   2
BRANCH   1   6
ATOM      6  C   UNL     1     -19.982 -20.005   2.185  1.00  0.00     0.000 C 
BRANCH   6   7
ATOM      7  C   UNL     1     -20.025 -21.313   2.990  1.00  0.00    -0.000 C 
BRANCH   7   8
ATOM      8  C   UNL     1     -18.639 -21.740   3.495  1.00  0.00    -0.003 C 
ATOM      9  C   UNL     1     -17.558 -20.780   3.008  1.00  0.00     0.004 C 
ENDBRANCH   7   8
ENDBRANCH   6   7
ENDBRANCH   1   6
TORSDOF 5
ENDMDL
MODEL 8
REMARK VINA RESULT:    -2.975      3.790      5.619
REMARK INTER + INTRA:          -3.957
REMARK INTER:                  -3.826
REMARK INTRA:                  -0.131
REMARK UNBOUND:                -0.112
REMARK SMILES CCCCCCC(=O)[O-]
REMARK SMILES IDX 5 1 6 2 7 3 8 4 9 5 4 6 3 7 2 8 1 9
REMARK H PARENT
REMARK Flexibility Score: inf
ROOT
ATOM      1  C   UNL     1     -21.491 -19.558   0.130  1.00  0.00     0.006 C 
ENDROOT
BRANCH   1   2
ATOM      2  C   UNL     1     -21.518 -20.752  -0.835  1.00  0.00     0.053 C 
BRANCH   2   3
ATOM      3  C   UNL     1     -22.274 -21.913  -0.262  1.00  0.00     0.041 C 
ATOM      4  O   UNL     1     -22.704 -21.866   0.920  1.00  0.00    -0.550 OA
ATOM      5  O   UNL     1     -22.532 -23.029  -1.047  1.00  0.00    -0.550 OA
ENDBRANCH   2   3
ENDBRANCH   1   2
BRANCH   1   6
ATOM      6  C   UNL     1     -20.201 -19.520   0.969  1.00  0.00     0.000 C 
BRANCH   6   7
ATOM      7  C   UNL     1     -19.879 -18.111   1.493  1.00  0.00    -0.000 C 
BRANCH   7   8
ATOM      8  C   UNL     1     -18.403 -17.953   1.887  1.00  0.00    -0.003 C 
ATOM      9  C   UNL     1     -17.686 -19.300   1.883  1.00  0.00     0.004 C 
ENDBRANCH   7   8
ENDBRANCH   6   7
ENDBRANCH   1   6
TORSDOF 5
ENDMDL
MODEL 9
REMARK VINA RESULT:    -2.963      3.672      5.211
REMARK INTER + INTRA:          -3.941
REMARK INTER:                  -3.674
REMARK INTRA:                  -0.267
REMARK UNBOUND:                -0.112
REMARK SMILES CCCCCCC(=O)[O-]
REMARK SMILES IDX 5 1 6 2 7 3 8 4 9 5 4 6 3 7 2 8 1 9
REMARK H PARENT
REMARK Flexibility Score: inf
ROOT
ATOM      1  C   UNL     1     -19.821 -21.312   3.749  1.00  0.00     0.006 C 
ENDROOT
BRANCH   1   2
ATOM      2  C   UNL     1     -20.595 -21.094   2.442  1.00  0.00     0.053 C 
BRANCH   2   3
ATOM      3  C   UNL     1     -21.674 -22.118   2.258  1.00  0.00     0.041 C 
ATOM      4  O   UNL     1     -22.481 -22.021   1.297  1.00  0.00    -0.550 OA
ATOM      5  O   UNL     1     -21.763 -23.198   3.126  1.00  0.00    -0.550 OA
ENDBRANCH   2   3
ENDBRANCH   1   2
BRANCH   1   6
ATOM      6  C   UNL     1     -18.364 -21.738   3.497  1.00  0.00     0.000 C 
BRANCH   6   7
ATOM      7  C   UNL     1     -17.354 -20.644   3.876  1.00  0.00    -0.000 C 
BRANCH   7   8
ATOM      8  C   UNL     1     -16.472 -20.220   2.691  1.00  0.00    -0.003 C 
ATOM      9  C   UNL     1     -17.226 -19.281   1.754  1.00  0.00     0.004 C 
ENDBRANCH   7   8
ENDBRANCH   6   7
ENDBRANCH   1   6
TORSDOF 5
ENDMDL
