MODEL 1
REMARK VINA RESULT:    -3.481      0.000      0.000
REMARK INTER + INTRA:          -5.674
REMARK INTER:                  -5.312
REMARK INTRA:                  -0.363
REMARK UNBOUND:                -0.363
REMARK SMILES CC1=CCC[C@@H](C)C(=O)C[C@@H](C(C)C)C(=O)C1
REMARK SMILES IDX 8 1 9 2 6 3 7 4 5 5 4 6 3 7 2 8 1 9 10 11 11 12 15 13 16 14
REMARK SMILES IDX 17 15 12 17 13 18 14 19
REMARK H PARENT
REMARK Flexibility Score: 70.00
ROOT
ATOM      1  C   UNL     1     -18.941   0.124  10.826  1.00  0.00     0.136 C 
ATOM      2  O   UNL     1     -18.676   1.285  11.111  1.00  0.00    -0.299 OA
ENDROOT
BRANCH   1   3
ATOM      3  C   UNL     1     -18.048  -0.974  11.365  1.00  0.00     0.053 C 
ATOM      4  C   UNL     1     -17.001  -0.364  12.307  1.00  0.00     0.016 C 
BRANCH   3   5
ATOM      5  C   UNL     1     -17.361  -1.731  10.196  1.00  0.00     0.015 C 
BRANCH   5   6
ATOM      6  C   UNL     1     -17.800  -3.207  10.087  1.00  0.00     0.028 C 
BRANCH   6   7
ATOM      7  C   UNL     1     -18.296  -3.587   8.709  1.00  0.00    -0.028 C 
ATOM      8  C   UNL     1     -19.572  -3.891   8.359  1.00  0.00    -0.070 CG0
ATOM      9  C   UNL     1     -19.813  -4.317   6.931  1.00  0.00     0.039 C 
ATOM     10  G   UNL     1     -20.771  -3.788   9.294  1.00  0.00     0.000 G0
ENDBRANCH   6   7
ENDBRANCH   5   6
ENDBRANCH   3   5
ENDBRANCH   1   3
BRANCH   1  11
ATOM     11  C   UNL     1     -20.196  -0.141  10.022  1.00  0.00     0.087 C 
BRANCH  11  12
ATOM     12  C   UNL     1     -21.055  -1.367  10.455  1.00  0.00     0.066 C 
BRANCH  12  13
ATOM     13  C   UNL     1     -21.364  -2.396   9.360  1.00  0.00     0.140 C 
ATOM     14  O   UNL     1     -22.135  -2.065   8.470  1.00  0.00    -0.299 OA
BRANCH  13  15
ATOM     15  C   UNL     1     -20.783  -3.789   9.292  1.00  0.00     0.106 CG0
ATOM     16  G   UNL     1     -19.585  -3.892   8.356  1.00  0.00     0.000 G0
ENDBRANCH  13  15
ENDBRANCH  12  13
BRANCH  12  17
ATOM     17  C   UNL     1     -22.386  -0.929  11.153  1.00  0.00    -0.006 C 
ATOM     18  C   UNL     1     -22.367  -1.166  12.673  1.00  0.00     0.008 C 
ATOM     19  C   UNL     1     -22.788   0.523  10.843  1.00  0.00     0.008 C 
ENDBRANCH  12  17
ENDBRANCH  11  12
ENDBRANCH   1  11
TORSDOF 1
ENDMDL
MODEL 2
REMARK VINA RESULT:    -3.289      2.226      4.440
REMARK INTER + INTRA:          -5.382
REMARK INTER:                  -5.304
REMARK INTRA:                  -0.077
REMARK UNBOUND:                -0.363
REMARK SMILES CC1=CCC[C@@H](C)C(=O)C[C@@H](C(C)C)C(=O)C1
REMARK SMILES IDX 8 1 9 2 6 3 7 4 5 5 4 6 3 7 2 8 1 9 10 11 11 12 15 13 16 14
REMARK SMILES IDX 17 15 12 17 13 18 14 19
REMARK H PARENT
REMARK Flexibility Score: 70.00
ROOT
ATOM      1  C   UNL     1     -20.335  -3.921   9.503  1.00  0.00     0.136 C 
ATOM      2  O   UNL     1     -20.801  -5.048   9.608  1.00  0.00    -0.299 OA
ENDROOT
BRANCH   1   3
ATOM      3  C   UNL     1     -19.029  -3.745   8.759  1.00  0.00     0.053 C 
ATOM      4  C   UNL     1     -18.782  -4.969   7.866  1.00  0.00     0.016 C 
BRANCH   3   5
ATOM      5  C   UNL     1     -17.859  -3.552   9.762  1.00  0.00     0.015 C 
BRANCH   5   6
ATOM      6  C   UNL     1     -17.190  -2.165   9.655  1.00  0.00     0.028 C 
BRANCH   6   7
ATOM      7  C   UNL     1     -16.960  -1.502  10.995  1.00  0.00    -0.028 C 
ATOM      8  C   UNL     1     -17.613  -0.419  11.488  1.00  0.00    -0.070 CG0
ATOM      9  C   UNL     1     -17.155   0.113  12.825  1.00  0.00     0.039 C 
ATOM     10  G   UNL     1     -18.793   0.262  10.807  1.00  0.00     0.000 G0
ENDBRANCH   6   7
ENDBRANCH   5   6
ENDBRANCH   3   5
ENDBRANCH   1   3
BRANCH   1  11
ATOM     11  C   UNL     1     -21.143  -2.765  10.055  1.00  0.00     0.087 C 
BRANCH  11  12
ATOM     12  C   UNL     1     -20.647  -1.332   9.693  1.00  0.00     0.066 C 
BRANCH  12  13
ATOM     13  C   UNL     1     -20.081  -0.501  10.850  1.00  0.00     0.140 C 
ATOM     14  O   UNL     1     -20.720  -0.468  11.893  1.00  0.00    -0.299 OA
BRANCH  13  15
ATOM     15  C   UNL     1     -18.787   0.279  10.805  1.00  0.00     0.106 CG0
ATOM     16  G   UNL     1     -17.634  -0.436  11.499  1.00  0.00     0.000 G0
ENDBRANCH  13  15
ENDBRANCH  12  13
BRANCH  12  17
ATOM     17  C   UNL     1     -21.746  -0.507   8.943  1.00  0.00    -0.006 C 
ATOM     18  C   UNL     1     -21.278   0.911   8.575  1.00  0.00     0.008 C 
ATOM     19  C   UNL     1     -22.306  -1.225   7.703  1.00  0.00     0.008 C 
ENDBRANCH  12  17
ENDBRANCH  11  12
ENDBRANCH   1  11
TORSDOF 1
ENDMDL
MODEL 3
REMARK VINA RESULT:    -3.270      2.029      4.256
REMARK INTER + INTRA:          -5.353
REMARK INTER:                  -5.190
REMARK INTRA:                  -0.162
REMARK UNBOUND:                -0.363
REMARK SMILES CC1=CCC[C@@H](C)C(=O)C[C@@H](C(C)C)C(=O)C1
REMARK SMILES IDX 8 1 9 2 6 3 7 4 5 5 4 6 3 7 2 8 1 9 10 11 11 12 15 13 16 14
REMARK SMILES IDX 17 15 12 17 13 18 14 19
REMARK H PARENT
REMARK Flexibility Score: 70.00
ROOT
ATOM      1  C   UNL     1     -18.004  -2.545   9.801  1.00  0.00     0.136 C 
ATOM      2  O   UNL     1     -17.349  -3.163   8.973  1.00  0.00    -0.299 OA
ENDROOT
BRANCH   1   3
ATOM      3  C   UNL     1     -17.509  -1.186  10.247  1.00  0.00     0.053 C 
ATOM      4  C   UNL     1     -17.003  -1.277  11.693  1.00  0.00     0.016 C 
BRANCH   3   5
ATOM      5  C   UNL     1     -18.645  -0.133  10.128  1.00  0.00     0.015 C 
BRANCH   5   6
ATOM      6  C   UNL     1     -19.158   0.364  11.496  1.00  0.00     0.028 C 
BRANCH   6   7
ATOM      7  C   UNL     1     -20.607   0.801  11.472  1.00  0.00    -0.028 C 
ATOM      8  C   UNL     1     -21.698  -0.006  11.445  1.00  0.00    -0.070 CG0
ATOM      9  C   UNL     1     -23.048   0.663  11.346  1.00  0.00     0.039 C 
ATOM     10  G   UNL     1     -21.652  -1.525  11.551  1.00  0.00     0.000 G0
ENDBRANCH   6   7
ENDBRANCH   5   6
ENDBRANCH   3   5
ENDBRANCH   1   3
BRANCH   1  11
ATOM     11  C   UNL     1     -19.314  -3.149  10.263  1.00  0.00     0.087 C 
BRANCH  11  12
ATOM     12  C   UNL     1     -20.582  -2.778   9.435  1.00  0.00     0.066 C 
BRANCH  12  13
ATOM     13  C   UNL     1     -21.773  -2.231  10.232  1.00  0.00     0.140 C 
ATOM     14  O   UNL     1     -22.892  -2.383   9.761  1.00  0.00    -0.299 OA
BRANCH  13  15
ATOM     15  C   UNL     1     -21.672  -1.522  11.563  1.00  0.00     0.106 CG0
ATOM     16  G   UNL     1     -21.699  -0.004  11.435  1.00  0.00     0.000 G0
ENDBRANCH  13  15
ENDBRANCH  12  13
BRANCH  12  17
ATOM     17  C   UNL     1     -21.057  -3.967   8.533  1.00  0.00    -0.006 C 
ATOM     18  C   UNL     1     -20.952  -3.652   7.031  1.00  0.00     0.008 C 
ATOM     19  C   UNL     1     -20.349  -5.294   8.853  1.00  0.00     0.008 C 
ENDBRANCH  12  17
ENDBRANCH  11  12
ENDBRANCH   1  11
TORSDOF 1
ENDMDL
MODEL 4
REMARK VINA RESULT:    -3.069      2.182      4.382
REMARK INTER + INTRA:          -5.046
REMARK INTER:                  -4.568
REMARK INTRA:                  -0.478
REMARK UNBOUND:                -0.363
REMARK SMILES CC1=CCC[C@@H](C)C(=O)C[C@@H](C(C)C)C(=O)C1
REMARK SMILES IDX 8 1 9 2 6 3 7 4 5 5 4 6 3 7 2 8 1 9 10 11 11 12 15 13 16 14
REMARK SMILES IDX 17 15 12 17 13 18 14 19
REMARK H PARENT
REMARK Flexibility Score: 70.00
ROOT
ATOM      1  C   UNL     1     -20.102  -4.951   9.096  1.00  0.00     0.136 C 
ATOM      2  O   UNL     1     -19.691  -6.092   9.258  1.00  0.00    -0.299 OA
ENDROOT
BRANCH   1   3
ATOM      3  C   UNL     1     -19.330  -4.028   8.178  1.00  0.00     0.053 C 
ATOM      4  C   UNL     1     -19.102  -4.724   6.829  1.00  0.00     0.016 C 
BRANCH   3   5
ATOM      5  C   UNL     1     -17.977  -3.630   8.827  1.00  0.00     0.015 C 
BRANCH   5   6
ATOM      6  C   UNL     1     -18.131  -3.057  10.252  1.00  0.00     0.028 C 
BRANCH   6   7
ATOM      7  C   UNL     1     -18.507  -1.591  10.273  1.00  0.00    -0.028 C 
ATOM      8  C   UNL     1     -19.636  -1.050  10.796  1.00  0.00    -0.070 CG0
ATOM      9  C   UNL     1     -19.829   0.438  10.630  1.00  0.00     0.039 C 
ATOM     10  G   UNL     1     -20.691  -1.832  11.570  1.00  0.00     0.000 G0
ENDBRANCH   6   7
ENDBRANCH   5   6
ENDBRANCH   3   5
ENDBRANCH   1   3
BRANCH   1  11
ATOM     11  C   UNL     1     -21.406  -4.565   9.762  1.00  0.00     0.087 C 
BRANCH  11  12
ATOM     12  C   UNL     1     -21.898  -3.103   9.537  1.00  0.00     0.066 C 
BRANCH  12  13
ATOM     13  C   UNL     1     -21.906  -2.196  10.773  1.00  0.00     0.140 C 
ATOM     14  O   UNL     1     -22.980  -1.733  11.133  1.00  0.00    -0.299 OA
BRANCH  13  15
ATOM     15  C   UNL     1     -20.687  -1.831  11.588  1.00  0.00     0.106 CG0
ATOM     16  G   UNL     1     -19.640  -1.064  10.788  1.00  0.00     0.000 G0
ENDBRANCH  13  15
ENDBRANCH  12  13
BRANCH  12  17
ATOM     17  C   UNL     1     -23.302  -3.060   8.846  1.00  0.00    -0.006 C 
ATOM     18  C   UNL     1     -23.260  -2.411   7.452  1.00  0.00     0.008 C 
ATOM     19  C   UNL     1     -23.989  -4.435   8.776  1.00  0.00     0.008 C 
ENDBRANCH  12  17
ENDBRANCH  11  12
ENDBRANCH   1  11
TORSDOF 1
ENDMDL
MODEL 5
REMARK VINA RESULT:    -2.977      1.872      4.027
REMARK INTER + INTRA:          -4.906
REMARK INTER:                  -5.070
REMARK INTRA:                   0.164
REMARK UNBOUND:                -0.363
REMARK SMILES CC1=CCC[C@@H](C)C(=O)C[C@@H](C(C)C)C(=O)C1
REMARK SMILES IDX 8 1 9 2 6 3 7 4 5 5 4 6 3 7 2 8 1 9 10 11 11 12 15 13 16 14
REMARK SMILES IDX 17 15 12 17 13 18 14 19
REMARK H PARENT
REMARK Flexibility Score: 70.00
ROOT
ATOM      1  C   UNL     1     -18.831   0.253  11.089  1.00  0.00     0.136 C 
ATOM      2  O   UNL     1     -18.070   0.947  11.751  1.00  0.00    -0.299 OA
ENDROOT
BRANCH   1   3
ATOM      3  C   UNL     1     -19.945   0.932  10.322  1.00  0.00     0.053 C 
ATOM      4  C   UNL     1     -19.361   2.073   9.477  1.00  0.00     0.016 C 
BRANCH   3   5
ATOM      5  C   UNL     1     -21.024   1.470  11.301  1.00  0.00     0.015 C 
BRANCH   5   6
ATOM      6  C   UNL     1     -22.406   0.811  11.104  1.00  0.00     0.028 C 
BRANCH   6   7
ATOM      7  C   UNL     1     -22.594   0.204   9.730  1.00  0.00    -0.028 C 
ATOM      8  C   UNL     1     -22.511  -1.111   9.405  1.00  0.00    -0.070 CG0
ATOM      9  C   UNL     1     -22.660  -1.471   7.946  1.00  0.00     0.039 C 
ATOM     10  G   UNL     1     -22.324  -2.239  10.412  1.00  0.00     0.000 G0
ENDBRANCH   6   7
ENDBRANCH   5   6
ENDBRANCH   3   5
ENDBRANCH   1   3
BRANCH   1  11
ATOM     11  C   UNL     1     -18.553  -1.234  11.016  1.00  0.00     0.087 C 
BRANCH  11  12
ATOM     12  C   UNL     1     -19.632  -2.110  10.311  1.00  0.00     0.066 C 
BRANCH  12  13
ATOM     13  C   UNL     1     -20.959  -2.281  11.060  1.00  0.00     0.140 C 
ATOM     14  O   UNL     1     -20.912  -2.441  12.272  1.00  0.00    -0.299 OA
BRANCH  13  15
ATOM     15  C   UNL     1     -22.326  -2.260  10.416  1.00  0.00     0.106 CG0
ATOM     16  G   UNL     1     -22.503  -1.115   9.425  1.00  0.00     0.000 G0
ENDBRANCH  13  15
ENDBRANCH  12  13
BRANCH  12  17
ATOM     17  C   UNL     1     -19.070  -3.516   9.912  1.00  0.00    -0.006 C 
ATOM     18  C   UNL     1     -20.091  -4.366   9.135  1.00  0.00     0.008 C 
ATOM     19  C   UNL     1     -17.739  -3.445   9.145  1.00  0.00     0.008 C 
ENDBRANCH  12  17
ENDBRANCH  11  12
ENDBRANCH   1  11
TORSDOF 1
ENDMDL
MODEL 6
REMARK VINA RESULT:    -2.895      1.962      4.252
REMARK INTER + INTRA:          -4.781
REMARK INTER:                  -4.747
REMARK INTRA:                  -0.035
REMARK UNBOUND:                -0.363
REMARK SMILES CC1=CCC[C@@H](C)C(=O)C[C@@H](C(C)C)C(=O)C1
REMARK SMILES IDX 8 1 9 2 6 3 7 4 5 5 4 6 3 7 2 8 1 9 10 11 11 12 15 13 16 14
REMARK SMILES IDX 17 15 12 17 13 18 14 19
REMARK H PARENT
REMARK Flexibility Score: 70.00
ROOT
ATOM      1  C   UNL     1     -18.547  -2.624   9.947  1.00  0.00     0.136 C 
ATOM      2  O   UNL     1     -17.347  -2.380   9.926  1.00  0.00    -0.299 OA
ENDROOT
BRANCH   1   3
ATOM      3  C   UNL     1     -19.501  -1.525  10.364  1.00  0.00     0.053 C 
ATOM      4  C   UNL     1     -18.702  -0.262  10.715  1.00  0.00     0.016 C 
BRANCH   3   5
ATOM      5  C   UNL     1     -20.359  -1.986  11.572  1.00  0.00     0.015 C 
BRANCH   5   6
ATOM      6  C   UNL     1     -21.860  -1.662  11.411  1.00  0.00     0.028 C 
BRANCH   6   7
ATOM      7  C   UNL     1     -22.254  -1.328   9.988  1.00  0.00    -0.028 C 
ATOM      8  C   UNL     1     -22.627  -2.204   9.022  1.00  0.00    -0.070 CG0
ATOM      9  C   UNL     1     -22.901  -1.640   7.648  1.00  0.00     0.039 C 
ATOM     10  G   UNL     1     -22.828  -3.699   9.241  1.00  0.00     0.000 G0
ENDBRANCH   6   7
ENDBRANCH   5   6
ENDBRANCH   3   5
ENDBRANCH   1   3
BRANCH   1  11
ATOM     11  C   UNL     1     -19.002  -3.988   9.473  1.00  0.00     0.087 C 
BRANCH  11  12
ATOM     12  C   UNL     1     -20.250  -4.021   8.540  1.00  0.00     0.066 C 
BRANCH  12  13
ATOM     13  C   UNL     1     -21.559  -4.500   9.179  1.00  0.00     0.140 C 
ATOM     14  O   UNL     1     -21.567  -5.608   9.699  1.00  0.00    -0.299 OA
BRANCH  13  15
ATOM     15  C   UNL     1     -22.843  -3.706   9.222  1.00  0.00     0.106 CG0
ATOM     16  G   UNL     1     -22.629  -2.210   9.025  1.00  0.00     0.000 G0
ENDBRANCH  13  15
ENDBRANCH  12  13
BRANCH  12  17
ATOM     17  C   UNL     1     -19.977  -4.834   7.230  1.00  0.00    -0.006 C 
ATOM     18  C   UNL     1     -20.682  -4.237   6.001  1.00  0.00     0.008 C 
ATOM     19  C   UNL     1     -18.480  -5.040   6.941  1.00  0.00     0.008 C 
ENDBRANCH  12  17
ENDBRANCH  11  12
ENDBRANCH   1  11
TORSDOF 1
ENDMDL
MODEL 7
REMARK VINA RESULT:    -2.813      2.301      4.137
REMARK INTER + INTRA:          -4.656
REMARK INTER:                  -4.320
REMARK INTRA:                  -0.336
REMARK UNBOUND:                -0.363
REMARK SMILES CC1=CCC[C@@H](C)C(=O)C[C@@H](C(C)C)C(=O)C1
REMARK SMILES IDX 8 1 9 2 6 3 7 4 5 5 4 6 3 7 2 8 1 9 10 11 11 12 15 13 16 14
REMARK SMILES IDX 17 15 12 17 13 18 14 19
REMARK H PARENT
REMARK Flexibility Score: 70.00
ROOT
ATOM      1  C   UNL     1     -19.784  -2.250  10.733  1.00  0.00     0.136 C 
ATOM      2  O   UNL     1     -19.803  -2.308  11.955  1.00  0.00    -0.299 OA
ENDROOT
BRANCH   1   3
ATOM      3  C   UNL     1     -18.730  -1.391  10.066  1.00  0.00     0.053 C 
ATOM      4  C   UNL     1     -17.375  -1.627  10.746  1.00  0.00     0.016 C 
BRANCH   3   5
ATOM      5  C   UNL     1     -19.130   0.107  10.141  1.00  0.00     0.015 C 
BRANCH   5   6
ATOM      6  C   UNL     1     -20.639   0.346   9.922  1.00  0.00     0.028 C 
BRANCH   6   7
ATOM      7  C   UNL     1     -20.986   0.734   8.501  1.00  0.00    -0.028 C 
ATOM      8  C   UNL     1     -21.672  -0.014   7.599  1.00  0.00    -0.070 CG0
ATOM      9  C   UNL     1     -21.831   0.556   6.210  1.00  0.00     0.039 C 
ATOM     10  G   UNL     1     -22.323  -1.357   7.908  1.00  0.00     0.000 G0
ENDBRANCH   6   7
ENDBRANCH   5   6
ENDBRANCH   3   5
ENDBRANCH   1   3
BRANCH   1  11
ATOM     11  C   UNL     1     -20.766  -3.111   9.966  1.00  0.00     0.087 C 
BRANCH  11  12
ATOM     12  C   UNL     1     -20.497  -3.285   8.440  1.00  0.00     0.066 C 
BRANCH  12  13
ATOM     13  C   UNL     1     -21.446  -2.535   7.498  1.00  0.00     0.140 C 
ATOM     14  O   UNL     1     -21.502  -2.904   6.333  1.00  0.00    -0.299 OA
BRANCH  13  15
ATOM     15  C   UNL     1     -22.326  -1.373   7.899  1.00  0.00     0.106 CG0
ATOM     16  G   UNL     1     -21.693  -0.017   7.613  1.00  0.00     0.000 G0
ENDBRANCH  13  15
ENDBRANCH  12  13
BRANCH  12  17
ATOM     17  C   UNL     1     -20.433  -4.794   8.028  1.00  0.00    -0.006 C 
ATOM     18  C   UNL     1     -19.072  -5.191   7.431  1.00  0.00     0.008 C 
ATOM     19  C   UNL     1     -20.819  -5.753   9.167  1.00  0.00     0.008 C 
ENDBRANCH  12  17
ENDBRANCH  11  12
ENDBRANCH   1  11
TORSDOF 1
ENDMDL
MODEL 8
REMARK VINA RESULT:    -2.776     12.959     14.004
REMARK INTER + INTRA:          -4.599
REMARK INTER:                  -4.716
REMARK INTRA:                   0.118
REMARK UNBOUND:                -0.363
REMARK SMILES CC1=CCC[C@@H](C)C(=O)C[C@@H](C(C)C)C(=O)C1
REMARK SMILES IDX 8 1 9 2 6 3 7 4 5 5 4 6 3 7 2 8 1 9 10 11 11 12 15 13 16 14
REMARK SMILES IDX 17 15 12 17 13 18 14 19
REMARK H PARENT
REMARK Flexibility Score: 70.00
ROOT
ATOM      1  C   UNL     1      -5.774   0.452   9.267  1.00  0.00     0.136 C 
ATOM      2  O   UNL     1      -4.555   0.471   9.379  1.00  0.00    -0.299 OA
ENDROOT
BRANCH   1   3
ATOM      3  C   UNL     1      -6.411   1.262   8.157  1.00  0.00     0.053 C 
ATOM      4  C   UNL     1      -7.599   2.054   8.722  1.00  0.00     0.016 C 
BRANCH   3   5
ATOM      5  C   UNL     1      -6.871   0.329   7.005  1.00  0.00     0.015 C 
BRANCH   5   6
ATOM      6  C   UNL     1      -6.013  -0.948   6.878  1.00  0.00     0.028 C 
BRANCH   6   7
ATOM      7  C   UNL     1      -6.824  -2.225   6.924  1.00  0.00    -0.028 C 
ATOM      8  C   UNL     1      -6.591  -3.308   7.708  1.00  0.00    -0.070 CG0
ATOM      9  C   UNL     1      -7.496  -4.502   7.521  1.00  0.00     0.039 C 
ATOM     10  G   UNL     1      -5.514  -3.380   8.783  1.00  0.00     0.000 G0
ENDBRANCH   6   7
ENDBRANCH   5   6
ENDBRANCH   3   5
ENDBRANCH   1   3
BRANCH   1  11
ATOM     11  C   UNL     1      -6.557  -0.450  10.197  1.00  0.00     0.087 C 
BRANCH  11  12
ATOM     12  C   UNL     1      -5.779  -1.643  10.830  1.00  0.00     0.066 C 
BRANCH  12  13
ATOM     13  C   UNL     1      -5.991  -3.012  10.173  1.00  0.00     0.140 C 
ATOM     14  O   UNL     1      -6.598  -3.862  10.810  1.00  0.00    -0.299 OA
BRANCH  13  15
ATOM     15  C   UNL     1      -5.510  -3.393   8.792  1.00  0.00     0.106 CG0
ATOM     16  G   UNL     1      -6.601  -3.296   7.732  1.00  0.00     0.000 G0
ENDBRANCH  13  15
ENDBRANCH  12  13
BRANCH  12  17
ATOM     17  C   UNL     1      -6.037  -1.755  12.371  1.00  0.00    -0.006 C 
ATOM     18  C   UNL     1      -5.107  -0.850  13.197  1.00  0.00     0.008 C 
ATOM     19  C   UNL     1      -7.505  -1.512  12.762  1.00  0.00     0.008 C 
ENDBRANCH  12  17
ENDBRANCH  11  12
ENDBRANCH   1  11
TORSDOF 1
ENDMDL
MODEL 9
REMARK VINA RESULT:    -2.734     13.201     14.580
REMARK INTER + INTRA:          -4.534
REMARK INTER:                  -4.388
REMARK INTRA:                  -0.146
REMARK UNBOUND:                -0.363
REMARK SMILES CC1=CCC[C@@H](C)C(=O)C[C@@H](C(C)C)C(=O)C1
REMARK SMILES IDX 8 1 9 2 6 3 7 4 5 5 4 6 3 7 2 8 1 9 10 11 11 12 15 13 16 14
REMARK SMILES IDX 17 15 12 17 13 18 14 19
REMARK H PARENT
REMARK Flexibility Score: 70.00
ROOT
ATOM      1  C   UNL     1      -6.312  -0.495   8.168  1.00  0.00     0.136 C 
ATOM      2  O   UNL     1      -6.901  -0.280   7.117  1.00  0.00    -0.299 OA
ENDROOT
BRANCH   1   3
ATOM      3  C   UNL     1      -6.397   0.540   9.270  1.00  0.00     0.053 C 
ATOM      4  C   UNL     1      -7.309   1.690   8.819  1.00  0.00     0.016 C 
BRANCH   3   5
ATOM      5  C   UNL     1      -4.981   1.068   9.624  1.00  0.00     0.015 C 
BRANCH   5   6
ATOM      6  C   UNL     1      -4.351   0.350  10.837  1.00  0.00     0.028 C 
BRANCH   6   7
ATOM      7  C   UNL     1      -5.370  -0.143  11.841  1.00  0.00    -0.028 C 
ATOM      8  C   UNL     1      -5.785  -1.423  12.016  1.00  0.00    -0.070 CG0
ATOM      9  C   UNL     1      -6.875  -1.662  13.033  1.00  0.00     0.039 C 
ATOM     10  G   UNL     1      -5.198  -2.628  11.291  1.00  0.00     0.000 G0
ENDBRANCH   6   7
ENDBRANCH   5   6
ENDBRANCH   3   5
ENDBRANCH   1   3
BRANCH   1  11
ATOM     11  C   UNL     1      -5.604  -1.824   8.325  1.00  0.00     0.087 C 
BRANCH  11  12
ATOM     12  C   UNL     1      -6.447  -2.998   8.910  1.00  0.00     0.066 C 
BRANCH  12  13
ATOM     13  C   UNL     1      -6.196  -3.340  10.383  1.00  0.00     0.140 C 
ATOM     14  O   UNL     1      -6.844  -4.255  10.874  1.00  0.00    -0.299 OA
BRANCH  13  15
ATOM     15  C   UNL     1      -5.202  -2.637  11.279  1.00  0.00     0.106 CG0
ATOM     16  G   UNL     1      -5.799  -1.443  12.014  1.00  0.00     0.000 G0
ENDBRANCH  13  15
ENDBRANCH  12  13
BRANCH  12  17
ATOM     17  C   UNL     1      -6.322  -4.294   8.042  1.00  0.00    -0.006 C 
ATOM     18  C   UNL     1      -7.678  -4.786   7.508  1.00  0.00     0.008 C 
ATOM     19  C   UNL     1      -5.310  -4.162   6.891  1.00  0.00     0.008 C 
ENDBRANCH  12  17
ENDBRANCH  11  12
ENDBRANCH   1  11
TORSDOF 1
ENDMDL
