MODEL 1
REMARK VINA RESULT:    -4.228      0.000      0.000
REMARK INTER + INTRA:          -6.196
REMARK INTER:                  -5.958
REMARK INTRA:                  -0.238
REMARK UNBOUND:                -0.238
REMARK SMILES C=CCCCCCCC(=O)[O-]
REMARK SMILES IDX 6 1 7 2 8 3 9 4 10 5 11 6 5 7 4 8 3 9 2 10 1 11
REMARK H PARENT
REMARK Flexibility Score: inf
ROOT
ATOM      1  C   UNL     1      36.951  72.171  75.280  1.00  0.00     0.000 C 
ENDROOT
BRANCH   1   2
ATOM      2  C   UNL     1      36.559  70.700  75.488  1.00  0.00     0.006 C 
BRANCH   2   3
ATOM      3  C   UNL     1      37.363  70.025  76.607  1.00  0.00     0.053 C 
BRANCH   3   4
ATOM      4  C   UNL     1      37.721  68.625  76.221  1.00  0.00     0.041 C 
ATOM      5  O   UNL     1      36.832  67.836  75.804  1.00  0.00    -0.550 OA
ATOM      6  O   UNL     1      39.027  68.175  76.368  1.00  0.00    -0.550 OA
ENDBRANCH   3   4
ENDBRANCH   2   3
ENDBRANCH   1   2
BRANCH   1   7
ATOM      7  C   UNL     1      36.969  72.576  73.798  1.00  0.00     0.000 C 
BRANCH   7   8
ATOM      8  C   UNL     1      37.471  74.016  73.629  1.00  0.00     0.004 C 
BRANCH   8   9
ATOM      9  C   UNL     1      38.500  74.142  72.495  1.00  0.00     0.027 C 
BRANCH   9  10
ATOM     10  C   UNL     1      39.636  75.064  72.850  1.00  0.00    -0.035 C 
ATOM     11  C   UNL     1      40.111  75.151  74.095  1.00  0.00     0.004 C 
ENDBRANCH   9  10
ENDBRANCH   8   9
ENDBRANCH   7   8
ENDBRANCH   1   7
TORSDOF 7
ENDMDL
MODEL 2
REMARK VINA RESULT:    -4.087      1.428      2.403
REMARK INTER + INTRA:          -5.998
REMARK INTER:                  -5.699
REMARK INTRA:                  -0.299
REMARK UNBOUND:                -0.238
REMARK SMILES C=CCCCCCCC(=O)[O-]
REMARK SMILES IDX 6 1 7 2 8 3 9 4 10 5 11 6 5 7 4 8 3 9 2 10 1 11
REMARK H PARENT
REMARK Flexibility Score: inf
ROOT
ATOM      1  C   UNL     1      37.288  72.260  75.102  1.00  0.00     0.000 C 
ENDROOT
BRANCH   1   2
ATOM      2  C   UNL     1      36.400  71.078  75.523  1.00  0.00     0.006 C 
BRANCH   2   3
ATOM      3  C   UNL     1      37.169  70.012  76.314  1.00  0.00     0.053 C 
BRANCH   3   4
ATOM      4  C   UNL     1      36.843  68.646  75.802  1.00  0.00     0.041 C 
ATOM      5  O   UNL     1      37.546  67.658  76.141  1.00  0.00    -0.550 OA
ATOM      6  O   UNL     1      35.792  68.469  74.910  1.00  0.00    -0.550 OA
ENDBRANCH   3   4
ENDBRANCH   2   3
ENDBRANCH   1   2
BRANCH   1   7
ATOM      7  C   UNL     1      36.766  72.974  73.846  1.00  0.00     0.000 C 
BRANCH   7   8
ATOM      8  C   UNL     1      37.811  73.958  73.301  1.00  0.00     0.004 C 
BRANCH   8   9
ATOM      9  C   UNL     1      38.063  73.763  71.798  1.00  0.00     0.027 C 
BRANCH   9  10
ATOM     10  C   UNL     1      37.097  72.790  71.175  1.00  0.00    -0.035 C 
ATOM     11  C   UNL     1      37.346  72.202  70.002  1.00  0.00     0.004 C 
ENDBRANCH   9  10
ENDBRANCH   8   9
ENDBRANCH   7   8
ENDBRANCH   1   7
TORSDOF 7
ENDMDL
MODEL 3
REMARK VINA RESULT:    -3.974      3.446      6.140
REMARK INTER + INTRA:          -5.839
REMARK INTER:                  -5.553
REMARK INTRA:                  -0.285
REMARK UNBOUND:                -0.238
REMARK SMILES C=CCCCCCCC(=O)[O-]
REMARK SMILES IDX 6 1 7 2 8 3 9 4 10 5 11 6 5 7 4 8 3 9 2 10 1 11
REMARK H PARENT
REMARK Flexibility Score: inf
ROOT
ATOM      1  C   UNL     1      37.032  72.304  74.011  1.00  0.00     0.000 C 
ENDROOT
BRANCH   1   2
ATOM      2  C   UNL     1      37.172  73.780  73.607  1.00  0.00     0.006 C 
BRANCH   2   3
ATOM      3  C   UNL     1      38.176  73.988  72.465  1.00  0.00     0.053 C 
BRANCH   3   4
ATOM      4  C   UNL     1      39.343  74.796  72.937  1.00  0.00     0.041 C 
ATOM      5  O   UNL     1      39.642  74.822  74.160  1.00  0.00    -0.550 OA
ATOM      6  O   UNL     1      40.071  75.561  72.034  1.00  0.00    -0.550 OA
ENDBRANCH   3   4
ENDBRANCH   2   3
ENDBRANCH   1   2
BRANCH   1   7
ATOM      7  C   UNL     1      36.606  72.130  75.477  1.00  0.00     0.000 C 
BRANCH   7   8
ATOM      8  C   UNL     1      36.744  70.665  75.917  1.00  0.00     0.004 C 
BRANCH   8   9
ATOM      9  C   UNL     1      35.795  69.736  75.145  1.00  0.00     0.027 C 
BRANCH   9  10
ATOM     10  C   UNL     1      36.236  68.297  75.192  1.00  0.00    -0.035 C 
ATOM     11  C   UNL     1      37.264  67.899  75.946  1.00  0.00     0.004 C 
ENDBRANCH   9  10
ENDBRANCH   8   9
ENDBRANCH   7   8
ENDBRANCH   1   7
TORSDOF 7
ENDMDL
MODEL 4
REMARK VINA RESULT:    -3.600      3.426      6.122
REMARK INTER + INTRA:          -5.311
REMARK INTER:                  -5.015
REMARK INTRA:                  -0.296
REMARK UNBOUND:                -0.238
REMARK SMILES C=CCCCCCCC(=O)[O-]
REMARK SMILES IDX 6 1 7 2 8 3 9 4 10 5 11 6 5 7 4 8 3 9 2 10 1 11
REMARK H PARENT
REMARK Flexibility Score: inf
ROOT
ATOM      1  C   UNL     1      36.515  72.018  75.465  1.00  0.00     0.000 C 
ENDROOT
BRANCH   1   2
ATOM      2  C   UNL     1      37.286  72.323  74.172  1.00  0.00     0.006 C 
BRANCH   2   3
ATOM      3  C   UNL     1      36.840  73.635  73.512  1.00  0.00     0.053 C 
BRANCH   3   4
ATOM      4  C   UNL     1      37.655  73.907  72.288  1.00  0.00     0.041 C 
ATOM      5  O   UNL     1      37.275  73.478  71.167  1.00  0.00    -0.550 OA
ATOM      6  O   UNL     1      38.859  74.592  72.391  1.00  0.00    -0.550 OA
ENDBRANCH   3   4
ENDBRANCH   2   3
ENDBRANCH   1   2
BRANCH   1   7
ATOM      7  C   UNL     1      36.300  70.513  75.685  1.00  0.00     0.000 C 
BRANCH   7   8
ATOM      8  C   UNL     1      37.429  69.916  76.538  1.00  0.00     0.004 C 
BRANCH   8   9
ATOM      9  C   UNL     1      37.678  68.435  76.215  1.00  0.00     0.027 C 
BRANCH   9  10
ATOM     10  C   UNL     1      36.602  67.848  75.340  1.00  0.00    -0.035 C 
ATOM     11  C   UNL     1      36.796  66.729  74.638  1.00  0.00     0.004 C 
ENDBRANCH   9  10
ENDBRANCH   8   9
ENDBRANCH   7   8
ENDBRANCH   1   7
TORSDOF 7
ENDMDL
MODEL 5
REMARK VINA RESULT:    -3.332     13.462     14.975
REMARK INTER + INTRA:          -4.934
REMARK INTER:                  -4.450
REMARK INTRA:                  -0.484
REMARK UNBOUND:                -0.238
REMARK SMILES C=CCCCCCCC(=O)[O-]
REMARK SMILES IDX 6 1 7 2 8 3 9 4 10 5 11 6 5 7 4 8 3 9 2 10 1 11
REMARK H PARENT
REMARK Flexibility Score: inf
ROOT
ATOM      1  C   UNL     1      24.800  64.038  75.727  1.00  0.00     0.000 C 
ENDROOT
BRANCH   1   2
ATOM      2  C   UNL     1      24.829  63.325  77.087  1.00  0.00     0.006 C 
BRANCH   2   3
ATOM      3  C   UNL     1      24.105  64.115  78.185  1.00  0.00     0.053 C 
BRANCH   3   4
ATOM      4  C   UNL     1      24.133  63.360  79.476  1.00  0.00     0.041 C 
ATOM      5  O   UNL     1      24.432  63.949  80.548  1.00  0.00    -0.550 OA
ATOM      6  O   UNL     1      23.876  61.994  79.489  1.00  0.00    -0.550 OA
ENDBRANCH   3   4
ENDBRANCH   2   3
ENDBRANCH   1   2
BRANCH   1   7
ATOM      7  C   UNL     1      26.184  64.545  75.295  1.00  0.00     0.000 C 
BRANCH   7   8
ATOM      8  C   UNL     1      26.094  65.967  74.722  1.00  0.00     0.004 C 
BRANCH   8   9
ATOM      9  C   UNL     1      26.382  67.039  75.784  1.00  0.00     0.027 C 
BRANCH   9  10
ATOM     10  C   UNL     1      25.274  68.052  75.892  1.00  0.00    -0.035 C 
ATOM     11  C   UNL     1      24.479  68.117  76.964  1.00  0.00     0.004 C 
ENDBRANCH   9  10
ENDBRANCH   8   9
ENDBRANCH   7   8
ENDBRANCH   1   7
TORSDOF 7
ENDMDL
MODEL 6
REMARK VINA RESULT:    -3.317     12.858     14.103
REMARK INTER + INTRA:          -4.912
REMARK INTER:                  -4.693
REMARK INTRA:                  -0.219
REMARK UNBOUND:                -0.238
REMARK SMILES C=CCCCCCCC(=O)[O-]
REMARK SMILES IDX 6 1 7 2 8 3 9 4 10 5 11 6 5 7 4 8 3 9 2 10 1 11
REMARK H PARENT
REMARK Flexibility Score: inf
ROOT
ATOM      1  C   UNL     1      25.988  63.510  75.823  1.00  0.00     0.000 C 
ENDROOT
BRANCH   1   2
ATOM      2  C   UNL     1      25.931  62.677  77.112  1.00  0.00     0.006 C 
BRANCH   2   3
ATOM      3  C   UNL     1      26.591  61.301  76.958  1.00  0.00     0.053 C 
BRANCH   3   4
ATOM      4  C   UNL     1      27.779  61.188  77.860  1.00  0.00     0.041 C 
ATOM      5  O   UNL     1      27.698  61.554  79.063  1.00  0.00    -0.550 OA
ATOM      6  O   UNL     1      28.990  60.726  77.361  1.00  0.00    -0.550 OA
ENDBRANCH   3   4
ENDBRANCH   2   3
ENDBRANCH   1   2
BRANCH   1   7
ATOM      7  C   UNL     1      25.368  64.906  75.991  1.00  0.00     0.000 C 
BRANCH   7   8
ATOM      8  C   UNL     1      26.080  65.933  75.100  1.00  0.00     0.004 C 
BRANCH   8   9
ATOM      9  C   UNL     1      26.313  67.268  75.825  1.00  0.00     0.027 C 
BRANCH   9  10
ATOM     10  C   UNL     1      25.080  68.130  75.852  1.00  0.00    -0.035 C 
ATOM     11  C   UNL     1      24.402  68.356  76.981  1.00  0.00     0.004 C 
ENDBRANCH   9  10
ENDBRANCH   8   9
ENDBRANCH   7   8
ENDBRANCH   1   7
TORSDOF 7
ENDMDL
MODEL 7
REMARK VINA RESULT:    -3.278     16.961     18.898
REMARK INTER + INTRA:          -4.858
REMARK INTER:                  -4.496
REMARK INTRA:                  -0.362
REMARK UNBOUND:                -0.238
REMARK SMILES C=CCCCCCCC(=O)[O-]
REMARK SMILES IDX 6 1 7 2 8 3 9 4 10 5 11 6 5 7 4 8 3 9 2 10 1 11
REMARK H PARENT
REMARK Flexibility Score: inf
ROOT
ATOM      1  C   UNL     1      31.321  57.677  85.936  1.00  0.00     0.000 C 
ENDROOT
BRANCH   1   2
ATOM      2  C   UNL     1      31.687  57.246  84.507  1.00  0.00     0.006 C 
BRANCH   2   3
ATOM      3  C   UNL     1      30.695  57.768  83.459  1.00  0.00     0.053 C 
BRANCH   3   4
ATOM      4  C   UNL     1      31.415  58.165  82.210  1.00  0.00     0.041 C 
ATOM      5  O   UNL     1      30.784  58.685  81.253  1.00  0.00    -0.550 OA
ATOM      6  O   UNL     1      32.776  57.916  82.082  1.00  0.00    -0.550 OA
ENDBRANCH   3   4
ENDBRANCH   2   3
ENDBRANCH   1   2
BRANCH   1   7
ATOM      7  C   UNL     1      30.029  58.507  85.991  1.00  0.00     0.000 C 
BRANCH   7   8
ATOM      8  C   UNL     1      29.015  57.879  86.957  1.00  0.00     0.004 C 
BRANCH   8   9
ATOM      9  C   UNL     1      28.021  58.913  87.507  1.00  0.00     0.027 C 
BRANCH   9  10
ATOM     10  C   UNL     1      28.189  60.267  86.870  1.00  0.00    -0.035 C 
ATOM     11  C   UNL     1      28.080  61.396  87.574  1.00  0.00     0.004 C 
ENDBRANCH   9  10
ENDBRANCH   8   9
ENDBRANCH   7   8
ENDBRANCH   1   7
TORSDOF 7
ENDMDL
MODEL 8
REMARK VINA RESULT:    -3.206     18.736     20.143
REMARK INTER + INTRA:          -4.757
REMARK INTER:                  -4.092
REMARK INTRA:                  -0.664
REMARK UNBOUND:                -0.238
REMARK SMILES C=CCCCCCCC(=O)[O-]
REMARK SMILES IDX 6 1 7 2 8 3 9 4 10 5 11 6 5 7 4 8 3 9 2 10 1 11
REMARK H PARENT
REMARK Flexibility Score: inf
ROOT
ATOM      1  C   UNL     1      28.321  57.159  87.107  1.00  0.00     0.000 C 
ENDROOT
BRANCH   1   2
ATOM      2  C   UNL     1      29.843  57.264  86.920  1.00  0.00     0.006 C 
BRANCH   2   3
ATOM      3  C   UNL     1      30.242  58.345  85.906  1.00  0.00     0.053 C 
BRANCH   3   4
ATOM      4  C   UNL     1      30.863  57.722  84.697  1.00  0.00     0.041 C 
ATOM      5  O   UNL     1      32.100  57.486  84.671  1.00  0.00    -0.550 OA
ATOM      6  O   UNL     1      30.086  57.446  83.579  1.00  0.00    -0.550 OA
ENDBRANCH   3   4
ENDBRANCH   2   3
ENDBRANCH   1   2
BRANCH   1   7
ATOM      7  C   UNL     1      27.866  57.584  88.511  1.00  0.00     0.000 C 
BRANCH   7   8
ATOM      8  C   UNL     1      27.202  58.968  88.478  1.00  0.00     0.004 C 
BRANCH   8   9
ATOM      9  C   UNL     1      26.834  59.399  87.049  1.00  0.00     0.027 C 
BRANCH   9  10
ATOM     10  C   UNL     1      27.402  60.747  86.693  1.00  0.00    -0.035 C 
ATOM     11  C   UNL     1      28.113  61.467  87.565  1.00  0.00     0.004 C 
ENDBRANCH   9  10
ENDBRANCH   8   9
ENDBRANCH   7   8
ENDBRANCH   1   7
TORSDOF 7
ENDMDL
MODEL 9
REMARK VINA RESULT:    -3.202     13.072     14.763
REMARK INTER + INTRA:          -4.751
REMARK INTER:                  -4.354
REMARK INTRA:                  -0.397
REMARK UNBOUND:                -0.238
REMARK SMILES C=CCCCCCCC(=O)[O-]
REMARK SMILES IDX 6 1 7 2 8 3 9 4 10 5 11 6 5 7 4 8 3 9 2 10 1 11
REMARK H PARENT
REMARK Flexibility Score: inf
ROOT
ATOM      1  C   UNL     1      25.204  62.899  76.588  1.00  0.00     0.000 C 
ENDROOT
BRANCH   1   2
ATOM      2  C   UNL     1      26.188  62.075  77.433  1.00  0.00     0.006 C 
BRANCH   2   3
ATOM      3  C   UNL     1      25.728  61.915  78.888  1.00  0.00     0.053 C 
BRANCH   3   4
ATOM      4  C   UNL     1      26.908  61.765  79.795  1.00  0.00     0.041 C 
ATOM      5  O   UNL     1      28.048  61.523  79.316  1.00  0.00    -0.550 OA
ATOM      6  O   UNL     1      26.742  61.842  81.172  1.00  0.00    -0.550 OA
ENDBRANCH   3   4
ENDBRANCH   2   3
ENDBRANCH   1   2
BRANCH   1   7
ATOM      7  C   UNL     1      24.529  64.021  77.392  1.00  0.00     0.000 C 
BRANCH   7   8
ATOM      8  C   UNL     1      24.494  65.328  76.587  1.00  0.00     0.004 C 
BRANCH   8   9
ATOM      9  C   UNL     1      25.590  65.375  75.511  1.00  0.00     0.027 C 
BRANCH   9  10
ATOM     10  C   UNL     1      26.415  66.632  75.587  1.00  0.00    -0.035 C 
ATOM     11  C   UNL     1      25.900  67.789  76.010  1.00  0.00     0.004 C 
ENDBRANCH   9  10
ENDBRANCH   8   9
ENDBRANCH   7   8
ENDBRANCH   1   7
TORSDOF 7
ENDMDL
