MODEL 1
REMARK VINA RESULT:    -4.318      0.000      0.000
REMARK INTER + INTRA:          -4.187
REMARK INTER:                  -6.085
REMARK INTRA:                   1.898
REMARK UNBOUND:                 1.898
REMARK SMILES CC1=CCC(=C(C)C)C(=O)CC(C)=CCC1
REMARK SMILES IDX 12 1 14 2 13 3 15 4 16 5 2 6 1 7 3 8 11 10 9 11 10 12 5 13
REMARK SMILES IDX 6 14 7 15 8 16 4 17
REMARK H PARENT
REMARK Flexibility Score: 60.00
ROOT
ATOM      1  C   UNL     1      15.004  -6.891  12.936  1.00  0.00    -0.070 C 
ATOM      2  C   UNL     1      16.343  -6.760  13.083  1.00  0.00    -0.027 C 
ATOM      3  C   UNL     1      14.109  -6.118  13.871  1.00  0.00     0.039 C 
ENDROOT
BRANCH   2   4
ATOM      4  C   UNL     1      17.385  -7.502  12.278  1.00  0.00     0.032 C 
BRANCH   4   5
ATOM      5  C   UNL     1      18.484  -8.087  13.177  1.00  0.00     0.034 C 
BRANCH   5   6
ATOM      6  C   UNL     1      18.083  -9.384  13.863  1.00  0.00    -0.077 C 
ATOM      7  C   UNL     1      18.723  -9.738  15.183  1.00  0.00     0.039 C 
ATOM      8  C   UNL     1      17.189 -10.256  13.344  1.00  0.00    -0.023 CG0
ATOM      9  G   UNL     1      16.395 -10.045  12.075  1.00  0.00     0.000 G0
ENDBRANCH   5   6
ENDBRANCH   4   5
ENDBRANCH   2   4
BRANCH   1  10
ATOM     10  C   UNL     1      14.373  -7.774  11.877  1.00  0.00     0.111 C 
BRANCH  10  11
ATOM     11  C   UNL     1      14.008  -9.119  12.439  1.00  0.00     0.163 C 
ATOM     12  O   UNL     1      12.943  -9.245  13.101  1.00  0.00    -0.294 OA
BRANCH  11  13
ATOM     13  C   UNL     1      14.891 -10.298  12.252  1.00  0.00    -0.002 C 
ATOM     14  C   UNL     1      14.365 -11.553  12.238  1.00  0.00    -0.069 C 
ATOM     15  C   UNL     1      15.240 -12.763  11.996  1.00  0.00     0.039 C 
ATOM     16  C   UNL     1      12.896 -11.790  12.506  1.00  0.00     0.039 C 
BRANCH  13  17
ATOM     17  C   UNL     1      16.390 -10.084  12.076  1.00  0.00     0.066 CG0
ATOM     18  G   UNL     1      17.180 -10.239  13.356  1.00  0.00     0.000 G0
ENDBRANCH  13  17
ENDBRANCH  11  13
ENDBRANCH  10  11
ENDBRANCH   1  10
TORSDOF 0
ENDMDL
MODEL 2
REMARK VINA RESULT:    -4.020      2.440      5.161
REMARK INTER + INTRA:          -3.768
REMARK INTER:                  -5.189
REMARK INTRA:                   1.421
REMARK UNBOUND:                 1.898
REMARK SMILES CC1=CCC(=C(C)C)C(=O)CC(C)=CCC1
REMARK SMILES IDX 12 1 14 2 13 3 15 4 16 5 2 6 1 7 3 8 11 10 9 11 10 12 5 13
REMARK SMILES IDX 6 14 7 15 8 16 4 17
REMARK H PARENT
REMARK Flexibility Score: 60.00
ROOT
ATOM      1  C   UNL     1      17.776  -9.182  13.396  1.00  0.00    -0.070 C 
ATOM      2  C   UNL     1      16.875 -10.192  13.358  1.00  0.00    -0.027 C 
ATOM      3  C   UNL     1      18.863  -9.239  14.438  1.00  0.00     0.039 C 
ENDROOT
BRANCH   2   4
ATOM      4  C   UNL     1      15.690 -10.268  12.423  1.00  0.00     0.032 C 
BRANCH   4   5
ATOM      5  C   UNL     1      15.312  -8.884  11.875  1.00  0.00     0.034 C 
BRANCH   5   6
ATOM      6  C   UNL     1      14.089  -8.276  12.546  1.00  0.00    -0.077 C 
ATOM      7  C   UNL     1      12.872  -9.141  12.761  1.00  0.00     0.039 C 
ATOM      8  C   UNL     1      14.023  -6.987  12.949  1.00  0.00    -0.023 CG0
ATOM      9  G   UNL     1      15.158  -5.990  12.883  1.00  0.00     0.000 G0
ENDBRANCH   5   6
ENDBRANCH   4   5
ENDBRANCH   2   4
BRANCH   1  10
ATOM     10  C   UNL     1      17.738  -8.007  12.437  1.00  0.00     0.111 C 
BRANCH  10  11
ATOM     11  C   UNL     1      17.622  -6.706  13.180  1.00  0.00     0.163 C 
ATOM     12  O   UNL     1      18.639  -5.971  13.304  1.00  0.00    -0.294 OA
BRANCH  11  13
ATOM     13  C   UNL     1      16.338  -6.280  13.792  1.00  0.00    -0.002 C 
ATOM     14  C   UNL     1      16.225  -6.173  15.144  1.00  0.00    -0.069 C 
ATOM     15  C   UNL     1      14.942  -5.690  15.784  1.00  0.00     0.039 C 
ATOM     16  C   UNL     1      17.361  -6.571  16.059  1.00  0.00     0.039 C 
BRANCH  13  17
ATOM     17  C   UNL     1      15.152  -5.965  12.888  1.00  0.00     0.066 CG0
ATOM     18  G   UNL     1      14.045  -6.993  12.958  1.00  0.00     0.000 G0
ENDBRANCH  13  17
ENDBRANCH  11  13
ENDBRANCH  10  11
ENDBRANCH   1  10
TORSDOF 0
ENDMDL
MODEL 3
REMARK VINA RESULT:    -3.743      1.522      2.053
REMARK INTER + INTRA:          -3.376
REMARK INTER:                  -5.721
REMARK INTRA:                   2.344
REMARK UNBOUND:                 1.898
REMARK SMILES CC1=CCC(=C(C)C)C(=O)CC(C)=CCC1
REMARK SMILES IDX 12 1 14 2 13 3 15 4 16 5 2 6 1 7 3 8 11 10 9 11 10 12 5 13
REMARK SMILES IDX 6 14 7 15 8 16 4 17
REMARK H PARENT
REMARK Flexibility Score: 60.00
ROOT
ATOM      1  C   UNL     1      15.402  -5.763  14.596  1.00  0.00    -0.070 C 
ATOM      2  C   UNL     1      16.077  -6.081  15.726  1.00  0.00    -0.027 C 
ATOM      3  C   UNL     1      14.074  -5.064  14.737  1.00  0.00     0.039 C 
ENDROOT
BRANCH   2   4
ATOM      4  C   UNL     1      17.387  -6.833  15.775  1.00  0.00     0.032 C 
BRANCH   4   5
ATOM      5  C   UNL     1      17.870  -7.221  14.369  1.00  0.00     0.034 C 
BRANCH   5   6
ATOM      6  C   UNL     1      18.055  -8.719  14.181  1.00  0.00    -0.077 C 
ATOM      7  C   UNL     1      18.775  -9.503  15.250  1.00  0.00     0.039 C 
ATOM      8  C   UNL     1      17.623  -9.392  13.090  1.00  0.00    -0.023 CG0
ATOM      9  G   UNL     1      16.825  -8.797  11.953  1.00  0.00     0.000 G0
ENDBRANCH   5   6
ENDBRANCH   4   5
ENDBRANCH   2   4
BRANCH   1  10
ATOM     10  C   UNL     1      15.924  -6.075  13.207  1.00  0.00     0.111 C 
BRANCH  10  11
ATOM     11  C   UNL     1      15.012  -7.028  12.487  1.00  0.00     0.163 C 
ATOM     12  O   UNL     1      13.907  -6.612  12.045  1.00  0.00    -0.294 OA
BRANCH  11  13
ATOM     13  C   UNL     1      15.376  -8.455  12.306  1.00  0.00    -0.002 C 
ATOM     14  C   UNL     1      14.439  -9.429  12.468  1.00  0.00    -0.069 C 
ATOM     15  C   UNL     1      14.778 -10.885  12.238  1.00  0.00     0.039 C 
ATOM     16  C   UNL     1      13.037  -9.096  12.926  1.00  0.00     0.039 C 
BRANCH  13  17
ATOM     17  C   UNL     1      16.812  -8.816  11.938  1.00  0.00     0.066 CG0
ATOM     18  G   UNL     1      17.613  -9.376  13.091  1.00  0.00     0.000 G0
ENDBRANCH  13  17
ENDBRANCH  11  13
ENDBRANCH  10  11
ENDBRANCH   1  10
TORSDOF 0
ENDMDL
MODEL 4
REMARK VINA RESULT:    -2.811      3.429      6.134
REMARK INTER + INTRA:          -2.063
REMARK INTER:                  -3.052
REMARK INTRA:                   0.989
REMARK UNBOUND:                 1.898
REMARK SMILES CC1=CCC(=C(C)C)C(=O)CC(C)=CCC1
REMARK SMILES IDX 12 1 14 2 13 3 15 4 16 5 2 6 1 7 3 8 11 10 9 11 10 12 5 13
REMARK SMILES IDX 6 14 7 15 8 16 4 17
REMARK H PARENT
REMARK Flexibility Score: 60.00
ROOT
ATOM      1  C   UNL     1      17.186  -7.886  13.521  1.00  0.00    -0.070 C 
ATOM      2  C   UNL     1      16.387  -7.963  12.431  1.00  0.00    -0.027 C 
ATOM      3  C   UNL     1      17.893  -9.137  13.973  1.00  0.00     0.039 C 
ENDROOT
BRANCH   2   4
ATOM      4  C   UNL     1      15.558  -6.828  11.875  1.00  0.00     0.032 C 
BRANCH   4   5
ATOM      5  C   UNL     1      14.291  -6.591  12.710  1.00  0.00     0.034 C 
BRANCH   5   6
ATOM      6  C   UNL     1      14.226  -5.208  13.339  1.00  0.00    -0.077 C 
ATOM      7  C   UNL     1      13.983  -4.014  12.449  1.00  0.00     0.039 C 
ATOM      8  C   UNL     1      14.393  -4.982  14.662  1.00  0.00    -0.023 CG0
ATOM      9  G   UNL     1      14.575  -6.050  15.716  1.00  0.00     0.000 G0
ENDBRANCH   5   6
ENDBRANCH   4   5
ENDBRANCH   2   4
BRANCH   1  10
ATOM     10  C   UNL     1      17.399  -6.600  14.297  1.00  0.00     0.111 C 
BRANCH  10  11
ATOM     11  C   UNL     1      17.066  -6.783  15.751  1.00  0.00     0.163 C 
ATOM     12  O   UNL     1      17.729  -7.605  16.439  1.00  0.00    -0.294 OA
BRANCH  11  13
ATOM     13  C   UNL     1      15.954  -6.033  16.387  1.00  0.00    -0.002 C 
ATOM     14  C   UNL     1      16.163  -5.344  17.542  1.00  0.00    -0.069 C 
ATOM     15  C   UNL     1      15.058  -4.532  18.178  1.00  0.00     0.039 C 
ATOM     16  C   UNL     1      17.496  -5.400  18.256  1.00  0.00     0.039 C 
BRANCH  13  17
ATOM     17  C   UNL     1      14.577  -6.045  15.732  1.00  0.00     0.066 CG0
ATOM     18  G   UNL     1      14.394  -4.971  14.684  1.00  0.00     0.000 G0
ENDBRANCH  13  17
ENDBRANCH  11  13
ENDBRANCH  10  11
ENDBRANCH   1  10
TORSDOF 0
ENDMDL
MODEL 5
REMARK VINA RESULT:    -2.651      2.013      3.898
REMARK INTER + INTRA:          -1.837
REMARK INTER:                  -4.662
REMARK INTRA:                   2.825
REMARK UNBOUND:                 1.898
REMARK SMILES CC1=CCC(=C(C)C)C(=O)CC(C)=CCC1
REMARK SMILES IDX 12 1 14 2 13 3 15 4 16 5 2 6 1 7 3 8 11 10 9 11 10 12 5 13
REMARK SMILES IDX 6 14 7 15 8 16 4 17
REMARK H PARENT
REMARK Flexibility Score: 60.00
ROOT
ATOM      1  C   UNL     1      18.036  -8.860  14.853  1.00  0.00    -0.070 C 
ATOM      2  C   UNL     1      17.693  -7.635  15.317  1.00  0.00    -0.027 C 
ATOM      3  C   UNL     1      18.328  -9.943  15.859  1.00  0.00     0.039 C 
ENDROOT
BRANCH   2   4
ATOM      4  C   UNL     1      17.426  -6.421  14.456  1.00  0.00     0.032 C 
BRANCH   4   5
ATOM      5  C   UNL     1      15.969  -5.951  14.576  1.00  0.00     0.034 C 
BRANCH   5   6
ATOM      6  C   UNL     1      15.258  -5.825  13.237  1.00  0.00    -0.077 C 
ATOM      7  C   UNL     1      15.301  -4.503  12.512  1.00  0.00     0.039 C 
ATOM      8  C   UNL     1      14.568  -6.836  12.662  1.00  0.00    -0.023 CG0
ATOM      9  G   UNL     1      14.470  -8.246  13.198  1.00  0.00     0.000 G0
ENDBRANCH   5   6
ENDBRANCH   4   5
ENDBRANCH   2   4
BRANCH   1  10
ATOM     10  C   UNL     1      18.133  -9.184  13.375  1.00  0.00     0.111 C 
BRANCH  10  11
ATOM     11  C   UNL     1      16.981  -8.591  12.613  1.00  0.00     0.163 C 
ATOM     12  O   UNL     1      17.177  -7.589  11.875  1.00  0.00    -0.294 OA
BRANCH  11  13
ATOM     13  C   UNL     1      15.610  -9.149  12.733  1.00  0.00    -0.002 C 
ATOM     14  C   UNL     1      15.371 -10.453  12.429  1.00  0.00    -0.069 C 
ATOM     15  C   UNL     1      13.992 -11.053  12.594  1.00  0.00     0.039 C 
ATOM     16  C   UNL     1      16.463 -11.341  11.876  1.00  0.00     0.039 C 
BRANCH  13  17
ATOM     17  C   UNL     1      14.476  -8.241  13.198  1.00  0.00     0.066 CG0
ATOM     18  G   UNL     1      14.553  -6.838  12.640  1.00  0.00     0.000 G0
ENDBRANCH  13  17
ENDBRANCH  11  13
ENDBRANCH  10  11
ENDBRANCH   1  10
TORSDOF 0
ENDMDL
MODEL 6
REMARK VINA RESULT:    -2.542      3.433      5.188
REMARK INTER + INTRA:          -1.683
REMARK INTER:                  -3.359
REMARK INTRA:                   1.675
REMARK UNBOUND:                 1.898
REMARK SMILES CC1=CCC(=C(C)C)C(=O)CC(C)=CCC1
REMARK SMILES IDX 12 1 14 2 13 3 15 4 16 5 2 6 1 7 3 8 11 10 9 11 10 12 5 13
REMARK SMILES IDX 6 14 7 15 8 16 4 17
REMARK H PARENT
REMARK Flexibility Score: 60.00
ROOT
ATOM      1  C   UNL     1      17.940  -8.664  14.252  1.00  0.00    -0.070 C 
ATOM      2  C   UNL     1      18.803  -8.357  13.255  1.00  0.00    -0.027 C 
ATOM      3  C   UNL     1      18.388  -9.652  15.299  1.00  0.00     0.039 C 
ENDROOT
BRANCH   2   4
ATOM      4  C   UNL     1      18.501  -7.438  12.093  1.00  0.00     0.032 C 
BRANCH   4   5
ATOM      5  C   UNL     1      19.622  -6.410  11.878  1.00  0.00     0.034 C 
BRANCH   5   6
ATOM      6  C   UNL     1      19.161  -4.968  12.021  1.00  0.00    -0.077 C 
ATOM      7  C   UNL     1      20.199  -3.877  12.108  1.00  0.00     0.039 C 
ATOM      8  C   UNL     1      17.860  -4.605  12.093  1.00  0.00    -0.023 CG0
ATOM      9  G   UNL     1      16.681  -5.541  11.955  1.00  0.00     0.000 G0
ENDBRANCH   5   6
ENDBRANCH   4   5
ENDBRANCH   2   4
BRANCH   1  10
ATOM     10  C   UNL     1      16.554  -8.058  14.359  1.00  0.00     0.111 C 
BRANCH  10  11
ATOM     11  C   UNL     1      16.618  -6.556  14.352  1.00  0.00     0.163 C 
ATOM     12  O   UNL     1      17.240  -5.959  15.272  1.00  0.00    -0.294 OA
BRANCH  11  13
ATOM     13  C   UNL     1      15.944  -5.760  13.295  1.00  0.00    -0.002 C 
ATOM     14  C   UNL     1      14.702  -5.247  13.511  1.00  0.00    -0.069 C 
ATOM     15  C   UNL     1      14.019  -4.391  12.468  1.00  0.00     0.039 C 
ATOM     16  C   UNL     1      13.941  -5.548  14.783  1.00  0.00     0.039 C 
BRANCH  13  17
ATOM     17  C   UNL     1      16.658  -5.528  11.968  1.00  0.00     0.066 CG0
ATOM     18  G   UNL     1      17.849  -4.603  12.073  1.00  0.00     0.000 G0
ENDBRANCH  13  17
ENDBRANCH  11  13
ENDBRANCH  10  11
ENDBRANCH   1  10
TORSDOF 0
ENDMDL
MODEL 7
REMARK VINA RESULT:    -2.138      3.068      4.370
REMARK INTER + INTRA:          -1.115
REMARK INTER:                  -3.586
REMARK INTRA:                   2.471
REMARK UNBOUND:                 1.898
REMARK SMILES CC1=CCC(=C(C)C)C(=O)CC(C)=CCC1
REMARK SMILES IDX 12 1 14 2 13 3 15 4 16 5 2 6 1 7 3 8 11 10 9 11 10 12 5 13
REMARK SMILES IDX 6 14 7 15 8 16 4 17
REMARK H PARENT
REMARK Flexibility Score: 60.00
ROOT
ATOM      1  C   UNL     1      17.371  -5.211  12.062  1.00  0.00    -0.070 C 
ATOM      2  C   UNL     1      18.145  -6.321  12.064  1.00  0.00    -0.027 C 
ATOM      3  C   UNL     1      18.047  -3.875  11.888  1.00  0.00     0.039 C 
ENDROOT
BRANCH   2   4
ATOM      4  C   UNL     1      17.646  -7.731  12.285  1.00  0.00     0.032 C 
BRANCH   4   5
ATOM      5  C   UNL     1      18.637  -8.557  13.119  1.00  0.00     0.034 C 
BRANCH   5   6
ATOM      6  C   UNL     1      18.148  -8.851  14.529  1.00  0.00    -0.077 C 
ATOM      7  C   UNL     1      18.261 -10.258  15.061  1.00  0.00     0.039 C 
ATOM      8  C   UNL     1      17.597  -7.916  15.336  1.00  0.00    -0.023 CG0
ATOM      9  G   UNL     1      17.463  -6.446  15.010  1.00  0.00     0.000 G0
ENDBRANCH   5   6
ENDBRANCH   4   5
ENDBRANCH   2   4
BRANCH   1  10
ATOM     10  C   UNL     1      15.863  -5.256  12.222  1.00  0.00     0.111 C 
BRANCH  10  11
ATOM     11  C   UNL     1      15.465  -6.184  13.335  1.00  0.00     0.163 C 
ATOM     12  O   UNL     1      14.641  -7.110  13.103  1.00  0.00    -0.294 OA
BRANCH  11  13
ATOM     13  C   UNL     1      16.004  -6.018  14.708  1.00  0.00    -0.002 C 
ATOM     14  C   UNL     1      15.223  -5.498  15.694  1.00  0.00    -0.069 C 
ATOM     15  C   UNL     1      15.737  -5.369  17.110  1.00  0.00     0.039 C 
ATOM     16  C   UNL     1      13.828  -4.993  15.402  1.00  0.00     0.039 C 
BRANCH  13  17
ATOM     17  C   UNL     1      17.442  -6.434  14.997  1.00  0.00     0.066 CG0
ATOM     18  G   UNL     1      17.596  -7.902  15.327  1.00  0.00     0.000 G0
ENDBRANCH  13  17
ENDBRANCH  11  13
ENDBRANCH  10  11
ENDBRANCH   1  10
TORSDOF 0
ENDMDL
MODEL 8
REMARK VINA RESULT:    -1.995      3.143      5.533
REMARK INTER + INTRA:          -0.914
REMARK INTER:                  -3.501
REMARK INTRA:                   2.587
REMARK UNBOUND:                 1.898
REMARK SMILES CC1=CCC(=C(C)C)C(=O)CC(C)=CCC1
REMARK SMILES IDX 12 1 14 2 13 3 15 4 16 5 2 6 1 7 3 8 11 10 9 11 10 12 5 13
REMARK SMILES IDX 6 14 7 15 8 16 4 17
REMARK H PARENT
REMARK Flexibility Score: 60.00
ROOT
ATOM      1  C   UNL     1      17.908  -8.211  14.829  1.00  0.00    -0.070 C 
ATOM      2  C   UNL     1      17.782  -7.131  15.636  1.00  0.00    -0.027 C 
ATOM      3  C   UNL     1      18.928  -9.257  15.199  1.00  0.00     0.039 C 
ENDROOT
BRANCH   2   4
ATOM      4  C   UNL     1      16.857  -5.962  15.387  1.00  0.00     0.032 C 
BRANCH   4   5
ATOM      5  C   UNL     1      15.400  -6.312  15.721  1.00  0.00     0.034 C 
BRANCH   5   6
ATOM      6  C   UNL     1      14.384  -5.448  14.987  1.00  0.00    -0.077 C 
ATOM      7  C   UNL     1      13.651  -4.376  15.755  1.00  0.00     0.039 C 
ATOM      8  C   UNL     1      14.083  -5.601  13.678  1.00  0.00    -0.023 CG0
ATOM      9  G   UNL     1      14.757  -6.569  12.732  1.00  0.00     0.000 G0
ENDBRANCH   5   6
ENDBRANCH   4   5
ENDBRANCH   2   4
BRANCH   1  10
ATOM     10  C   UNL     1      17.069  -8.411  13.582  1.00  0.00     0.111 C 
BRANCH  10  11
ATOM     11  C   UNL     1      17.261  -7.278  12.613  1.00  0.00     0.163 C 
ATOM     12  O   UNL     1      18.323  -7.216  11.936  1.00  0.00    -0.294 OA
BRANCH  11  13
ATOM     13  C   UNL     1      16.236  -6.216  12.456  1.00  0.00    -0.002 C 
ATOM     14  C   UNL     1      16.601  -4.957  12.091  1.00  0.00    -0.069 C 
ATOM     15  C   UNL     1      15.567  -3.875  11.876  1.00  0.00     0.039 C 
ATOM     16  C   UNL     1      18.057  -4.581  11.929  1.00  0.00     0.039 C 
BRANCH  13  17
ATOM     17  C   UNL     1      14.771  -6.554  12.709  1.00  0.00     0.066 CG0
ATOM     18  G   UNL     1      14.096  -5.631  13.698  1.00  0.00     0.000 G0
ENDBRANCH  13  17
ENDBRANCH  11  13
ENDBRANCH  10  11
ENDBRANCH   1  10
TORSDOF 0
ENDMDL
MODEL 9
REMARK VINA RESULT:    -1.617      2.366      4.265
REMARK INTER + INTRA:          -0.381
REMARK INTER:                  -3.075
REMARK INTRA:                   2.695
REMARK UNBOUND:                 1.898
REMARK SMILES CC1=CCC(=C(C)C)C(=O)CC(C)=CCC1
REMARK SMILES IDX 12 1 14 2 13 3 15 4 16 5 2 6 1 7 3 8 11 10 9 11 10 12 5 13
REMARK SMILES IDX 6 14 7 15 8 16 4 17
REMARK H PARENT
REMARK Flexibility Score: 60.00
ROOT
ATOM      1  C   UNL     1      15.640  -5.776  15.514  1.00  0.00    -0.070 C 
ATOM      2  C   UNL     1      14.327  -5.474  15.375  1.00  0.00    -0.027 C 
ATOM      3  C   UNL     1      16.189  -5.926  16.910  1.00  0.00     0.039 C 
ENDROOT
BRANCH   2   4
ATOM      4  C   UNL     1      13.625  -5.228  14.059  1.00  0.00     0.032 C 
BRANCH   4   5
ATOM      5  C   UNL     1      14.339  -5.931  12.896  1.00  0.00     0.034 C 
BRANCH   5   6
ATOM      6  C   UNL     1      13.971  -7.401  12.755  1.00  0.00    -0.077 C 
ATOM      7  C   UNL     1      12.528  -7.808  12.915  1.00  0.00     0.039 C 
ATOM      8  C   UNL     1      14.877  -8.375  12.511  1.00  0.00    -0.023 CG0
ATOM      9  G   UNL     1      16.350  -8.157  12.252  1.00  0.00     0.000 G0
ENDBRANCH   5   6
ENDBRANCH   4   5
ENDBRANCH   2   4
BRANCH   1  10
ATOM     10  C   UNL     1      16.571  -5.970  14.333  1.00  0.00     0.111 C 
BRANCH  10  11
ATOM     11  C   UNL     1      17.375  -7.232  14.479  1.00  0.00     0.163 C 
ATOM     12  O   UNL     1      18.209  -7.328  15.420  1.00  0.00    -0.294 OA
BRANCH  11  13
ATOM     13  C   UNL     1      17.224  -8.357  13.523  1.00  0.00    -0.002 C 
ATOM     14  C   UNL     1      17.839  -9.548  13.762  1.00  0.00    -0.069 C 
ATOM     15  C   UNL     1      17.655 -10.723  12.827  1.00  0.00     0.039 C 
ATOM     16  C   UNL     1      18.762  -9.728  14.946  1.00  0.00     0.039 C 
BRANCH  13  17
ATOM     17  C   UNL     1      16.373  -8.162  12.273  1.00  0.00     0.066 CG0
ATOM     18  G   UNL     1      14.892  -8.351  12.510  1.00  0.00     0.000 G0
ENDBRANCH  13  17
ENDBRANCH  11  13
ENDBRANCH  10  11
ENDBRANCH   1  10
TORSDOF 0
ENDMDL
