MODEL 1
REMARK VINA RESULT:    -5.154      0.000      0.000
REMARK INTER + INTRA:          -5.756
REMARK INTER:                  -5.756
REMARK INTRA:                   0.000
REMARK UNBOUND:                 0.000
REMARK SMILES Oc1cc(O)c2c(c1)CCc1cc(O)c(O)cc1-2
REMARK SMILES IDX 10 1 9 2 7 3 6 4 18 5 17 6 15 7 13 8 12 9 11 10 4 11 3 12
REMARK SMILES IDX 2 13 8 14 14 15 5 17 1 19 16 21
REMARK H PARENT 14 16 5 18 1 20 16 22
REMARK Flexibility Score: inf
ROOT
ATOM      1  C   UNL     1      34.496 -40.295   9.954  1.00  0.00     0.041 C 
ATOM      2  C   UNL     1      34.752 -39.380   8.751  1.00  0.00     0.041 C 
ATOM      3  C   UNL     1      33.880 -38.151   8.825  1.00  0.00    -0.032 A 
ATOM      4  C   UNL     1      33.587 -37.564  10.081  1.00  0.00     0.027 A 
ATOM      5  C   UNL     1      34.194 -38.180  11.304  1.00  0.00    -0.007 A 
ATOM      6  C   UNL     1      34.430 -37.448  12.485  1.00  0.00     0.059 A 
ATOM      7  C   UNL     1      34.995 -38.065  13.610  1.00  0.00     0.158 A 
ATOM      8  C   UNL     1      35.356 -39.415  13.559  1.00  0.00     0.157 A 
ATOM      9  C   UNL     1      35.180 -40.139  12.375  1.00  0.00     0.054 A 
ATOM     10  C   UNL     1      34.635 -39.521  11.241  1.00  0.00    -0.036 A 
ATOM     11  C   UNL     1      32.684 -36.473  10.127  1.00  0.00     0.127 A 
ATOM     12  C   UNL     1      32.200 -35.915   8.935  1.00  0.00     0.093 A 
ATOM     13  C   UNL     1      32.557 -36.454   7.699  1.00  0.00     0.119 A 
ATOM     14  C   UNL     1      33.389 -37.574   7.645  1.00  0.00     0.050 A 
ENDROOT
BRANCH   8  15
ATOM     15  O   UNL     1      35.901 -40.027  14.686  1.00  0.00    -0.504 OA
ATOM     16  H   UNL     1      36.071 -39.511  15.541  1.00  0.00     0.293 HD
ENDBRANCH   8  15
BRANCH  11  17
ATOM     17  O   UNL     1      32.229 -35.966  11.343  1.00  0.00    -0.507 OA
ATOM     18  H   UNL     1      31.955 -34.996  11.449  1.00  0.00     0.293 HD
ENDBRANCH  11  17
BRANCH  13  19
ATOM     19  O   UNL     1      32.068 -35.875   6.530  1.00  0.00    -0.508 OA
ATOM     20  H   UNL     1      31.270 -35.250   6.542  1.00  0.00     0.293 HD
ENDBRANCH  13  19
BRANCH   7  21
ATOM     21  O   UNL     1      35.207 -37.339  14.780  1.00  0.00    -0.504 OA
ATOM     22  H   UNL     1      34.804 -36.419  14.915  1.00  0.00     0.293 HD
ENDBRANCH   7  21
TORSDOF 4
ENDMDL
MODEL 2
REMARK VINA RESULT:    -4.893      2.935      4.951
REMARK INTER + INTRA:          -5.466
REMARK INTER:                  -5.466
REMARK INTRA:                   0.000
REMARK UNBOUND:                 0.000
REMARK SMILES Oc1cc(O)c2c(c1)CCc1cc(O)c(O)cc1-2
REMARK SMILES IDX 10 1 9 2 7 3 6 4 18 5 17 6 15 7 13 8 12 9 11 10 4 11 3 12
REMARK SMILES IDX 2 13 8 14 14 15 5 17 1 19 16 21
REMARK H PARENT 14 16 5 18 1 20 16 22
REMARK Flexibility Score: inf
ROOT
ATOM      1  C   UNL     1      30.827 -36.616   6.696  1.00  0.00     0.041 C 
ATOM      2  C   UNL     1      31.311 -37.528   5.563  1.00  0.00     0.041 C 
ATOM      3  C   UNL     1      32.740 -37.206   5.198  1.00  0.00    -0.032 A 
ATOM      4  C   UNL     1      33.658 -36.819   6.204  1.00  0.00     0.027 A 
ATOM      5  C   UNL     1      33.174 -36.775   7.620  1.00  0.00    -0.007 A 
ATOM      6  C   UNL     1      34.038 -36.930   8.724  1.00  0.00     0.059 A 
ATOM      7  C   UNL     1      33.544 -36.878  10.034  1.00  0.00     0.158 A 
ATOM      8  C   UNL     1      32.175 -36.696  10.258  1.00  0.00     0.157 A 
ATOM      9  C   UNL     1      31.298 -36.599   9.172  1.00  0.00     0.054 A 
ATOM     10  C   UNL     1      31.785 -36.672   7.859  1.00  0.00    -0.036 A 
ATOM     11  C   UNL     1      34.963 -36.425   5.816  1.00  0.00     0.127 A 
ATOM     12  C   UNL     1      35.362 -36.544   4.478  1.00  0.00     0.093 A 
ATOM     13  C   UNL     1      34.471 -37.002   3.507  1.00  0.00     0.119 A 
ATOM     14  C   UNL     1      33.160 -37.324   3.865  1.00  0.00     0.050 A 
ENDROOT
BRANCH   8  15
ATOM     15  O   UNL     1      31.692 -36.627  11.564  1.00  0.00    -0.504 OA
ATOM     16  H   UNL     1      31.710 -35.763  12.091  1.00  0.00     0.293 HD
ENDBRANCH   8  15
BRANCH  11  17
ATOM     17  O   UNL     1      35.852 -35.875   6.739  1.00  0.00    -0.507 OA
ATOM     18  H   UNL     1      35.539 -35.512   7.632  1.00  0.00     0.293 HD
ENDBRANCH  11  17
BRANCH  13  19
ATOM     19  O   UNL     1      34.895 -37.119   2.185  1.00  0.00    -0.508 OA
ATOM     20  H   UNL     1      35.343 -36.348   1.702  1.00  0.00     0.293 HD
ENDBRANCH  13  19
BRANCH   7  21
ATOM     21  O   UNL     1      34.407 -37.012  11.119  1.00  0.00    -0.504 OA
ATOM     22  H   UNL     1      34.933 -37.864  11.276  1.00  0.00     0.293 HD
ENDBRANCH   7  21
TORSDOF 4
ENDMDL
MODEL 3
REMARK VINA RESULT:    -4.864      4.001      7.376
REMARK INTER + INTRA:          -5.432
REMARK INTER:                  -5.432
REMARK INTRA:                   0.000
REMARK UNBOUND:                 0.000
REMARK SMILES Oc1cc(O)c2c(c1)CCc1cc(O)c(O)cc1-2
REMARK SMILES IDX 10 1 9 2 7 3 6 4 18 5 17 6 15 7 13 8 12 9 11 10 4 11 3 12
REMARK SMILES IDX 2 13 8 14 14 15 5 17 1 19 16 21
REMARK H PARENT 14 16 5 18 1 20 16 22
REMARK Flexibility Score: inf
ROOT
ATOM      1  C   UNL     1      35.246 -35.950   6.500  1.00  0.00     0.041 C 
ATOM      2  C   UNL     1      34.725 -36.759   7.693  1.00  0.00     0.041 C 
ATOM      3  C   UNL     1      33.217 -36.742   7.727  1.00  0.00    -0.032 A 
ATOM      4  C   UNL     1      32.480 -36.758   6.518  1.00  0.00     0.027 A 
ATOM      5  C   UNL     1      33.243 -36.824   5.230  1.00  0.00    -0.007 A 
ATOM      6  C   UNL     1      32.693 -37.360   4.049  1.00  0.00     0.059 A 
ATOM      7  C   UNL     1      33.439 -37.398   2.863  1.00  0.00     0.158 A 
ATOM      8  C   UNL     1      34.755 -36.926   2.850  1.00  0.00     0.157 A 
ATOM      9  C   UNL     1      35.334 -36.445   4.030  1.00  0.00     0.054 A 
ATOM     10  C   UNL     1      34.598 -36.423   5.223  1.00  0.00    -0.036 A 
ATOM     11  C   UNL     1      31.070 -36.638   6.580  1.00  0.00     0.127 A 
ATOM     12  C   UNL     1      30.422 -36.636   7.823  1.00  0.00     0.093 A 
ATOM     13  C   UNL     1      31.154 -36.701   9.009  1.00  0.00     0.119 A 
ATOM     14  C   UNL     1      32.550 -36.745   8.961  1.00  0.00     0.050 A 
ENDROOT
BRANCH   8  15
ATOM     15  O   UNL     1      35.487 -36.950   1.664  1.00  0.00    -0.504 OA
ATOM     16  H   UNL     1      36.476 -37.168   1.655  1.00  0.00     0.293 HD
ENDBRANCH   8  15
BRANCH  11  17
ATOM     17  O   UNL     1      30.310 -36.478   5.423  1.00  0.00    -0.507 OA
ATOM     18  H   UNL     1      30.715 -36.576   4.499  1.00  0.00     0.293 HD
ENDBRANCH  11  17
BRANCH  13  19
ATOM     19  O   UNL     1      30.485 -36.705  10.231  1.00  0.00    -0.508 OA
ATOM     20  H   UNL     1      30.973 -36.533  11.102  1.00  0.00     0.293 HD
ENDBRANCH  13  19
BRANCH   7  21
ATOM     21  O   UNL     1      32.881 -37.912   1.695  1.00  0.00    -0.504 OA
ATOM     22  H   UNL     1      32.739 -37.333   0.875  1.00  0.00     0.293 HD
ENDBRANCH   7  21
TORSDOF 4
ENDMDL
MODEL 4
REMARK VINA RESULT:    -4.734     12.032     14.176
REMARK INTER + INTRA:          -5.287
REMARK INTER:                  -5.287
REMARK INTRA:                   0.000
REMARK UNBOUND:                 0.000
REMARK SMILES Oc1cc(O)c2c(c1)CCc1cc(O)c(O)cc1-2
REMARK SMILES IDX 10 1 9 2 7 3 6 4 18 5 17 6 15 7 13 8 12 9 11 10 4 11 3 12
REMARK SMILES IDX 2 13 8 14 14 15 5 17 1 19 16 21
REMARK H PARENT 14 16 5 18 1 20 16 22
REMARK Flexibility Score: inf
ROOT
ATOM      1  C   UNL     1      35.933 -40.259   0.172  1.00  0.00     0.041 C 
ATOM      2  C   UNL     1      36.723 -38.946   0.119  1.00  0.00     0.041 C 
ATOM      3  C   UNL     1      37.474 -38.831  -1.185  1.00  0.00    -0.032 A 
ATOM      4  C   UNL     1      36.902 -39.333  -2.379  1.00  0.00     0.027 A 
ATOM      5  C   UNL     1      35.535 -39.940  -2.303  1.00  0.00    -0.007 A 
ATOM      6  C   UNL     1      34.662 -39.986  -3.409  1.00  0.00     0.059 A 
ATOM      7  C   UNL     1      33.393 -40.568  -3.297  1.00  0.00     0.158 A 
ATOM      8  C   UNL     1      32.968 -41.088  -2.070  1.00  0.00     0.157 A 
ATOM      9  C   UNL     1      33.800 -40.997  -0.949  1.00  0.00     0.054 A 
ATOM     10  C   UNL     1      35.064 -40.397  -1.052  1.00  0.00    -0.036 A 
ATOM     11  C   UNL     1      37.674 -39.303  -3.567  1.00  0.00     0.127 A 
ATOM     12  C   UNL     1      38.925 -38.670  -3.572  1.00  0.00     0.093 A 
ATOM     13  C   UNL     1      39.445 -38.108  -2.406  1.00  0.00     0.119 A 
ATOM     14  C   UNL     1      38.724 -38.196  -1.213  1.00  0.00     0.050 A 
ENDROOT
BRANCH   8  15
ATOM     15  O   UNL     1      31.711 -41.681  -1.969  1.00  0.00    -0.504 OA
ATOM     16  H   UNL     1      31.467 -42.279  -1.189  1.00  0.00     0.293 HD
ENDBRANCH   8  15
BRANCH  11  17
ATOM     17  O   UNL     1      37.232 -39.934  -4.729  1.00  0.00    -0.507 OA
ATOM     18  H   UNL     1      36.256 -39.927  -5.002  1.00  0.00     0.293 HD
ENDBRANCH  11  17
BRANCH  13  19
ATOM     19  O   UNL     1      40.687 -37.477  -2.441  1.00  0.00    -0.508 OA
ATOM     20  H   UNL     1      41.386 -37.722  -3.133  1.00  0.00     0.293 HD
ENDBRANCH  13  19
BRANCH   7  21
ATOM     21  O   UNL     1      32.544 -40.627  -4.400  1.00  0.00    -0.504 OA
ATOM     22  H   UNL     1      32.736 -41.238  -5.186  1.00  0.00     0.293 HD
ENDBRANCH   7  21
TORSDOF 4
ENDMDL
MODEL 5
REMARK VINA RESULT:    -4.730      3.641      6.954
REMARK INTER + INTRA:          -5.283
REMARK INTER:                  -5.283
REMARK INTRA:                   0.000
REMARK UNBOUND:                 0.000
REMARK SMILES Oc1cc(O)c2c(c1)CCc1cc(O)c(O)cc1-2
REMARK SMILES IDX 10 1 9 2 7 3 6 4 18 5 17 6 15 7 13 8 12 9 11 10 4 11 3 12
REMARK SMILES IDX 2 13 8 14 14 15 5 17 1 19 16 21
REMARK H PARENT 14 16 5 18 1 20 16 22
REMARK Flexibility Score: inf
ROOT
ATOM      1  C   UNL     1      30.686 -37.799   5.474  1.00  0.00     0.041 C 
ATOM      2  C   UNL     1      30.149 -36.793   6.498  1.00  0.00     0.041 C 
ATOM      3  C   UNL     1      31.118 -36.633   7.643  1.00  0.00    -0.032 A 
ATOM      4  C   UNL     1      32.513 -36.685   7.404  1.00  0.00     0.027 A 
ATOM      5  C   UNL     1      32.978 -36.868   5.992  1.00  0.00    -0.007 A 
ATOM      6  C   UNL     1      34.239 -36.425   5.544  1.00  0.00     0.059 A 
ATOM      7  C   UNL     1      34.638 -36.622   4.216  1.00  0.00     0.158 A 
ATOM      8  C   UNL     1      33.770 -37.239   3.309  1.00  0.00     0.157 A 
ATOM      9  C   UNL     1      32.493 -37.631   3.724  1.00  0.00     0.054 A 
ATOM     10  C   UNL     1      32.081 -37.419   5.048  1.00  0.00    -0.036 A 
ATOM     11  C   UNL     1      33.394 -36.634   8.512  1.00  0.00     0.127 A 
ATOM     12  C   UNL     1      32.888 -36.406   9.799  1.00  0.00     0.093 A 
ATOM     13  C   UNL     1      31.515 -36.278  10.012  1.00  0.00     0.119 A 
ATOM     14  C   UNL     1      30.631 -36.399   8.937  1.00  0.00     0.050 A 
ENDROOT
BRANCH   8  15
ATOM     15  O   UNL     1      34.179 -37.447   1.993  1.00  0.00    -0.504 OA
ATOM     16  H   UNL     1      34.849 -36.835   1.542  1.00  0.00     0.293 HD
ENDBRANCH   8  15
BRANCH  11  17
ATOM     17  O   UNL     1      34.762 -36.851   8.353  1.00  0.00    -0.507 OA
ATOM     18  H   UNL     1      35.197 -36.875   7.438  1.00  0.00     0.293 HD
ENDBRANCH  11  17
BRANCH  13  19
ATOM     19  O   UNL     1      31.039 -36.044  11.301  1.00  0.00    -0.508 OA
ATOM     20  H   UNL     1      30.558 -36.765  11.827  1.00  0.00     0.293 HD
ENDBRANCH  13  19
BRANCH   7  21
ATOM     21  O   UNL     1      35.894 -36.198   3.786  1.00  0.00    -0.504 OA
ATOM     22  H   UNL     1      36.176 -35.226   3.845  1.00  0.00     0.293 HD
ENDBRANCH   7  21
TORSDOF 4
ENDMDL
MODEL 6
REMARK VINA RESULT:    -4.722     12.480     15.117
REMARK INTER + INTRA:          -5.274
REMARK INTER:                  -5.274
REMARK INTRA:                   0.000
REMARK UNBOUND:                 0.000
REMARK SMILES Oc1cc(O)c2c(c1)CCc1cc(O)c(O)cc1-2
REMARK SMILES IDX 10 1 9 2 7 3 6 4 18 5 17 6 15 7 13 8 12 9 11 10 4 11 3 12
REMARK SMILES IDX 2 13 8 14 14 15 5 17 1 19 16 21
REMARK H PARENT 14 16 5 18 1 20 16 22
REMARK Flexibility Score: inf
ROOT
ATOM      1  C   UNL     1      36.740 -39.802  -0.677  1.00  0.00     0.041 C 
ATOM      2  C   UNL     1      37.903 -39.135  -1.420  1.00  0.00     0.041 C 
ATOM      3  C   UNL     1      38.309 -39.958  -2.618  1.00  0.00    -0.032 A 
ATOM      4  C   UNL     1      37.326 -40.650  -3.368  1.00  0.00     0.027 A 
ATOM      5  C   UNL     1      35.894 -40.507  -2.952  1.00  0.00    -0.007 A 
ATOM      6  C   UNL     1      34.822 -40.674  -3.852  1.00  0.00     0.059 A 
ATOM      7  C   UNL     1      33.496 -40.537  -3.420  1.00  0.00     0.158 A 
ATOM      8  C   UNL     1      33.225 -40.205  -2.089  1.00  0.00     0.157 A 
ATOM      9  C   UNL     1      34.280 -39.980  -1.198  1.00  0.00     0.054 A 
ATOM     10  C   UNL     1      35.609 -40.095  -1.630  1.00  0.00    -0.036 A 
ATOM     11  C   UNL     1      37.748 -41.495  -4.424  1.00  0.00     0.127 A 
ATOM     12  C   UNL     1      39.101 -41.535  -4.791  1.00  0.00     0.093 A 
ATOM     13  C   UNL     1      40.050 -40.787  -4.094  1.00  0.00     0.119 A 
ATOM     14  C   UNL     1      39.656 -40.007  -3.004  1.00  0.00     0.050 A 
ENDROOT
BRANCH   8  15
ATOM     15  O   UNL     1      31.903 -40.088  -1.661  1.00  0.00    -0.504 OA
ATOM     16  H   UNL     1      31.458 -40.810  -1.109  1.00  0.00     0.293 HD
ENDBRANCH   8  15
BRANCH  11  17
ATOM     17  O   UNL     1      36.845 -42.328  -5.084  1.00  0.00    -0.507 OA
ATOM     18  H   UNL     1      36.440 -43.140  -4.633  1.00  0.00     0.293 HD
ENDBRANCH  11  17
BRANCH  13  19
ATOM     19  O   UNL     1      41.387 -40.839  -4.484  1.00  0.00    -0.508 OA
ATOM     20  H   UNL     1      41.832 -41.715  -4.733  1.00  0.00     0.293 HD
ENDBRANCH  13  19
BRANCH   7  21
ATOM     21  O   UNL     1      32.441 -40.723  -4.311  1.00  0.00    -0.504 OA
ATOM     22  H   UNL     1      32.199 -41.642  -4.664  1.00  0.00     0.293 HD
ENDBRANCH   7  21
TORSDOF 4
ENDMDL
MODEL 7
REMARK VINA RESULT:    -4.710      1.993      6.151
REMARK INTER + INTRA:          -5.260
REMARK INTER:                  -5.260
REMARK INTRA:                   0.000
REMARK UNBOUND:                 0.000
REMARK SMILES Oc1cc(O)c2c(c1)CCc1cc(O)c(O)cc1-2
REMARK SMILES IDX 10 1 9 2 7 3 6 4 18 5 17 6 15 7 13 8 12 9 11 10 4 11 3 12
REMARK SMILES IDX 2 13 8 14 14 15 5 17 1 19 16 21
REMARK H PARENT 14 16 5 18 1 20 16 22
REMARK Flexibility Score: inf
ROOT
ATOM      1  C   UNL     1      33.649 -37.204  12.110  1.00  0.00     0.041 C 
ATOM      2  C   UNL     1      34.683 -37.741  13.107  1.00  0.00     0.041 C 
ATOM      3  C   UNL     1      34.925 -39.213  12.878  1.00  0.00    -0.032 A 
ATOM      4  C   UNL     1      34.906 -39.738  11.564  1.00  0.00     0.027 A 
ATOM      5  C   UNL     1      34.675 -38.788  10.429  1.00  0.00    -0.007 A 
ATOM      6  C   UNL     1      35.137 -39.040   9.121  1.00  0.00     0.059 A 
ATOM      7  C   UNL     1      34.894 -38.126   8.087  1.00  0.00     0.158 A 
ATOM      8  C   UNL     1      34.210 -36.936   8.352  1.00  0.00     0.157 A 
ATOM      9  C   UNL     1      33.796 -36.646   9.657  1.00  0.00     0.054 A 
ATOM     10  C   UNL     1      34.054 -37.547  10.699  1.00  0.00    -0.036 A 
ATOM     11  C   UNL     1      35.035 -41.139  11.390  1.00  0.00     0.127 A 
ATOM     12  C   UNL     1      35.304 -41.959  12.495  1.00  0.00     0.093 A 
ATOM     13  C   UNL     1      35.398 -41.418  13.777  1.00  0.00     0.119 A 
ATOM     14  C   UNL     1      35.201 -40.049  13.970  1.00  0.00     0.050 A 
ENDROOT
BRANCH   8  15
ATOM     15  O   UNL     1      33.955 -36.039   7.315  1.00  0.00    -0.504 OA
ATOM     16  H   UNL     1      34.552 -35.990   6.498  1.00  0.00     0.293 HD
ENDBRANCH   8  15
BRANCH  11  17
ATOM     17  O   UNL     1      34.855 -41.728  10.140  1.00  0.00    -0.507 OA
ATOM     18  H   UNL     1      35.603 -41.775   9.458  1.00  0.00     0.293 HD
ENDBRANCH  11  17
BRANCH  13  19
ATOM     19  O   UNL     1      35.674 -42.255  14.857  1.00  0.00    -0.508 OA
ATOM     20  H   UNL     1      35.432 -43.239  14.840  1.00  0.00     0.293 HD
ENDBRANCH  13  19
BRANCH   7  21
ATOM     21  O   UNL     1      35.337 -38.391   6.793  1.00  0.00    -0.504 OA
ATOM     22  H   UNL     1      35.525 -39.337   6.479  1.00  0.00     0.293 HD
ENDBRANCH   7  21
TORSDOF 4
ENDMDL
MODEL 8
REMARK VINA RESULT:    -4.584      7.248     10.898
REMARK INTER + INTRA:          -5.120
REMARK INTER:                  -5.120
REMARK INTRA:                   0.000
REMARK UNBOUND:                 0.000
REMARK SMILES Oc1cc(O)c2c(c1)CCc1cc(O)c(O)cc1-2
REMARK SMILES IDX 10 1 9 2 7 3 6 4 18 5 17 6 15 7 13 8 12 9 11 10 4 11 3 12
REMARK SMILES IDX 2 13 8 14 14 15 5 17 1 19 16 21
REMARK H PARENT 14 16 5 18 1 20 16 22
REMARK Flexibility Score: inf
ROOT
ATOM      1  C   UNL     1      31.720 -40.673   2.903  1.00  0.00     0.041 C 
ATOM      2  C   UNL     1      31.769 -39.274   3.528  1.00  0.00     0.041 C 
ATOM      3  C   UNL     1      33.068 -38.586   3.187  1.00  0.00    -0.032 A 
ATOM      4  C   UNL     1      33.666 -38.789   1.920  1.00  0.00     0.027 A 
ATOM      5  C   UNL     1      32.955 -39.671   0.939  1.00  0.00    -0.007 A 
ATOM      6  C   UNL     1      33.126 -39.547  -0.455  1.00  0.00     0.059 A 
ATOM      7  C   UNL     1      32.446 -40.396  -1.338  1.00  0.00     0.158 A 
ATOM      8  C   UNL     1      31.565 -41.362  -0.840  1.00  0.00     0.157 A 
ATOM      9  C   UNL     1      31.341 -41.457   0.538  1.00  0.00     0.054 A 
ATOM     10  C   UNL     1      32.004 -40.596   1.424  1.00  0.00    -0.036 A 
ATOM     11  C   UNL     1      34.936 -38.212   1.668  1.00  0.00     0.127 A 
ATOM     12  C   UNL     1      35.514 -37.354   2.614  1.00  0.00     0.093 A 
ATOM     13  C   UNL     1      34.877 -37.098   3.828  1.00  0.00     0.119 A 
ATOM     14  C   UNL     1      33.660 -37.719   4.118  1.00  0.00     0.050 A 
ENDROOT
BRANCH   8  15
ATOM     15  O   UNL     1      30.904 -42.215  -1.723  1.00  0.00    -0.504 OA
ATOM     16  H   UNL     1      30.893 -42.041  -2.720  1.00  0.00     0.293 HD
ENDBRANCH   8  15
BRANCH  11  17
ATOM     17  O   UNL     1      35.647 -38.516   0.508  1.00  0.00    -0.507 OA
ATOM     18  H   UNL     1      35.391 -38.129  -0.393  1.00  0.00     0.293 HD
ENDBRANCH  11  17
BRANCH  13  19
ATOM     19  O   UNL     1      35.470 -36.235   4.747  1.00  0.00    -0.508 OA
ATOM     20  H   UNL     1      36.375 -36.437   5.155  1.00  0.00     0.293 HD
ENDBRANCH  13  19
BRANCH   7  21
ATOM     21  O   UNL     1      32.634 -40.281  -2.713  1.00  0.00    -0.504 OA
ATOM     22  H   UNL     1      32.625 -41.092  -3.320  1.00  0.00     0.293 HD
ENDBRANCH   7  21
TORSDOF 4
ENDMDL
MODEL 9
REMARK VINA RESULT:    -4.535      3.061      6.963
REMARK INTER + INTRA:          -5.065
REMARK INTER:                  -5.065
REMARK INTRA:                   0.000
REMARK UNBOUND:                 0.000
REMARK SMILES Oc1cc(O)c2c(c1)CCc1cc(O)c(O)cc1-2
REMARK SMILES IDX 10 1 9 2 7 3 6 4 18 5 17 6 15 7 13 8 12 9 11 10 4 11 3 12
REMARK SMILES IDX 2 13 8 14 14 15 5 17 1 19 16 21
REMARK H PARENT 14 16 5 18 1 20 16 22
REMARK Flexibility Score: inf
ROOT
ATOM      1  C   UNL     1      36.796 -37.812   6.436  1.00  0.00     0.041 C 
ATOM      2  C   UNL     1      36.191 -38.698   7.530  1.00  0.00     0.041 C 
ATOM      3  C   UNL     1      34.923 -38.083   8.071  1.00  0.00    -0.032 A 
ATOM      4  C   UNL     1      34.053 -37.377   7.205  1.00  0.00     0.027 A 
ATOM      5  C   UNL     1      34.417 -37.295   5.754  1.00  0.00    -0.007 A 
ATOM      6  C   UNL     1      33.456 -37.114   4.739  1.00  0.00     0.059 A 
ATOM      7  C   UNL     1      33.840 -37.038   3.394  1.00  0.00     0.158 A 
ATOM      8  C   UNL     1      35.187 -37.170   3.043  1.00  0.00     0.157 A 
ATOM      9  C   UNL     1      36.146 -37.408   4.034  1.00  0.00     0.054 A 
ATOM     10  C   UNL     1      35.764 -37.505   5.380  1.00  0.00    -0.036 A 
ATOM     11  C   UNL     1      32.925 -36.724   7.761  1.00  0.00     0.127 A 
ATOM     12  C   UNL     1      32.618 -36.891   9.118  1.00  0.00     0.093 A 
ATOM     13  C   UNL     1      33.441 -37.654   9.946  1.00  0.00     0.119 A 
ATOM     14  C   UNL     1      34.596 -38.243   9.425  1.00  0.00     0.050 A 
ENDROOT
BRANCH   8  15
ATOM     15  O   UNL     1      35.565 -37.076   1.704  1.00  0.00    -0.504 OA
ATOM     16  H   UNL     1      36.271 -37.685   1.308  1.00  0.00     0.293 HD
ENDBRANCH   8  15
BRANCH  11  17
ATOM     17  O   UNL     1      32.131 -35.877   6.988  1.00  0.00    -0.507 OA
ATOM     18  H   UNL     1      31.849 -36.121   6.046  1.00  0.00     0.293 HD
ENDBRANCH  11  17
BRANCH  13  19
ATOM     19  O   UNL     1      33.109 -37.811  11.290  1.00  0.00    -0.508 OA
ATOM     20  H   UNL     1      32.191 -38.133  11.575  1.00  0.00     0.293 HD
ENDBRANCH  13  19
BRANCH   7  21
ATOM     21  O   UNL     1      32.886 -36.839   2.398  1.00  0.00    -0.504 OA
ATOM     22  H   UNL     1      32.992 -37.240   1.473  1.00  0.00     0.293 HD
ENDBRANCH   7  21
TORSDOF 4
ENDMDL
