MODEL 1
REMARK VINA RESULT:     0.540      0.000      0.000
REMARK INTER + INTRA:           0.482
REMARK INTER:                   0.713
REMARK INTRA:                  -0.231
REMARK UNBOUND:                -0.231
REMARK SMILES CC[C@H](C=C[C@H](C)[C@H]1CC[C@H]2[C@@H]3CC=C4C[C@H](O)CC[C@]4(C)[C@H]3CC[C@@]12C)C(C)C
REMARK SMILES IDX 6 1 7 2 5 3 4 4 3 5 2 6 1 7 28 8 29 9 30 10 8 11 9 12 26 13
REMARK SMILES IDX 10 14 11 15 25 16 27 17 12 18 24 19 23 20 13 21 21 22 14 23
REMARK SMILES IDX 15 24 20 25 22 26 16 27 19 28 17 29 18 30
REMARK H PARENT 18 31
REMARK Flexibility Score: inf
ROOT
ATOM      1  C   UNL     1       2.227  42.736  12.190  1.00  0.00     0.012 C 
ATOM      2  C   UNL     1       2.995  43.587  13.232  1.00  0.00     0.012 C 
ENDROOT
BRANCH   1   3
ATOM      3  C   UNL     1       1.394  41.695  12.920  1.00  0.00    -0.028 C 
ATOM      4  C   UNL     1       0.268  42.007  13.585  1.00  0.00    -0.027 C 
BRANCH   4   5
ATOM      5  C   UNL     1      -0.616  40.925  14.180  1.00  0.00     0.014 C 
BRANCH   5   6
ATOM      6  C   UNL     1       0.023  39.529  13.997  1.00  0.00     0.004 C 
ATOM      7  C   UNL     1      -0.903  38.544  13.279  1.00  0.00     0.004 C 
ENDBRANCH   5   6
BRANCH   5   8
ATOM      8  C   UNL     1      -0.968  41.219  15.674  1.00  0.00    -0.011 C 
ATOM      9  C   UNL     1      -1.124  39.948  16.530  1.00  0.00     0.008 C 
ATOM     10  C   UNL     1       0.048  42.184  16.320  1.00  0.00     0.008 C 
ENDBRANCH   5   8
ENDBRANCH   4   5
ENDBRANCH   1   3
BRANCH   1  11
ATOM     11  C   UNL     1       1.309  43.609  11.249  1.00  0.00     0.002 C 
ATOM     12  C   UNL     1       0.436  44.636  11.974  1.00  0.00     0.005 C 
ATOM     13  C   UNL     1       2.011  44.435  10.105  1.00  0.00    -0.026 C 
ATOM     14  C   UNL     1      -0.103  45.529  10.879  1.00  0.00     0.005 C 
ATOM     15  C   UNL     1       0.974  45.575   9.779  1.00  0.00    -0.001 C 
ATOM     16  C   UNL     1       3.378  45.036  10.554  1.00  0.00     0.007 C 
ATOM     17  C   UNL     1       2.252  43.532   8.860  1.00  0.00     0.012 C 
ATOM     18  C   UNL     1       1.583  47.010   9.664  1.00  0.00     0.000 C 
ATOM     19  C   UNL     1       3.962  46.119   9.619  1.00  0.00     0.005 C 
ATOM     20  C   UNL     1       2.913  46.994   8.864  1.00  0.00     0.003 C 
ATOM     21  C   UNL     1       0.598  47.938   8.950  1.00  0.00     0.031 C 
ATOM     22  C   UNL     1       3.403  48.454   8.370  1.00  0.00    -0.008 C 
ATOM     23  C   UNL     1       1.128  49.329   8.993  1.00  0.00    -0.027 C 
ATOM     24  C   UNL     1       2.426  49.580   8.746  1.00  0.00    -0.065 C 
ATOM     25  C   UNL     1       3.472  48.493   6.805  1.00  0.00     0.014 C 
ATOM     26  C   UNL     1       4.820  48.799   8.911  1.00  0.00     0.016 C 
ATOM     27  C   UNL     1       2.777  50.981   8.307  1.00  0.00     0.063 C 
ATOM     28  C   UNL     1       3.731  49.902   6.195  1.00  0.00     0.033 C 
ATOM     29  C   UNL     1       2.824  51.018   6.764  1.00  0.00     0.118 C 
BRANCH  29  30
ATOM     30  O   UNL     1       1.526  50.879   6.235  1.00  0.00    -0.393 OA
ATOM     31  H   UNL     1       1.566  50.147   5.566  1.00  0.00     0.210 HD
ENDBRANCH  29  30
ENDBRANCH   1  11
TORSDOF 6
ENDMDL
MODEL 2
REMARK VINA RESULT:     2.716      1.518      2.553
REMARK INTER + INTRA:           3.358
REMARK INTER:                   2.552
REMARK INTRA:                   0.806
REMARK UNBOUND:                -0.231
REMARK SMILES CC[C@H](C=C[C@H](C)[C@H]1CC[C@H]2[C@@H]3CC=C4C[C@H](O)CC[C@]4(C)[C@H]3CC[C@@]12C)C(C)C
REMARK SMILES IDX 6 1 7 2 5 3 4 4 3 5 2 6 1 7 28 8 29 9 30 10 8 11 9 12 26 13
REMARK SMILES IDX 10 14 11 15 25 16 27 17 12 18 24 19 23 20 13 21 21 22 14 23
REMARK SMILES IDX 15 24 20 25 22 26 16 27 19 28 17 29 18 30
REMARK H PARENT 18 31
REMARK Flexibility Score: inf
ROOT
ATOM      1  C   UNL     1       3.466  43.187  11.590  1.00  0.00     0.012 C 
ATOM      2  C   UNL     1       4.594  44.179  11.967  1.00  0.00     0.012 C 
ENDROOT
BRANCH   1   3
ATOM      3  C   UNL     1       2.407  43.206  12.681  1.00  0.00    -0.028 C 
ATOM      4  C   UNL     1       1.294  42.454  12.621  1.00  0.00    -0.027 C 
BRANCH   4   5
ATOM      5  C   UNL     1       0.328  42.389  13.791  1.00  0.00     0.014 C 
BRANCH   5   6
ATOM      6  C   UNL     1      -1.088  42.837  13.362  1.00  0.00     0.004 C 
ATOM      7  C   UNL     1      -1.104  44.243  12.754  1.00  0.00     0.004 C 
ENDBRANCH   5   6
BRANCH   5   8
ATOM      8  C   UNL     1       0.320  40.976  14.459  1.00  0.00    -0.011 C 
ATOM      9  C   UNL     1       0.001  41.010  15.966  1.00  0.00     0.008 C 
ATOM     10  C   UNL     1      -0.631  40.005  13.728  1.00  0.00     0.008 C 
ENDBRANCH   5   8
ENDBRANCH   4   5
ENDBRANCH   1   3
BRANCH   1  11
ATOM     11  C   UNL     1       2.814  43.510  10.190  1.00  0.00     0.002 C 
ATOM     12  C   UNL     1       1.308  43.253  10.107  1.00  0.00     0.005 C 
ATOM     13  C   UNL     1       2.991  44.968   9.620  1.00  0.00    -0.026 C 
ATOM     14  C   UNL     1       0.875  43.905   8.812  1.00  0.00     0.005 C 
ATOM     15  C   UNL     1       1.802  45.115   8.598  1.00  0.00    -0.001 C 
ATOM     16  C   UNL     1       2.911  46.058  10.731  1.00  0.00     0.007 C 
ATOM     17  C   UNL     1       4.364  45.099   8.896  1.00  0.00     0.012 C 
ATOM     18  C   UNL     1       0.999  46.452   8.706  1.00  0.00     0.000 C 
ATOM     19  C   UNL     1       2.742  47.508  10.223  1.00  0.00     0.005 C 
ATOM     20  C   UNL     1       1.948  47.665   8.888  1.00  0.00     0.003 C 
ATOM     21  C   UNL     1       0.173  46.668   7.437  1.00  0.00     0.031 C 
ATOM     22  C   UNL     1       1.246  49.098   8.625  1.00  0.00    -0.008 C 
ATOM     23  C   UNL     1      -0.702  47.857   7.627  1.00  0.00    -0.027 C 
ATOM     24  C   UNL     1      -0.225  48.981   8.192  1.00  0.00    -0.065 C 
ATOM     25  C   UNL     1       1.954  49.829   7.433  1.00  0.00     0.014 C 
ATOM     26  C   UNL     1       1.345  50.025   9.869  1.00  0.00     0.016 C 
ATOM     27  C   UNL     1      -0.967  50.261   7.894  1.00  0.00     0.063 C 
ATOM     28  C   UNL     1       1.243  51.125   6.944  1.00  0.00     0.033 C 
ATOM     29  C   UNL     1      -0.276  50.967   6.706  1.00  0.00     0.118 C 
BRANCH  29  30
ATOM     30  O   UNL     1      -0.489  50.240   5.518  1.00  0.00    -0.393 OA
ATOM     31  H   UNL     1      -1.170  49.549   5.723  1.00  0.00     0.210 HD
ENDBRANCH  29  30
ENDBRANCH   1  11
TORSDOF 6
ENDMDL
