MODEL 1
REMARK VINA RESULT:    -4.189      0.000      0.000
REMARK INTER + INTRA:          -7.466
REMARK INTER:                  -6.760
REMARK INTRA:                  -0.706
REMARK UNBOUND:                -0.706
REMARK SMILES CCCCCCCCCCCCO
REMARK SMILES IDX 7 1 6 2 5 3 4 4 3 5 2 6 1 7 8 8 9 9 10 10 11 11 12 12 13 13
REMARK H PARENT 13 14
REMARK Flexibility Score: inf
ROOT
ATOM      1  C   UNL     1     170.853 172.413 206.431  1.00  0.00     0.000 C 
ENDROOT
BRANCH   1   2
ATOM      2  C   UNL     1     171.256 171.254 205.504  1.00  0.00    -0.000 C 
BRANCH   2   3
ATOM      3  C   UNL     1     172.732 171.327 205.072  1.00  0.00    -0.000 C 
BRANCH   3   4
ATOM      4  C   UNL     1     172.978 172.393 203.993  1.00  0.00    -0.000 C 
BRANCH   4   5
ATOM      5  C   UNL     1     173.527 171.797 202.688  1.00  0.00    -0.000 C 
BRANCH   5   6
ATOM      6  C   UNL     1     172.440 171.013 201.943  1.00  0.00    -0.003 C 
ATOM      7  C   UNL     1     171.901 171.808 200.757  1.00  0.00     0.004 C 
ENDBRANCH   5   6
ENDBRANCH   4   5
ENDBRANCH   3   4
ENDBRANCH   2   3
ENDBRANCH   1   2
BRANCH   1   8
ATOM      8  C   UNL     1     170.437 171.931 207.832  1.00  0.00     0.000 C 
BRANCH   8   9
ATOM      9  C   UNL     1     171.015 172.808 208.954  1.00  0.00     0.000 C 
BRANCH   9  10
ATOM     10  C   UNL     1     172.512 172.555 209.194  1.00  0.00     0.002 C 
BRANCH  10  11
ATOM     11  C   UNL     1     172.790 171.062 209.402  1.00  0.00     0.028 C 
BRANCH  11  12
ATOM     12  C   UNL     1     173.837 170.550 208.410  1.00  0.00     0.156 C 
BRANCH  12  13
ATOM     13  O   UNL     1     174.800 169.781 209.075  1.00  0.00    -0.396 OA
ATOM     14  H   UNL     1     175.651 170.290 209.034  1.00  0.00     0.210 HD
ENDBRANCH  12  13
ENDBRANCH  11  12
ENDBRANCH  10  11
ENDBRANCH   9  10
ENDBRANCH   8   9
ENDBRANCH   1   8
TORSDOF 11
ENDMDL
MODEL 2
REMARK VINA RESULT:    -4.126      8.227      9.132
REMARK INTER + INTRA:          -7.364
REMARK INTER:                  -6.031
REMARK INTRA:                  -1.334
REMARK UNBOUND:                -0.706
REMARK SMILES CCCCCCCCCCCCO
REMARK SMILES IDX 7 1 6 2 5 3 4 4 3 5 2 6 1 7 8 8 9 9 10 10 11 11 12 12 13 13
REMARK H PARENT 13 14
REMARK Flexibility Score: inf
ROOT
ATOM      1  C   UNL     1     168.152 172.952 199.056  1.00  0.00     0.000 C 
ENDROOT
BRANCH   1   2
ATOM      2  C   UNL     1     168.738 173.505 197.746  1.00  0.00    -0.000 C 
BRANCH   2   3
ATOM      3  C   UNL     1     170.085 174.221 197.955  1.00  0.00    -0.000 C 
BRANCH   3   4
ATOM      4  C   UNL     1     171.267 173.437 197.363  1.00  0.00    -0.000 C 
BRANCH   4   5
ATOM      5  C   UNL     1     170.881 172.651 196.101  1.00  0.00    -0.000 C 
BRANCH   5   6
ATOM      6  C   UNL     1     171.919 171.565 195.793  1.00  0.00    -0.003 C 
ATOM      7  C   UNL     1     171.246 170.263 195.368  1.00  0.00     0.004 C 
ENDBRANCH   5   6
ENDBRANCH   4   5
ENDBRANCH   3   4
ENDBRANCH   2   3
ENDBRANCH   1   2
BRANCH   1   8
ATOM      8  C   UNL     1     167.658 171.501 198.915  1.00  0.00     0.000 C 
BRANCH   8   9
ATOM      9  C   UNL     1     168.710 170.579 198.279  1.00  0.00     0.000 C 
BRANCH   9  10
ATOM     10  C   UNL     1     169.963 170.415 199.153  1.00  0.00     0.002 C 
BRANCH  10  11
ATOM     11  C   UNL     1     170.651 169.072 198.881  1.00  0.00     0.028 C 
BRANCH  11  12
ATOM     12  C   UNL     1     169.742 168.137 198.080  1.00  0.00     0.156 C 
BRANCH  12  13
ATOM     13  O   UNL     1     169.758 166.852 198.636  1.00  0.00    -0.396 OA
ATOM     14  H   UNL     1     170.664 166.481 198.470  1.00  0.00     0.210 HD
ENDBRANCH  12  13
ENDBRANCH  11  12
ENDBRANCH  10  11
ENDBRANCH   9  10
ENDBRANCH   8   9
ENDBRANCH   1   8
TORSDOF 11
ENDMDL
MODEL 3
REMARK VINA RESULT:    -4.110      2.012      2.810
REMARK INTER + INTRA:          -7.339
REMARK INTER:                  -6.356
REMARK INTRA:                  -0.983
REMARK UNBOUND:                -0.706
REMARK SMILES CCCCCCCCCCCCO
REMARK SMILES IDX 7 1 6 2 5 3 4 4 3 5 2 6 1 7 8 8 9 9 10 10 11 11 12 12 13 13
REMARK H PARENT 13 14
REMARK Flexibility Score: inf
ROOT
ATOM      1  C   UNL     1     170.567 171.761 204.429  1.00  0.00     0.000 C 
ENDROOT
BRANCH   1   2
ATOM      2  C   UNL     1     170.818 170.253 204.258  1.00  0.00    -0.000 C 
BRANCH   2   3
ATOM      3  C   UNL     1     171.516 169.916 202.928  1.00  0.00    -0.000 C 
BRANCH   3   4
ATOM      4  C   UNL     1     171.061 170.825 201.776  1.00  0.00    -0.000 C 
BRANCH   4   5
ATOM      5  C   UNL     1     172.152 171.023 200.713  1.00  0.00    -0.000 C 
BRANCH   5   6
ATOM      6  C   UNL     1     173.117 172.144 201.121  1.00  0.00    -0.003 C 
ATOM      7  C   UNL     1     172.360 173.414 201.497  1.00  0.00     0.004 C 
ENDBRANCH   5   6
ENDBRANCH   4   5
ENDBRANCH   3   4
ENDBRANCH   2   3
ENDBRANCH   1   2
BRANCH   1   8
ATOM      8  C   UNL     1     171.815 172.514 204.922  1.00  0.00     0.000 C 
BRANCH   8   9
ATOM      9  C   UNL     1     172.506 171.806 206.097  1.00  0.00     0.000 C 
BRANCH   9  10
ATOM     10  C   UNL     1     171.869 172.147 207.454  1.00  0.00     0.002 C 
BRANCH  10  11
ATOM     11  C   UNL     1     171.855 170.922 208.376  1.00  0.00     0.028 C 
BRANCH  11  12
ATOM     12  C   UNL     1     170.424 170.529 208.752  1.00  0.00     0.156 C 
BRANCH  12  13
ATOM     13  O   UNL     1     169.972 169.493 207.925  1.00  0.00    -0.396 OA
ATOM     14  H   UNL     1     169.279 169.001 208.436  1.00  0.00     0.210 HD
ENDBRANCH  12  13
ENDBRANCH  11  12
ENDBRANCH  10  11
ENDBRANCH   9  10
ENDBRANCH   8   9
ENDBRANCH   1   8
TORSDOF 11
ENDMDL
MODEL 4
REMARK VINA RESULT:    -4.104      8.208      9.927
REMARK INTER + INTRA:          -7.329
REMARK INTER:                  -5.949
REMARK INTRA:                  -1.380
REMARK UNBOUND:                -0.706
REMARK SMILES CCCCCCCCCCCCO
REMARK SMILES IDX 7 1 6 2 5 3 4 4 3 5 2 6 1 7 8 8 9 9 10 10 11 11 12 12 13 13
REMARK H PARENT 13 14
REMARK Flexibility Score: inf
ROOT
ATOM      1  C   UNL     1     171.024 172.666 196.023  1.00  0.00     0.000 C 
ENDROOT
BRANCH   1   2
ATOM      2  C   UNL     1     172.122 171.749 196.585  1.00  0.00    -0.000 C 
BRANCH   2   3
ATOM      3  C   UNL     1     171.964 170.287 196.129  1.00  0.00    -0.000 C 
BRANCH   3   4
ATOM      4  C   UNL     1     171.748 169.322 197.306  1.00  0.00    -0.000 C 
BRANCH   4   5
ATOM      5  C   UNL     1     170.364 168.658 197.278  1.00  0.00    -0.000 C 
BRANCH   5   6
ATOM      6  C   UNL     1     169.525 169.086 198.489  1.00  0.00    -0.003 C 
ATOM      7  C   UNL     1     170.299 170.050 199.383  1.00  0.00     0.004 C 
ENDBRANCH   5   6
ENDBRANCH   4   5
ENDBRANCH   3   4
ENDBRANCH   2   3
ENDBRANCH   1   2
BRANCH   1   8
ATOM      8  C   UNL     1     169.676 171.941 195.858  1.00  0.00     0.000 C 
BRANCH   8   9
ATOM      9  C   UNL     1     168.606 172.453 196.835  1.00  0.00     0.000 C 
BRANCH   9  10
ATOM     10  C   UNL     1     169.068 173.684 197.630  1.00  0.00     0.002 C 
BRANCH  10  11
ATOM     11  C   UNL     1     168.868 173.472 199.135  1.00  0.00     0.028 C 
BRANCH  11  12
ATOM     12  C   UNL     1     167.544 172.758 199.422  1.00  0.00     0.156 C 
BRANCH  12  13
ATOM     13  O   UNL     1     166.481 173.668 199.370  1.00  0.00    -0.396 OA
ATOM     14  H   UNL     1     166.774 174.478 199.863  1.00  0.00     0.210 HD
ENDBRANCH  12  13
ENDBRANCH  11  12
ENDBRANCH  10  11
ENDBRANCH   9  10
ENDBRANCH   8   9
ENDBRANCH   1   8
TORSDOF 11
ENDMDL
MODEL 5
REMARK VINA RESULT:    -4.084      7.846      9.253
REMARK INTER + INTRA:          -7.297
REMARK INTER:                  -5.990
REMARK INTRA:                  -1.307
REMARK UNBOUND:                -0.706
REMARK SMILES CCCCCCCCCCCCO
REMARK SMILES IDX 7 1 6 2 5 3 4 4 3 5 2 6 1 7 8 8 9 9 10 10 11 11 12 12 13 13
REMARK H PARENT 13 14
REMARK Flexibility Score: inf
ROOT
ATOM      1  C   UNL     1     173.326 170.899 196.640  1.00  0.00     0.000 C 
ENDROOT
BRANCH   1   2
ATOM      2  C   UNL     1     172.147 171.405 195.792  1.00  0.00    -0.000 C 
BRANCH   2   3
ATOM      3  C   UNL     1     171.937 172.925 195.916  1.00  0.00    -0.000 C 
BRANCH   3   4
ATOM      4  C   UNL     1     171.201 173.315 197.208  1.00  0.00    -0.000 C 
BRANCH   4   5
ATOM      5  C   UNL     1     171.678 174.659 197.777  1.00  0.00    -0.000 C 
BRANCH   5   6
ATOM      6  C   UNL     1     172.995 175.094 197.123  1.00  0.00    -0.003 C 
ATOM      7  C   UNL     1     173.945 175.707 198.148  1.00  0.00     0.004 C 
ENDBRANCH   5   6
ENDBRANCH   4   5
ENDBRANCH   3   4
ENDBRANCH   2   3
ENDBRANCH   1   2
BRANCH   1   8
ATOM      8  C   UNL     1     174.595 171.749 196.453  1.00  0.00     0.000 C 
BRANCH   8   9
ATOM      9  C   UNL     1     175.204 172.201 197.789  1.00  0.00     0.000 C 
BRANCH   9  10
ATOM     10  C   UNL     1     174.449 171.644 199.005  1.00  0.00     0.002 C 
BRANCH  10  11
ATOM     11  C   UNL     1     175.226 170.492 199.653  1.00  0.00     0.028 C 
BRANCH  11  12
ATOM     12  C   UNL     1     176.629 170.938 200.073  1.00  0.00     0.156 C 
BRANCH  12  13
ATOM     13  O   UNL     1     177.589 170.043 199.583  1.00  0.00    -0.396 OA
ATOM     14  H   UNL     1     178.083 170.519 198.866  1.00  0.00     0.210 HD
ENDBRANCH  12  13
ENDBRANCH  11  12
ENDBRANCH  10  11
ENDBRANCH   9  10
ENDBRANCH   8   9
ENDBRANCH   1   8
TORSDOF 11
ENDMDL
MODEL 6
REMARK VINA RESULT:    -4.056      8.176      9.653
REMARK INTER + INTRA:          -7.251
REMARK INTER:                  -5.892
REMARK INTRA:                  -1.359
REMARK UNBOUND:                -0.706
REMARK SMILES CCCCCCCCCCCCO
REMARK SMILES IDX 7 1 6 2 5 3 4 4 3 5 2 6 1 7 8 8 9 9 10 10 11 11 12 12 13 13
REMARK H PARENT 13 14
REMARK Flexibility Score: inf
ROOT
ATOM      1  C   UNL     1     170.645 171.193 196.466  1.00  0.00     0.000 C 
ENDROOT
BRANCH   1   2
ATOM      2  C   UNL     1     171.187 172.517 195.901  1.00  0.00    -0.000 C 
BRANCH   2   3
ATOM      3  C   UNL     1     172.438 173.013 196.649  1.00  0.00    -0.000 C 
BRANCH   3   4
ATOM      4  C   UNL     1     172.519 172.471 198.085  1.00  0.00    -0.000 C 
BRANCH   4   5
ATOM      5  C   UNL     1     172.305 173.566 199.141  1.00  0.00    -0.000 C 
BRANCH   5   6
ATOM      6  C   UNL     1     172.349 174.960 198.503  1.00  0.00    -0.003 C 
ATOM      7  C   UNL     1     171.194 175.828 198.994  1.00  0.00     0.004 C 
ENDBRANCH   5   6
ENDBRANCH   4   5
ENDBRANCH   3   4
ENDBRANCH   2   3
ENDBRANCH   1   2
BRANCH   1   8
ATOM      8  C   UNL     1     169.312 171.373 197.213  1.00  0.00     0.000 C 
BRANCH   8   9
ATOM      9  C   UNL     1     168.550 172.631 196.767  1.00  0.00     0.000 C 
BRANCH   9  10
ATOM     10  C   UNL     1     168.337 173.634 197.911  1.00  0.00     0.002 C 
BRANCH  10  11
ATOM     11  C   UNL     1     168.482 172.950 199.276  1.00  0.00     0.028 C 
BRANCH  11  12
ATOM     12  C   UNL     1     167.125 172.801 199.967  1.00  0.00     0.156 C 
BRANCH  12  13
ATOM     13  O   UNL     1     166.205 173.711 199.432  1.00  0.00    -0.396 OA
ATOM     14  H   UNL     1     165.301 173.353 199.631  1.00  0.00     0.210 HD
ENDBRANCH  12  13
ENDBRANCH  11  12
ENDBRANCH  10  11
ENDBRANCH   9  10
ENDBRANCH   8   9
ENDBRANCH   1   8
TORSDOF 11
ENDMDL
MODEL 7
REMARK VINA RESULT:    -4.047      6.404      9.065
REMARK INTER + INTRA:          -7.237
REMARK INTER:                  -5.632
REMARK INTRA:                  -1.605
REMARK UNBOUND:                -0.706
REMARK SMILES CCCCCCCCCCCCO
REMARK SMILES IDX 7 1 6 2 5 3 4 4 3 5 2 6 1 7 8 8 9 9 10 10 11 11 12 12 13 13
REMARK H PARENT 13 14
REMARK Flexibility Score: inf
ROOT
ATOM      1  C   UNL     1     168.436 173.509 197.865  1.00  0.00     0.000 C 
ENDROOT
BRANCH   1   2
ATOM      2  C   UNL     1     169.754 174.205 198.241  1.00  0.00    -0.000 C 
BRANCH   2   3
ATOM      3  C   UNL     1     170.985 173.518 197.621  1.00  0.00    -0.000 C 
BRANCH   3   4
ATOM      4  C   UNL     1     171.989 173.039 198.681  1.00  0.00    -0.000 C 
BRANCH   4   5
ATOM      5  C   UNL     1     171.545 173.380 200.111  1.00  0.00    -0.000 C 
BRANCH   5   6
ATOM      6  C   UNL     1     171.331 172.106 200.938  1.00  0.00    -0.003 C 
ATOM      7  C   UNL     1     169.950 172.094 201.586  1.00  0.00     0.004 C 
ENDBRANCH   5   6
ENDBRANCH   4   5
ENDBRANCH   3   4
ENDBRANCH   2   3
ENDBRANCH   1   2
BRANCH   1   8
ATOM      8  C   UNL     1     168.653 172.084 197.326  1.00  0.00     0.000 C 
BRANCH   8   9
ATOM      9  C   UNL     1     168.199 171.002 198.318  1.00  0.00     0.000 C 
BRANCH   9  10
ATOM     10  C   UNL     1     169.323 170.019 198.680  1.00  0.00     0.002 C 
BRANCH  10  11
ATOM     11  C   UNL     1     170.310 169.861 197.517  1.00  0.00     0.028 C 
BRANCH  11  12
ATOM     12  C   UNL     1     170.488 168.388 197.138  1.00  0.00     0.156 C 
BRANCH  12  13
ATOM     13  O   UNL     1     169.744 167.572 198.000  1.00  0.00    -0.396 OA
ATOM     14  H   UNL     1     170.376 166.910 198.382  1.00  0.00     0.210 HD
ENDBRANCH  12  13
ENDBRANCH  11  12
ENDBRANCH  10  11
ENDBRANCH   9  10
ENDBRANCH   8   9
ENDBRANCH   1   8
TORSDOF 11
ENDMDL
MODEL 8
REMARK VINA RESULT:    -3.976      8.442      9.450
REMARK INTER + INTRA:          -7.123
REMARK INTER:                  -5.655
REMARK INTRA:                  -1.468
REMARK UNBOUND:                -0.706
REMARK SMILES CCCCCCCCCCCCO
REMARK SMILES IDX 7 1 6 2 5 3 4 4 3 5 2 6 1 7 8 8 9 9 10 10 11 11 12 12 13 13
REMARK H PARENT 13 14
REMARK Flexibility Score: inf
ROOT
ATOM      1  C   UNL     1     168.530 172.262 197.216  1.00  0.00     0.000 C 
ENDROOT
BRANCH   1   2
ATOM      2  C   UNL     1     168.218 171.228 198.311  1.00  0.00    -0.000 C 
BRANCH   2   3
ATOM      3  C   UNL     1     169.162 170.013 198.266  1.00  0.00    -0.000 C 
BRANCH   3   4
ATOM      4  C   UNL     1     170.533 170.309 198.897  1.00  0.00    -0.000 C 
BRANCH   4   5
ATOM      5  C   UNL     1     171.692 170.112 197.909  1.00  0.00    -0.000 C 
BRANCH   5   6
ATOM      6  C   UNL     1     171.174 169.649 196.542  1.00  0.00    -0.003 C 
ATOM      7  C   UNL     1     171.584 170.620 195.438  1.00  0.00     0.004 C 
ENDBRANCH   5   6
ENDBRANCH   4   5
ENDBRANCH   3   4
ENDBRANCH   2   3
ENDBRANCH   1   2
BRANCH   1   8
ATOM      8  C   UNL     1     168.583 173.700 197.761  1.00  0.00     0.000 C 
BRANCH   8   9
ATOM      9  C   UNL     1     169.977 174.083 198.283  1.00  0.00     0.000 C 
BRANCH   9  10
ATOM     10  C   UNL     1     171.079 173.896 197.229  1.00  0.00     0.002 C 
BRANCH  10  11
ATOM     11  C   UNL     1     172.457 173.779 197.890  1.00  0.00     0.028 C 
BRANCH  11  12
ATOM     12  C   UNL     1     173.365 174.944 197.486  1.00  0.00     0.156 C 
BRANCH  12  13
ATOM     13  O   UNL     1     172.784 176.163 197.857  1.00  0.00    -0.396 OA
ATOM     14  H   UNL     1     171.806 176.005 197.920  1.00  0.00     0.210 HD
ENDBRANCH  12  13
ENDBRANCH  11  12
ENDBRANCH  10  11
ENDBRANCH   9  10
ENDBRANCH   8   9
ENDBRANCH   1   8
TORSDOF 11
ENDMDL
MODEL 9
REMARK VINA RESULT:    -3.951      8.154      9.622
REMARK INTER + INTRA:          -7.082
REMARK INTER:                  -5.565
REMARK INTRA:                  -1.517
REMARK UNBOUND:                -0.706
REMARK SMILES CCCCCCCCCCCCO
REMARK SMILES IDX 7 1 6 2 5 3 4 4 3 5 2 6 1 7 8 8 9 9 10 10 11 11 12 12 13 13
REMARK H PARENT 13 14
REMARK Flexibility Score: inf
ROOT
ATOM      1  C   UNL     1     173.155 173.519 199.298  1.00  0.00     0.000 C 
ENDROOT
BRANCH   1   2
ATOM      2  C   UNL     1     174.369 173.862 198.419  1.00  0.00    -0.000 C 
BRANCH   2   3
ATOM      3  C   UNL     1     175.440 172.755 198.429  1.00  0.00    -0.000 C 
BRANCH   3   4
ATOM      4  C   UNL     1     175.206 171.699 197.337  1.00  0.00    -0.000 C 
BRANCH   4   5
ATOM      5  C   UNL     1     175.067 170.281 197.908  1.00  0.00    -0.000 C 
BRANCH   5   6
ATOM      6  C   UNL     1     173.635 169.759 197.738  1.00  0.00    -0.003 C 
ATOM      7  C   UNL     1     172.868 169.811 199.057  1.00  0.00     0.004 C 
ENDBRANCH   5   6
ENDBRANCH   4   5
ENDBRANCH   3   4
ENDBRANCH   2   3
ENDBRANCH   1   2
BRANCH   1   8
ATOM      8  C   UNL     1     171.821 173.672 198.547  1.00  0.00     0.000 C 
BRANCH   8   9
ATOM      9  C   UNL     1     172.003 173.708 197.022  1.00  0.00     0.000 C 
BRANCH   9  10
ATOM     10  C   UNL     1     171.505 172.427 196.334  1.00  0.00     0.002 C 
BRANCH  10  11
ATOM     11  C   UNL     1     170.317 171.823 197.091  1.00  0.00     0.028 C 
BRANCH  11  12
ATOM     12  C   UNL     1     168.991 172.176 196.414  1.00  0.00     0.156 C 
BRANCH  12  13
ATOM     13  O   UNL     1     168.031 172.516 197.375  1.00  0.00    -0.396 OA
ATOM     14  H   UNL     1     168.439 172.337 198.262  1.00  0.00     0.210 HD
ENDBRANCH  12  13
ENDBRANCH  11  12
ENDBRANCH  10  11
ENDBRANCH   9  10
ENDBRANCH   8   9
ENDBRANCH   1   8
TORSDOF 11
ENDMDL
