MODEL 1
REMARK VINA RESULT:    -4.479      0.000      0.000
REMARK INTER + INTRA:          -6.341
REMARK INTER:                  -6.050
REMARK INTRA:                  -0.292
REMARK UNBOUND:                -0.292
REMARK SMILES C=C1CCC=C(C)CC[C@@H]2[C@@H]1CC2(C)C
REMARK SMILES IDX 11 1 12 2 13 3 10 4 14 5 15 6 9 7 8 8 6 9 7 10 5 11 2 13
REMARK SMILES IDX 1 14 3 15 4 16
REMARK H PARENT
REMARK Flexibility Score: 70.00
ROOT
ATOM      1  C   UNL     1     -43.307 -49.497  30.498  1.00  0.00     0.018 C 
ATOM      2  C   UNL     1     -42.681 -48.902  29.230  1.00  0.00     0.015 C 
ATOM      3  C   UNL     1     -44.088 -48.684  28.641  1.00  0.00    -0.031 C 
ATOM      4  C   UNL     1     -44.701 -49.426  29.859  1.00  0.00     0.002 C 
ATOM      5  C   UNL     1     -44.314 -49.417  27.307  1.00  0.00     0.011 C 
ATOM      6  C   UNL     1     -44.432 -47.185  28.511  1.00  0.00     0.011 C 
ENDROOT
BRANCH   4   7
ATOM      7  C   UNL     1     -45.750 -48.678  30.706  1.00  0.00     0.009 C 
BRANCH   7   8
ATOM      8  C   UNL     1     -46.749 -49.643  31.375  1.00  0.00     0.030 C 
BRANCH   8   9
ATOM      9  C   UNL     1     -46.388 -49.922  32.825  1.00  0.00    -0.077 C 
ATOM     10  C   UNL     1     -47.033 -49.066  33.886  1.00  0.00     0.039 C 
ATOM     11  C   UNL     1     -45.510 -50.870  33.233  1.00  0.00    -0.028 CG0
ATOM     12  G   UNL     1     -44.718 -51.814  32.357  1.00  0.00     0.000 G0
ENDBRANCH   8   9
ENDBRANCH   7   8
ENDBRANCH   4   7
BRANCH   1  13
ATOM     13  C   UNL     1     -42.871 -50.901  30.891  1.00  0.00    -0.074 C 
ATOM     14  C   UNL     1     -42.271 -51.737  30.025  1.00  0.00     0.008 C 
BRANCH  13  15
ATOM     15  C   UNL     1     -43.228 -51.400  32.273  1.00  0.00     0.035 C 
BRANCH  15  16
ATOM     16  C   UNL     1     -44.706 -51.814  32.355  1.00  0.00     0.032 CG0
ATOM     17  G   UNL     1     -45.500 -50.874  33.233  1.00  0.00     0.000 G0
ENDBRANCH  15  16
ENDBRANCH  13  15
ENDBRANCH   1  13
TORSDOF 0
ENDMDL
MODEL 2
REMARK VINA RESULT:    -4.444     10.932     13.896
REMARK INTER + INTRA:          -6.295
REMARK INTER:                  -6.006
REMARK INTRA:                  -0.290
REMARK UNBOUND:                -0.292
REMARK SMILES C=C1CCC=C(C)CC[C@@H]2[C@@H]1CC2(C)C
REMARK SMILES IDX 11 1 12 2 13 3 10 4 14 5 15 6 9 7 8 8 6 9 7 10 5 11 2 13
REMARK SMILES IDX 1 14 3 15 4 16
REMARK H PARENT
REMARK Flexibility Score: 70.00
ROOT
ATOM      1  C   UNL     1     -50.698 -49.054  19.520  1.00  0.00     0.018 C 
ATOM      2  C   UNL     1     -51.255 -48.612  20.879  1.00  0.00     0.015 C 
ATOM      3  C   UNL     1     -49.820 -48.471  21.420  1.00  0.00    -0.031 C 
ATOM      4  C   UNL     1     -49.274 -49.065  20.093  1.00  0.00     0.002 C 
ATOM      5  C   UNL     1     -49.536 -49.359  22.644  1.00  0.00     0.011 C 
ATOM      6  C   UNL     1     -49.454 -47.000  21.709  1.00  0.00     0.011 C 
ENDROOT
BRANCH   4   7
ATOM      7  C   UNL     1     -48.261 -48.226  19.289  1.00  0.00     0.009 C 
BRANCH   7   8
ATOM      8  C   UNL     1     -47.336 -49.107  18.425  1.00  0.00     0.030 C 
BRANCH   8   9
ATOM      9  C   UNL     1     -47.802 -49.179  16.981  1.00  0.00    -0.077 C 
ATOM     10  C   UNL     1     -47.230 -48.180  16.007  1.00  0.00     0.039 C 
ATOM     11  C   UNL     1     -48.716 -50.062  16.508  1.00  0.00    -0.028 CG0
ATOM     12  G   UNL     1     -49.449 -51.122  17.297  1.00  0.00     0.000 G0
ENDBRANCH   8   9
ENDBRANCH   7   8
ENDBRANCH   4   7
BRANCH   1  13
ATOM     13  C   UNL     1     -51.168 -50.399  18.985  1.00  0.00    -0.074 C 
ATOM     14  C   UNL     1     -51.706 -51.341  19.780  1.00  0.00     0.008 C 
BRANCH  13  15
ATOM     15  C   UNL     1     -50.915 -50.717  17.529  1.00  0.00     0.035 C 
BRANCH  15  16
ATOM     16  C   UNL     1     -49.450 -51.119  17.289  1.00  0.00     0.032 CG0
ATOM     17  G   UNL     1     -48.702 -50.061  16.512  1.00  0.00     0.000 G0
ENDBRANCH  15  16
ENDBRANCH  13  15
ENDBRANCH   1  13
TORSDOF 0
ENDMDL
MODEL 3
REMARK VINA RESULT:    -4.133      1.619      2.539
REMARK INTER + INTRA:          -5.875
REMARK INTER:                  -5.587
REMARK INTRA:                  -0.289
REMARK UNBOUND:                -0.292
REMARK SMILES C=C1CCC=C(C)CC[C@@H]2[C@@H]1CC2(C)C
REMARK SMILES IDX 11 1 12 2 13 3 10 4 14 5 15 6 9 7 8 8 6 9 7 10 5 11 2 13
REMARK SMILES IDX 1 14 3 15 4 16
REMARK H PARENT
REMARK Flexibility Score: 70.00
ROOT
ATOM      1  C   UNL     1     -43.046 -48.692  29.034  1.00  0.00     0.018 C 
ATOM      2  C   UNL     1     -43.284 -47.973  27.700  1.00  0.00     0.015 C 
ATOM      3  C   UNL     1     -44.352 -49.019  27.328  1.00  0.00    -0.031 C 
ATOM      4  C   UNL     1     -43.995 -49.821  28.608  1.00  0.00     0.002 C 
ATOM      5  C   UNL     1     -44.039 -49.779  26.027  1.00  0.00     0.011 C 
ATOM      6  C   UNL     1     -45.767 -48.405  27.281  1.00  0.00     0.011 C 
ENDROOT
BRANCH   4   7
ATOM      7  C   UNL     1     -45.126 -50.114  29.615  1.00  0.00     0.009 C 
BRANCH   7   8
ATOM      8  C   UNL     1     -44.896 -51.435  30.376  1.00  0.00     0.030 C 
BRANCH   8   9
ATOM      9  C   UNL     1     -44.283 -51.203  31.747  1.00  0.00    -0.077 C 
ATOM     10  C   UNL     1     -45.217 -51.108  32.928  1.00  0.00     0.039 C 
ATOM     11  C   UNL     1     -42.957 -51.051  31.984  1.00  0.00    -0.028 CG0
ATOM     12  G   UNL     1     -41.843 -51.068  30.963  1.00  0.00     0.000 G0
ENDBRANCH   8   9
ENDBRANCH   7   8
ENDBRANCH   4   7
BRANCH   1  13
ATOM     13  C   UNL     1     -41.625 -49.148  29.331  1.00  0.00    -0.074 C 
ATOM     14  C   UNL     1     -40.682 -49.232  28.375  1.00  0.00     0.008 C 
BRANCH  13  15
ATOM     15  C   UNL     1     -41.305 -49.626  30.728  1.00  0.00     0.035 C 
BRANCH  15  16
ATOM     16  C   UNL     1     -41.830 -51.051  30.969  1.00  0.00     0.032 CG0
ATOM     17  G   UNL     1     -42.961 -51.066  31.971  1.00  0.00     0.000 G0
ENDBRANCH  15  16
ENDBRANCH  13  15
ENDBRANCH   1  13
TORSDOF 0
ENDMDL
MODEL 4
REMARK VINA RESULT:    -4.099      9.877     11.880
REMARK INTER + INTRA:          -5.829
REMARK INTER:                  -5.540
REMARK INTRA:                  -0.289
REMARK UNBOUND:                -0.292
REMARK SMILES C=C1CCC=C(C)CC[C@@H]2[C@@H]1CC2(C)C
REMARK SMILES IDX 11 1 12 2 13 3 10 4 14 5 15 6 9 7 8 8 6 9 7 10 5 11 2 13
REMARK SMILES IDX 1 14 3 15 4 16
REMARK H PARENT
REMARK Flexibility Score: 70.00
ROOT
ATOM      1  C   UNL     1     -52.369 -48.547  21.019  1.00  0.00     0.018 C 
ATOM      2  C   UNL     1     -53.688 -48.482  20.240  1.00  0.00     0.015 C 
ATOM      3  C   UNL     1     -54.466 -48.411  21.568  1.00  0.00    -0.031 C 
ATOM      4  C   UNL     1     -53.140 -48.630  22.344  1.00  0.00     0.002 C 
ATOM      5  C   UNL     1     -55.474 -49.559  21.750  1.00  0.00     0.011 C 
ATOM      6  C   UNL     1     -55.151 -47.040  21.762  1.00  0.00     0.011 C 
ENDROOT
BRANCH   4   7
ATOM      7  C   UNL     1     -52.729 -47.570  23.385  1.00  0.00     0.009 C 
BRANCH   7   8
ATOM      8  C   UNL     1     -51.646 -48.096  24.350  1.00  0.00     0.030 C 
BRANCH   8   9
ATOM      9  C   UNL     1     -50.253 -47.647  23.942  1.00  0.00    -0.077 C 
ATOM     10  C   UNL     1     -49.778 -46.300  24.428  1.00  0.00     0.039 C 
ATOM     11  C   UNL     1     -49.413 -48.359  23.152  1.00  0.00    -0.028 CG0
ATOM     12  G   UNL     1     -49.683 -49.705  22.520  1.00  0.00     0.000 G0
ENDBRANCH   8   9
ENDBRANCH   7   8
ENDBRANCH   4   7
BRANCH   1  13
ATOM     13  C   UNL     1     -51.462 -49.738  20.747  1.00  0.00    -0.074 C 
ATOM     14  C   UNL     1     -51.943 -50.937  20.373  1.00  0.00     0.008 C 
BRANCH  13  15
ATOM     15  C   UNL     1     -49.983 -49.588  21.017  1.00  0.00     0.035 C 
BRANCH  15  16
ATOM     16  C   UNL     1     -49.671 -49.705  22.518  1.00  0.00     0.032 CG0
ATOM     17  G   UNL     1     -49.410 -48.353  23.141  1.00  0.00     0.000 G0
ENDBRANCH  15  16
ENDBRANCH  13  15
ENDBRANCH   1  13
TORSDOF 0
ENDMDL
MODEL 5
REMARK VINA RESULT:    -3.956      3.499      5.714
REMARK INTER + INTRA:          -5.635
REMARK INTER:                  -5.833
REMARK INTRA:                   0.198
REMARK UNBOUND:                -0.292
REMARK SMILES C=C1CCC=C(C)CC[C@@H]2[C@@H]1CC2(C)C
REMARK SMILES IDX 11 1 12 2 13 3 10 4 14 5 15 6 9 7 8 8 6 9 7 10 5 11 2 13
REMARK SMILES IDX 1 14 3 15 4 16
REMARK H PARENT
REMARK Flexibility Score: 70.00
ROOT
ATOM      1  C   UNL     1     -40.846 -48.527  29.730  1.00  0.00     0.018 C 
ATOM      2  C   UNL     1     -39.463 -48.520  30.393  1.00  0.00     0.015 C 
ATOM      3  C   UNL     1     -38.821 -48.137  29.047  1.00  0.00    -0.031 C 
ATOM      4  C   UNL     1     -40.202 -48.296  28.356  1.00  0.00     0.002 C 
ATOM      5  C   UNL     1     -37.775 -49.154  28.555  1.00  0.00     0.011 C 
ATOM      6  C   UNL     1     -38.233 -46.710  29.074  1.00  0.00     0.011 C 
ENDROOT
BRANCH   4   7
ATOM      7  C   UNL     1     -40.767 -47.086  27.585  1.00  0.00     0.009 C 
BRANCH   7   8
ATOM      8  C   UNL     1     -42.309 -47.094  27.545  1.00  0.00     0.030 C 
BRANCH   8   9
ATOM      9  C   UNL     1     -42.847 -48.039  26.484  1.00  0.00    -0.077 C 
ATOM     10  C   UNL     1     -42.873 -47.551  25.057  1.00  0.00     0.039 C 
ATOM     11  C   UNL     1     -43.330 -49.281  26.730  1.00  0.00    -0.028 CG0
ATOM     12  G   UNL     1     -43.441 -49.964  28.073  1.00  0.00     0.000 G0
ENDBRANCH   8   9
ENDBRANCH   7   8
ENDBRANCH   4   7
BRANCH   1  13
ATOM     13  C   UNL     1     -41.657 -49.810  29.833  1.00  0.00    -0.074 C 
ATOM     14  C   UNL     1     -41.916 -50.404  31.012  1.00  0.00     0.008 C 
BRANCH  13  15
ATOM     15  C   UNL     1     -42.085 -50.491  28.554  1.00  0.00     0.035 C 
BRANCH  15  16
ATOM     16  C   UNL     1     -43.447 -49.969  28.068  1.00  0.00     0.032 CG0
ATOM     17  G   UNL     1     -43.335 -49.279  26.729  1.00  0.00     0.000 G0
ENDBRANCH  15  16
ENDBRANCH  13  15
ENDBRANCH   1  13
TORSDOF 0
ENDMDL
MODEL 6
REMARK VINA RESULT:    -3.944     10.745     12.747
REMARK INTER + INTRA:          -5.620
REMARK INTER:                  -5.352
REMARK INTRA:                  -0.267
REMARK UNBOUND:                -0.292
REMARK SMILES C=C1CCC=C(C)CC[C@@H]2[C@@H]1CC2(C)C
REMARK SMILES IDX 11 1 12 2 13 3 10 4 14 5 15 6 9 7 8 8 6 9 7 10 5 11 2 13
REMARK SMILES IDX 1 14 3 15 4 16
REMARK H PARENT
REMARK Flexibility Score: 70.00
ROOT
ATOM      1  C   UNL     1     -51.352 -48.678  22.434  1.00  0.00     0.018 C 
ATOM      2  C   UNL     1     -52.625 -48.433  23.254  1.00  0.00     0.015 C 
ATOM      3  C   UNL     1     -53.469 -48.527  21.969  1.00  0.00    -0.031 C 
ATOM      4  C   UNL     1     -52.164 -48.620  21.133  1.00  0.00     0.002 C 
ATOM      5  C   UNL     1     -54.286 -47.256  21.678  1.00  0.00     0.011 C 
ATOM      6  C   UNL     1     -54.373 -49.778  21.963  1.00  0.00     0.011 C 
ENDROOT
BRANCH   4   7
ATOM      7  C   UNL     1     -51.981 -49.846  20.216  1.00  0.00     0.009 C 
BRANCH   7   8
ATOM      8  C   UNL     1     -51.167 -49.506  18.951  1.00  0.00     0.030 C 
BRANCH   8   9
ATOM      9  C   UNL     1     -49.706 -49.899  19.089  1.00  0.00    -0.077 C 
ATOM     10  C   UNL     1     -49.278 -51.228  18.518  1.00  0.00     0.039 C 
ATOM     11  C   UNL     1     -48.762 -49.152  19.712  1.00  0.00    -0.028 CG0
ATOM     12  G   UNL     1     -48.960 -47.816  20.389  1.00  0.00     0.000 G0
ENDBRANCH   8   9
ENDBRANCH   7   8
ENDBRANCH   4   7
BRANCH   1  13
ATOM     13  C   UNL     1     -50.253 -47.630  22.534  1.00  0.00    -0.074 C 
ATOM     14  C   UNL     1     -50.468 -46.410  23.058  1.00  0.00     0.008 C 
BRANCH  13  15
ATOM     15  C   UNL     1     -48.909 -47.942  21.917  1.00  0.00     0.035 C 
BRANCH  15  16
ATOM     16  C   UNL     1     -48.947 -47.806  20.387  1.00  0.00     0.032 CG0
ATOM     17  G   UNL     1     -48.768 -49.141  19.703  1.00  0.00     0.000 G0
ENDBRANCH  15  16
ENDBRANCH  13  15
ENDBRANCH   1  13
TORSDOF 0
ENDMDL
MODEL 7
REMARK VINA RESULT:    -3.933     10.301     12.977
REMARK INTER + INTRA:          -5.605
REMARK INTER:                  -5.676
REMARK INTRA:                   0.071
REMARK UNBOUND:                -0.292
REMARK SMILES C=C1CCC=C(C)CC[C@@H]2[C@@H]1CC2(C)C
REMARK SMILES IDX 11 1 12 2 13 3 10 4 14 5 15 6 9 7 8 8 6 9 7 10 5 11 2 13
REMARK SMILES IDX 1 14 3 15 4 16
REMARK H PARENT
REMARK Flexibility Score: 70.00
ROOT
ATOM      1  C   UNL     1     -51.625 -48.093  21.711  1.00  0.00     0.018 C 
ATOM      2  C   UNL     1     -51.482 -48.136  23.237  1.00  0.00     0.015 C 
ATOM      3  C   UNL     1     -50.079 -48.753  23.088  1.00  0.00    -0.031 C 
ATOM      4  C   UNL     1     -50.296 -48.846  21.553  1.00  0.00     0.002 C 
ATOM      5  C   UNL     1     -49.937 -50.128  23.765  1.00  0.00     0.011 C 
ATOM      6  C   UNL     1     -48.971 -47.788  23.562  1.00  0.00     0.011 C 
ENDROOT
BRANCH   4   7
ATOM      7  C   UNL     1     -49.274 -48.143  20.636  1.00  0.00     0.009 C 
BRANCH   7   8
ATOM      8  C   UNL     1     -49.617 -48.324  19.143  1.00  0.00     0.030 C 
BRANCH   8   9
ATOM      9  C   UNL     1     -49.698 -49.789  18.750  1.00  0.00    -0.077 C 
ATOM     10  C   UNL     1     -48.415 -50.488  18.375  1.00  0.00     0.039 C 
ATOM     11  C   UNL     1     -50.844 -50.509  18.687  1.00  0.00    -0.028 CG0
ATOM     12  G   UNL     1     -52.244 -50.018  18.976  1.00  0.00     0.000 G0
ENDBRANCH   8   9
ENDBRANCH   7   8
ENDBRANCH   4   7
BRANCH   1  13
ATOM     13  C   UNL     1     -52.824 -48.808  21.108  1.00  0.00    -0.074 C 
ATOM     14  C   UNL     1     -54.077 -48.331  21.218  1.00  0.00     0.008 C 
BRANCH  13  15
ATOM     15  C   UNL     1     -52.602 -50.157  20.462  1.00  0.00     0.035 C 
BRANCH  15  16
ATOM     16  C   UNL     1     -52.250 -50.015  18.972  1.00  0.00     0.032 CG0
ATOM     17  G   UNL     1     -50.854 -50.514  18.679  1.00  0.00     0.000 G0
ENDBRANCH  15  16
ENDBRANCH  13  15
ENDBRANCH   1  13
TORSDOF 0
ENDMDL
MODEL 8
REMARK VINA RESULT:    -3.914      4.427      6.514
REMARK INTER + INTRA:          -5.578
REMARK INTER:                  -5.268
REMARK INTRA:                  -0.310
REMARK UNBOUND:                -0.292
REMARK SMILES C=C1CCC=C(C)CC[C@@H]2[C@@H]1CC2(C)C
REMARK SMILES IDX 11 1 12 2 13 3 10 4 14 5 15 6 9 7 8 8 6 9 7 10 5 11 2 13
REMARK SMILES IDX 1 14 3 15 4 16
REMARK H PARENT
REMARK Flexibility Score: 70.00
ROOT
ATOM      1  C   UNL     1     -41.238 -48.807  27.315  1.00  0.00     0.018 C 
ATOM      2  C   UNL     1     -40.433 -49.636  28.324  1.00  0.00     0.015 C 
ATOM      3  C   UNL     1     -41.739 -50.028  29.041  1.00  0.00    -0.031 C 
ATOM      4  C   UNL     1     -42.525 -49.065  28.110  1.00  0.00     0.002 C 
ATOM      5  C   UNL     1     -41.777 -49.607  30.520  1.00  0.00     0.011 C 
ATOM      6  C   UNL     1     -42.053 -51.532  28.887  1.00  0.00     0.011 C 
ENDROOT
BRANCH   4   7
ATOM      7  C   UNL     1     -43.680 -49.653  27.273  1.00  0.00     0.009 C 
BRANCH   7   8
ATOM      8  C   UNL     1     -44.721 -48.581  26.892  1.00  0.00     0.030 C 
BRANCH   8   9
ATOM      9  C   UNL     1     -44.518 -48.068  25.476  1.00  0.00    -0.077 C 
ATOM     10  C   UNL     1     -45.262 -48.763  24.363  1.00  0.00     0.039 C 
ATOM     11  C   UNL     1     -43.697 -47.044  25.136  1.00  0.00    -0.028 CG0
ATOM     12  G   UNL     1     -42.828 -46.230  26.066  1.00  0.00     0.000 G0
ENDBRANCH   8   9
ENDBRANCH   7   8
ENDBRANCH   4   7
BRANCH   1  13
ATOM     13  C   UNL     1     -40.870 -47.336  27.180  1.00  0.00    -0.074 C 
ATOM     14  C   UNL     1     -40.229 -46.663  28.152  1.00  0.00     0.008 C 
BRANCH  13  15
ATOM     15  C   UNL     1     -41.347 -46.590  25.955  1.00  0.00     0.035 C 
BRANCH  15  16
ATOM     16  C   UNL     1     -42.834 -46.219  26.067  1.00  0.00     0.032 CG0
ATOM     17  G   UNL     1     -43.689 -47.057  25.144  1.00  0.00     0.000 G0
ENDBRANCH  15  16
ENDBRANCH  13  15
ENDBRANCH   1  13
TORSDOF 0
ENDMDL
MODEL 9
REMARK VINA RESULT:    -3.895      2.669      4.182
REMARK INTER + INTRA:          -5.553
REMARK INTER:                  -5.637
REMARK INTRA:                   0.084
REMARK UNBOUND:                -0.292
REMARK SMILES C=C1CCC=C(C)CC[C@@H]2[C@@H]1CC2(C)C
REMARK SMILES IDX 11 1 12 2 13 3 10 4 14 5 15 6 9 7 8 8 6 9 7 10 5 11 2 13
REMARK SMILES IDX 1 14 3 15 4 16
REMARK H PARENT
REMARK Flexibility Score: 70.00
ROOT
ATOM      1  C   UNL     1     -41.703 -47.046  27.759  1.00  0.00     0.018 C 
ATOM      2  C   UNL     1     -41.666 -46.773  26.251  1.00  0.00     0.015 C 
ATOM      3  C   UNL     1     -42.947 -47.609  26.070  1.00  0.00    -0.031 C 
ATOM      4  C   UNL     1     -42.888 -48.003  27.570  1.00  0.00     0.002 C 
ATOM      5  C   UNL     1     -42.770 -48.806  25.120  1.00  0.00     0.011 C 
ATOM      6  C   UNL     1     -44.147 -46.737  25.640  1.00  0.00     0.011 C 
ENDROOT
BRANCH   4   7
ATOM      7  C   UNL     1     -44.112 -47.679  28.450  1.00  0.00     0.009 C 
BRANCH   7   8
ATOM      8  C   UNL     1     -43.952 -48.219  29.886  1.00  0.00     0.030 C 
BRANCH   8   9
ATOM      9  C   UNL     1     -43.636 -49.705  29.904  1.00  0.00    -0.077 C 
ATOM     10  C   UNL     1     -44.795 -50.670  29.867  1.00  0.00     0.039 C 
ATOM     11  C   UNL     1     -42.388 -50.228  29.975  1.00  0.00    -0.028 CG0
ATOM     12  G   UNL     1     -41.086 -49.465  30.061  1.00  0.00     0.000 G0
ENDBRANCH   8   9
ENDBRANCH   7   8
ENDBRANCH   4   7
BRANCH   1  13
ATOM     13  C   UNL     1     -40.471 -47.691  28.376  1.00  0.00    -0.074 C 
ATOM     14  C   UNL     1     -39.330 -47.009  28.586  1.00  0.00     0.008 C 
BRANCH  13  15
ATOM     15  C   UNL     1     -40.505 -49.176  28.657  1.00  0.00     0.035 C 
BRANCH  15  16
ATOM     16  C   UNL     1     -41.076 -49.471  30.053  1.00  0.00     0.032 CG0
ATOM     17  G   UNL     1     -42.381 -50.229  29.974  1.00  0.00     0.000 G0
ENDBRANCH  15  16
ENDBRANCH  13  15
ENDBRANCH   1  13
TORSDOF 0
ENDMDL
