MODEL 1
REMARK VINA RESULT:     0.490      0.000      0.000
REMARK INTER + INTRA:          -0.156
REMARK INTER:                   0.920
REMARK INTRA:                  -1.076
REMARK UNBOUND:                -1.076
REMARK SMILES O=C([O-])CCCCCCCCCCCCCCC(=O)[O-]
REMARK SMILES IDX 10 1 9 2 8 3 7 4 6 5 5 6 4 7 2 8 1 9 3 10 11 11 12 12 13 13
REMARK SMILES IDX 14 14 15 15 16 16 17 17 18 18 19 19 20 20
REMARK H PARENT
REMARK Flexibility Score: inf
ROOT
ATOM      1  C   UNL     1      -4.607  34.767  22.051  1.00  0.00     0.000 C 
ENDROOT
BRANCH   1   2
ATOM      2  C   UNL     1      -4.524  35.268  20.600  1.00  0.00     0.000 C 
BRANCH   2   3
ATOM      3  C   UNL     1      -5.891  35.269  19.897  1.00  0.00     0.000 C 
BRANCH   3   4
ATOM      4  C   UNL     1      -5.861  34.568  18.526  1.00  0.00     0.000 C 
BRANCH   4   5
ATOM      5  C   UNL     1      -4.549  34.722  17.736  1.00  0.00     0.000 C 
BRANCH   5   6
ATOM      6  C   UNL     1      -4.564  35.799  16.634  1.00  0.00     0.006 C 
BRANCH   6   7
ATOM      7  C   UNL     1      -3.884  35.362  15.323  1.00  0.00     0.053 C 
BRANCH   7   8
ATOM      8  C   UNL     1      -3.547  36.523  14.438  1.00  0.00     0.041 C 
ATOM      9  O   UNL     1      -4.427  37.373  14.142  1.00  0.00    -0.550 OA
ATOM     10  O   UNL     1      -2.249  36.686  13.968  1.00  0.00    -0.550 OA
ENDBRANCH   7   8
ENDBRANCH   6   7
ENDBRANCH   5   6
ENDBRANCH   4   5
ENDBRANCH   3   4
ENDBRANCH   2   3
ENDBRANCH   1   2
BRANCH   1  11
ATOM     11  C   UNL     1      -6.035  34.813  22.614  1.00  0.00     0.000 C 
BRANCH  11  12
ATOM     12  C   UNL     1      -6.125  34.057  23.946  1.00  0.00     0.000 C 
BRANCH  12  13
ATOM     13  C   UNL     1      -5.996  35.017  25.134  1.00  0.00     0.000 C 
BRANCH  13  14
ATOM     14  C   UNL     1      -6.106  36.478  24.676  1.00  0.00     0.000 C 
BRANCH  14  15
ATOM     15  C   UNL     1      -4.998  37.336  25.304  1.00  0.00     0.000 C 
BRANCH  15  16
ATOM     16  C   UNL     1      -4.781  38.672  24.570  1.00  0.00     0.006 C 
BRANCH  16  17
ATOM     17  C   UNL     1      -5.848  38.979  23.503  1.00  0.00     0.053 C 
BRANCH  17  18
ATOM     18  C   UNL     1      -5.256  39.178  22.141  1.00  0.00     0.041 C 
ATOM     19  O   UNL     1      -4.393  38.373  21.702  1.00  0.00    -0.550 OA
ATOM     20  O   UNL     1      -5.684  40.229  21.339  1.00  0.00    -0.550 OA
ENDBRANCH  17  18
ENDBRANCH  16  17
ENDBRANCH  15  16
ENDBRANCH  14  15
ENDBRANCH  13  14
ENDBRANCH  12  13
ENDBRANCH  11  12
ENDBRANCH   1  11
TORSDOF 15
ENDMDL
MODEL 2
REMARK VINA RESULT:     1.214      0.738      7.140
REMARK INTER + INTRA:           1.203
REMARK INTER:                   2.316
REMARK INTRA:                  -1.113
REMARK UNBOUND:                -1.076
REMARK SMILES O=C([O-])CCCCCCCCCCCCCCC(=O)[O-]
REMARK SMILES IDX 10 1 9 2 8 3 7 4 6 5 5 6 4 7 2 8 1 9 3 10 11 11 12 12 13 13
REMARK SMILES IDX 14 14 15 15 16 16 17 17 18 18 19 19 20 20
REMARK H PARENT
REMARK Flexibility Score: inf
ROOT
ATOM      1  C   UNL     1      -4.722  35.074  22.994  1.00  0.00     0.000 C 
ENDROOT
BRANCH   1   2
ATOM      2  C   UNL     1      -6.092  35.027  23.690  1.00  0.00     0.000 C 
BRANCH   2   3
ATOM      3  C   UNL     1      -5.993  35.268  25.205  1.00  0.00     0.000 C 
BRANCH   3   4
ATOM      4  C   UNL     1      -6.125  36.755  25.585  1.00  0.00     0.000 C 
BRANCH   4   5
ATOM      5  C   UNL     1      -4.817  37.566  25.535  1.00  0.00     0.000 C 
BRANCH   5   6
ATOM      6  C   UNL     1      -4.792  38.718  24.511  1.00  0.00     0.006 C 
BRANCH   6   7
ATOM      7  C   UNL     1      -5.768  38.530  23.335  1.00  0.00     0.053 C 
BRANCH   7   8
ATOM      8  C   UNL     1      -5.189  38.991  22.032  1.00  0.00     0.041 C 
ATOM      9  O   UNL     1      -4.218  38.378  21.515  1.00  0.00    -0.550 OA
ATOM     10  O   UNL     1      -5.745  40.078  21.368  1.00  0.00    -0.550 OA
ENDBRANCH   7   8
ENDBRANCH   6   7
ENDBRANCH   5   6
ENDBRANCH   4   5
ENDBRANCH   3   4
ENDBRANCH   2   3
ENDBRANCH   1   2
BRANCH   1  11
ATOM     11  C   UNL     1      -4.775  34.567  21.546  1.00  0.00     0.000 C 
BRANCH  11  12
ATOM     12  C   UNL     1      -5.938  35.211  20.780  1.00  0.00     0.000 C 
BRANCH  12  13
ATOM     13  C   UNL     1      -6.026  34.664  19.351  1.00  0.00     0.000 C 
BRANCH  13  14
ATOM     14  C   UNL     1      -5.065  35.412  18.416  1.00  0.00     0.000 C 
BRANCH  14  15
ATOM     15  C   UNL     1      -4.457  34.460  17.376  1.00  0.00     0.000 C 
BRANCH  15  16
ATOM     16  C   UNL     1      -3.727  35.196  16.239  1.00  0.00     0.006 C 
BRANCH  16  17
ATOM     17  C   UNL     1      -4.557  36.315  15.585  1.00  0.00     0.053 C 
BRANCH  17  18
ATOM     18  C   UNL     1      -3.817  37.009  14.482  1.00  0.00     0.041 C 
ATOM     19  O   UNL     1      -2.882  36.420  13.878  1.00  0.00    -0.550 OA
ATOM     20  O   UNL     1      -4.184  38.292  14.094  1.00  0.00    -0.550 OA
ENDBRANCH  17  18
ENDBRANCH  16  17
ENDBRANCH  15  16
ENDBRANCH  14  15
ENDBRANCH  13  14
ENDBRANCH  12  13
ENDBRANCH  11  12
ENDBRANCH   1  11
TORSDOF 15
ENDMDL
MODEL 3
REMARK VINA RESULT:     1.797      1.953      7.570
REMARK INTER + INTRA:           2.297
REMARK INTER:                   3.345
REMARK INTRA:                  -1.047
REMARK UNBOUND:                -1.076
REMARK SMILES O=C([O-])CCCCCCCCCCCCCCC(=O)[O-]
REMARK SMILES IDX 10 1 9 2 8 3 7 4 6 5 5 6 4 7 2 8 1 9 3 10 11 11 12 12 13 13
REMARK SMILES IDX 14 14 15 15 16 16 17 17 18 18 19 19 20 20
REMARK H PARENT
REMARK Flexibility Score: inf
ROOT
ATOM      1  C   UNL     1      -4.359  38.087  21.592  1.00  0.00     0.000 C 
ENDROOT
BRANCH   1   2
ATOM      2  C   UNL     1      -3.892  39.174  22.574  1.00  0.00     0.000 C 
BRANCH   2   3
ATOM      3  C   UNL     1      -4.938  39.476  23.661  1.00  0.00     0.000 C 
BRANCH   3   4
ATOM      4  C   UNL     1      -5.722  38.225  24.102  1.00  0.00     0.000 C 
BRANCH   4   5
ATOM      5  C   UNL     1      -5.116  37.453  25.288  1.00  0.00     0.000 C 
BRANCH   5   6
ATOM      6  C   UNL     1      -5.314  35.925  25.252  1.00  0.00     0.006 C 
BRANCH   6   7
ATOM      7  C   UNL     1      -6.123  35.427  24.041  1.00  0.00     0.053 C 
BRANCH   7   8
ATOM      8  C   UNL     1      -5.550  34.180  23.442  1.00  0.00     0.041 C 
ATOM      9  O   UNL     1      -5.964  33.049  23.810  1.00  0.00    -0.550 OA
ATOM     10  O   UNL     1      -4.580  34.265  22.451  1.00  0.00    -0.550 OA
ENDBRANCH   7   8
ENDBRANCH   6   7
ENDBRANCH   5   6
ENDBRANCH   4   5
ENDBRANCH   3   4
ENDBRANCH   2   3
ENDBRANCH   1   2
BRANCH   1  11
ATOM     11  C   UNL     1      -5.562  38.529  20.746  1.00  0.00     0.000 C 
BRANCH  11  12
ATOM     12  C   UNL     1      -5.708  37.649  19.498  1.00  0.00     0.000 C 
BRANCH  12  13
ATOM     13  C   UNL     1      -4.667  36.524  19.492  1.00  0.00     0.000 C 
BRANCH  13  14
ATOM     14  C   UNL     1      -5.332  35.158  19.277  1.00  0.00     0.000 C 
BRANCH  14  15
ATOM     15  C   UNL     1      -4.784  34.470  18.019  1.00  0.00     0.000 C 
BRANCH  15  16
ATOM     16  C   UNL     1      -4.654  35.424  16.818  1.00  0.00     0.006 C 
BRANCH  16  17
ATOM     17  C   UNL     1      -3.396  35.185  15.963  1.00  0.00     0.053 C 
BRANCH  17  18
ATOM     18  C   UNL     1      -3.298  36.134  14.808  1.00  0.00     0.041 C 
ATOM     19  O   UNL     1      -4.310  36.783  14.434  1.00  0.00    -0.550 OA
ATOM     20  O   UNL     1      -2.081  36.330  14.165  1.00  0.00    -0.550 OA
ENDBRANCH  17  18
ENDBRANCH  16  17
ENDBRANCH  15  16
ENDBRANCH  14  15
ENDBRANCH  13  14
ENDBRANCH  12  13
ENDBRANCH  11  12
ENDBRANCH   1  11
TORSDOF 15
ENDMDL
MODEL 4
REMARK VINA RESULT:     2.074      2.035      7.754
REMARK INTER + INTRA:           2.817
REMARK INTER:                   3.776
REMARK INTRA:                  -0.959
REMARK UNBOUND:                -1.076
REMARK SMILES O=C([O-])CCCCCCCCCCCCCCC(=O)[O-]
REMARK SMILES IDX 10 1 9 2 8 3 7 4 6 5 5 6 4 7 2 8 1 9 3 10 11 11 12 12 13 13
REMARK SMILES IDX 14 14 15 15 16 16 17 17 18 18 19 19 20 20
REMARK H PARENT
REMARK Flexibility Score: inf
ROOT
ATOM      1  C   UNL     1      -4.556  35.613  21.527  1.00  0.00     0.000 C 
ENDROOT
BRANCH   1   2
ATOM      2  C   UNL     1      -5.743  36.590  21.497  1.00  0.00     0.000 C 
BRANCH   2   3
ATOM      3  C   UNL     1      -5.457  37.840  20.649  1.00  0.00     0.000 C 
BRANCH   3   4
ATOM      4  C   UNL     1      -5.441  39.137  21.480  1.00  0.00     0.000 C 
BRANCH   4   5
ATOM      5  C   UNL     1      -4.342  39.216  22.556  1.00  0.00     0.000 C 
BRANCH   5   6
ATOM      6  C   UNL     1      -4.840  39.177  24.014  1.00  0.00     0.006 C 
BRANCH   6   7
ATOM      7  C   UNL     1      -5.820  38.028  24.309  1.00  0.00     0.053 C 
BRANCH   7   8
ATOM      8  C   UNL     1      -5.229  36.989  25.213  1.00  0.00     0.041 C 
ATOM      9  O   UNL     1      -4.593  37.331  26.245  1.00  0.00    -0.550 OA
ATOM     10  O   UNL     1      -5.409  35.639  24.935  1.00  0.00    -0.550 OA
ENDBRANCH   7   8
ENDBRANCH   6   7
ENDBRANCH   5   6
ENDBRANCH   4   5
ENDBRANCH   3   4
ENDBRANCH   2   3
ENDBRANCH   1   2
BRANCH   1  11
ATOM     11  C   UNL     1      -4.598  34.593  20.380  1.00  0.00     0.000 C 
BRANCH  11  12
ATOM     12  C   UNL     1      -6.025  34.428  19.844  1.00  0.00     0.000 C 
BRANCH  12  13
ATOM     13  C   UNL     1      -6.053  34.525  18.314  1.00  0.00     0.000 C 
BRANCH  13  14
ATOM     14  C   UNL     1      -4.867  35.346  17.793  1.00  0.00     0.000 C 
BRANCH  14  15
ATOM     15  C   UNL     1      -3.917  34.475  16.959  1.00  0.00     0.000 C 
BRANCH  15  16
ATOM     16  C   UNL     1      -3.411  35.180  15.688  1.00  0.00     0.006 C 
BRANCH  16  17
ATOM     17  C   UNL     1      -4.412  36.185  15.090  1.00  0.00     0.053 C 
BRANCH  17  18
ATOM     18  C   UNL     1      -3.735  37.302  14.355  1.00  0.00     0.041 C 
ATOM     19  O   UNL     1      -2.582  37.137  13.875  1.00  0.00    -0.550 OA
ATOM     20  O   UNL     1      -4.390  38.513  14.167  1.00  0.00    -0.550 OA
ENDBRANCH  17  18
ENDBRANCH  16  17
ENDBRANCH  15  16
ENDBRANCH  14  15
ENDBRANCH  13  14
ENDBRANCH  12  13
ENDBRANCH  11  12
ENDBRANCH   1  11
TORSDOF 15
ENDMDL
MODEL 5
REMARK VINA RESULT:     2.550      2.014      3.280
REMARK INTER + INTRA:           3.709
REMARK INTER:                   4.060
REMARK INTRA:                  -0.351
REMARK UNBOUND:                -1.076
REMARK SMILES O=C([O-])CCCCCCCCCCCCCCC(=O)[O-]
REMARK SMILES IDX 10 1 9 2 8 3 7 4 6 5 5 6 4 7 2 8 1 9 3 10 11 11 12 12 13 13
REMARK SMILES IDX 14 14 15 15 16 16 17 17 18 18 19 19 20 20
REMARK H PARENT
REMARK Flexibility Score: inf
ROOT
ATOM      1  C   UNL     1      -6.099  35.181  20.376  1.00  0.00     0.000 C 
ENDROOT
BRANCH   1   2
ATOM      2  C   UNL     1      -6.097  34.443  19.027  1.00  0.00     0.000 C 
BRANCH   2   3
ATOM      3  C   UNL     1      -4.682  34.271  18.451  1.00  0.00     0.000 C 
BRANCH   3   4
ATOM      4  C   UNL     1      -4.641  34.387  16.915  1.00  0.00     0.000 C 
BRANCH   4   5
ATOM      5  C   UNL     1      -4.149  35.741  16.370  1.00  0.00     0.000 C 
BRANCH   5   6
ATOM      6  C   UNL     1      -3.766  35.752  14.877  1.00  0.00     0.006 C 
BRANCH   6   7
ATOM      7  C   UNL     1      -4.525  36.801  14.045  1.00  0.00     0.053 C 
BRANCH   7   8
ATOM      8  C   UNL     1      -4.248  38.202  14.499  1.00  0.00     0.041 C 
ATOM      9  O   UNL     1      -3.407  38.420  15.410  1.00  0.00    -0.550 OA
ATOM     10  O   UNL     1      -4.894  39.272  13.891  1.00  0.00    -0.550 OA
ENDBRANCH   7   8
ENDBRANCH   6   7
ENDBRANCH   5   6
ENDBRANCH   4   5
ENDBRANCH   3   4
ENDBRANCH   2   3
ENDBRANCH   1   2
BRANCH   1  11
ATOM     11  C   UNL     1      -4.691  35.335  20.970  1.00  0.00     0.000 C 
BRANCH  11  12
ATOM     12  C   UNL     1      -4.003  36.596  20.434  1.00  0.00     0.000 C 
BRANCH  12  13
ATOM     13  C   UNL     1      -4.865  37.841  20.681  1.00  0.00     0.000 C 
BRANCH  13  14
ATOM     14  C   UNL     1      -4.264  38.714  21.790  1.00  0.00     0.000 C 
BRANCH  14  15
ATOM     15  C   UNL     1      -5.367  39.370  22.632  1.00  0.00     0.000 C 
BRANCH  15  16
ATOM     16  C   UNL     1      -5.890  38.459  23.758  1.00  0.00     0.006 C 
BRANCH  16  17
ATOM     17  C   UNL     1      -4.981  37.254  24.059  1.00  0.00     0.053 C 
BRANCH  17  18
ATOM     18  C   UNL     1      -5.738  36.089  24.619  1.00  0.00     0.041 C 
ATOM     19  O   UNL     1      -5.999  35.094  23.891  1.00  0.00    -0.550 OA
ATOM     20  O   UNL     1      -6.125  36.082  25.954  1.00  0.00    -0.550 OA
ENDBRANCH  17  18
ENDBRANCH  16  17
ENDBRANCH  15  16
ENDBRANCH  14  15
ENDBRANCH  13  14
ENDBRANCH  12  13
ENDBRANCH  11  12
ENDBRANCH   1  11
TORSDOF 15
ENDMDL
MODEL 6
REMARK VINA RESULT:     2.787      1.867      3.359
REMARK INTER + INTRA:           4.154
REMARK INTER:                   1.499
REMARK INTRA:                   2.656
REMARK UNBOUND:                -1.076
REMARK SMILES O=C([O-])CCCCCCCCCCCCCCC(=O)[O-]
REMARK SMILES IDX 10 1 9 2 8 3 7 4 6 5 5 6 4 7 2 8 1 9 3 10 11 11 12 12 13 13
REMARK SMILES IDX 14 14 15 15 16 16 17 17 18 18 19 19 20 20
REMARK H PARENT
REMARK Flexibility Score: inf
ROOT
ATOM      1  C   UNL     1      -4.268  36.826  20.919  1.00  0.00     0.000 C 
ENDROOT
BRANCH   1   2
ATOM      2  C   UNL     1      -4.544  36.630  19.419  1.00  0.00     0.000 C 
BRANCH   2   3
ATOM      3  C   UNL     1      -5.090  35.229  19.099  1.00  0.00     0.000 C 
BRANCH   3   4
ATOM      4  C   UNL     1      -4.584  34.682  17.750  1.00  0.00     0.000 C 
BRANCH   4   5
ATOM      5  C   UNL     1      -4.253  35.748  16.690  1.00  0.00     0.000 C 
BRANCH   5   6
ATOM      6  C   UNL     1      -3.454  35.244  15.472  1.00  0.00     0.006 C 
BRANCH   6   7
ATOM      7  C   UNL     1      -3.888  35.872  14.136  1.00  0.00     0.053 C 
BRANCH   7   8
ATOM      8  C   UNL     1      -3.932  37.368  14.193  1.00  0.00     0.041 C 
ATOM      9  O   UNL     1      -2.879  38.028  14.397  1.00  0.00    -0.550 OA
ATOM     10  O   UNL     1      -5.132  38.038  13.986  1.00  0.00    -0.550 OA
ENDBRANCH   7   8
ENDBRANCH   6   7
ENDBRANCH   5   6
ENDBRANCH   4   5
ENDBRANCH   3   4
ENDBRANCH   2   3
ENDBRANCH   1   2
BRANCH   1  11
ATOM     11  C   UNL     1      -5.446  37.476  21.659  1.00  0.00     0.000 C 
BRANCH  11  12
ATOM     12  C   UNL     1      -5.555  38.967  21.315  1.00  0.00     0.000 C 
BRANCH  12  13
ATOM     13  C   UNL     1      -5.190  39.839  22.522  1.00  0.00     0.000 C 
BRANCH  13  14
ATOM     14  C   UNL     1      -4.841  38.974  23.740  1.00  0.00     0.000 C 
BRANCH  14  15
ATOM     15  C   UNL     1      -5.752  37.740  23.818  1.00  0.00     0.000 C 
BRANCH  15  16
ATOM     16  C   UNL     1      -5.223  36.660  24.778  1.00  0.00     0.006 C 
BRANCH  16  17
ATOM     17  C   UNL     1      -6.122  35.414  24.873  1.00  0.00     0.053 C 
BRANCH  17  18
ATOM     18  C   UNL     1      -5.830  34.412  23.798  1.00  0.00     0.041 C 
ATOM     19  O   UNL     1      -6.075  33.191  23.987  1.00  0.00    -0.550 OA
ATOM     20  O   UNL     1      -5.322  34.827  22.573  1.00  0.00    -0.550 OA
ENDBRANCH  17  18
ENDBRANCH  16  17
ENDBRANCH  15  16
ENDBRANCH  14  15
ENDBRANCH  13  14
ENDBRANCH  12  13
ENDBRANCH  11  12
ENDBRANCH   1  11
TORSDOF 15
ENDMDL
MODEL 7
REMARK VINA RESULT:     2.963      2.799      4.795
REMARK INTER + INTRA:           4.485
REMARK INTER:                   4.429
REMARK INTRA:                   0.055
REMARK UNBOUND:                -1.076
REMARK SMILES O=C([O-])CCCCCCCCCCCCCCC(=O)[O-]
REMARK SMILES IDX 10 1 9 2 8 3 7 4 6 5 5 6 4 7 2 8 1 9 3 10 11 11 12 12 13 13
REMARK SMILES IDX 14 14 15 15 16 16 17 17 18 18 19 19 20 20
REMARK H PARENT
REMARK Flexibility Score: inf
ROOT
ATOM      1  C   UNL     1      -4.806  38.570  23.415  1.00  0.00     0.000 C 
ENDROOT
BRANCH   1   2
ATOM      2  C   UNL     1      -6.023  39.216  22.733  1.00  0.00     0.000 C 
BRANCH   2   3
ATOM      3  C   UNL     1      -5.622  40.215  21.635  1.00  0.00     0.000 C 
BRANCH   3   4
ATOM      4  C   UNL     1      -5.793  39.646  20.214  1.00  0.00     0.000 C 
BRANCH   4   5
ATOM      5  C   UNL     1      -6.021  38.124  20.138  1.00  0.00     0.000 C 
BRANCH   5   6
ATOM      6  C   UNL     1      -4.743  37.267  20.065  1.00  0.00     0.006 C 
BRANCH   6   7
ATOM      7  C   UNL     1      -4.669  36.359  18.824  1.00  0.00     0.053 C 
BRANCH   7   8
ATOM      8  C   UNL     1      -5.480  35.109  18.978  1.00  0.00     0.041 C 
ATOM      9  O   UNL     1      -5.567  34.287  18.029  1.00  0.00    -0.550 OA
ATOM     10  O   UNL     1      -6.115  34.835  20.184  1.00  0.00    -0.550 OA
ENDBRANCH   7   8
ENDBRANCH   6   7
ENDBRANCH   5   6
ENDBRANCH   4   5
ENDBRANCH   3   4
ENDBRANCH   2   3
ENDBRANCH   1   2
BRANCH   1  11
ATOM     11  C   UNL     1      -4.609  39.054  24.859  1.00  0.00     0.000 C 
BRANCH  11  12
ATOM     12  C   UNL     1      -4.687  37.883  25.846  1.00  0.00     0.000 C 
BRANCH  12  13
ATOM     13  C   UNL     1      -6.091  37.267  25.860  1.00  0.00     0.000 C 
BRANCH  13  14
ATOM     14  C   UNL     1      -6.024  35.741  25.713  1.00  0.00     0.000 C 
BRANCH  14  15
ATOM     15  C   UNL     1      -5.100  35.340  24.554  1.00  0.00     0.000 C 
BRANCH  15  16
ATOM     16  C   UNL     1      -5.863  34.793  23.335  1.00  0.00     0.006 C 
BRANCH  16  17
ATOM     17  C   UNL     1      -5.181  33.590  22.659  1.00  0.00     0.053 C 
BRANCH  17  18
ATOM     18  C   UNL     1      -3.812  33.919  22.146  1.00  0.00     0.041 C 
ATOM     19  O   UNL     1      -3.559  35.074  21.711  1.00  0.00    -0.550 OA
ATOM     20  O   UNL     1      -2.803  32.964  22.182  1.00  0.00    -0.550 OA
ENDBRANCH  17  18
ENDBRANCH  16  17
ENDBRANCH  15  16
ENDBRANCH  14  15
ENDBRANCH  13  14
ENDBRANCH  12  13
ENDBRANCH  11  12
ENDBRANCH   1  11
TORSDOF 15
ENDMDL
MODEL 8
REMARK VINA RESULT:     3.181      3.554      7.948
REMARK INTER + INTRA:           4.894
REMARK INTER:                   4.405
REMARK INTRA:                   0.489
REMARK UNBOUND:                -1.076
REMARK SMILES O=C([O-])CCCCCCCCCCCCCCC(=O)[O-]
REMARK SMILES IDX 10 1 9 2 8 3 7 4 6 5 5 6 4 7 2 8 1 9 3 10 11 11 12 12 13 13
REMARK SMILES IDX 14 14 15 15 16 16 17 17 18 18 19 19 20 20
REMARK H PARENT
REMARK Flexibility Score: inf
ROOT
ATOM      1  C   UNL     1      -4.942  39.830  22.421  1.00  0.00     0.000 C 
ENDROOT
BRANCH   1   2
ATOM      2  C   UNL     1      -5.365  39.105  23.710  1.00  0.00     0.000 C 
BRANCH   2   3
ATOM      3  C   UNL     1      -5.778  37.646  23.458  1.00  0.00     0.000 C 
BRANCH   3   4
ATOM      4  C   UNL     1      -5.237  36.676  24.525  1.00  0.00     0.000 C 
BRANCH   4   5
ATOM      5  C   UNL     1      -5.636  37.004  25.976  1.00  0.00     0.000 C 
BRANCH   5   6
ATOM      6  C   UNL     1      -4.638  37.884  26.753  1.00  0.00     0.006 C 
BRANCH   6   7
ATOM      7  C   UNL     1      -3.218  37.892  26.161  1.00  0.00     0.053 C 
BRANCH   7   8
ATOM      8  C   UNL     1      -2.197  37.345  27.112  1.00  0.00     0.041 C 
ATOM      9  O   UNL     1      -1.223  38.055  27.476  1.00  0.00    -0.550 OA
ATOM     10  O   UNL     1      -2.340  36.062  27.625  1.00  0.00    -0.550 OA
ENDBRANCH   7   8
ENDBRANCH   6   7
ENDBRANCH   5   6
ENDBRANCH   4   5
ENDBRANCH   3   4
ENDBRANCH   2   3
ENDBRANCH   1   2
BRANCH   1  11
ATOM     11  C   UNL     1      -6.124  40.103  21.480  1.00  0.00     0.000 C 
BRANCH  11  12
ATOM     12  C   UNL     1      -5.901  39.443  20.113  1.00  0.00     0.000 C 
BRANCH  12  13
ATOM     13  C   UNL     1      -5.990  37.916  20.218  1.00  0.00     0.000 C 
BRANCH  13  14
ATOM     14  C   UNL     1      -4.608  37.271  20.048  1.00  0.00     0.000 C 
BRANCH  14  15
ATOM     15  C   UNL     1      -4.679  36.054  19.114  1.00  0.00     0.000 C 
BRANCH  15  16
ATOM     16  C   UNL     1      -5.658  34.973  19.606  1.00  0.00     0.006 C 
BRANCH  16  17
ATOM     17  C   UNL     1      -6.125  35.167  21.060  1.00  0.00     0.053 C 
BRANCH  17  18
ATOM     18  C   UNL     1      -5.189  34.545  22.052  1.00  0.00     0.041 C 
ATOM     19  O   UNL     1      -5.645  33.911  23.040  1.00  0.00    -0.550 OA
ATOM     20  O   UNL     1      -3.815  34.634  21.868  1.00  0.00    -0.550 OA
ENDBRANCH  17  18
ENDBRANCH  16  17
ENDBRANCH  15  16
ENDBRANCH  14  15
ENDBRANCH  13  14
ENDBRANCH  12  13
ENDBRANCH  11  12
ENDBRANCH   1  11
TORSDOF 15
ENDMDL
