MODEL 1
REMARK VINA RESULT:    -3.987      0.000      0.000
REMARK INTER + INTRA:         -10.127
REMARK INTER:                  -8.415
REMARK INTRA:                  -1.712
REMARK UNBOUND:                -1.712
REMARK SMILES CCC(=O)CCCCC[C@@H]1NC(=O)[C@@H]2CCCCN2C(=O)[C@@H]([C@@H](C)CC)NC(=O)[C@@H](Cc2cn(OC)c3ccccc23)NC1=O
REMARK SMILES IDX 9 1 10 2 44 3 43 4 45 6 30 7 28 8 27 9 29 11 22 12 23 14
REMARK SMILES IDX 24 15 25 16 26 17 31 18 32 19 33 20 42 21 34 22 37 23 41 24
REMARK SMILES IDX 38 25 40 26 39 27 35 28 36 29 11 30 12 31 13 33 14 34 19 35
REMARK SMILES IDX 15 36 18 37 16 38 17 39 20 40 21 41 8 43 7 44 6 45 5 46 3 47
REMARK SMILES IDX 4 48 2 49 1 50
REMARK H PARENT 43 5 27 10 11 32
REMARK Flexibility Score: 80.00
ROOT
ATOM      1  C   UNL     1      62.909  33.280  59.393  1.00  0.00     0.035 C 
ENDROOT
BRANCH   1   2
ATOM      2  C   UNL     1      61.846  32.302  59.947  1.00  0.00     0.171 C 
BRANCH   2   3
ATOM      3  C   UNL     1      60.538  32.435  59.193  1.00  0.00     0.243 C 
ATOM      4  N   UNL     1      59.539  31.409  59.247  1.00  0.00    -0.342 N 
ATOM      5  H   UNL     1      58.582  31.704  59.552  1.00  0.00     0.164 HD
ATOM      6  O   UNL     1      60.246  33.531  58.641  1.00  0.00    -0.273 OA
BRANCH   4   7
ATOM      7  C   UNL     1      59.651  30.160  58.483  1.00  0.00     0.175 C 
BRANCH   7   8
ATOM      8  C   UNL     1      59.367  28.982  59.380  1.00  0.00     0.243 C 
ATOM      9  N   UNL     1      59.798  27.667  58.998  1.00  0.00    -0.342 N 
ATOM     10  H   UNL     1      59.584  27.368  58.020  1.00  0.00     0.164 HD
ATOM     11  O   UNL     1      58.671  29.137  60.418  1.00  0.00    -0.273 OA
BRANCH   9  12
ATOM     12  C   UNL     1      60.862  26.922  59.686  1.00  0.00     0.174 CG0
ATOM     13  G   UNL     1      62.178  27.671  59.595  1.00  0.00     0.000 G0
BRANCH  12  14
ATOM     14  C   UNL     1      60.427  26.401  61.095  1.00  0.00     0.018 C 
ATOM     15  C   UNL     1      58.915  26.140  61.250  1.00  0.00     0.010 C 
BRANCH  14  16
ATOM     16  C   UNL     1      61.246  25.142  61.482  1.00  0.00     0.002 C 
ATOM     17  C   UNL     1      60.498  23.834  61.218  1.00  0.00     0.004 C 
ENDBRANCH  14  16
ENDBRANCH  12  14
ENDBRANCH   9  12
ENDBRANCH   7   8
BRANCH   7  18
ATOM     18  C   UNL     1      58.672  30.173  57.295  1.00  0.00     0.073 C 
BRANCH  18  19
ATOM     19  C   UNL     1      57.354  30.784  57.676  1.00  0.00    -0.016 A 
ATOM     20  C   UNL     1      57.014  32.126  57.583  1.00  0.00     0.134 A 
ATOM     21  C   UNL     1      56.247  30.149  58.204  1.00  0.00     0.006 A 
ATOM     22  N   UNL     1      55.747  32.324  58.011  1.00  0.00    -0.191 N 
ATOM     23  C   UNL     1      55.275  31.107  58.398  1.00  0.00     0.087 A 
ATOM     24  C   UNL     1      56.042  28.805  58.519  1.00  0.00     0.011 A 
ATOM     25  C   UNL     1      54.026  30.750  58.934  1.00  0.00     0.030 A 
ATOM     26  C   UNL     1      54.800  28.434  59.051  1.00  0.00     0.001 A 
ATOM     27  C   UNL     1      53.797  29.402  59.262  1.00  0.00     0.002 A 
BRANCH  22  28
ATOM     28  O   UNL     1      55.155  33.577  58.008  1.00  0.00    -0.417 OA
ATOM     29  C   UNL     1      55.830  34.795  57.722  1.00  0.00     0.313 C 
ENDBRANCH  22  28
ENDBRANCH  18  19
ENDBRANCH   7  18
ENDBRANCH   4   7
ENDBRANCH   2   3
BRANCH   2  30
ATOM     30  N   UNL     1      62.351  30.925  59.902  1.00  0.00    -0.343 N 
ATOM     31  C   UNL     1      62.592  30.159  61.093  1.00  0.00     0.243 C 
ATOM     32  H   UNL     1      62.622  30.531  58.972  1.00  0.00     0.164 HD
ATOM     33  O   UNL     1      61.920  30.403  62.131  1.00  0.00    -0.273 OA
BRANCH  31  34
ATOM     34  C   UNL     1      63.646  29.066  61.149  1.00  0.00     0.174 C 
ATOM     35  N   UNL     1      63.188  27.763  60.627  1.00  0.00    -0.329 N 
ATOM     36  C   UNL     1      64.954  29.472  60.447  1.00  0.00     0.035 C 
ATOM     37  C   UNL     1      64.142  26.654  60.767  1.00  0.00     0.120 C 
ATOM     38  C   UNL     1      66.004  28.362  60.604  1.00  0.00     0.004 C 
ATOM     39  C   UNL     1      65.470  27.019  60.089  1.00  0.00     0.022 C 
BRANCH  35  40
ATOM     40  C   UNL     1      62.221  27.679  59.566  1.00  0.00     0.246 CG0
ATOM     41  O   UNL     1      62.505  28.169  58.441  1.00  0.00    -0.272 OA
ATOM     42  G   UNL     1      60.903  26.941  59.713  1.00  0.00     0.000 G0
ENDBRANCH  35  40
ENDBRANCH  31  34
ENDBRANCH   2  30
ENDBRANCH   1   2
BRANCH   1  43
ATOM     43  C   UNL     1      64.107  33.435  60.341  1.00  0.00     0.003 C 
BRANCH  43  44
ATOM     44  C   UNL     1      63.894  34.582  61.345  1.00  0.00     0.001 C 
BRANCH  44  45
ATOM     45  C   UNL     1      64.603  35.858  60.868  1.00  0.00     0.008 C 
BRANCH  45  46
ATOM     46  C   UNL     1      63.632  37.032  60.672  1.00  0.00     0.075 C 
BRANCH  46  47
ATOM     47  C   UNL     1      62.999  37.046  59.301  1.00  0.00     0.132 C 
ATOM     48  O   UNL     1      63.704  37.023  58.301  1.00  0.00    -0.300 OA
BRANCH  47  49
ATOM     49  C   UNL     1      61.501  37.012  59.147  1.00  0.00     0.072 C 
ATOM     50  C   UNL     1      60.815  36.624  60.451  1.00  0.00     0.012 C 
ENDBRANCH  47  49
ENDBRANCH  46  47
ENDBRANCH  45  46
ENDBRANCH  44  45
ENDBRANCH  43  44
ENDBRANCH   1  43
TORSDOF 12
ENDMDL
MODEL 2
REMARK VINA RESULT:    -3.910      8.567     11.099
REMARK INTER + INTRA:          -9.966
REMARK INTER:                  -7.291
REMARK INTRA:                  -2.675
REMARK UNBOUND:                -1.712
REMARK SMILES CCC(=O)CCCCC[C@@H]1NC(=O)[C@@H]2CCCCN2C(=O)[C@@H]([C@@H](C)CC)NC(=O)[C@@H](Cc2cn(OC)c3ccccc23)NC1=O
REMARK SMILES IDX 9 1 10 2 44 3 43 4 45 6 30 7 28 8 27 9 29 11 22 12 23 14
REMARK SMILES IDX 24 15 25 16 26 17 31 18 32 19 33 20 42 21 34 22 37 23 41 24
REMARK SMILES IDX 38 25 40 26 39 27 35 28 36 29 11 30 12 31 13 33 14 34 19 35
REMARK SMILES IDX 15 36 18 37 16 38 17 39 20 40 21 41 8 43 7 44 6 45 5 46 3 47
REMARK SMILES IDX 4 48 2 49 1 50
REMARK H PARENT 43 5 27 10 11 32
REMARK Flexibility Score: 80.00
ROOT
ATOM      1  C   UNL     1      61.876  29.902  54.391  1.00  0.00     0.035 C 
ENDROOT
BRANCH   1   2
ATOM      2  C   UNL     1      63.017  29.422  53.463  1.00  0.00     0.171 C 
BRANCH   2   3
ATOM      3  C   UNL     1      62.777  28.001  52.994  1.00  0.00     0.243 C 
ATOM      4  N   UNL     1      63.493  27.452  51.880  1.00  0.00    -0.342 N 
ATOM      5  H   UNL     1      64.014  26.561  52.053  1.00  0.00     0.164 HD
ATOM      6  O   UNL     1      62.061  27.230  53.689  1.00  0.00    -0.273 OA
BRANCH   4   7
ATOM      7  C   UNL     1      63.157  27.782  50.489  1.00  0.00     0.175 C 
BRANCH   7   8
ATOM      8  C   UNL     1      64.406  28.175  49.740  1.00  0.00     0.243 C 
ATOM      9  N   UNL     1      64.303  28.841  48.472  1.00  0.00    -0.342 N 
ATOM     10  H   UNL     1      63.643  28.425  47.775  1.00  0.00     0.164 HD
ATOM     11  O   UNL     1      65.536  27.837  50.181  1.00  0.00    -0.273 OA
BRANCH   9  12
ATOM     12  C   UNL     1      64.684  30.243  48.250  1.00  0.00     0.174 CG0
ATOM     13  G   UNL     1      63.915  31.156  49.186  1.00  0.00     0.000 G0
BRANCH  12  14
ATOM     14  C   UNL     1      66.232  30.446  48.158  1.00  0.00     0.018 C 
ATOM     15  C   UNL     1      67.066  29.169  48.381  1.00  0.00     0.010 C 
BRANCH  14  16
ATOM     16  C   UNL     1      66.609  31.123  46.814  1.00  0.00     0.002 C 
ATOM     17  C   UNL     1      67.956  30.655  46.263  1.00  0.00     0.004 C 
ENDBRANCH  14  16
ENDBRANCH  12  14
ENDBRANCH   9  12
ENDBRANCH   7   8
BRANCH   7  18
ATOM     18  C   UNL     1      62.482  26.581  49.805  1.00  0.00     0.073 C 
BRANCH  18  19
ATOM     19  C   UNL     1      61.046  26.446  50.223  1.00  0.00    -0.016 A 
ATOM     20  C   UNL     1      60.475  25.354  50.861  1.00  0.00     0.134 A 
ATOM     21  C   UNL     1      60.022  27.354  50.039  1.00  0.00     0.006 A 
ATOM     22  N   UNL     1      59.160  25.572  51.088  1.00  0.00    -0.191 N 
ATOM     23  C   UNL     1      58.879  26.803  50.578  1.00  0.00     0.087 A 
ATOM     24  C   UNL     1      60.030  28.614  49.439  1.00  0.00     0.011 A 
ATOM     25  C   UNL     1      57.664  27.507  50.533  1.00  0.00     0.030 A 
ATOM     26  C   UNL     1      58.826  29.329  49.390  1.00  0.00     0.001 A 
ATOM     27  C   UNL     1      57.647  28.778  49.931  1.00  0.00     0.002 A 
BRANCH  22  28
ATOM     28  O   UNL     1      58.357  24.641  51.727  1.00  0.00    -0.417 OA
ATOM     29  C   UNL     1      58.827  23.447  52.340  1.00  0.00     0.313 C 
ENDBRANCH  22  28
ENDBRANCH  18  19
ENDBRANCH   7  18
ENDBRANCH   4   7
ENDBRANCH   2   3
BRANCH   2  30
ATOM     30  N   UNL     1      63.170  30.340  52.328  1.00  0.00    -0.343 N 
ATOM     31  C   UNL     1      64.401  31.030  52.061  1.00  0.00     0.243 C 
ATOM     32  H   UNL     1      62.323  30.558  51.755  1.00  0.00     0.164 HD
ATOM     33  O   UNL     1      65.490  30.510  52.423  1.00  0.00    -0.273 OA
BRANCH  31  34
ATOM     34  C   UNL     1      64.434  32.379  51.365  1.00  0.00     0.174 C 
ATOM     35  N   UNL     1      64.506  32.294  49.892  1.00  0.00    -0.329 N 
ATOM     36  C   UNL     1      63.257  33.283  51.772  1.00  0.00     0.035 C 
ATOM     37  C   UNL     1      64.652  33.576  49.190  1.00  0.00     0.120 C 
ATOM     38  C   UNL     1      63.388  34.656  51.099  1.00  0.00     0.004 C 
ATOM     39  C   UNL     1      63.502  34.517  49.576  1.00  0.00     0.022 C 
BRANCH  35  40
ATOM     40  C   UNL     1      63.895  31.208  49.174  1.00  0.00     0.246 CG0
ATOM     41  O   UNL     1      62.643  31.079  49.213  1.00  0.00    -0.272 OA
ATOM     42  G   UNL     1      64.686  30.259  48.292  1.00  0.00     0.000 G0
ENDBRANCH  35  40
ENDBRANCH  31  34
ENDBRANCH   2  30
ENDBRANCH   1   2
BRANCH   1  43
ATOM     43  C   UNL     1      60.820  30.723  53.636  1.00  0.00     0.003 C 
BRANCH  43  44
ATOM     44  C   UNL     1      59.621  29.856  53.212  1.00  0.00     0.001 C 
BRANCH  44  45
ATOM     45  C   UNL     1      58.414  30.736  52.859  1.00  0.00     0.008 C 
BRANCH  45  46
ATOM     46  C   UNL     1      57.286  30.629  53.896  1.00  0.00     0.075 C 
BRANCH  46  47
ATOM     47  C   UNL     1      56.066  29.915  53.363  1.00  0.00     0.132 C 
ATOM     48  O   UNL     1      56.043  28.692  53.319  1.00  0.00    -0.300 OA
BRANCH  47  49
ATOM     49  C   UNL     1      54.841  30.690  52.953  1.00  0.00     0.072 C 
ATOM     50  C   UNL     1      54.953  32.157  53.345  1.00  0.00     0.012 C 
ENDBRANCH  47  49
ENDBRANCH  46  47
ENDBRANCH  45  46
ENDBRANCH  44  45
ENDBRANCH  43  44
ENDBRANCH   1  43
TORSDOF 12
ENDMDL
MODEL 3
REMARK VINA RESULT:    -3.794      7.878     10.188
REMARK INTER + INTRA:          -9.719
REMARK INTER:                  -7.665
REMARK INTRA:                  -2.054
REMARK UNBOUND:                -1.712
REMARK SMILES CCC(=O)CCCCC[C@@H]1NC(=O)[C@@H]2CCCCN2C(=O)[C@@H]([C@@H](C)CC)NC(=O)[C@@H](Cc2cn(OC)c3ccccc23)NC1=O
REMARK SMILES IDX 9 1 10 2 44 3 43 4 45 6 30 7 28 8 27 9 29 11 22 12 23 14
REMARK SMILES IDX 24 15 25 16 26 17 31 18 32 19 33 20 42 21 34 22 37 23 41 24
REMARK SMILES IDX 38 25 40 26 39 27 35 28 36 29 11 30 12 31 13 33 14 34 19 35
REMARK SMILES IDX 15 36 18 37 16 38 17 39 20 40 21 41 8 43 7 44 6 45 5 46 3 47
REMARK SMILES IDX 4 48 2 49 1 50
REMARK H PARENT 43 5 27 10 11 32
REMARK Flexibility Score: 80.00
ROOT
ATOM      1  C   UNL     1      61.239  29.899  54.568  1.00  0.00     0.035 C 
ENDROOT
BRANCH   1   2
ATOM      2  C   UNL     1      62.371  29.665  53.540  1.00  0.00     0.171 C 
BRANCH   2   3
ATOM      3  C   UNL     1      62.069  28.469  52.659  1.00  0.00     0.243 C 
ATOM      4  N   UNL     1      62.755  28.266  51.417  1.00  0.00    -0.342 N 
ATOM      5  H   UNL     1      63.239  27.346  51.296  1.00  0.00     0.164 HD
ATOM      6  O   UNL     1      61.325  27.549  53.095  1.00  0.00    -0.273 OA
BRANCH   4   7
ATOM      7  C   UNL     1      62.424  29.022  50.203  1.00  0.00     0.175 C 
BRANCH   7   8
ATOM      8  C   UNL     1      63.658  29.711  49.676  1.00  0.00     0.243 C 
ATOM      9  N   UNL     1      63.542  30.710  48.653  1.00  0.00    -0.342 N 
ATOM     10  H   UNL     1      62.947  30.470  47.827  1.00  0.00     0.164 HD
ATOM     11  O   UNL     1      64.798  29.344  50.068  1.00  0.00    -0.273 OA
BRANCH   9  12
ATOM     12  C   UNL     1      63.804  32.140  48.870  1.00  0.00     0.174 CG0
ATOM     13  G   UNL     1      63.123  32.617  50.139  1.00  0.00     0.000 G0
BRANCH  12  14
ATOM     14  C   UNL     1      65.308  32.520  48.675  1.00  0.00     0.018 C 
ATOM     15  C   UNL     1      66.165  31.438  47.987  1.00  0.00     0.010 C 
BRANCH  14  16
ATOM     16  C   UNL     1      65.431  33.876  47.932  1.00  0.00     0.002 C 
ATOM     17  C   UNL     1      66.720  34.629  48.264  1.00  0.00     0.004 C 
ENDBRANCH  14  16
ENDBRANCH  12  14
ENDBRANCH   9  12
ENDBRANCH   7   8
BRANCH   7  18
ATOM     18  C   UNL     1      61.841  28.084  49.133  1.00  0.00     0.073 C 
BRANCH  18  19
ATOM     19  C   UNL     1      60.611  27.380  49.630  1.00  0.00    -0.016 A 
ATOM     20  C   UNL     1      60.508  26.035  49.954  1.00  0.00     0.134 A 
ATOM     21  C   UNL     1      59.355  27.916  49.839  1.00  0.00     0.006 A 
ATOM     22  N   UNL     1      59.255  25.741  50.367  1.00  0.00    -0.191 N 
ATOM     23  C   UNL     1      58.542  26.899  50.293  1.00  0.00     0.087 A 
ATOM     24  C   UNL     1      58.888  29.219  49.660  1.00  0.00     0.011 A 
ATOM     25  C   UNL     1      57.192  27.150  50.590  1.00  0.00     0.030 A 
ATOM     26  C   UNL     1      57.545  29.485  49.955  1.00  0.00     0.001 A 
ATOM     27  C   UNL     1      56.699  28.456  50.415  1.00  0.00     0.002 A 
BRANCH  22  28
ATOM     28  O   UNL     1      58.889  24.465  50.765  1.00  0.00    -0.417 OA
ATOM     29  C   UNL     1      58.974  23.972  52.095  1.00  0.00     0.313 C 
ENDBRANCH  22  28
ENDBRANCH  18  19
ENDBRANCH   7  18
ENDBRANCH   4   7
ENDBRANCH   2   3
BRANCH   2  30
ATOM     30  N   UNL     1      62.589  30.876  52.740  1.00  0.00    -0.343 N 
ATOM     31  C   UNL     1      63.798  31.646  52.830  1.00  0.00     0.243 C 
ATOM     32  H   UNL     1      61.797  31.227  52.155  1.00  0.00     0.164 HD
ATOM     33  O   UNL     1      64.871  31.073  53.158  1.00  0.00    -0.273 OA
BRANCH  31  34
ATOM     34  C   UNL     1      63.825  33.140  52.555  1.00  0.00     0.174 C 
ATOM     35  N   UNL     1      63.807  33.487  51.120  1.00  0.00    -0.329 N 
ATOM     36  C   UNL     1      62.697  33.894  53.282  1.00  0.00     0.035 C 
ATOM     37  C   UNL     1      63.944  34.917  50.812  1.00  0.00     0.120 C 
ATOM     38  C   UNL     1      62.823  35.403  53.029  1.00  0.00     0.004 C 
ATOM     39  C   UNL     1      62.844  35.713  51.527  1.00  0.00     0.022 C 
BRANCH  35  40
ATOM     40  C   UNL     1      63.128  32.662  50.158  1.00  0.00     0.246 CG0
ATOM     41  O   UNL     1      61.902  32.419  50.319  1.00  0.00    -0.272 OA
ATOM     42  G   UNL     1      63.800  32.142  48.901  1.00  0.00     0.000 G0
ENDBRANCH  35  40
ENDBRANCH  31  34
ENDBRANCH   2  30
ENDBRANCH   1   2
BRANCH   1  43
ATOM     43  C   UNL     1      61.454  31.180  55.389  1.00  0.00     0.003 C 
BRANCH  43  44
ATOM     44  C   UNL     1      62.617  31.029  56.385  1.00  0.00     0.001 C 
BRANCH  44  45
ATOM     45  C   UNL     1      63.041  32.398  56.934  1.00  0.00     0.008 C 
BRANCH  45  46
ATOM     46  C   UNL     1      61.980  33.015  57.857  1.00  0.00     0.075 C 
BRANCH  46  47
ATOM     47  C   UNL     1      61.785  32.232  59.133  1.00  0.00     0.132 C 
ATOM     48  O   UNL     1      62.731  32.046  59.888  1.00  0.00    -0.300 OA
BRANCH  47  49
ATOM     49  C   UNL     1      60.420  31.738  59.531  1.00  0.00     0.072 C 
ATOM     50  C   UNL     1      59.588  31.358  58.313  1.00  0.00     0.012 C 
ENDBRANCH  47  49
ENDBRANCH  46  47
ENDBRANCH  45  46
ENDBRANCH  44  45
ENDBRANCH  43  44
ENDBRANCH   1  43
TORSDOF 12
ENDMDL
MODEL 4
REMARK VINA RESULT:    -3.754      3.558      6.598
REMARK INTER + INTRA:          -9.636
REMARK INTER:                  -6.799
REMARK INTRA:                  -2.837
REMARK UNBOUND:                -1.712
REMARK SMILES CCC(=O)CCCCC[C@@H]1NC(=O)[C@@H]2CCCCN2C(=O)[C@@H]([C@@H](C)CC)NC(=O)[C@@H](Cc2cn(OC)c3ccccc23)NC1=O
REMARK SMILES IDX 9 1 10 2 44 3 43 4 45 6 30 7 28 8 27 9 29 11 22 12 23 14
REMARK SMILES IDX 24 15 25 16 26 17 31 18 32 19 33 20 42 21 34 22 37 23 41 24
REMARK SMILES IDX 38 25 40 26 39 27 35 28 36 29 11 30 12 31 13 33 14 34 19 35
REMARK SMILES IDX 15 36 18 37 16 38 17 39 20 40 21 41 8 43 7 44 6 45 5 46 3 47
REMARK SMILES IDX 4 48 2 49 1 50
REMARK H PARENT 43 5 27 10 11 32
REMARK Flexibility Score: 80.00
ROOT
ATOM      1  C   UNL     1      58.065  32.814  57.347  1.00  0.00     0.035 C 
ENDROOT
BRANCH   1   2
ATOM      2  C   UNL     1      58.844  31.816  58.235  1.00  0.00     0.171 C 
BRANCH   2   3
ATOM      3  C   UNL     1      59.007  30.479  57.538  1.00  0.00     0.243 C 
ATOM      4  N   UNL     1      60.132  29.633  57.805  1.00  0.00    -0.342 N 
ATOM      5  H   UNL     1      59.919  28.654  58.109  1.00  0.00     0.164 HD
ATOM      6  O   UNL     1      58.063  30.024  56.838  1.00  0.00    -0.273 OA
BRANCH   4   7
ATOM      7  C   UNL     1      61.463  29.891  57.240  1.00  0.00     0.175 C 
BRANCH   7   8
ATOM      8  C   UNL     1      62.524  29.591  58.269  1.00  0.00     0.243 C 
ATOM      9  N   UNL     1      63.841  30.143  58.125  1.00  0.00    -0.342 N 
ATOM     10  H   UNL     1      64.289  30.050  57.184  1.00  0.00     0.164 HD
ATOM     11  O   UNL     1      62.281  28.782  59.203  1.00  0.00    -0.273 OA
BRANCH   9  12
ATOM     12  C   UNL     1      64.399  31.174  59.011  1.00  0.00     0.174 CG0
ATOM     13  G   UNL     1      63.471  32.373  59.079  1.00  0.00     0.000 G0
BRANCH  12  14
ATOM     14  C   UNL     1      64.924  30.594  60.365  1.00  0.00     0.018 C 
ATOM     15  C   UNL     1      63.824  30.187  61.365  1.00  0.00     0.010 C 
BRANCH  14  16
ATOM     16  C   UNL     1      65.897  29.414  60.105  1.00  0.00     0.002 C 
ATOM     17  C   UNL     1      66.589  28.916  61.374  1.00  0.00     0.004 C 
ENDBRANCH  14  16
ENDBRANCH  12  14
ENDBRANCH   9  12
ENDBRANCH   7   8
BRANCH   7  18
ATOM     18  C   UNL     1      61.684  29.033  55.982  1.00  0.00     0.073 C 
BRANCH  18  19
ATOM     19  C   UNL     1      61.442  29.824  54.728  1.00  0.00    -0.016 A 
ATOM     20  C   UNL     1      62.233  30.854  54.241  1.00  0.00     0.134 A 
ATOM     21  C   UNL     1      60.393  29.700  53.838  1.00  0.00     0.006 A 
ATOM     22  N   UNL     1      61.720  31.341  53.089  1.00  0.00    -0.191 N 
ATOM     23  C   UNL     1      60.584  30.634  52.842  1.00  0.00     0.087 A 
ATOM     24  C   UNL     1      59.300  28.833  53.847  1.00  0.00     0.011 A 
ATOM     25  C   UNL     1      59.661  30.744  51.788  1.00  0.00     0.030 A 
ATOM     26  C   UNL     1      58.373  28.929  52.800  1.00  0.00     0.001 A 
ATOM     27  C   UNL     1      58.550  29.882  51.777  1.00  0.00     0.002 A 
BRANCH  22  28
ATOM     28  O   UNL     1      62.330  32.370  52.387  1.00  0.00    -0.417 OA
ATOM     29  C   UNL     1      63.222  32.192  51.295  1.00  0.00     0.313 C 
ENDBRANCH  22  28
ENDBRANCH  18  19
ENDBRANCH   7  18
ENDBRANCH   4   7
ENDBRANCH   2   3
BRANCH   2  30
ATOM     30  N   UNL     1      60.144  32.382  58.615  1.00  0.00    -0.343 N 
ATOM     31  C   UNL     1      60.670  32.265  59.947  1.00  0.00     0.243 C 
ATOM     32  H   UNL     1      60.653  32.961  57.909  1.00  0.00     0.164 HD
ATOM     33  O   UNL     1      60.335  31.281  60.658  1.00  0.00    -0.273 OA
BRANCH  31  34
ATOM     34  C   UNL     1      61.611  33.301  60.535  1.00  0.00     0.174 C 
ATOM     35  N   UNL     1      63.039  33.043  60.257  1.00  0.00    -0.329 N 
ATOM     36  C   UNL     1      61.254  34.735  60.105  1.00  0.00     0.035 C 
ATOM     37  C   UNL     1      63.986  33.961  60.902  1.00  0.00     0.120 C 
ATOM     38  C   UNL     1      62.189  35.741  60.792  1.00  0.00     0.004 C 
ATOM     39  C   UNL     1      63.660  35.409  60.511  1.00  0.00     0.022 C 
BRANCH  35  40
ATOM     40  C   UNL     1      63.460  32.397  59.043  1.00  0.00     0.246 CG0
ATOM     41  O   UNL     1      63.132  32.903  57.937  1.00  0.00    -0.272 OA
ATOM     42  G   UNL     1      64.366  31.180  59.032  1.00  0.00     0.000 G0
ENDBRANCH  35  40
ENDBRANCH  31  34
ENDBRANCH   2  30
ENDBRANCH   1   2
BRANCH   1  43
ATOM     43  C   UNL     1      58.991  33.614  56.419  1.00  0.00     0.003 C 
BRANCH  43  44
ATOM     44  C   UNL     1      59.207  32.897  55.074  1.00  0.00     0.001 C 
BRANCH  44  45
ATOM     45  C   UNL     1      57.863  32.608  54.392  1.00  0.00     0.008 C 
BRANCH  45  46
ATOM     46  C   UNL     1      57.545  33.608  53.271  1.00  0.00     0.075 C 
BRANCH  46  47
ATOM     47  C   UNL     1      56.712  34.774  53.744  1.00  0.00     0.132 C 
ATOM     48  O   UNL     1      57.257  35.798  54.135  1.00  0.00    -0.300 OA
BRANCH  47  49
ATOM     49  C   UNL     1      55.208  34.724  53.670  1.00  0.00     0.072 C 
ATOM     50  C   UNL     1      54.725  33.431  53.026  1.00  0.00     0.012 C 
ENDBRANCH  47  49
ENDBRANCH  46  47
ENDBRANCH  45  46
ENDBRANCH  44  45
ENDBRANCH  43  44
ENDBRANCH   1  43
TORSDOF 12
ENDMDL
MODEL 5
REMARK VINA RESULT:    -3.744      7.749     11.012
REMARK INTER + INTRA:          -9.613
REMARK INTER:                  -8.040
REMARK INTRA:                  -1.573
REMARK UNBOUND:                -1.712
REMARK SMILES CCC(=O)CCCCC[C@@H]1NC(=O)[C@@H]2CCCCN2C(=O)[C@@H]([C@@H](C)CC)NC(=O)[C@@H](Cc2cn(OC)c3ccccc23)NC1=O
REMARK SMILES IDX 9 1 10 2 44 3 43 4 45 6 30 7 28 8 27 9 29 11 22 12 23 14
REMARK SMILES IDX 24 15 25 16 26 17 31 18 32 19 33 20 42 21 34 22 37 23 41 24
REMARK SMILES IDX 38 25 40 26 39 27 35 28 36 29 11 30 12 31 13 33 14 34 19 35
REMARK SMILES IDX 15 36 18 37 16 38 17 39 20 40 21 41 8 43 7 44 6 45 5 46 3 47
REMARK SMILES IDX 4 48 2 49 1 50
REMARK H PARENT 43 5 27 10 11 32
REMARK Flexibility Score: 80.00
ROOT
ATOM      1  C   UNL     1      56.901  28.659  50.137  1.00  0.00     0.035 C 
ENDROOT
BRANCH   1   2
ATOM      2  C   UNL     1      58.153  27.765  49.979  1.00  0.00     0.171 C 
BRANCH   2   3
ATOM      3  C   UNL     1      59.262  28.504  49.255  1.00  0.00     0.243 C 
ATOM      4  N   UNL     1      60.603  27.999  49.234  1.00  0.00    -0.342 N 
ATOM      5  H   UNL     1      61.036  27.861  48.291  1.00  0.00     0.164 HD
ATOM      6  O   UNL     1      58.977  29.488  48.520  1.00  0.00    -0.273 OA
BRANCH   4   7
ATOM      7  C   UNL     1      61.509  28.124  50.383  1.00  0.00     0.175 C 
BRANCH   7   8
ATOM      8  C   UNL     1      62.178  26.800  50.656  1.00  0.00     0.243 C 
ATOM      9  N   UNL     1      62.841  26.574  51.908  1.00  0.00    -0.342 N 
ATOM     10  H   UNL     1      63.494  27.322  52.236  1.00  0.00     0.164 HD
ATOM     11  O   UNL     1      62.234  25.927  49.750  1.00  0.00    -0.273 OA
BRANCH   9  12
ATOM     12  C   UNL     1      62.357  25.640  52.935  1.00  0.00     0.174 CG0
ATOM     13  G   UNL     1      61.011  26.091  53.470  1.00  0.00     0.000 G0
BRANCH  12  14
ATOM     14  C   UNL     1      62.498  24.142  52.510  1.00  0.00     0.018 C 
ATOM     15  C   UNL     1      62.822  23.920  51.019  1.00  0.00     0.010 C 
BRANCH  14  16
ATOM     16  C   UNL     1      63.532  23.419  53.412  1.00  0.00     0.002 C 
ATOM     17  C   UNL     1      63.177  23.479  54.899  1.00  0.00     0.004 C 
ENDBRANCH  14  16
ENDBRANCH  12  14
ENDBRANCH   9  12
ENDBRANCH   7   8
BRANCH   7  18
ATOM     18  C   UNL     1      62.567  29.208  50.112  1.00  0.00     0.073 C 
BRANCH  18  19
ATOM     19  C   UNL     1      62.146  30.538  50.669  1.00  0.00    -0.016 A 
ATOM     20  C   UNL     1      61.328  30.747  51.769  1.00  0.00     0.134 A 
ATOM     21  C   UNL     1      62.467  31.795  50.193  1.00  0.00     0.006 A 
ATOM     22  N   UNL     1      61.158  32.070  51.989  1.00  0.00    -0.191 N 
ATOM     23  C   UNL     1      61.856  32.716  51.016  1.00  0.00     0.087 A 
ATOM     24  C   UNL     1      63.249  32.174  49.101  1.00  0.00     0.011 A 
ATOM     25  C   UNL     1      62.003  34.092  50.770  1.00  0.00     0.030 A 
ATOM     26  C   UNL     1      63.407  33.543  48.846  1.00  0.00     0.001 A 
ATOM     27  C   UNL     1      62.785  34.498  49.674  1.00  0.00     0.002 A 
BRANCH  22  28
ATOM     28  O   UNL     1      60.393  32.550  53.040  1.00  0.00    -0.417 OA
ATOM     29  C   UNL     1      59.017  32.256  53.246  1.00  0.00     0.313 C 
ENDBRANCH  22  28
ENDBRANCH  18  19
ENDBRANCH   7  18
ENDBRANCH   4   7
ENDBRANCH   2   3
BRANCH   2  30
ATOM     30  N   UNL     1      58.601  27.283  51.291  1.00  0.00    -0.343 N 
ATOM     31  C   UNL     1      58.790  25.887  51.570  1.00  0.00     0.243 C 
ATOM     32  H   UNL     1      58.699  27.981  52.064  1.00  0.00     0.164 HD
ATOM     33  O   UNL     1      59.090  25.104  50.630  1.00  0.00    -0.273 OA
BRANCH  31  34
ATOM     34  C   UNL     1      58.623  25.315  52.968  1.00  0.00     0.174 C 
ATOM     35  N   UNL     1      59.891  25.165  53.710  1.00  0.00    -0.329 N 
ATOM     36  C   UNL     1      57.620  26.115  53.817  1.00  0.00     0.035 C 
ATOM     37  C   UNL     1      59.783  24.512  55.022  1.00  0.00     0.120 C 
ATOM     38  C   UNL     1      57.435  25.445  55.186  1.00  0.00     0.004 C 
ATOM     39  C   UNL     1      58.781  25.271  55.902  1.00  0.00     0.022 C 
BRANCH  35  40
ATOM     40  C   UNL     1      60.990  26.068  53.505  1.00  0.00     0.246 CG0
ATOM     41  O   UNL     1      60.869  27.269  53.865  1.00  0.00    -0.272 OA
ATOM     42  G   UNL     1      62.332  25.618  52.957  1.00  0.00     0.000 G0
ENDBRANCH  35  40
ENDBRANCH  31  34
ENDBRANCH   2  30
ENDBRANCH   1   2
BRANCH   1  43
ATOM     43  C   UNL     1      56.322  28.605  51.558  1.00  0.00     0.003 C 
BRANCH  43  44
ATOM     44  C   UNL     1      54.797  28.810  51.560  1.00  0.00     0.001 C 
BRANCH  44  45
ATOM     45  C   UNL     1      54.256  28.866  50.125  1.00  0.00     0.008 C 
BRANCH  45  46
ATOM     46  C   UNL     1      53.270  27.729  49.823  1.00  0.00     0.075 C 
BRANCH  46  47
ATOM     47  C   UNL     1      53.882  26.360  50.000  1.00  0.00     0.132 C 
ATOM     48  O   UNL     1      54.881  26.049  49.364  1.00  0.00    -0.300 OA
BRANCH  47  49
ATOM     49  C   UNL     1      53.323  25.393  51.011  1.00  0.00     0.072 C 
ATOM     50  C   UNL     1      54.045  25.504  52.347  1.00  0.00     0.012 C 
ENDBRANCH  47  49
ENDBRANCH  46  47
ENDBRANCH  45  46
ENDBRANCH  44  45
ENDBRANCH  43  44
ENDBRANCH   1  43
TORSDOF 12
ENDMDL
MODEL 6
REMARK VINA RESULT:    -3.711      3.519      8.131
REMARK INTER + INTRA:          -9.544
REMARK INTER:                  -8.348
REMARK INTRA:                  -1.196
REMARK UNBOUND:                -1.712
REMARK SMILES CCC(=O)CCCCC[C@@H]1NC(=O)[C@@H]2CCCCN2C(=O)[C@@H]([C@@H](C)CC)NC(=O)[C@@H](Cc2cn(OC)c3ccccc23)NC1=O
REMARK SMILES IDX 9 1 10 2 44 3 43 4 45 6 30 7 28 8 27 9 29 11 22 12 23 14
REMARK SMILES IDX 24 15 25 16 26 17 31 18 32 19 33 20 42 21 34 22 37 23 41 24
REMARK SMILES IDX 38 25 40 26 39 27 35 28 36 29 11 30 12 31 13 33 14 34 19 35
REMARK SMILES IDX 15 36 18 37 16 38 17 39 20 40 21 41 8 43 7 44 6 45 5 46 3 47
REMARK SMILES IDX 4 48 2 49 1 50
REMARK H PARENT 43 5 27 10 11 32
REMARK Flexibility Score: 80.00
ROOT
ATOM      1  C   UNL     1      60.397  28.564  56.486  1.00  0.00     0.035 C 
ENDROOT
BRANCH   1   2
ATOM      2  C   UNL     1      60.080  27.426  57.484  1.00  0.00     0.171 C 
BRANCH   2   3
ATOM      3  C   UNL     1      61.205  27.250  58.485  1.00  0.00     0.243 C 
ATOM      4  N   UNL     1      60.985  26.607  59.747  1.00  0.00    -0.342 N 
ATOM      5  H   UNL     1      61.603  25.792  59.970  1.00  0.00     0.164 HD
ATOM      6  O   UNL     1      62.388  27.521  58.145  1.00  0.00    -0.273 OA
BRANCH   4   7
ATOM      7  C   UNL     1      60.326  27.285  60.871  1.00  0.00     0.175 C 
BRANCH   7   8
ATOM      8  C   UNL     1      59.246  26.399  61.442  1.00  0.00     0.243 C 
ATOM      9  N   UNL     1      58.305  26.931  62.386  1.00  0.00    -0.342 N 
ATOM     10  H   UNL     1      58.699  27.488  63.179  1.00  0.00     0.164 HD
ATOM     11  O   UNL     1      59.228  25.172  61.161  1.00  0.00    -0.273 OA
BRANCH   9  12
ATOM     12  C   UNL     1      56.879  27.135  62.095  1.00  0.00     0.174 CG0
ATOM     13  G   UNL     1      56.702  27.771  60.729  1.00  0.00     0.000 G0
BRANCH  12  14
ATOM     14  C   UNL     1      56.006  25.880  62.422  1.00  0.00     0.018 C 
ATOM     15  C   UNL     1      56.789  24.673  62.977  1.00  0.00     0.010 C 
BRANCH  14  16
ATOM     16  C   UNL     1      54.842  26.265  63.373  1.00  0.00     0.002 C 
ATOM     17  C   UNL     1      54.470  25.149  64.350  1.00  0.00     0.004 C 
ENDBRANCH  14  16
ENDBRANCH  12  14
ENDBRANCH   9  12
ENDBRANCH   7   8
BRANCH   7  18
ATOM     18  C   UNL     1      61.356  27.636  61.959  1.00  0.00     0.073 C 
BRANCH  18  19
ATOM     19  C   UNL     1      62.276  28.736  61.511  1.00  0.00    -0.016 A 
ATOM     20  C   UNL     1      63.629  28.613  61.234  1.00  0.00     0.134 A 
ATOM     21  C   UNL     1      61.968  30.067  61.310  1.00  0.00     0.006 A 
ATOM     22  N   UNL     1      64.146  29.803  60.856  1.00  0.00    -0.191 N 
ATOM     23  C   UNL     1      63.124  30.702  60.907  1.00  0.00     0.087 A 
ATOM     24  C   UNL     1      60.758  30.746  61.457  1.00  0.00     0.011 A 
ATOM     25  C   UNL     1      63.116  32.079  60.631  1.00  0.00     0.030 A 
ATOM     26  C   UNL     1      60.735  32.120  61.181  1.00  0.00     0.001 A 
ATOM     27  C   UNL     1      61.909  32.785  60.773  1.00  0.00     0.002 A 
BRANCH  22  28
ATOM     28  O   UNL     1      65.479  29.952  60.508  1.00  0.00    -0.417 OA
ATOM     29  C   UNL     1      66.137  29.223  59.480  1.00  0.00     0.313 C 
ENDBRANCH  22  28
ENDBRANCH  18  19
ENDBRANCH   7  18
ENDBRANCH   4   7
ENDBRANCH   2   3
BRANCH   2  30
ATOM     30  N   UNL     1      58.801  27.683  58.158  1.00  0.00    -0.343 N 
ATOM     31  C   UNL     1      57.762  26.693  58.233  1.00  0.00     0.243 C 
ATOM     32  H   UNL     1      58.619  28.649  58.514  1.00  0.00     0.164 HD
ATOM     33  O   UNL     1      58.071  25.472  58.213  1.00  0.00    -0.273 OA
BRANCH  31  34
ATOM     34  C   UNL     1      56.294  27.071  58.322  1.00  0.00     0.174 C 
ATOM     35  N   UNL     1      55.812  27.290  59.700  1.00  0.00    -0.329 N 
ATOM     36  C   UNL     1      55.946  28.294  57.454  1.00  0.00     0.035 C 
ATOM     37  C   UNL     1      54.372  27.548  59.834  1.00  0.00     0.120 C 
ATOM     38  C   UNL     1      54.439  28.578  57.523  1.00  0.00     0.004 C 
ATOM     39  C   UNL     1      53.975  28.756  58.974  1.00  0.00     0.022 C 
BRANCH  35  40
ATOM     40  C   UNL     1      56.679  27.810  60.723  1.00  0.00     0.246 CG0
ATOM     41  O   UNL     1      57.266  28.907  60.527  1.00  0.00    -0.272 OA
ATOM     42  G   UNL     1      56.850  27.139  62.074  1.00  0.00     0.000 G0
ENDBRANCH  35  40
ENDBRANCH  31  34
ENDBRANCH   2  30
ENDBRANCH   1   2
BRANCH   1  43
ATOM     43  C   UNL     1      59.617  28.418  55.171  1.00  0.00     0.003 C 
BRANCH  43  44
ATOM     44  C   UNL     1      59.819  29.635  54.251  1.00  0.00     0.001 C 
BRANCH  44  45
ATOM     45  C   UNL     1      59.309  29.335  52.835  1.00  0.00     0.008 C 
BRANCH  45  46
ATOM     46  C   UNL     1      59.820  30.346  51.799  1.00  0.00     0.075 C 
BRANCH  46  47
ATOM     47  C   UNL     1      60.078  29.723  50.448  1.00  0.00     0.132 C 
ATOM     48  O   UNL     1      60.963  30.166  49.728  1.00  0.00    -0.300 OA
BRANCH  47  49
ATOM     49  C   UNL     1      59.306  28.509  50.003  1.00  0.00     0.072 C 
ATOM     50  C   UNL     1      57.804  28.724  50.132  1.00  0.00     0.012 C 
ENDBRANCH  47  49
ENDBRANCH  46  47
ENDBRANCH  45  46
ENDBRANCH  44  45
ENDBRANCH  43  44
ENDBRANCH   1  43
TORSDOF 12
ENDMDL
MODEL 7
REMARK VINA RESULT:    -3.704      7.419      9.946
REMARK INTER + INTRA:          -9.530
REMARK INTER:                  -6.931
REMARK INTRA:                  -2.599
REMARK UNBOUND:                -1.712
REMARK SMILES CCC(=O)CCCCC[C@@H]1NC(=O)[C@@H]2CCCCN2C(=O)[C@@H]([C@@H](C)CC)NC(=O)[C@@H](Cc2cn(OC)c3ccccc23)NC1=O
REMARK SMILES IDX 9 1 10 2 44 3 43 4 45 6 30 7 28 8 27 9 29 11 22 12 23 14
REMARK SMILES IDX 24 15 25 16 26 17 31 18 32 19 33 20 42 21 34 22 37 23 41 24
REMARK SMILES IDX 38 25 40 26 39 27 35 28 36 29 11 30 12 31 13 33 14 34 19 35
REMARK SMILES IDX 15 36 18 37 16 38 17 39 20 40 21 41 8 43 7 44 6 45 5 46 3 47
REMARK SMILES IDX 4 48 2 49 1 50
REMARK H PARENT 43 5 27 10 11 32
REMARK Flexibility Score: 80.00
ROOT
ATOM      1  C   UNL     1      62.042  27.770  55.008  1.00  0.00     0.035 C 
ENDROOT
BRANCH   1   2
ATOM      2  C   UNL     1      63.028  28.340  53.962  1.00  0.00     0.171 C 
BRANCH   2   3
ATOM      3  C   UNL     1      63.180  27.396  52.785  1.00  0.00     0.243 C 
ATOM      4  N   UNL     1      63.629  27.865  51.508  1.00  0.00    -0.342 N 
ATOM      5  H   UNL     1      64.464  27.382  51.100  1.00  0.00     0.164 HD
ATOM      6  O   UNL     1      63.071  26.153  52.967  1.00  0.00    -0.273 OA
BRANCH   4   7
ATOM      7  C   UNL     1      62.752  28.595  50.584  1.00  0.00     0.175 C 
BRANCH   7   8
ATOM      8  C   UNL     1      63.492  29.769  49.994  1.00  0.00     0.243 C 
ATOM      9  N   UNL     1      62.768  30.809  49.319  1.00  0.00    -0.342 N 
ATOM     10  H   UNL     1      62.058  30.506  48.614  1.00  0.00     0.164 HD
ATOM     11  O   UNL     1      64.751  29.790  50.011  1.00  0.00    -0.273 OA
BRANCH   9  12
ATOM     12  C   UNL     1      62.626  32.177  49.838  1.00  0.00     0.174 CG0
ATOM     13  G   UNL     1      62.086  32.152  51.256  1.00  0.00     0.000 G0
BRANCH  12  14
ATOM     14  C   UNL     1      63.881  33.067  49.561  1.00  0.00     0.018 C 
ATOM     15  C   UNL     1      64.886  32.473  48.554  1.00  0.00     0.010 C 
BRANCH  14  16
ATOM     16  C   UNL     1      63.447  34.493  49.132  1.00  0.00     0.002 C 
ATOM     17  C   UNL     1      62.381  34.492  48.036  1.00  0.00     0.004 C 
ENDBRANCH  14  16
ENDBRANCH  12  14
ENDBRANCH   9  12
ENDBRANCH   7   8
BRANCH   7  18
ATOM     18  C   UNL     1      62.259  27.660  49.466  1.00  0.00     0.073 C 
BRANCH  18  19
ATOM     19  C   UNL     1      60.949  27.018  49.823  1.00  0.00    -0.016 A 
ATOM     20  C   UNL     1      60.750  25.685  50.153  1.00  0.00     0.134 A 
ATOM     21  C   UNL     1      59.702  27.610  49.873  1.00  0.00     0.006 A 
ATOM     22  N   UNL     1      59.445  25.453  50.418  1.00  0.00    -0.191 N 
ATOM     23  C   UNL     1      58.797  26.637  50.242  1.00  0.00     0.087 A 
ATOM     24  C   UNL     1      59.317  28.927  49.619  1.00  0.00     0.011 A 
ATOM     25  C   UNL     1      57.434  26.950  50.372  1.00  0.00     0.030 A 
ATOM     26  C   UNL     1      57.961  29.255  49.748  1.00  0.00     0.001 A 
ATOM     27  C   UNL     1      57.022  28.271  50.119  1.00  0.00     0.002 A 
BRANCH  22  28
ATOM     28  O   UNL     1      58.979  24.201  50.789  1.00  0.00    -0.417 OA
ATOM     29  C   UNL     1      59.346  23.516  51.979  1.00  0.00     0.313 C 
ENDBRANCH  22  28
ENDBRANCH  18  19
ENDBRANCH   7  18
ENDBRANCH   4   7
ENDBRANCH   2   3
BRANCH   2  30
ATOM     30  N   UNL     1      62.592  29.672  53.526  1.00  0.00    -0.343 N 
ATOM     31  C   UNL     1      63.498  30.783  53.437  1.00  0.00     0.243 C 
ATOM     32  H   UNL     1      61.571  29.825  53.361  1.00  0.00     0.164 HD
ATOM     33  O   UNL     1      64.719  30.567  53.213  1.00  0.00    -0.273 OA
BRANCH  31  34
ATOM     34  C   UNL     1      63.034  32.217  53.618  1.00  0.00     0.174 C 
ATOM     35  N   UNL     1      62.636  32.884  52.361  1.00  0.00    -0.329 N 
ATOM     36  C   UNL     1      61.900  32.345  54.650  1.00  0.00     0.035 C 
ATOM     37  C   UNL     1      62.287  34.305  52.481  1.00  0.00     0.120 C 
ATOM     38  C   UNL     1      61.528  33.822  54.847  1.00  0.00     0.004 C 
ATOM     39  C   UNL     1      61.164  34.483  53.512  1.00  0.00     0.022 C 
BRANCH  35  40
ATOM     40  C   UNL     1      62.053  32.144  51.274  1.00  0.00     0.246 CG0
ATOM     41  O   UNL     1      60.981  31.513  51.471  1.00  0.00    -0.272 OA
ATOM     42  G   UNL     1      62.622  32.165  49.868  1.00  0.00     0.000 G0
ENDBRANCH  35  40
ENDBRANCH  31  34
ENDBRANCH   2  30
ENDBRANCH   1   2
BRANCH   1  43
ATOM     43  C   UNL     1      61.694  28.794  56.099  1.00  0.00     0.003 C 
BRANCH  43  44
ATOM     44  C   UNL     1      61.857  28.202  57.510  1.00  0.00     0.001 C 
BRANCH  44  45
ATOM     45  C   UNL     1      62.480  29.233  58.461  1.00  0.00     0.008 C 
BRANCH  45  46
ATOM     46  C   UNL     1      63.989  29.403  58.237  1.00  0.00     0.075 C 
BRANCH  46  47
ATOM     47  C   UNL     1      64.486  30.779  58.612  1.00  0.00     0.132 C 
ATOM     48  O   UNL     1      65.178  30.929  59.610  1.00  0.00    -0.300 OA
BRANCH  47  49
ATOM     49  C   UNL     1      64.204  31.964  57.727  1.00  0.00     0.072 C 
ATOM     50  C   UNL     1      63.152  32.879  58.340  1.00  0.00     0.012 C 
ENDBRANCH  47  49
ENDBRANCH  46  47
ENDBRANCH  45  46
ENDBRANCH  44  45
ENDBRANCH  43  44
ENDBRANCH   1  43
TORSDOF 12
ENDMDL
MODEL 8
REMARK VINA RESULT:    -3.671      3.048      6.777
REMARK INTER + INTRA:          -9.460
REMARK INTER:                  -6.579
REMARK INTRA:                  -2.881
REMARK UNBOUND:                -1.712
REMARK SMILES CCC(=O)CCCCC[C@@H]1NC(=O)[C@@H]2CCCCN2C(=O)[C@@H]([C@@H](C)CC)NC(=O)[C@@H](Cc2cn(OC)c3ccccc23)NC1=O
REMARK SMILES IDX 9 1 10 2 44 3 43 4 45 6 30 7 28 8 27 9 29 11 22 12 23 14
REMARK SMILES IDX 24 15 25 16 26 17 31 18 32 19 33 20 42 21 34 22 37 23 41 24
REMARK SMILES IDX 38 25 40 26 39 27 35 28 36 29 11 30 12 31 13 33 14 34 19 35
REMARK SMILES IDX 15 36 18 37 16 38 17 39 20 40 21 41 8 43 7 44 6 45 5 46 3 47
REMARK SMILES IDX 4 48 2 49 1 50
REMARK H PARENT 43 5 27 10 11 32
REMARK Flexibility Score: 80.00
ROOT
ATOM      1  C   UNL     1      63.559  30.495  55.383  1.00  0.00     0.035 C 
ENDROOT
BRANCH   1   2
ATOM      2  C   UNL     1      63.718  29.565  56.609  1.00  0.00     0.171 C 
BRANCH   2   3
ATOM      3  C   UNL     1      64.474  30.259  57.725  1.00  0.00     0.243 C 
ATOM      4  N   UNL     1      64.329  29.849  59.091  1.00  0.00    -0.342 N 
ATOM      5  H   UNL     1      65.210  29.601  59.600  1.00  0.00     0.164 HD
ATOM      6  O   UNL     1      65.369  31.100  57.440  1.00  0.00    -0.273 OA
BRANCH   4   7
ATOM      7  C   UNL     1      63.157  30.206  59.900  1.00  0.00     0.175 C 
BRANCH   7   8
ATOM      8  C   UNL     1      62.710  29.014  60.709  1.00  0.00     0.243 C 
ATOM      9  N   UNL     1      61.407  29.003  61.312  1.00  0.00    -0.342 N 
ATOM     10  H   UNL     1      61.129  29.858  61.844  1.00  0.00     0.164 HD
ATOM     11  O   UNL     1      63.513  28.070  60.932  1.00  0.00    -0.273 OA
BRANCH   9  12
ATOM     12  C   UNL     1      60.313  28.120  60.882  1.00  0.00     0.174 CG0
ATOM     13  G   UNL     1      60.084  28.249  59.387  1.00  0.00     0.000 G0
BRANCH  12  14
ATOM     14  C   UNL     1      60.429  26.676  61.469  1.00  0.00     0.018 C 
ATOM     15  C   UNL     1      61.420  26.532  62.642  1.00  0.00     0.010 C 
BRANCH  14  16
ATOM     16  C   UNL     1      59.028  26.139  61.863  1.00  0.00     0.002 C 
ATOM     17  C   UNL     1      58.037  27.249  62.216  1.00  0.00     0.004 C 
ENDBRANCH  14  16
ENDBRANCH  12  14
ENDBRANCH   9  12
ENDBRANCH   7   8
BRANCH   7  18
ATOM     18  C   UNL     1      63.491  31.385  60.830  1.00  0.00     0.073 C 
BRANCH  18  19
ATOM     19  C   UNL     1      62.739  32.624  60.439  1.00  0.00    -0.016 A 
ATOM     20  C   UNL     1      61.637  32.686  59.599  1.00  0.00     0.134 A 
ATOM     21  C   UNL     1      63.002  33.928  60.814  1.00  0.00     0.006 A 
ATOM     22  N   UNL     1      61.213  33.963  59.466  1.00  0.00    -0.191 N 
ATOM     23  C   UNL     1      62.056  34.729  60.211  1.00  0.00     0.087 A 
ATOM     24  C   UNL     1      64.003  34.446  61.636  1.00  0.00     0.011 A 
ATOM     25  C   UNL     1      62.076  36.120  60.410  1.00  0.00     0.030 A 
ATOM     26  C   UNL     1      64.033  35.831  61.846  1.00  0.00     0.001 A 
ATOM     27  C   UNL     1      63.077  36.666  61.233  1.00  0.00     0.002 A 
BRANCH  22  28
ATOM     28  O   UNL     1      60.115  34.298  58.690  1.00  0.00    -0.417 OA
ATOM     29  C   UNL     1      59.187  33.368  58.148  1.00  0.00     0.313 C 
ENDBRANCH  22  28
ENDBRANCH  18  19
ENDBRANCH   7  18
ENDBRANCH   4   7
ENDBRANCH   2   3
BRANCH   2  30
ATOM     30  N   UNL     1      62.404  29.097  57.066  1.00  0.00    -0.343 N 
ATOM     31  C   UNL     1      62.151  27.721  57.389  1.00  0.00     0.243 C 
ATOM     32  H   UNL     1      61.612  29.781  57.067  1.00  0.00     0.164 HD
ATOM     33  O   UNL     1      63.099  26.999  57.798  1.00  0.00    -0.273 OA
BRANCH  31  34
ATOM     34  C   UNL     1      60.774  27.098  57.241  1.00  0.00     0.174 C 
ATOM     35  N   UNL     1      59.943  27.179  58.460  1.00  0.00    -0.329 N 
ATOM     36  C   UNL     1      59.992  27.672  56.046  1.00  0.00     0.035 C 
ATOM     37  C   UNL     1      58.648  26.490  58.391  1.00  0.00     0.120 C 
ATOM     38  C   UNL     1      58.644  26.950  55.901  1.00  0.00     0.004 C 
ATOM     39  C   UNL     1      57.836  27.023  57.203  1.00  0.00     0.022 C 
BRANCH  35  40
ATOM     40  C   UNL     1      60.063  28.282  59.375  1.00  0.00     0.246 CG0
ATOM     41  O   UNL     1      59.877  29.452  58.949  1.00  0.00    -0.272 OA
ATOM     42  G   UNL     1      60.313  28.093  60.860  1.00  0.00     0.000 G0
ENDBRANCH  35  40
ENDBRANCH  31  34
ENDBRANCH   2  30
ENDBRANCH   1   2
BRANCH   1  43
ATOM     43  C   UNL     1      62.179  31.168  55.338  1.00  0.00     0.003 C 
BRANCH  43  44
ATOM     44  C   UNL     1      62.029  32.076  54.105  1.00  0.00     0.001 C 
BRANCH  44  45
ATOM     45  C   UNL     1      60.763  31.714  53.316  1.00  0.00     0.008 C 
BRANCH  45  46
ATOM     46  C   UNL     1      60.243  30.309  53.653  1.00  0.00     0.075 C 
BRANCH  46  47
ATOM     47  C   UNL     1      60.281  29.370  52.471  1.00  0.00     0.132 C 
ATOM     48  O   UNL     1      59.643  29.634  51.459  1.00  0.00    -0.300 OA
BRANCH  47  49
ATOM     49  C   UNL     1      61.156  28.145  52.490  1.00  0.00     0.072 C 
ATOM     50  C   UNL     1      62.626  28.508  52.324  1.00  0.00     0.012 C 
ENDBRANCH  47  49
ENDBRANCH  46  47
ENDBRANCH  45  46
ENDBRANCH  44  45
ENDBRANCH  43  44
ENDBRANCH   1  43
TORSDOF 12
ENDMDL
MODEL 9
REMARK VINA RESULT:    -3.492      7.414     10.322
REMARK INTER + INTRA:          -9.082
REMARK INTER:                  -6.532
REMARK INTRA:                  -2.551
REMARK UNBOUND:                -1.712
REMARK SMILES CCC(=O)CCCCC[C@@H]1NC(=O)[C@@H]2CCCCN2C(=O)[C@@H]([C@@H](C)CC)NC(=O)[C@@H](Cc2cn(OC)c3ccccc23)NC1=O
REMARK SMILES IDX 9 1 10 2 44 3 43 4 45 6 30 7 28 8 27 9 29 11 22 12 23 14
REMARK SMILES IDX 24 15 25 16 26 17 31 18 32 19 33 20 42 21 34 22 37 23 41 24
REMARK SMILES IDX 38 25 40 26 39 27 35 28 36 29 11 30 12 31 13 33 14 34 19 35
REMARK SMILES IDX 15 36 18 37 16 38 17 39 20 40 21 41 8 43 7 44 6 45 5 46 3 47
REMARK SMILES IDX 4 48 2 49 1 50
REMARK H PARENT 43 5 27 10 11 32
REMARK Flexibility Score: 80.00
ROOT
ATOM      1  C   UNL     1      58.780  26.885  49.427  1.00  0.00     0.035 C 
ENDROOT
BRANCH   1   2
ATOM      2  C   UNL     1      59.996  27.836  49.329  1.00  0.00     0.171 C 
BRANCH   2   3
ATOM      3  C   UNL     1      59.578  29.278  49.535  1.00  0.00     0.243 C 
ATOM      4  N   UNL     1      60.542  30.298  49.827  1.00  0.00    -0.342 N 
ATOM      5  H   UNL     1      60.552  31.128  49.189  1.00  0.00     0.164 HD
ATOM      6  O   UNL     1      58.392  29.624  49.283  1.00  0.00    -0.273 OA
BRANCH   4   7
ATOM      7  C   UNL     1      61.133  30.463  51.161  1.00  0.00     0.175 C 
BRANCH   7   8
ATOM      8  C   UNL     1      62.628  30.625  51.043  1.00  0.00     0.243 C 
ATOM      9  N   UNL     1      63.473  30.332  52.166  1.00  0.00    -0.342 N 
ATOM     10  H   UNL     1      63.190  30.741  53.086  1.00  0.00     0.164 HD
ATOM     11  O   UNL     1      63.126  31.105  49.991  1.00  0.00    -0.273 OA
BRANCH   9  12
ATOM     12  C   UNL     1      64.399  29.192  52.219  1.00  0.00     0.174 CG0
ATOM     13  G   UNL     1      63.630  27.889  52.332  1.00  0.00     0.000 G0
BRANCH  12  14
ATOM     14  C   UNL     1      65.524  29.272  51.136  1.00  0.00     0.018 C 
ATOM     15  C   UNL     1      66.202  30.650  51.007  1.00  0.00     0.010 C 
BRANCH  14  16
ATOM     16  C   UNL     1      66.579  28.159  51.371  1.00  0.00     0.002 C 
ATOM     17  C   UNL     1      67.665  28.561  52.371  1.00  0.00     0.004 C 
ENDBRANCH  14  16
ENDBRANCH  12  14
ENDBRANCH   9  12
ENDBRANCH   7   8
BRANCH   7  18
ATOM     18  C   UNL     1      60.520  31.684  51.868  1.00  0.00     0.073 C 
BRANCH  18  19
ATOM     19  C   UNL     1      59.989  31.324  53.227  1.00  0.00    -0.016 A 
ATOM     20  C   UNL     1      60.688  31.386  54.424  1.00  0.00     0.134 A 
ATOM     21  C   UNL     1      58.732  30.849  53.546  1.00  0.00     0.006 A 
ATOM     22  N   UNL     1      59.903  30.989  55.451  1.00  0.00    -0.191 N 
ATOM     23  C   UNL     1      58.699  30.654  54.911  1.00  0.00     0.087 A 
ATOM     24  C   UNL     1      57.634  30.581  52.729  1.00  0.00     0.011 A 
ATOM     25  C   UNL     1      57.535  30.166  55.528  1.00  0.00     0.030 A 
ATOM     26  C   UNL     1      56.465  30.097  53.331  1.00  0.00     0.001 A 
ATOM     27  C   UNL     1      56.416  29.887  54.724  1.00  0.00     0.002 A 
BRANCH  22  28
ATOM     28  O   UNL     1      60.356  30.971  56.761  1.00  0.00    -0.417 OA
ATOM     29  C   UNL     1      61.249  30.005  57.299  1.00  0.00     0.313 C 
ENDBRANCH  22  28
ENDBRANCH  18  19
ENDBRANCH   7  18
ENDBRANCH   4   7
ENDBRANCH   2   3
BRANCH   2  30
ATOM     30  N   UNL     1      61.031  27.437  50.291  1.00  0.00    -0.343 N 
ATOM     31  C   UNL     1      62.326  26.976  49.876  1.00  0.00     0.243 C 
ATOM     32  H   UNL     1      60.774  27.410  51.305  1.00  0.00     0.164 HD
ATOM     33  O   UNL     1      62.801  27.376  48.780  1.00  0.00    -0.273 OA
BRANCH  31  34
ATOM     34  C   UNL     1      63.141  26.004  50.711  1.00  0.00     0.174 C 
ATOM     35  N   UNL     1      64.003  26.654  51.720  1.00  0.00    -0.329 N 
ATOM     36  C   UNL     1      62.269  24.934  51.391  1.00  0.00     0.035 C 
ATOM     37  C   UNL     1      64.888  25.755  52.470  1.00  0.00     0.120 C 
ATOM     38  C   UNL     1      63.154  23.938  52.154  1.00  0.00     0.004 C 
ATOM     39  C   UNL     1      64.061  24.661  53.159  1.00  0.00     0.022 C 
BRANCH  35  40
ATOM     40  C   UNL     1      63.617  27.888  52.350  1.00  0.00     0.246 CG0
ATOM     41  O   UNL     1      62.627  27.892  53.129  1.00  0.00    -0.272 OA
ATOM     42  G   UNL     1      64.408  29.173  52.192  1.00  0.00     0.000 G0
ENDBRANCH  35  40
ENDBRANCH  31  34
ENDBRANCH   2  30
ENDBRANCH   1   2
BRANCH   1  43
ATOM     43  C   UNL     1      58.694  26.189  50.793  1.00  0.00     0.003 C 
BRANCH  43  44
ATOM     44  C   UNL     1      57.698  26.895  51.731  1.00  0.00     0.001 C 
BRANCH  44  45
ATOM     45  C   UNL     1      56.461  26.018  51.967  1.00  0.00     0.008 C 
BRANCH  45  46
ATOM     46  C   UNL     1      55.152  26.818  51.899  1.00  0.00     0.075 C 
BRANCH  46  47
ATOM     47  C   UNL     1      54.924  27.458  50.551  1.00  0.00     0.132 C 
ATOM     48  O   UNL     1      55.167  28.647  50.389  1.00  0.00    -0.300 OA
BRANCH  47  49
ATOM     49  C   UNL     1      54.473  26.632  49.375  1.00  0.00     0.072 C 
ATOM     50  C   UNL     1      53.622  25.450  49.819  1.00  0.00     0.012 C 
ENDBRANCH  47  49
ENDBRANCH  46  47
ENDBRANCH  45  46
ENDBRANCH  44  45
ENDBRANCH  43  44
ENDBRANCH   1  43
TORSDOF 12
ENDMDL
