MODEL 1
REMARK VINA RESULT:    -3.523      0.000      0.000
REMARK INTER + INTRA:          -5.418
REMARK INTER:                  -4.759
REMARK INTRA:                  -0.659
REMARK UNBOUND:                -0.659
REMARK SMILES CC(=O)CCC=C(C)CCC=C(C)C
REMARK SMILES IDX 7 1 6 2 8 3 9 4 10 5 11 6 13 7 12 8 14 9 5 10 4 11 2 12 3 13
REMARK SMILES IDX 1 14
REMARK H PARENT
REMARK Flexibility Score: inf
ROOT
ATOM      1  C   UNL     1       9.080  24.483  20.960  1.00  0.00    -0.077 C 
ATOM      2  C   UNL     1       7.880  24.343  21.570  1.00  0.00    -0.028 C 
ATOM      3  C   UNL     1       9.397  25.672  20.083  1.00  0.00     0.039 C 
ENDROOT
BRANCH   1   4
ATOM      4  C   UNL     1      10.143  23.429  21.182  1.00  0.00     0.034 C 
BRANCH   4   5
ATOM      5  C   UNL     1       9.610  22.294  22.063  1.00  0.00     0.032 C 
BRANCH   5   6
ATOM      6  C   UNL     1      10.515  22.069  23.249  1.00  0.00    -0.028 C 
ATOM      7  C   UNL     1      11.124  21.843  25.618  1.00  0.00     0.039 C 
ATOM      8  C   UNL     1      10.097  22.038  24.534  1.00  0.00    -0.080 C 
ATOM      9  C   UNL     1       8.639  22.174  24.905  1.00  0.00     0.039 C 
ENDBRANCH   5   6
ENDBRANCH   4   5
ENDBRANCH   1   4
BRANCH   2  10
ATOM     10  C   UNL     1       6.717  25.292  21.402  1.00  0.00     0.035 C 
BRANCH  10  11
ATOM     11  C   UNL     1       5.827  24.894  20.218  1.00  0.00     0.079 C 
BRANCH  11  12
ATOM     12  C   UNL     1       4.496  25.602  20.260  1.00  0.00     0.130 C 
ATOM     13  O   UNL     1       4.035  26.077  19.233  1.00  0.00    -0.300 OA
ATOM     14  C   UNL     1       3.724  25.734  21.539  1.00  0.00     0.087 C 
ENDBRANCH  11  12
ENDBRANCH  10  11
ENDBRANCH   2  10
TORSDOF 6
ENDMDL
MODEL 2
REMARK VINA RESULT:    -3.222      2.609      5.717
REMARK INTER + INTRA:          -5.010
REMARK INTER:                  -3.893
REMARK INTRA:                  -1.118
REMARK UNBOUND:                -0.659
REMARK SMILES CC(=O)CCC=C(C)CCC=C(C)C
REMARK SMILES IDX 7 1 6 2 8 3 9 4 10 5 11 6 13 7 12 8 14 9 5 10 4 11 2 12 3 13
REMARK SMILES IDX 1 14
REMARK H PARENT
REMARK Flexibility Score: inf
ROOT
ATOM      1  C   UNL     1      10.147  23.053  21.443  1.00  0.00    -0.077 C 
ATOM      2  C   UNL     1      10.990  22.784  22.467  1.00  0.00    -0.028 C 
ATOM      3  C   UNL     1       8.885  22.253  21.215  1.00  0.00     0.039 C 
ENDROOT
BRANCH   1   4
ATOM      4  C   UNL     1      10.466  24.203  20.513  1.00  0.00     0.034 C 
BRANCH   4   5
ATOM      5  C   UNL     1       9.707  25.468  20.930  1.00  0.00     0.032 C 
BRANCH   5   6
ATOM      6  C   UNL     1       8.558  25.736  19.990  1.00  0.00    -0.028 C 
ATOM      7  C   UNL     1       6.215  25.903  19.271  1.00  0.00     0.039 C 
ATOM      8  C   UNL     1       7.254  25.644  20.330  1.00  0.00    -0.080 C 
ATOM      9  C   UNL     1       6.816  25.308  21.737  1.00  0.00     0.039 C 
ENDBRANCH   5   6
ENDBRANCH   4   5
ENDBRANCH   1   4
BRANCH   2  10
ATOM     10  C   UNL     1      10.819  21.642  23.441  1.00  0.00     0.035 C 
BRANCH  10  11
ATOM     11  C   UNL     1      10.450  22.143  24.842  1.00  0.00     0.079 C 
BRANCH  11  12
ATOM     12  C   UNL     1       8.990  22.508  24.935  1.00  0.00     0.130 C 
ATOM     13  O   UNL     1       8.163  21.634  25.147  1.00  0.00    -0.300 OA
ATOM     14  C   UNL     1       8.530  23.927  24.775  1.00  0.00     0.087 C 
ENDBRANCH  11  12
ENDBRANCH  10  11
ENDBRANCH   2  10
TORSDOF 6
ENDMDL
MODEL 3
REMARK VINA RESULT:    -3.211      2.963      6.270
REMARK INTER + INTRA:          -4.996
REMARK INTER:                  -4.290
REMARK INTRA:                  -0.707
REMARK UNBOUND:                -0.659
REMARK SMILES CC(=O)CCC=C(C)CCC=C(C)C
REMARK SMILES IDX 7 1 6 2 8 3 9 4 10 5 11 6 13 7 12 8 14 9 5 10 4 11 2 12 3 13
REMARK SMILES IDX 1 14
REMARK H PARENT
REMARK Flexibility Score: inf
ROOT
ATOM      1  C   UNL     1       9.214  25.112  22.238  1.00  0.00    -0.077 C 
ATOM      2  C   UNL     1      10.175  24.218  21.909  1.00  0.00    -0.028 C 
ATOM      3  C   UNL     1       8.921  25.478  23.675  1.00  0.00     0.039 C 
ENDROOT
BRANCH   1   4
ATOM      4  C   UNL     1       8.424  25.780  21.134  1.00  0.00     0.034 C 
BRANCH   4   5
ATOM      5  C   UNL     1       7.212  24.931  20.739  1.00  0.00     0.032 C 
BRANCH   5   6
ATOM      6  C   UNL     1       5.972  25.404  21.456  1.00  0.00    -0.028 C 
ATOM      7  C   UNL     1       3.578  25.855  21.779  1.00  0.00     0.039 C 
ATOM      8  C   UNL     1       4.718  25.300  20.965  1.00  0.00    -0.080 C 
ATOM      9  C   UNL     1       4.430  24.630  19.641  1.00  0.00     0.039 C 
ENDBRANCH   5   6
ENDBRANCH   4   5
ENDBRANCH   1   4
BRANCH   2  10
ATOM     10  C   UNL     1      11.005  23.445  22.907  1.00  0.00     0.035 C 
BRANCH  10  11
ATOM     11  C   UNL     1      10.418  22.054  23.176  1.00  0.00     0.079 C 
BRANCH  11  12
ATOM     12  C   UNL     1      10.020  21.889  24.621  1.00  0.00     0.130 C 
ATOM     13  O   UNL     1      10.881  21.676  25.462  1.00  0.00    -0.300 OA
ATOM     14  C   UNL     1       8.585  21.982  25.050  1.00  0.00     0.087 C 
ENDBRANCH  11  12
ENDBRANCH  10  11
ENDBRANCH   2  10
TORSDOF 6
ENDMDL
MODEL 4
REMARK VINA RESULT:    -3.172      3.218      5.531
REMARK INTER + INTRA:          -4.943
REMARK INTER:                  -3.582
REMARK INTRA:                  -1.361
REMARK UNBOUND:                -0.659
REMARK SMILES CC(=O)CCC=C(C)CCC=C(C)C
REMARK SMILES IDX 7 1 6 2 8 3 9 4 10 5 11 6 13 7 12 8 14 9 5 10 4 11 2 12 3 13
REMARK SMILES IDX 1 14
REMARK H PARENT
REMARK Flexibility Score: inf
ROOT
ATOM      1  C   UNL     1       9.925  22.149  25.362  1.00  0.00    -0.077 C 
ATOM      2  C   UNL     1      11.049  21.962  24.633  1.00  0.00    -0.028 C 
ATOM      3  C   UNL     1       8.572  21.677  24.880  1.00  0.00     0.039 C 
ENDROOT
BRANCH   1   4
ATOM      4  C   UNL     1      10.028  22.830  26.709  1.00  0.00     0.034 C 
BRANCH   4   5
ATOM      5  C   UNL     1      10.208  24.343  26.542  1.00  0.00     0.032 C 
BRANCH   5   6
ATOM      6  C   UNL     1       9.037  24.942  25.803  1.00  0.00    -0.028 C 
ATOM      7  C   UNL     1       7.867  26.115  23.988  1.00  0.00     0.039 C 
ATOM      8  C   UNL     1       9.117  25.522  24.586  1.00  0.00    -0.080 C 
ATOM      9  C   UNL     1      10.412  25.577  23.808  1.00  0.00     0.039 C 
ENDBRANCH   5   6
ENDBRANCH   4   5
ENDBRANCH   1   4
BRANCH   2  10
ATOM     10  C   UNL     1      11.086  21.339  23.257  1.00  0.00     0.035 C 
BRANCH  10  11
ATOM     11  C   UNL     1      11.125  22.404  22.154  1.00  0.00     0.079 C 
BRANCH  11  12
ATOM     12  C   UNL     1       9.918  22.317  21.255  1.00  0.00     0.130 C 
ATOM     13  O   UNL     1       9.946  21.582  20.279  1.00  0.00    -0.300 OA
ATOM     14  C   UNL     1       8.679  23.116  21.534  1.00  0.00     0.087 C 
ENDBRANCH  11  12
ENDBRANCH  10  11
ENDBRANCH   2  10
TORSDOF 6
ENDMDL
MODEL 5
REMARK VINA RESULT:    -3.013      2.431      4.232
REMARK INTER + INTRA:          -4.728
REMARK INTER:                  -3.565
REMARK INTRA:                  -1.163
REMARK UNBOUND:                -0.659
REMARK SMILES CC(=O)CCC=C(C)CCC=C(C)C
REMARK SMILES IDX 7 1 6 2 8 3 9 4 10 5 11 6 13 7 12 8 14 9 5 10 4 11 2 12 3 13
REMARK SMILES IDX 1 14
REMARK H PARENT
REMARK Flexibility Score: inf
ROOT
ATOM      1  C   UNL     1       8.683  25.414  22.572  1.00  0.00    -0.077 C 
ATOM      2  C   UNL     1       9.786  25.161  21.831  1.00  0.00    -0.028 C 
ATOM      3  C   UNL     1       7.290  25.154  22.047  1.00  0.00     0.039 C 
ENDROOT
BRANCH   1   4
ATOM      4  C   UNL     1       8.850  25.954  23.976  1.00  0.00     0.034 C 
BRANCH   4   5
ATOM      5  C   UNL     1       8.452  24.900  25.015  1.00  0.00     0.032 C 
BRANCH   5   6
ATOM      6  C   UNL     1       9.643  24.062  25.410  1.00  0.00    -0.028 C 
ATOM      7  C   UNL     1      10.907  22.010  25.885  1.00  0.00     0.039 C 
ATOM      8  C   UNL     1       9.655  22.712  25.428  1.00  0.00    -0.080 C 
ATOM      9  C   UNL     1       8.461  21.895  24.989  1.00  0.00     0.039 C 
ENDBRANCH   5   6
ENDBRANCH   4   5
ENDBRANCH   1   4
BRANCH   2  10
ATOM     10  C   UNL     1       9.766  24.666  20.404  1.00  0.00     0.035 C 
BRANCH  10  11
ATOM     11  C   UNL     1      10.547  23.355  20.248  1.00  0.00     0.079 C 
BRANCH  11  12
ATOM     12  C   UNL     1      10.011  22.277  21.155  1.00  0.00     0.130 C 
ATOM     13  O   UNL     1       8.821  22.002  21.125  1.00  0.00    -0.300 OA
ATOM     14  C   UNL     1      10.911  21.532  22.096  1.00  0.00     0.087 C 
ENDBRANCH  11  12
ENDBRANCH  10  11
ENDBRANCH   2  10
TORSDOF 6
ENDMDL
MODEL 6
REMARK VINA RESULT:    -2.920      1.249      1.765
REMARK INTER + INTRA:          -4.603
REMARK INTER:                  -4.018
REMARK INTRA:                  -0.585
REMARK UNBOUND:                -0.659
REMARK SMILES CC(=O)CCC=C(C)CCC=C(C)C
REMARK SMILES IDX 7 1 6 2 8 3 9 4 10 5 11 6 13 7 12 8 14 9 5 10 4 11 2 12 3 13
REMARK SMILES IDX 1 14
REMARK H PARENT
REMARK Flexibility Score: inf
ROOT
ATOM      1  C   UNL     1       9.265  25.208  21.886  1.00  0.00    -0.077 C 
ATOM      2  C   UNL     1       8.377  25.081  20.873  1.00  0.00    -0.028 C 
ATOM      3  C   UNL     1       9.010  26.122  23.062  1.00  0.00     0.039 C 
ENDROOT
BRANCH   1   4
ATOM      4  C   UNL     1      10.541  24.395  21.850  1.00  0.00     0.034 C 
BRANCH   4   5
ATOM      5  C   UNL     1      10.234  22.896  21.930  1.00  0.00     0.032 C 
BRANCH   5   6
ATOM      6  C   UNL     1       9.241  22.612  23.030  1.00  0.00    -0.028 C 
ATOM      7  C   UNL     1       8.461  21.865  25.236  1.00  0.00     0.039 C 
ATOM      8  C   UNL     1       9.567  22.140  24.252  1.00  0.00    -0.080 C 
ATOM      9  C   UNL     1      11.003  21.898  24.659  1.00  0.00     0.039 C 
ENDBRANCH   5   6
ENDBRANCH   4   5
ENDBRANCH   1   4
BRANCH   2  10
ATOM     10  C   UNL     1       7.089  25.862  20.758  1.00  0.00     0.035 C 
BRANCH  10  11
ATOM     11  C   UNL     1       5.941  25.176  21.510  1.00  0.00     0.079 C 
BRANCH  11  12
ATOM     12  C   UNL     1       4.648  25.252  20.739  1.00  0.00     0.130 C 
ATOM     13  O   UNL     1       3.643  25.677  21.289  1.00  0.00    -0.300 OA
ATOM     14  C   UNL     1       4.569  24.817  19.305  1.00  0.00     0.087 C 
ENDBRANCH  11  12
ENDBRANCH  10  11
ENDBRANCH   2  10
TORSDOF 6
ENDMDL
MODEL 7
REMARK VINA RESULT:    -2.889      2.645      6.048
REMARK INTER + INTRA:          -4.562
REMARK INTER:                  -3.790
REMARK INTRA:                  -0.771
REMARK UNBOUND:                -0.659
REMARK SMILES CC(=O)CCC=C(C)CCC=C(C)C
REMARK SMILES IDX 7 1 6 2 8 3 9 4 10 5 11 6 13 7 12 8 14 9 5 10 4 11 2 12 3 13
REMARK SMILES IDX 1 14
REMARK H PARENT
REMARK Flexibility Score: inf
ROOT
ATOM      1  C   UNL     1       7.972  25.000  21.218  1.00  0.00    -0.077 C 
ATOM      2  C   UNL     1       8.076  25.641  22.406  1.00  0.00    -0.028 C 
ATOM      3  C   UNL     1       7.931  23.492  21.125  1.00  0.00     0.039 C 
ENDROOT
BRANCH   1   4
ATOM      4  C   UNL     1       7.873  25.818  19.949  1.00  0.00     0.034 C 
BRANCH   4   5
ATOM      5  C   UNL     1       6.444  25.794  19.396  1.00  0.00     0.032 C 
BRANCH   5   6
ATOM      6  C   UNL     1       5.445  26.113  20.482  1.00  0.00    -0.028 C 
ATOM      7  C   UNL     1       3.449  25.807  21.880  1.00  0.00     0.039 C 
ATOM      8  C   UNL     1       4.385  25.338  20.797  1.00  0.00    -0.080 C 
ATOM      9  C   UNL     1       4.126  24.018  20.109  1.00  0.00     0.039 C 
ENDBRANCH   5   6
ENDBRANCH   4   5
ENDBRANCH   1   4
BRANCH   2  10
ATOM     10  C   UNL     1       8.228  24.952  23.742  1.00  0.00     0.035 C 
BRANCH  10  11
ATOM     11  C   UNL     1       9.698  24.657  24.063  1.00  0.00     0.079 C 
BRANCH  11  12
ATOM     12  C   UNL     1       9.989  23.178  24.025  1.00  0.00     0.130 C 
ATOM     13  O   UNL     1      10.688  22.724  23.132  1.00  0.00    -0.300 OA
ATOM     14  C   UNL     1       9.438  22.249  25.066  1.00  0.00     0.087 C 
ENDBRANCH  11  12
ENDBRANCH  10  11
ENDBRANCH   2  10
TORSDOF 6
ENDMDL
MODEL 8
REMARK VINA RESULT:    -2.844      2.673      6.112
REMARK INTER + INTRA:          -4.501
REMARK INTER:                  -3.600
REMARK INTRA:                  -0.901
REMARK UNBOUND:                -0.659
REMARK SMILES CC(=O)CCC=C(C)CCC=C(C)C
REMARK SMILES IDX 7 1 6 2 8 3 9 4 10 5 11 6 13 7 12 8 14 9 5 10 4 11 2 12 3 13
REMARK SMILES IDX 1 14
REMARK H PARENT
REMARK Flexibility Score: inf
ROOT
ATOM      1  C   UNL     1       8.830  24.346  23.072  1.00  0.00    -0.077 C 
ATOM      2  C   UNL     1       9.607  24.801  22.061  1.00  0.00    -0.028 C 
ATOM      3  C   UNL     1       9.251  23.185  23.942  1.00  0.00     0.039 C 
ENDROOT
BRANCH   1   4
ATOM      4  C   UNL     1       7.512  25.035  23.352  1.00  0.00     0.034 C 
BRANCH   4   5
ATOM      5  C   UNL     1       7.146  25.993  22.214  1.00  0.00     0.032 C 
BRANCH   5   6
ATOM      6  C   UNL     1       5.933  25.496  21.466  1.00  0.00    -0.028 C 
ATOM      7  C   UNL     1       4.530  24.987  19.515  1.00  0.00     0.039 C 
ATOM      8  C   UNL     1       5.820  25.475  20.121  1.00  0.00    -0.080 C 
ATOM      9  C   UNL     1       6.950  25.909  19.215  1.00  0.00     0.039 C 
ENDBRANCH   5   6
ENDBRANCH   4   5
ENDBRANCH   1   4
BRANCH   2  10
ATOM     10  C   UNL     1      10.920  24.182  21.643  1.00  0.00     0.035 C 
BRANCH  10  11
ATOM     11  C   UNL     1      10.852  23.616  20.220  1.00  0.00     0.079 C 
BRANCH  11  12
ATOM     12  C   UNL     1      10.802  22.109  20.223  1.00  0.00     0.130 C 
ATOM     13  O   UNL     1      10.495  21.515  19.201  1.00  0.00    -0.300 OA
ATOM     14  C   UNL     1      11.125  21.321  21.459  1.00  0.00     0.087 C 
ENDBRANCH  11  12
ENDBRANCH  10  11
ENDBRANCH   2  10
TORSDOF 6
ENDMDL
MODEL 9
REMARK VINA RESULT:    -2.742      3.001      5.741
REMARK INTER + INTRA:          -4.363
REMARK INTER:                  -3.101
REMARK INTRA:                  -1.262
REMARK UNBOUND:                -0.659
REMARK SMILES CC(=O)CCC=C(C)CCC=C(C)C
REMARK SMILES IDX 7 1 6 2 8 3 9 4 10 5 11 6 13 7 12 8 14 9 5 10 4 11 2 12 3 13
REMARK SMILES IDX 1 14
REMARK H PARENT
REMARK Flexibility Score: inf
ROOT
ATOM      1  C   UNL     1      10.174  22.134  24.788  1.00  0.00    -0.077 C 
ATOM      2  C   UNL     1      10.893  22.729  25.767  1.00  0.00    -0.028 C 
ATOM      3  C   UNL     1       8.671  22.000  24.870  1.00  0.00     0.039 C 
ENDROOT
BRANCH   1   4
ATOM      4  C   UNL     1      10.893  21.606  23.566  1.00  0.00     0.034 C 
BRANCH   4   5
ATOM      5  C   UNL     1      10.145  21.990  22.285  1.00  0.00     0.032 C 
BRANCH   5   6
ATOM      6  C   UNL     1      10.574  23.354  21.804  1.00  0.00    -0.028 C 
ATOM      7  C   UNL     1      10.302  25.681  21.065  1.00  0.00     0.039 C 
ATOM      8  C   UNL     1       9.732  24.388  21.586  1.00  0.00    -0.080 C 
ATOM      9  C   UNL     1       8.250  24.286  21.864  1.00  0.00     0.039 C 
ENDBRANCH   5   6
ENDBRANCH   4   5
ENDBRANCH   1   4
BRANCH   2  10
ATOM     10  C   UNL     1      10.313  23.258  27.058  1.00  0.00     0.035 C 
BRANCH  10  11
ATOM     11  C   UNL     1      10.383  24.789  27.125  1.00  0.00     0.079 C 
BRANCH  11  12
ATOM     12  C   UNL     1       9.506  25.432  26.080  1.00  0.00     0.130 C 
ATOM     13  O   UNL     1       8.292  25.392  26.206  1.00  0.00    -0.300 OA
ATOM     14  C   UNL     1      10.096  26.123  24.886  1.00  0.00     0.087 C 
ENDBRANCH  11  12
ENDBRANCH  10  11
ENDBRANCH   2  10
TORSDOF 6
ENDMDL
