MODEL 1
REMARK VINA RESULT:    -3.222      0.000      0.000
REMARK INTER + INTRA:         -11.797
REMARK INTER:                  -7.366
REMARK INTRA:                  -4.431
REMARK UNBOUND:                -4.431
REMARK SMILES CCCCCCCCCCCCCCCCCCCCCCCC(=O)[O-]
REMARK SMILES IDX 13 1 14 2 15 3 16 4 17 5 18 6 19 7 20 8 21 9 22 10 23 11
REMARK SMILES IDX 24 12 25 13 26 14 12 15 11 16 10 17 9 18 8 19 7 20 6 21 5 22
REMARK SMILES IDX 4 23 3 24 2 25 1 26
REMARK H PARENT
REMARK Flexibility Score: inf
ROOT
ATOM      1  C   UNL     1     164.323 154.875 159.401  1.00  0.00     0.000 C 
ENDROOT
BRANCH   1   2
ATOM      2  C   UNL     1     165.721 154.311 159.102  1.00  0.00     0.000 C 
BRANCH   2   3
ATOM      3  C   UNL     1     166.765 154.742 160.149  1.00  0.00     0.000 C 
BRANCH   3   4
ATOM      4  C   UNL     1     166.484 154.158 161.541  1.00  0.00     0.000 C 
BRANCH   4   5
ATOM      5  C   UNL     1     166.346 155.242 162.620  1.00  0.00     0.000 C 
BRANCH   5   6
ATOM      6  C   UNL     1     165.984 154.623 163.976  1.00  0.00     0.000 C 
BRANCH   6   7
ATOM      7  C   UNL     1     165.619 155.707 165.002  1.00  0.00     0.000 C 
BRANCH   7   8
ATOM      8  C   UNL     1     164.429 155.293 165.894  1.00  0.00     0.000 C 
BRANCH   8   9
ATOM      9  C   UNL     1     163.344 156.378 166.032  1.00  0.00     0.000 C 
BRANCH   9  10
ATOM     10  C   UNL     1     163.324 157.422 164.904  1.00  0.00     0.006 C 
BRANCH  10  11
ATOM     11  C   UNL     1     162.792 158.787 165.364  1.00  0.00     0.053 C 
BRANCH  11  12
ATOM     12  C   UNL     1     161.338 158.933 165.045  1.00  0.00     0.041 C 
ATOM     13  O   UNL     1     160.704 159.955 165.422  1.00  0.00    -0.550 OA
ATOM     14  O   UNL     1     160.692 157.967 164.282  1.00  0.00    -0.550 OA
ENDBRANCH  11  12
ENDBRANCH  10  11
ENDBRANCH   9  10
ENDBRANCH   8   9
ENDBRANCH   7   8
ENDBRANCH   6   7
ENDBRANCH   5   6
ENDBRANCH   4   5
ENDBRANCH   3   4
ENDBRANCH   2   3
ENDBRANCH   1   2
BRANCH   1  15
ATOM     15  C   UNL     1     163.243 153.780 159.445  1.00  0.00     0.000 C 
BRANCH  15  16
ATOM     16  C   UNL     1     162.038 154.165 160.316  1.00  0.00     0.000 C 
BRANCH  16  17
ATOM     17  C   UNL     1     162.409 155.165 161.426  1.00  0.00     0.000 C 
BRANCH  17  18
ATOM     18  C   UNL     1     162.535 154.499 162.806  1.00  0.00    -0.000 C 
BRANCH  18  19
ATOM     19  C   UNL     1     161.217 154.537 163.601  1.00  0.00    -0.000 C 
BRANCH  19  20
ATOM     20  C   UNL     1     160.635 153.137 163.854  1.00  0.00    -0.000 C 
BRANCH  20  21
ATOM     21  C   UNL     1     159.883 152.579 162.633  1.00  0.00    -0.000 C 
BRANCH  21  22
ATOM     22  C   UNL     1     160.402 151.195 162.207  1.00  0.00    -0.000 C 
BRANCH  22  23
ATOM     23  C   UNL     1     161.742 150.840 162.876  1.00  0.00    -0.000 C 
BRANCH  23  24
ATOM     24  C   UNL     1     162.929 150.921 161.903  1.00  0.00    -0.000 C 
BRANCH  24  25
ATOM     25  C   UNL     1     164.229 151.370 162.587  1.00  0.00    -0.003 C 
ATOM     26  C   UNL     1     164.071 151.383 164.106  1.00  0.00     0.004 C 
ENDBRANCH  24  25
ENDBRANCH  23  24
ENDBRANCH  22  23
ENDBRANCH  21  22
ENDBRANCH  20  21
ENDBRANCH  19  20
ENDBRANCH  18  19
ENDBRANCH  17  18
ENDBRANCH  16  17
ENDBRANCH  15  16
ENDBRANCH   1  15
TORSDOF 22
ENDMDL
MODEL 2
REMARK VINA RESULT:    -3.169      2.683      5.181
REMARK INTER + INTRA:         -11.676
REMARK INTER:                  -7.508
REMARK INTRA:                  -4.168
REMARK UNBOUND:                -4.431
REMARK SMILES CCCCCCCCCCCCCCCCCCCCCCCC(=O)[O-]
REMARK SMILES IDX 13 1 14 2 15 3 16 4 17 5 18 6 19 7 20 8 21 9 22 10 23 11
REMARK SMILES IDX 24 12 25 13 26 14 12 15 11 16 10 17 9 18 8 19 7 20 6 21 5 22
REMARK SMILES IDX 4 23 3 24 2 25 1 26
REMARK H PARENT
REMARK Flexibility Score: inf
ROOT
ATOM      1  C   UNL     1     161.287 155.905 164.517  1.00  0.00     0.000 C 
ENDROOT
BRANCH   1   2
ATOM      2  C   UNL     1     161.611 157.206 165.267  1.00  0.00     0.000 C 
BRANCH   2   3
ATOM      3  C   UNL     1     163.075 157.263 165.741  1.00  0.00     0.000 C 
BRANCH   3   4
ATOM      4  C   UNL     1     163.539 155.952 166.392  1.00  0.00     0.000 C 
BRANCH   4   5
ATOM      5  C   UNL     1     164.784 155.363 165.713  1.00  0.00     0.000 C 
BRANCH   5   6
ATOM      6  C   UNL     1     165.256 156.258 164.562  1.00  0.00     0.000 C 
BRANCH   6   7
ATOM      7  C   UNL     1     166.776 156.154 164.365  1.00  0.00     0.000 C 
BRANCH   7   8
ATOM      8  C   UNL     1     167.163 155.050 163.357  1.00  0.00     0.000 C 
BRANCH   8   9
ATOM      9  C   UNL     1     167.673 155.587 162.006  1.00  0.00     0.000 C 
BRANCH   9  10
ATOM     10  C   UNL     1     166.917 155.066 160.774  1.00  0.00     0.006 C 
BRANCH  10  11
ATOM     11  C   UNL     1     165.586 154.391 161.134  1.00  0.00     0.053 C 
BRANCH  11  12
ATOM     12  C   UNL     1     164.744 154.178 159.915  1.00  0.00     0.041 C 
ATOM     13  O   UNL     1     164.930 154.879 158.884  1.00  0.00    -0.550 OA
ATOM     14  O   UNL     1     163.790 153.168 159.896  1.00  0.00    -0.550 OA
ENDBRANCH  11  12
ENDBRANCH  10  11
ENDBRANCH   9  10
ENDBRANCH   8   9
ENDBRANCH   7   8
ENDBRANCH   6   7
ENDBRANCH   5   6
ENDBRANCH   4   5
ENDBRANCH   3   4
ENDBRANCH   2   3
ENDBRANCH   1   2
BRANCH   1  15
ATOM     15  C   UNL     1     161.904 155.867 163.109  1.00  0.00     0.000 C 
BRANCH  15  16
ATOM     16  C   UNL     1     162.009 154.444 162.540  1.00  0.00     0.000 C 
BRANCH  16  17
ATOM     17  C   UNL     1     162.832 153.508 163.444  1.00  0.00     0.000 C 
BRANCH  17  18
ATOM     18  C   UNL     1     162.112 152.181 163.735  1.00  0.00    -0.000 C 
BRANCH  18  19
ATOM     19  C   UNL     1     162.403 151.108 162.671  1.00  0.00    -0.000 C 
BRANCH  19  20
ATOM     20  C   UNL     1     162.756 149.743 163.284  1.00  0.00    -0.000 C 
BRANCH  20  21
ATOM     21  C   UNL     1     162.337 149.631 164.760  1.00  0.00    -0.000 C 
BRANCH  21  22
ATOM     22  C   UNL     1     163.494 149.172 165.665  1.00  0.00    -0.000 C 
BRANCH  22  23
ATOM     23  C   UNL     1     164.860 149.690 165.178  1.00  0.00    -0.000 C 
BRANCH  23  24
ATOM     24  C   UNL     1     165.335 150.927 165.958  1.00  0.00    -0.000 C 
BRANCH  24  25
ATOM     25  C   UNL     1     165.918 152.016 165.045  1.00  0.00    -0.003 C 
ATOM     26  C   UNL     1     166.025 151.523 163.604  1.00  0.00     0.004 C 
ENDBRANCH  24  25
ENDBRANCH  23  24
ENDBRANCH  22  23
ENDBRANCH  21  22
ENDBRANCH  20  21
ENDBRANCH  19  20
ENDBRANCH  18  19
ENDBRANCH  17  18
ENDBRANCH  16  17
ENDBRANCH  15  16
ENDBRANCH   1  15
TORSDOF 22
ENDMDL
MODEL 3
REMARK VINA RESULT:    -3.036      2.963      6.381
REMARK INTER + INTRA:         -11.370
REMARK INTER:                  -8.231
REMARK INTRA:                  -3.139
REMARK UNBOUND:                -4.431
REMARK SMILES CCCCCCCCCCCCCCCCCCCCCCCC(=O)[O-]
REMARK SMILES IDX 13 1 14 2 15 3 16 4 17 5 18 6 19 7 20 8 21 9 22 10 23 11
REMARK SMILES IDX 24 12 25 13 26 14 12 15 11 16 10 17 9 18 8 19 7 20 6 21 5 22
REMARK SMILES IDX 4 23 3 24 2 25 1 26
REMARK H PARENT
REMARK Flexibility Score: inf
ROOT
ATOM      1  C   UNL     1     160.994 156.570 164.472  1.00  0.00     0.000 C 
ENDROOT
BRANCH   1   2
ATOM      2  C   UNL     1     161.798 156.281 163.195  1.00  0.00     0.000 C 
BRANCH   2   3
ATOM      3  C   UNL     1     161.930 154.774 162.911  1.00  0.00     0.000 C 
BRANCH   3   4
ATOM      4  C   UNL     1     161.458 153.906 164.086  1.00  0.00     0.000 C 
BRANCH   4   5
ATOM      5  C   UNL     1     161.307 152.425 163.705  1.00  0.00     0.000 C 
BRANCH   5   6
ATOM      6  C   UNL     1     159.841 152.082 163.412  1.00  0.00     0.000 C 
BRANCH   6   7
ATOM      7  C   UNL     1     158.905 153.213 163.863  1.00  0.00     0.000 C 
BRANCH   7   8
ATOM      8  C   UNL     1     157.427 152.769 163.909  1.00  0.00     0.000 C 
BRANCH   8   9
ATOM      9  C   UNL     1     156.719 152.809 162.541  1.00  0.00     0.000 C 
BRANCH   9  10
ATOM     10  C   UNL     1     155.372 153.548 162.530  1.00  0.00     0.006 C 
BRANCH  10  11
ATOM     11  C   UNL     1     155.237 154.557 163.678  1.00  0.00     0.053 C 
BRANCH  11  12
ATOM     12  C   UNL     1     154.562 155.811 163.217  1.00  0.00     0.041 C 
ATOM     13  O   UNL     1     153.694 156.369 163.940  1.00  0.00    -0.550 OA
ATOM     14  O   UNL     1     154.931 156.396 162.011  1.00  0.00    -0.550 OA
ENDBRANCH  11  12
ENDBRANCH  10  11
ENDBRANCH   9  10
ENDBRANCH   8   9
ENDBRANCH   7   8
ENDBRANCH   6   7
ENDBRANCH   5   6
ENDBRANCH   4   5
ENDBRANCH   3   4
ENDBRANCH   2   3
ENDBRANCH   1   2
BRANCH   1  15
ATOM     15  C   UNL     1     161.446 157.864 165.172  1.00  0.00     0.000 C 
BRANCH  15  16
ATOM     16  C   UNL     1     162.823 157.731 165.841  1.00  0.00     0.000 C 
BRANCH  16  17
ATOM     17  C   UNL     1     162.895 156.536 166.808  1.00  0.00     0.000 C 
BRANCH  17  18
ATOM     18  C   UNL     1     163.966 155.510 166.403  1.00  0.00    -0.000 C 
BRANCH  18  19
ATOM     19  C   UNL     1     164.690 155.898 165.101  1.00  0.00    -0.000 C 
BRANCH  19  20
ATOM     20  C   UNL     1     165.739 154.860 164.671  1.00  0.00    -0.000 C 
BRANCH  20  21
ATOM     21  C   UNL     1     165.165 153.434 164.603  1.00  0.00    -0.000 C 
BRANCH  21  22
ATOM     22  C   UNL     1     165.035 152.923 163.158  1.00  0.00    -0.000 C 
BRANCH  22  23
ATOM     23  C   UNL     1     166.349 153.059 162.367  1.00  0.00    -0.000 C 
BRANCH  23  24
ATOM     24  C   UNL     1     166.125 153.564 160.932  1.00  0.00    -0.000 C 
BRANCH  24  25
ATOM     25  C   UNL     1     164.639 153.769 160.600  1.00  0.00    -0.003 C 
ATOM     26  C   UNL     1     164.452 154.927 159.623  1.00  0.00     0.004 C 
ENDBRANCH  24  25
ENDBRANCH  23  24
ENDBRANCH  22  23
ENDBRANCH  21  22
ENDBRANCH  20  21
ENDBRANCH  19  20
ENDBRANCH  18  19
ENDBRANCH  17  18
ENDBRANCH  16  17
ENDBRANCH  15  16
ENDBRANCH   1  15
TORSDOF 22
ENDMDL
MODEL 4
REMARK VINA RESULT:    -2.970      3.895      6.565
REMARK INTER + INTRA:         -11.220
REMARK INTER:                  -8.737
REMARK INTRA:                  -2.482
REMARK UNBOUND:                -4.431
REMARK SMILES CCCCCCCCCCCCCCCCCCCCCCCC(=O)[O-]
REMARK SMILES IDX 13 1 14 2 15 3 16 4 17 5 18 6 19 7 20 8 21 9 22 10 23 11
REMARK SMILES IDX 24 12 25 13 26 14 12 15 11 16 10 17 9 18 8 19 7 20 6 21 5 22
REMARK SMILES IDX 4 23 3 24 2 25 1 26
REMARK H PARENT
REMARK Flexibility Score: inf
ROOT
ATOM      1  C   UNL     1     164.023 155.626 166.584  1.00  0.00     0.000 C 
ENDROOT
BRANCH   1   2
ATOM      2  C   UNL     1     162.721 156.441 166.618  1.00  0.00     0.000 C 
BRANCH   2   3
ATOM      3  C   UNL     1     161.978 156.419 165.270  1.00  0.00     0.000 C 
BRANCH   3   4
ATOM      4  C   UNL     1     161.787 157.822 164.675  1.00  0.00     0.000 C 
BRANCH   4   5
ATOM      5  C   UNL     1     160.306 158.201 164.519  1.00  0.00     0.000 C 
BRANCH   5   6
ATOM      6  C   UNL     1     160.036 159.600 165.084  1.00  0.00     0.000 C 
BRANCH   6   7
ATOM      7  C   UNL     1     158.535 159.824 165.318  1.00  0.00     0.000 C 
BRANCH   7   8
ATOM      8  C   UNL     1     157.694 159.537 164.055  1.00  0.00     0.000 C 
BRANCH   8   9
ATOM      9  C   UNL     1     156.249 160.064 164.132  1.00  0.00     0.000 C 
BRANCH   9  10
ATOM     10  C   UNL     1     155.234 159.306 163.262  1.00  0.00     0.006 C 
BRANCH  10  11
ATOM     11  C   UNL     1     154.207 158.522 164.091  1.00  0.00     0.053 C 
BRANCH  11  12
ATOM     12  C   UNL     1     152.844 158.607 163.479  1.00  0.00     0.041 C 
ATOM     13  O   UNL     1     152.623 158.098 162.347  1.00  0.00    -0.550 OA
ATOM     14  O   UNL     1     151.802 159.201 164.181  1.00  0.00    -0.550 OA
ENDBRANCH  11  12
ENDBRANCH  10  11
ENDBRANCH   9  10
ENDBRANCH   8   9
ENDBRANCH   7   8
ENDBRANCH   6   7
ENDBRANCH   5   6
ENDBRANCH   4   5
ENDBRANCH   3   4
ENDBRANCH   2   3
ENDBRANCH   1   2
BRANCH   1  15
ATOM     15  C   UNL     1     164.565 155.441 165.156  1.00  0.00     0.000 C 
BRANCH  15  16
ATOM     16  C   UNL     1     165.349 154.131 164.980  1.00  0.00     0.000 C 
BRANCH  16  17
ATOM     17  C   UNL     1     164.538 153.056 164.234  1.00  0.00     0.000 C 
BRANCH  17  18
ATOM     18  C   UNL     1     165.359 152.345 163.145  1.00  0.00    -0.000 C 
BRANCH  18  19
ATOM     19  C   UNL     1     164.507 151.971 161.918  1.00  0.00    -0.000 C 
BRANCH  19  20
ATOM     20  C   UNL     1     164.088 150.492 161.914  1.00  0.00    -0.000 C 
BRANCH  20  21
ATOM     21  C   UNL     1     162.861 150.222 162.803  1.00  0.00    -0.000 C 
BRANCH  21  22
ATOM     22  C   UNL     1     161.676 151.141 162.461  1.00  0.00    -0.000 C 
BRANCH  22  23
ATOM     23  C   UNL     1     161.118 151.865 163.701  1.00  0.00    -0.000 C 
BRANCH  23  24
ATOM     24  C   UNL     1     160.935 153.374 163.472  1.00  0.00    -0.000 C 
BRANCH  24  25
ATOM     25  C   UNL     1     161.205 153.791 162.018  1.00  0.00    -0.003 C 
ATOM     26  C   UNL     1     162.231 154.919 161.954  1.00  0.00     0.004 C 
ENDBRANCH  24  25
ENDBRANCH  23  24
ENDBRANCH  22  23
ENDBRANCH  21  22
ENDBRANCH  20  21
ENDBRANCH  19  20
ENDBRANCH  18  19
ENDBRANCH  17  18
ENDBRANCH  16  17
ENDBRANCH  15  16
ENDBRANCH   1  15
TORSDOF 22
ENDMDL
MODEL 5
REMARK VINA RESULT:    -2.959      2.067      5.282
REMARK INTER + INTRA:         -11.196
REMARK INTER:                  -7.878
REMARK INTRA:                  -3.318
REMARK UNBOUND:                -4.431
REMARK SMILES CCCCCCCCCCCCCCCCCCCCCCCC(=O)[O-]
REMARK SMILES IDX 13 1 14 2 15 3 16 4 17 5 18 6 19 7 20 8 21 9 22 10 23 11
REMARK SMILES IDX 24 12 25 13 26 14 12 15 11 16 10 17 9 18 8 19 7 20 6 21 5 22
REMARK SMILES IDX 4 23 3 24 2 25 1 26
REMARK H PARENT
REMARK Flexibility Score: inf
ROOT
ATOM      1  C   UNL     1     162.921 151.977 163.842  1.00  0.00     0.000 C 
ENDROOT
BRANCH   1   2
ATOM      2  C   UNL     1     163.271 150.504 163.578  1.00  0.00     0.000 C 
BRANCH   2   3
ATOM      3  C   UNL     1     164.726 150.169 163.955  1.00  0.00     0.000 C 
BRANCH   3   4
ATOM      4  C   UNL     1     165.093 150.633 165.372  1.00  0.00     0.000 C 
BRANCH   4   5
ATOM      5  C   UNL     1     166.324 151.551 165.393  1.00  0.00     0.000 C 
BRANCH   5   6
ATOM      6  C   UNL     1     166.866 151.773 163.976  1.00  0.00     0.000 C 
BRANCH   6   7
ATOM      7  C   UNL     1     166.873 153.265 163.611  1.00  0.00     0.000 C 
BRANCH   7   8
ATOM      8  C   UNL     1     165.910 154.089 164.492  1.00  0.00     0.000 C 
BRANCH   8   9
ATOM      9  C   UNL     1     165.759 155.557 164.050  1.00  0.00     0.000 C 
BRANCH   9  10
ATOM     10  C   UNL     1     164.712 156.366 164.833  1.00  0.00     0.006 C 
BRANCH  10  11
ATOM     11  C   UNL     1     164.100 155.577 165.998  1.00  0.00     0.053 C 
BRANCH  11  12
ATOM     12  C   UNL     1     162.877 156.259 166.526  1.00  0.00     0.041 C 
ATOM     13  O   UNL     1     161.748 156.021 166.018  1.00  0.00    -0.550 OA
ATOM     14  O   UNL     1     162.973 157.118 167.614  1.00  0.00    -0.550 OA
ENDBRANCH  11  12
ENDBRANCH  10  11
ENDBRANCH   9  10
ENDBRANCH   8   9
ENDBRANCH   7   8
ENDBRANCH   6   7
ENDBRANCH   5   6
ENDBRANCH   4   5
ENDBRANCH   3   4
ENDBRANCH   2   3
ENDBRANCH   1   2
BRANCH   1  15
ATOM     15  C   UNL     1     161.418 152.263 163.680  1.00  0.00     0.000 C 
BRANCH  15  16
ATOM     16  C   UNL     1     161.118 153.746 163.412  1.00  0.00     0.000 C 
BRANCH  16  17
ATOM     17  C   UNL     1     162.348 154.511 162.890  1.00  0.00     0.000 C 
BRANCH  17  18
ATOM     18  C   UNL     1     162.184 154.971 161.432  1.00  0.00    -0.000 C 
BRANCH  18  19
ATOM     19  C   UNL     1     163.039 154.143 160.455  1.00  0.00    -0.000 C 
BRANCH  19  20
ATOM     20  C   UNL     1     164.392 153.726 161.054  1.00  0.00    -0.000 C 
BRANCH  20  21
ATOM     21  C   UNL     1     165.587 154.269 160.252  1.00  0.00    -0.000 C 
BRANCH  21  22
ATOM     22  C   UNL     1     165.168 154.826 158.880  1.00  0.00    -0.000 C 
BRANCH  22  23
ATOM     23  C   UNL     1     166.046 154.286 157.736  1.00  0.00    -0.000 C 
BRANCH  23  24
ATOM     24  C   UNL     1     166.796 155.402 156.990  1.00  0.00    -0.000 C 
BRANCH  24  25
ATOM     25  C   UNL     1     166.303 155.588 155.547  1.00  0.00    -0.003 C 
ATOM     26  C   UNL     1     166.489 157.031 155.087  1.00  0.00     0.004 C 
ENDBRANCH  24  25
ENDBRANCH  23  24
ENDBRANCH  22  23
ENDBRANCH  21  22
ENDBRANCH  20  21
ENDBRANCH  19  20
ENDBRANCH  18  19
ENDBRANCH  17  18
ENDBRANCH  16  17
ENDBRANCH  15  16
ENDBRANCH   1  15
TORSDOF 22
ENDMDL
MODEL 6
REMARK VINA RESULT:    -2.924      2.792      5.989
REMARK INTER + INTRA:         -11.115
REMARK INTER:                  -7.094
REMARK INTRA:                  -4.021
REMARK UNBOUND:                -4.431
REMARK SMILES CCCCCCCCCCCCCCCCCCCCCCCC(=O)[O-]
REMARK SMILES IDX 13 1 14 2 15 3 16 4 17 5 18 6 19 7 20 8 21 9 22 10 23 11
REMARK SMILES IDX 24 12 25 13 26 14 12 15 11 16 10 17 9 18 8 19 7 20 6 21 5 22
REMARK SMILES IDX 4 23 3 24 2 25 1 26
REMARK H PARENT
REMARK Flexibility Score: inf
ROOT
ATOM      1  C   UNL     1     164.059 155.628 166.507  1.00  0.00     0.000 C 
ENDROOT
BRANCH   1   2
ATOM      2  C   UNL     1     164.738 156.176 165.242  1.00  0.00     0.000 C 
BRANCH   2   3
ATOM      3  C   UNL     1     165.306 155.059 164.348  1.00  0.00     0.000 C 
BRANCH   3   4
ATOM      4  C   UNL     1     164.784 153.667 164.735  1.00  0.00     0.000 C 
BRANCH   4   5
ATOM      5  C   UNL     1     165.161 152.588 163.709  1.00  0.00     0.000 C 
BRANCH   5   6
ATOM      6  C   UNL     1     163.927 151.784 163.282  1.00  0.00     0.000 C 
BRANCH   6   7
ATOM      7  C   UNL     1     163.782 151.761 161.752  1.00  0.00     0.000 C 
BRANCH   7   8
ATOM      8  C   UNL     1     164.557 152.909 161.071  1.00  0.00     0.000 C 
BRANCH   8   9
ATOM      9  C   UNL     1     163.679 153.825 160.198  1.00  0.00     0.000 C 
BRANCH   9  10
ATOM     10  C   UNL     1     162.822 153.096 159.151  1.00  0.00     0.006 C 
BRANCH  10  11
ATOM     11  C   UNL     1     163.406 153.190 157.734  1.00  0.00     0.053 C 
BRANCH  11  12
ATOM     12  C   UNL     1     163.073 154.504 157.101  1.00  0.00     0.041 C 
ATOM     13  O   UNL     1     163.785 154.957 156.165  1.00  0.00    -0.550 OA
ATOM     14  O   UNL     1     161.943 155.205 157.506  1.00  0.00    -0.550 OA
ENDBRANCH  11  12
ENDBRANCH  10  11
ENDBRANCH   9  10
ENDBRANCH   8   9
ENDBRANCH   7   8
ENDBRANCH   6   7
ENDBRANCH   5   6
ENDBRANCH   4   5
ENDBRANCH   3   4
ENDBRANCH   2   3
ENDBRANCH   1   2
BRANCH   1  15
ATOM     15  C   UNL     1     162.772 156.392 166.863  1.00  0.00     0.000 C 
BRANCH  15  16
ATOM     16  C   UNL     1     162.737 157.810 166.272  1.00  0.00     0.000 C 
BRANCH  16  17
ATOM     17  C   UNL     1     161.536 158.027 165.333  1.00  0.00     0.000 C 
BRANCH  17  18
ATOM     18  C   UNL     1     161.047 156.721 164.685  1.00  0.00    -0.000 C 
BRANCH  18  19
ATOM     19  C   UNL     1     161.761 156.424 163.353  1.00  0.00    -0.000 C 
BRANCH  19  20
ATOM     20  C   UNL     1     161.762 154.928 163.001  1.00  0.00    -0.000 C 
BRANCH  20  21
ATOM     21  C   UNL     1     161.073 154.067 164.074  1.00  0.00    -0.000 C 
BRANCH  21  22
ATOM     22  C   UNL     1     160.345 152.852 163.472  1.00  0.00    -0.000 C 
BRANCH  22  23
ATOM     23  C   UNL     1     160.375 152.853 161.933  1.00  0.00    -0.000 C 
BRANCH  23  24
ATOM     24  C   UNL     1     159.309 151.929 161.320  1.00  0.00    -0.000 C 
BRANCH  24  25
ATOM     25  C   UNL     1     158.359 152.670 160.367  1.00  0.00    -0.003 C 
ATOM     26  C   UNL     1     159.020 152.907 159.012  1.00  0.00     0.004 C 
ENDBRANCH  24  25
ENDBRANCH  23  24
ENDBRANCH  22  23
ENDBRANCH  21  22
ENDBRANCH  20  21
ENDBRANCH  19  20
ENDBRANCH  18  19
ENDBRANCH  17  18
ENDBRANCH  16  17
ENDBRANCH  15  16
ENDBRANCH   1  15
TORSDOF 22
ENDMDL
MODEL 7
REMARK VINA RESULT:    -2.922      3.199      6.167
REMARK INTER + INTRA:         -11.110
REMARK INTER:                  -6.549
REMARK INTRA:                  -4.561
REMARK UNBOUND:                -4.431
REMARK SMILES CCCCCCCCCCCCCCCCCCCCCCCC(=O)[O-]
REMARK SMILES IDX 13 1 14 2 15 3 16 4 17 5 18 6 19 7 20 8 21 9 22 10 23 11
REMARK SMILES IDX 24 12 25 13 26 14 12 15 11 16 10 17 9 18 8 19 7 20 6 21 5 22
REMARK SMILES IDX 4 23 3 24 2 25 1 26
REMARK H PARENT
REMARK Flexibility Score: inf
ROOT
ATOM      1  C   UNL     1     165.133 155.499 165.215  1.00  0.00     0.000 C 
ENDROOT
BRANCH   1   2
ATOM      2  C   UNL     1     164.064 155.643 166.310  1.00  0.00     0.000 C 
BRANCH   2   3
ATOM      3  C   UNL     1     163.067 156.778 166.012  1.00  0.00     0.000 C 
BRANCH   3   4
ATOM      4  C   UNL     1     161.769 156.273 165.365  1.00  0.00     0.000 C 
BRANCH   4   5
ATOM      5  C   UNL     1     161.723 156.533 163.852  1.00  0.00     0.000 C 
BRANCH   5   6
ATOM      6  C   UNL     1     161.705 155.214 163.070  1.00  0.00     0.000 C 
BRANCH   6   7
ATOM      7  C   UNL     1     161.237 154.049 163.955  1.00  0.00     0.000 C 
BRANCH   7   8
ATOM      8  C   UNL     1     162.296 152.932 164.065  1.00  0.00     0.000 C 
BRANCH   8   9
ATOM      9  C   UNL     1     161.782 151.540 163.652  1.00  0.00     0.000 C 
BRANCH   9  10
ATOM     10  C   UNL     1     162.878 150.526 163.283  1.00  0.00     0.006 C 
BRANCH  10  11
ATOM     11  C   UNL     1     164.156 150.703 164.113  1.00  0.00     0.053 C 
BRANCH  11  12
ATOM     12  C   UNL     1     164.357 149.549 165.045  1.00  0.00     0.041 C 
ATOM     13  O   UNL     1     165.369 148.807 164.928  1.00  0.00    -0.550 OA
ATOM     14  O   UNL     1     163.455 149.324 166.078  1.00  0.00    -0.550 OA
ENDBRANCH  11  12
ENDBRANCH  10  11
ENDBRANCH   9  10
ENDBRANCH   8   9
ENDBRANCH   7   8
ENDBRANCH   6   7
ENDBRANCH   5   6
ENDBRANCH   4   5
ENDBRANCH   3   4
ENDBRANCH   2   3
ENDBRANCH   1   2
BRANCH   1  15
ATOM     15  C   UNL     1     165.473 154.029 164.914  1.00  0.00     0.000 C 
BRANCH  15  16
ATOM     16  C   UNL     1     166.097 153.833 163.523  1.00  0.00     0.000 C 
BRANCH  16  17
ATOM     17  C   UNL     1     165.204 154.382 162.395  1.00  0.00     0.000 C 
BRANCH  17  18
ATOM     18  C   UNL     1     164.872 153.321 161.333  1.00  0.00    -0.000 C 
BRANCH  18  19
ATOM     19  C   UNL     1     163.589 153.656 160.550  1.00  0.00    -0.000 C 
BRANCH  19  20
ATOM     20  C   UNL     1     163.127 152.501 159.646  1.00  0.00    -0.000 C 
BRANCH  20  21
ATOM     21  C   UNL     1     161.773 151.914 160.083  1.00  0.00    -0.000 C 
BRANCH  21  22
ATOM     22  C   UNL     1     160.671 152.983 160.174  1.00  0.00    -0.000 C 
BRANCH  22  23
ATOM     23  C   UNL     1     159.273 152.369 160.367  1.00  0.00    -0.000 C 
BRANCH  23  24
ATOM     24  C   UNL     1     158.758 152.513 161.809  1.00  0.00    -0.000 C 
BRANCH  24  25
ATOM     25  C   UNL     1     158.340 151.171 162.426  1.00  0.00    -0.003 C 
ATOM     26  C   UNL     1     158.063 151.318 163.921  1.00  0.00     0.004 C 
ENDBRANCH  24  25
ENDBRANCH  23  24
ENDBRANCH  22  23
ENDBRANCH  21  22
ENDBRANCH  20  21
ENDBRANCH  19  20
ENDBRANCH  18  19
ENDBRANCH  17  18
ENDBRANCH  16  17
ENDBRANCH  15  16
ENDBRANCH   1  15
TORSDOF 22
ENDMDL
MODEL 8
REMARK VINA RESULT:    -2.921      2.778      5.712
REMARK INTER + INTRA:         -11.108
REMARK INTER:                  -6.854
REMARK INTRA:                  -4.254
REMARK UNBOUND:                -4.431
REMARK SMILES CCCCCCCCCCCCCCCCCCCCCCCC(=O)[O-]
REMARK SMILES IDX 13 1 14 2 15 3 16 4 17 5 18 6 19 7 20 8 21 9 22 10 23 11
REMARK SMILES IDX 24 12 25 13 26 14 12 15 11 16 10 17 9 18 8 19 7 20 6 21 5 22
REMARK SMILES IDX 4 23 3 24 2 25 1 26
REMARK H PARENT
REMARK Flexibility Score: inf
ROOT
ATOM      1  C   UNL     1     161.689 156.538 163.374  1.00  0.00     0.000 C 
ENDROOT
BRANCH   1   2
ATOM      2  C   UNL     1     161.151 156.633 164.810  1.00  0.00     0.000 C 
BRANCH   2   3
ATOM      3  C   UNL     1     161.752 157.820 165.586  1.00  0.00     0.000 C 
BRANCH   3   4
ATOM      4  C   UNL     1     163.155 157.521 166.133  1.00  0.00     0.000 C 
BRANCH   4   5
ATOM      5  C   UNL     1     163.287 156.089 166.671  1.00  0.00     0.000 C 
BRANCH   5   6
ATOM      6  C   UNL     1     164.453 155.356 165.998  1.00  0.00     0.000 C 
BRANCH   6   7
ATOM      7  C   UNL     1     165.086 156.215 164.893  1.00  0.00     0.000 C 
BRANCH   7   8
ATOM      8  C   UNL     1     165.965 155.384 163.933  1.00  0.00     0.000 C 
BRANCH   8   9
ATOM      9  C   UNL     1     165.579 153.894 163.864  1.00  0.00     0.000 C 
BRANCH   9  10
ATOM     10  C   UNL     1     165.682 153.262 162.467  1.00  0.00     0.006 C 
BRANCH  10  11
ATOM     11  C   UNL     1     165.161 154.184 161.356  1.00  0.00     0.053 C 
BRANCH  11  12
ATOM     12  C   UNL     1     166.251 154.534 160.392  1.00  0.00     0.041 C 
ATOM     13  O   UNL     1     165.967 154.954 159.238  1.00  0.00    -0.550 OA
ATOM     14  O   UNL     1     167.581 154.449 160.785  1.00  0.00    -0.550 OA
ENDBRANCH  11  12
ENDBRANCH  10  11
ENDBRANCH   9  10
ENDBRANCH   8   9
ENDBRANCH   7   8
ENDBRANCH   6   7
ENDBRANCH   5   6
ENDBRANCH   4   5
ENDBRANCH   3   4
ENDBRANCH   2   3
ENDBRANCH   1   2
BRANCH   1  15
ATOM     15  C   UNL     1     162.149 155.115 163.011  1.00  0.00     0.000 C 
BRANCH  15  16
ATOM     16  C   UNL     1     161.385 154.026 163.780  1.00  0.00     0.000 C 
BRANCH  16  17
ATOM     17  C   UNL     1     162.098 152.663 163.735  1.00  0.00     0.000 C 
BRANCH  17  18
ATOM     18  C   UNL     1     161.502 151.716 162.680  1.00  0.00    -0.000 C 
BRANCH  18  19
ATOM     19  C   UNL     1     162.503 151.380 161.560  1.00  0.00    -0.000 C 
BRANCH  19  20
ATOM     20  C   UNL     1     161.938 151.651 160.156  1.00  0.00    -0.000 C 
BRANCH  20  21
ATOM     21  C   UNL     1     160.802 152.689 160.167  1.00  0.00    -0.000 C 
BRANCH  21  22
ATOM     22  C   UNL     1     161.288 154.096 159.780  1.00  0.00    -0.000 C 
BRANCH  22  23
ATOM     23  C   UNL     1     162.556 154.059 158.908  1.00  0.00    -0.000 C 
BRANCH  23  24
ATOM     24  C   UNL     1     162.587 155.186 157.863  1.00  0.00    -0.000 C 
BRANCH  24  25
ATOM     25  C   UNL     1     162.569 154.658 156.420  1.00  0.00    -0.003 C 
ATOM     26  C   UNL     1     161.145 154.338 155.973  1.00  0.00     0.004 C 
ENDBRANCH  24  25
ENDBRANCH  23  24
ENDBRANCH  22  23
ENDBRANCH  21  22
ENDBRANCH  20  21
ENDBRANCH  19  20
ENDBRANCH  18  19
ENDBRANCH  17  18
ENDBRANCH  16  17
ENDBRANCH  15  16
ENDBRANCH   1  15
TORSDOF 22
ENDMDL
MODEL 9
REMARK VINA RESULT:    -2.909      3.776      6.989
REMARK INTER + INTRA:         -11.080
REMARK INTER:                  -7.877
REMARK INTRA:                  -3.203
REMARK UNBOUND:                -4.431
REMARK SMILES CCCCCCCCCCCCCCCCCCCCCCCC(=O)[O-]
REMARK SMILES IDX 13 1 14 2 15 3 16 4 17 5 18 6 19 7 20 8 21 9 22 10 23 11
REMARK SMILES IDX 24 12 25 13 26 14 12 15 11 16 10 17 9 18 8 19 7 20 6 21 5 22
REMARK SMILES IDX 4 23 3 24 2 25 1 26
REMARK H PARENT
REMARK Flexibility Score: inf
ROOT
ATOM      1  C   UNL     1     161.991 151.253 163.510  1.00  0.00     0.000 C 
ENDROOT
BRANCH   1   2
ATOM      2  C   UNL     1     160.679 151.318 162.713  1.00  0.00     0.000 C 
BRANCH   2   3
ATOM      3  C   UNL     1     159.439 151.377 163.625  1.00  0.00     0.000 C 
BRANCH   3   4
ATOM      4  C   UNL     1     158.387 152.379 163.129  1.00  0.00     0.000 C 
BRANCH   4   5
ATOM      5  C   UNL     1     157.569 152.993 164.276  1.00  0.00     0.000 C 
BRANCH   5   6
ATOM      6  C   UNL     1     156.533 153.988 163.739  1.00  0.00     0.000 C 
BRANCH   6   7
ATOM      7  C   UNL     1     155.169 153.312 163.534  1.00  0.00     0.000 C 
BRANCH   7   8
ATOM      8  C   UNL     1     154.401 153.894 162.328  1.00  0.00     0.000 C 
BRANCH   8   9
ATOM      9  C   UNL     1     154.830 155.323 161.944  1.00  0.00     0.000 C 
BRANCH   9  10
ATOM     10  C   UNL     1     153.888 156.436 162.431  1.00  0.00     0.006 C 
BRANCH  10  11
ATOM     11  C   UNL     1     154.412 157.154 163.683  1.00  0.00     0.053 C 
BRANCH  11  12
ATOM     12  C   UNL     1     154.446 158.636 163.478  1.00  0.00     0.041 C 
ATOM     13  O   UNL     1     154.310 159.416 164.459  1.00  0.00    -0.550 OA
ATOM     14  O   UNL     1     154.683 159.158 162.213  1.00  0.00    -0.550 OA
ENDBRANCH  11  12
ENDBRANCH  10  11
ENDBRANCH   9  10
ENDBRANCH   8   9
ENDBRANCH   7   8
ENDBRANCH   6   7
ENDBRANCH   5   6
ENDBRANCH   4   5
ENDBRANCH   3   4
ENDBRANCH   2   3
ENDBRANCH   1   2
BRANCH   1  15
ATOM     15  C   UNL     1     162.533 152.648 163.869  1.00  0.00     0.000 C 
BRANCH  15  16
ATOM     16  C   UNL     1     162.633 153.580 162.652  1.00  0.00     0.000 C 
BRANCH  16  17
ATOM     17  C   UNL     1     161.759 154.839 162.801  1.00  0.00     0.000 C 
BRANCH  17  18
ATOM     18  C   UNL     1     160.910 154.823 164.083  1.00  0.00    -0.000 C 
BRANCH  18  19
ATOM     19  C   UNL     1     161.317 155.930 165.072  1.00  0.00    -0.000 C 
BRANCH  19  20
ATOM     20  C   UNL     1     162.205 157.006 164.426  1.00  0.00    -0.000 C 
BRANCH  20  21
ATOM     21  C   UNL     1     163.559 157.163 165.141  1.00  0.00    -0.000 C 
BRANCH  21  22
ATOM     22  C   UNL     1     163.828 156.027 166.142  1.00  0.00    -0.000 C 
BRANCH  22  23
ATOM     23  C   UNL     1     164.816 154.981 165.592  1.00  0.00    -0.000 C 
BRANCH  23  24
ATOM     24  C   UNL     1     165.508 155.445 164.300  1.00  0.00    -0.000 C 
BRANCH  24  25
ATOM     25  C   UNL     1     166.335 154.333 163.637  1.00  0.00    -0.003 C 
ATOM     26  C   UNL     1     166.167 153.010 164.380  1.00  0.00     0.004 C 
ENDBRANCH  24  25
ENDBRANCH  23  24
ENDBRANCH  22  23
ENDBRANCH  21  22
ENDBRANCH  20  21
ENDBRANCH  19  20
ENDBRANCH  18  19
ENDBRANCH  17  18
ENDBRANCH  16  17
ENDBRANCH  15  16
ENDBRANCH   1  15
TORSDOF 22
ENDMDL
