MODEL 1
REMARK VINA RESULT:    -6.635      0.000      0.000
REMARK INTER + INTRA:          -7.258
REMARK INTER:                  -7.023
REMARK INTRA:                  -0.235
REMARK UNBOUND:                -0.235
REMARK SMILES O=c1cc(-c2ccccc2)oc2ccccc12
REMARK SMILES IDX 4 1 3 2 2 3 1 4 17 5 16 6 15 7 14 8 13 9 12 10 11 11 5 12
REMARK SMILES IDX 8 13 7 14 9 15 6 16 10 17
REMARK H PARENT
REMARK Flexibility Score: inf
ROOT
ATOM      1  C   UNL     1     -12.233 -21.741  -9.820  1.00  0.00     0.138 A 
ATOM      2  C   UNL     1     -13.555 -21.522  -9.379  1.00  0.00     0.100 A 
ATOM      3  C   UNL     1     -13.796 -20.612  -8.347  1.00  0.00     0.193 A 
ATOM      4  O   UNL     1     -14.979 -20.417  -7.954  1.00  0.00    -0.289 OA
ATOM      5  C   UNL     1     -12.721 -19.931  -7.763  1.00  0.00     0.065 A 
ATOM      6  C   UNL     1     -12.893 -19.003  -6.721  1.00  0.00     0.016 A 
ATOM      7  C   UNL     1     -11.785 -18.350  -6.173  1.00  0.00     0.001 A 
ATOM      8  C   UNL     1     -10.502 -18.616  -6.659  1.00  0.00     0.004 A 
ATOM      9  C   UNL     1     -10.320 -19.537  -7.695  1.00  0.00     0.048 A 
ATOM     10  C   UNL     1     -11.422 -20.196  -8.250  1.00  0.00     0.138 A 
ATOM     11  O   UNL     1     -11.240 -21.069  -9.234  1.00  0.00    -0.456 OA
ENDROOT
BRANCH   1  12
ATOM     12  C   UNL     1     -11.888 -22.696 -10.918  1.00  0.00     0.017 A 
ATOM     13  C   UNL     1     -11.194 -24.424 -13.038  1.00  0.00     0.000 A 
ATOM     14  C   UNL     1     -11.867 -24.923 -11.924  1.00  0.00     0.001 A 
ATOM     15  C   UNL     1     -10.864 -23.071 -13.104  1.00  0.00     0.001 A 
ATOM     16  C   UNL     1     -12.214 -24.072 -10.869  1.00  0.00     0.012 A 
ATOM     17  C   UNL     1     -11.207 -22.214 -12.056  1.00  0.00     0.012 A 
ENDBRANCH   1  12
TORSDOF 1
ENDMDL
MODEL 2
REMARK VINA RESULT:    -6.549     12.282     13.025
REMARK INTER + INTRA:          -7.167
REMARK INTER:                  -6.924
REMARK INTRA:                  -0.243
REMARK UNBOUND:                -0.235
REMARK SMILES O=c1cc(-c2ccccc2)oc2ccccc12
REMARK SMILES IDX 4 1 3 2 2 3 1 4 17 5 16 6 15 7 14 8 13 9 12 10 11 11 5 12
REMARK SMILES IDX 8 13 7 14 9 15 6 16 10 17
REMARK H PARENT
REMARK Flexibility Score: inf
ROOT
ATOM      1  C   UNL     1     -12.489 -10.277 -15.375  1.00  0.00     0.138 A 
ATOM      2  C   UNL     1     -12.535  -8.978 -14.825  1.00  0.00     0.100 A 
ATOM      3  C   UNL     1     -13.749  -8.470 -14.359  1.00  0.00     0.193 A 
ATOM      4  O   UNL     1     -13.789  -7.309 -13.867  1.00  0.00    -0.289 OA
ATOM      5  C   UNL     1     -14.905  -9.257 -14.445  1.00  0.00     0.065 A 
ATOM      6  C   UNL     1     -16.159  -8.806 -13.995  1.00  0.00     0.016 A 
ATOM      7  C   UNL     1     -17.282  -9.632 -14.105  1.00  0.00     0.001 A 
ATOM      8  C   UNL     1     -17.163 -10.908 -14.661  1.00  0.00     0.004 A 
ATOM      9  C   UNL     1     -15.921 -11.366 -15.111  1.00  0.00     0.048 A 
ATOM     10  C   UNL     1     -14.791 -10.547 -15.006  1.00  0.00     0.138 A 
ATOM     11  O   UNL     1     -13.615 -10.990 -15.437  1.00  0.00    -0.456 OA
ENDROOT
BRANCH   1  12
ATOM     12  C   UNL     1     -11.232 -10.897 -15.896  1.00  0.00     0.017 A 
ATOM     13  C   UNL     1      -8.880 -12.147 -16.829  1.00  0.00     0.000 A 
ATOM     14  C   UNL     1      -9.190 -10.851 -17.239  1.00  0.00     0.001 A 
ATOM     15  C   UNL     1      -9.733 -12.825 -15.959  1.00  0.00     0.001 A 
ATOM     16  C   UNL     1     -10.355 -10.226 -16.780  1.00  0.00     0.012 A 
ATOM     17  C   UNL     1     -10.897 -12.207 -15.495  1.00  0.00     0.012 A 
ENDBRANCH   1  12
TORSDOF 1
ENDMDL
MODEL 3
REMARK VINA RESULT:    -6.486     12.942     13.906
REMARK INTER + INTRA:          -7.100
REMARK INTER:                  -6.879
REMARK INTRA:                  -0.221
REMARK UNBOUND:                -0.235
REMARK SMILES O=c1cc(-c2ccccc2)oc2ccccc12
REMARK SMILES IDX 4 1 3 2 2 3 1 4 17 5 16 6 15 7 14 8 13 9 12 10 11 11 5 12
REMARK SMILES IDX 8 13 7 14 9 15 6 16 10 17
REMARK H PARENT
REMARK Flexibility Score: inf
ROOT
ATOM      1  C   UNL     1     -13.964 -10.150 -16.180  1.00  0.00     0.138 A 
ATOM      2  C   UNL     1     -13.630  -8.948 -16.838  1.00  0.00     0.100 A 
ATOM      3  C   UNL     1     -12.320  -8.743 -17.276  1.00  0.00     0.193 A 
ATOM      4  O   UNL     1     -12.023  -7.667 -17.865  1.00  0.00    -0.289 OA
ATOM      5  C   UNL     1     -11.355  -9.734 -17.054  1.00  0.00     0.065 A 
ATOM      6  C   UNL     1     -10.018  -9.591 -17.468  1.00  0.00     0.016 A 
ATOM      7  C   UNL     1      -9.095 -10.612 -17.220  1.00  0.00     0.001 A 
ATOM      8  C   UNL     1      -9.496 -11.777 -16.562  1.00  0.00     0.004 A 
ATOM      9  C   UNL     1     -10.823 -11.929 -16.146  1.00  0.00     0.048 A 
ATOM     10  C   UNL     1     -11.754 -10.914 -16.389  1.00  0.00     0.138 A 
ATOM     11  O   UNL     1     -13.013 -11.066 -15.990  1.00  0.00    -0.456 OA
ENDROOT
BRANCH   1  12
ATOM     12  C   UNL     1     -15.342 -10.450 -15.680  1.00  0.00     0.017 A 
ATOM     13  C   UNL     1     -17.965 -11.044 -14.827  1.00  0.00     0.000 A 
ATOM     14  C   UNL     1     -17.029 -10.557 -13.916  1.00  0.00     0.001 A 
ATOM     15  C   UNL     1     -17.604 -11.238 -16.159  1.00  0.00     0.001 A 
ATOM     16  C   UNL     1     -15.727 -10.261 -14.332  1.00  0.00     0.012 A 
ATOM     17  C   UNL     1     -16.306 -10.944 -16.584  1.00  0.00     0.012 A 
ENDBRANCH   1  12
TORSDOF 1
ENDMDL
MODEL 4
REMARK VINA RESULT:    -6.467     12.993     13.954
REMARK INTER + INTRA:          -7.080
REMARK INTER:                  -6.860
REMARK INTRA:                  -0.221
REMARK UNBOUND:                -0.235
REMARK SMILES O=c1cc(-c2ccccc2)oc2ccccc12
REMARK SMILES IDX 4 1 3 2 2 3 1 4 17 5 16 6 15 7 14 8 13 9 12 10 11 11 5 12
REMARK SMILES IDX 8 13 7 14 9 15 6 16 10 17
REMARK H PARENT
REMARK Flexibility Score: inf
ROOT
ATOM      1  C   UNL     1     -13.980 -10.122 -16.245  1.00  0.00     0.138 A 
ATOM      2  C   UNL     1     -13.642  -8.909 -16.880  1.00  0.00     0.100 A 
ATOM      3  C   UNL     1     -12.325  -8.689 -17.290  1.00  0.00     0.193 A 
ATOM      4  O   UNL     1     -12.024  -7.604 -17.858  1.00  0.00    -0.289 OA
ATOM      5  C   UNL     1     -11.358  -9.677 -17.063  1.00  0.00     0.065 A 
ATOM      6  C   UNL     1     -10.015  -9.520 -17.450  1.00  0.00     0.016 A 
ATOM      7  C   UNL     1      -9.089 -10.538 -17.199  1.00  0.00     0.001 A 
ATOM      8  C   UNL     1      -9.495 -11.715 -16.564  1.00  0.00     0.004 A 
ATOM      9  C   UNL     1     -10.828 -11.881 -16.177  1.00  0.00     0.048 A 
ATOM     10  C   UNL     1     -11.761 -10.868 -16.423  1.00  0.00     0.138 A 
ATOM     11  O   UNL     1     -13.026 -11.035 -16.050  1.00  0.00    -0.456 OA
ENDROOT
BRANCH   1  12
ATOM     12  C   UNL     1     -15.365 -10.439 -15.776  1.00  0.00     0.017 A 
ATOM     13  C   UNL     1     -17.952 -11.006 -14.801  1.00  0.00     0.000 A 
ATOM     14  C   UNL     1     -17.648 -11.227 -16.144  1.00  0.00     0.001 A 
ATOM     15  C   UNL     1     -16.976 -10.504 -13.941  1.00  0.00     0.001 A 
ATOM     16  C   UNL     1     -16.368 -10.947 -16.634  1.00  0.00     0.012 A 
ATOM     17  C   UNL     1     -15.694 -10.223 -14.421  1.00  0.00     0.012 A 
ENDBRANCH   1  12
TORSDOF 1
ENDMDL
MODEL 5
REMARK VINA RESULT:    -6.290     13.262     14.194
REMARK INTER + INTRA:          -6.893
REMARK INTER:                  -6.662
REMARK INTRA:                  -0.231
REMARK UNBOUND:                -0.235
REMARK SMILES O=c1cc(-c2ccccc2)oc2ccccc12
REMARK SMILES IDX 4 1 3 2 2 3 1 4 17 5 16 6 15 7 14 8 13 9 12 10 11 11 5 12
REMARK SMILES IDX 8 13 7 14 9 15 6 16 10 17
REMARK H PARENT
REMARK Flexibility Score: inf
ROOT
ATOM      1  C   UNL     1     -13.852 -10.294 -15.956  1.00  0.00     0.138 A 
ATOM      2  C   UNL     1     -12.775 -11.007 -15.389  1.00  0.00     0.100 A 
ATOM      3  C   UNL     1     -11.468 -10.711 -15.784  1.00  0.00     0.193 A 
ATOM      4  O   UNL     1     -10.506 -11.350 -15.276  1.00  0.00    -0.289 OA
ATOM      5  C   UNL     1     -11.246  -9.711 -16.739  1.00  0.00     0.065 A 
ATOM      6  C   UNL     1      -9.956  -9.364 -17.181  1.00  0.00     0.016 A 
ATOM      7  C   UNL     1      -9.791  -8.358 -18.138  1.00  0.00     0.001 A 
ATOM      8  C   UNL     1     -10.904  -7.692 -18.657  1.00  0.00     0.004 A 
ATOM      9  C   UNL     1     -12.190  -8.029 -18.224  1.00  0.00     0.048 A 
ATOM     10  C   UNL     1     -12.367  -9.035 -17.268  1.00  0.00     0.138 A 
ATOM     11  O   UNL     1     -13.593  -9.349 -16.862  1.00  0.00    -0.456 OA
ENDROOT
BRANCH   1  12
ATOM     12  C   UNL     1     -15.280 -10.546 -15.589  1.00  0.00     0.017 A 
ATOM     13  C   UNL     1     -17.953 -10.996 -14.806  1.00  0.00     0.000 A 
ATOM     14  C   UNL     1     -17.570 -11.207 -16.130  1.00  0.00     0.001 A 
ATOM     15  C   UNL     1     -17.015 -10.563 -13.870  1.00  0.00     0.001 A 
ATOM     16  C   UNL     1     -16.246 -10.985 -16.525  1.00  0.00     0.012 A 
ATOM     17  C   UNL     1     -15.691 -10.340 -14.255  1.00  0.00     0.012 A 
ENDBRANCH   1  12
TORSDOF 1
ENDMDL
MODEL 6
REMARK VINA RESULT:    -6.271      2.724      5.578
REMARK INTER + INTRA:          -6.873
REMARK INTER:                  -6.653
REMARK INTRA:                  -0.220
REMARK UNBOUND:                -0.235
REMARK SMILES O=c1cc(-c2ccccc2)oc2ccccc12
REMARK SMILES IDX 4 1 3 2 2 3 1 4 17 5 16 6 15 7 14 8 13 9 12 10 11 11 5 12
REMARK SMILES IDX 8 13 7 14 9 15 6 16 10 17
REMARK H PARENT
REMARK Flexibility Score: inf
ROOT
ATOM      1  C   UNL     1      -9.372 -19.570  -7.371  1.00  0.00     0.138 A 
ATOM      2  C   UNL     1     -10.201 -18.757  -6.569  1.00  0.00     0.100 A 
ATOM      3  C   UNL     1     -11.586 -18.808  -6.737  1.00  0.00     0.193 A 
ATOM      4  O   UNL     1     -12.326 -18.081  -6.019  1.00  0.00    -0.289 OA
ATOM      5  C   UNL     1     -12.134 -19.664  -7.702  1.00  0.00     0.065 A 
ATOM      6  C   UNL     1     -13.520 -19.763  -7.923  1.00  0.00     0.016 A 
ATOM      7  C   UNL     1     -14.013 -20.633  -8.899  1.00  0.00     0.001 A 
ATOM      8  C   UNL     1     -13.133 -21.409  -9.658  1.00  0.00     0.004 A 
ATOM      9  C   UNL     1     -11.754 -21.319  -9.445  1.00  0.00     0.048 A 
ATOM     10  C   UNL     1     -11.250 -20.450  -8.472  1.00  0.00     0.138 A 
ATOM     11  O   UNL     1      -9.938 -20.371  -8.277  1.00  0.00    -0.456 OA
ENDROOT
BRANCH   1  12
ATOM     12  C   UNL     1      -7.881 -19.578  -7.256  1.00  0.00     0.017 A 
ATOM     13  C   UNL     1      -5.064 -19.521  -7.104  1.00  0.00     0.000 A 
ATOM     14  C   UNL     1      -5.785 -20.430  -6.333  1.00  0.00     0.001 A 
ATOM     15  C   UNL     1      -5.735 -18.640  -7.951  1.00  0.00     0.001 A 
ATOM     16  C   UNL     1      -7.182 -20.464  -6.403  1.00  0.00     0.012 A 
ATOM     17  C   UNL     1      -7.130 -18.667  -8.028  1.00  0.00     0.012 A 
ENDBRANCH   1  12
TORSDOF 1
ENDMDL
MODEL 7
REMARK VINA RESULT:    -6.168      4.619      5.992
REMARK INTER + INTRA:          -6.764
REMARK INTER:                  -6.543
REMARK INTRA:                  -0.221
REMARK UNBOUND:                -0.235
REMARK SMILES O=c1cc(-c2ccccc2)oc2ccccc12
REMARK SMILES IDX 4 1 3 2 2 3 1 4 17 5 16 6 15 7 14 8 13 9 12 10 11 11 5 12
REMARK SMILES IDX 8 13 7 14 9 15 6 16 10 17
REMARK H PARENT
REMARK Flexibility Score: inf
ROOT
ATOM      1  C   UNL     1      -8.790 -18.840  -7.257  1.00  0.00     0.138 A 
ATOM      2  C   UNL     1      -9.864 -18.132  -7.833  1.00  0.00     0.100 A 
ATOM      3  C   UNL     1     -11.174 -18.437  -7.456  1.00  0.00     0.193 A 
ATOM      4  O   UNL     1     -12.134 -17.803  -7.972  1.00  0.00    -0.289 OA
ATOM      5  C   UNL     1     -11.401 -19.446  -6.510  1.00  0.00     0.065 A 
ATOM      6  C   UNL     1     -12.694 -19.804  -6.086  1.00  0.00     0.016 A 
ATOM      7  C   UNL     1     -12.864 -20.819  -5.139  1.00  0.00     0.001 A 
ATOM      8  C   UNL     1     -11.753 -21.480  -4.610  1.00  0.00     0.004 A 
ATOM      9  C   UNL     1     -10.464 -21.130  -5.024  1.00  0.00     0.048 A 
ATOM     10  C   UNL     1     -10.282 -20.117  -5.971  1.00  0.00     0.138 A 
ATOM     11  O   UNL     1      -9.054 -19.793  -6.360  1.00  0.00    -0.456 OA
ENDROOT
BRANCH   1  12
ATOM     12  C   UNL     1      -7.359 -18.576  -7.604  1.00  0.00     0.017 A 
ATOM     13  C   UNL     1      -4.653 -18.021  -8.180  1.00  0.00     0.000 A 
ATOM     14  C   UNL     1      -5.390 -18.850  -9.025  1.00  0.00     0.001 A 
ATOM     15  C   UNL     1      -5.254 -17.468  -7.050  1.00  0.00     0.001 A 
ATOM     16  C   UNL     1      -6.732 -19.129  -8.745  1.00  0.00     0.012 A 
ATOM     17  C   UNL     1      -6.594 -17.740  -6.763  1.00  0.00     0.012 A 
ENDBRANCH   1  12
TORSDOF 1
ENDMDL
MODEL 8
REMARK VINA RESULT:    -6.034      4.819      6.235
REMARK INTER + INTRA:          -6.622
REMARK INTER:                  -6.378
REMARK INTRA:                  -0.245
REMARK UNBOUND:                -0.235
REMARK SMILES O=c1cc(-c2ccccc2)oc2ccccc12
REMARK SMILES IDX 4 1 3 2 2 3 1 4 17 5 16 6 15 7 14 8 13 9 12 10 11 11 5 12
REMARK SMILES IDX 8 13 7 14 9 15 6 16 10 17
REMARK H PARENT
REMARK Flexibility Score: inf
ROOT
ATOM      1  C   UNL     1      -8.122 -19.981  -6.468  1.00  0.00     0.138 A 
ATOM      2  C   UNL     1      -8.461 -18.849  -7.238  1.00  0.00     0.100 A 
ATOM      3  C   UNL     1      -9.797 -18.451  -7.328  1.00  0.00     0.193 A 
ATOM      4  O   UNL     1     -10.099 -17.439  -8.018  1.00  0.00    -0.289 OA
ATOM      5  C   UNL     1     -10.782 -19.184  -6.653  1.00  0.00     0.065 A 
ATOM      6  C   UNL     1     -12.145 -18.839  -6.703  1.00  0.00     0.016 A 
ATOM      7  C   UNL     1     -13.087 -19.605  -6.010  1.00  0.00     0.001 A 
ATOM      8  C   UNL     1     -12.679 -20.715  -5.266  1.00  0.00     0.004 A 
ATOM      9  C   UNL     1     -11.327 -21.066  -5.210  1.00  0.00     0.048 A 
ATOM     10  C   UNL     1     -10.376 -20.307  -5.900  1.00  0.00     0.138 A 
ATOM     11  O   UNL     1      -9.094 -20.648  -5.841  1.00  0.00    -0.456 OA
ENDROOT
BRANCH   1  12
ATOM     12  C   UNL     1      -6.718 -20.474  -6.317  1.00  0.00     0.017 A 
ATOM     13  C   UNL     1      -4.040 -21.312  -6.020  1.00  0.00     0.000 A 
ATOM     14  C   UNL     1      -5.041 -22.251  -6.264  1.00  0.00     0.001 A 
ATOM     15  C   UNL     1      -4.363 -19.960  -5.922  1.00  0.00     0.001 A 
ATOM     16  C   UNL     1      -6.371 -21.842  -6.412  1.00  0.00     0.012 A 
ATOM     17  C   UNL     1      -5.688 -19.542  -6.070  1.00  0.00     0.012 A 
ENDBRANCH   1  12
TORSDOF 1
ENDMDL
MODEL 9
REMARK VINA RESULT:    -5.978     12.909     14.128
REMARK INTER + INTRA:          -6.563
REMARK INTER:                  -6.317
REMARK INTRA:                  -0.246
REMARK UNBOUND:                -0.235
REMARK SMILES O=c1cc(-c2ccccc2)oc2ccccc12
REMARK SMILES IDX 4 1 3 2 2 3 1 4 17 5 16 6 15 7 14 8 13 9 12 10 11 11 5 12
REMARK SMILES IDX 8 13 7 14 9 15 6 16 10 17
REMARK H PARENT
REMARK Flexibility Score: inf
ROOT
ATOM      1  C   UNL     1     -12.594 -10.201 -15.697  1.00  0.00     0.138 A 
ATOM      2  C   UNL     1     -11.835 -11.338 -15.349  1.00  0.00     0.100 A 
ATOM      3  C   UNL     1     -10.572 -11.523 -15.914  1.00  0.00     0.193 A 
ATOM      4  O   UNL     1      -9.894 -12.541 -15.601  1.00  0.00    -0.289 OA
ATOM      5  C   UNL     1     -10.075 -10.578 -16.821  1.00  0.00     0.065 A 
ATOM      6  C   UNL     1      -8.812 -10.704 -17.426  1.00  0.00     0.016 A 
ATOM      7  C   UNL     1      -8.366  -9.730 -18.325  1.00  0.00     0.001 A 
ATOM      8  C   UNL     1      -9.171  -8.628 -18.624  1.00  0.00     0.004 A 
ATOM      9  C   UNL     1     -10.428  -8.494 -18.027  1.00  0.00     0.048 A 
ATOM     10  C   UNL     1     -10.885  -9.462 -17.127  1.00  0.00     0.138 A 
ATOM     11  O   UNL     1     -12.081  -9.326 -16.565  1.00  0.00    -0.456 OA
ENDROOT
BRANCH   1  12
ATOM     12  C   UNL     1     -13.954  -9.925 -15.139  1.00  0.00     0.017 A 
ATOM     13  C   UNL     1     -16.542  -9.500 -14.097  1.00  0.00     0.000 A 
ATOM     14  C   UNL     1     -15.647  -8.436 -14.198  1.00  0.00     0.001 A 
ATOM     15  C   UNL     1     -16.156 -10.774 -14.511  1.00  0.00     0.001 A 
ATOM     16  C   UNL     1     -14.362  -8.640 -14.713  1.00  0.00     0.012 A 
ATOM     17  C   UNL     1     -14.876 -10.987 -15.027  1.00  0.00     0.012 A 
ENDBRANCH   1  12
TORSDOF 1
ENDMDL
