MODEL 1
REMARK VINA RESULT:    -7.266      0.000      0.000
REMARK INTER + INTRA:          -9.001
REMARK INTER:                  -8.753
REMARK INTRA:                  -0.248
REMARK UNBOUND:                -0.248
REMARK SMILES O=c1c(O)c(-c2ccc(O)c(O)c2)oc2cc(O)cc(O)c12
REMARK SMILES IDX 5 1 3 2 2 3 1 4 22 5 20 6 19 7 17 8 16 9 15 10 14 11 6 12
REMARK SMILES IDX 7 13 8 14 9 15 13 16 11 17 10 18 12 20 4 22 21 24 18 26
REMARK H PARENT 10 19 12 21 4 23 21 25 18 27
REMARK Flexibility Score: inf
ROOT
ATOM      1  C   UNL     1      13.876   1.080  19.555  1.00  0.00     0.180 A 
ATOM      2  C   UNL     1      13.805   1.926  20.678  1.00  0.00     0.208 A 
ATOM      3  C   UNL     1      14.092   1.396  21.947  1.00  0.00     0.238 A 
ATOM      4  O   UNL     1      14.020   2.142  22.961  1.00  0.00    -0.285 OA
ATOM      5  C   UNL     1      14.462   0.041  22.068  1.00  0.00     0.111 A 
ATOM      6  C   UNL     1      14.771  -0.569  23.308  1.00  0.00     0.134 A 
ATOM      7  C   UNL     1      15.142  -1.921  23.344  1.00  0.00     0.093 A 
ATOM      8  C   UNL     1      15.209  -2.674  22.166  1.00  0.00     0.123 A 
ATOM      9  C   UNL     1      14.905  -2.077  20.942  1.00  0.00     0.094 A 
ATOM     10  C   UNL     1      14.533  -0.730  20.884  1.00  0.00     0.146 A 
ATOM     11  O   UNL     1      14.244  -0.189  19.706  1.00  0.00    -0.452 OA
ENDROOT
BRANCH   1  12
ATOM     12  C   UNL     1      13.570   1.559  18.188  1.00  0.00     0.025 A 
ATOM     13  C   UNL     1      12.239   1.824  17.830  1.00  0.00     0.016 A 
ATOM     14  C   UNL     1      11.929   2.296  16.553  1.00  0.00     0.051 A 
ATOM     15  C   UNL     1      12.944   2.527  15.619  1.00  0.00     0.157 A 
ATOM     16  C   UNL     1      14.592   1.813  17.254  1.00  0.00     0.062 A 
ATOM     17  C   UNL     1      14.283   2.288  15.972  1.00  0.00     0.158 A 
BRANCH  15  18
ATOM     18  O   UNL     1      12.605   2.997  14.351  1.00  0.00    -0.504 OA
ATOM     19  H   UNL     1      11.811   2.633  13.837  1.00  0.00     0.293 HD
ENDBRANCH  15  18
BRANCH  17  20
ATOM     20  O   UNL     1      15.301   2.531  15.051  1.00  0.00    -0.504 OA
ATOM     21  H   UNL     1      16.265   2.647  15.343  1.00  0.00     0.293 HD
ENDBRANCH  17  20
ENDBRANCH   1  12
BRANCH   2  22
ATOM     22  O   UNL     1      13.483   3.276  20.525  1.00  0.00    -0.502 OA
ATOM     23  H   UNL     1      13.987   4.013  21.005  1.00  0.00     0.293 HD
ENDBRANCH   2  22
BRANCH   6  24
ATOM     24  O   UNL     1      14.713   0.156  24.499  1.00  0.00    -0.507 OA
ATOM     25  H   UNL     1      14.459  -0.281  25.377  1.00  0.00     0.293 HD
ENDBRANCH   6  24
BRANCH   8  26
ATOM     26  O   UNL     1      15.578  -4.017  22.202  1.00  0.00    -0.508 OA
ATOM     27  H   UNL     1      14.895  -4.757  22.089  1.00  0.00     0.293 HD
ENDBRANCH   8  26
TORSDOF 6
ENDMDL
MODEL 2
REMARK VINA RESULT:    -7.187      4.830      6.141
REMARK INTER + INTRA:          -8.906
REMARK INTER:                  -8.604
REMARK INTRA:                  -0.302
REMARK UNBOUND:                -0.248
REMARK SMILES O=c1c(O)c(-c2ccc(O)c(O)c2)oc2cc(O)cc(O)c12
REMARK SMILES IDX 5 1 3 2 2 3 1 4 22 5 20 6 19 7 17 8 16 9 15 10 14 11 6 12
REMARK SMILES IDX 7 13 8 14 9 15 13 16 11 17 10 18 12 20 4 22 21 24 18 26
REMARK H PARENT 10 19 12 21 4 23 21 25 18 27
REMARK Flexibility Score: inf
ROOT
ATOM      1  C   UNL     1      11.641  -2.611  17.364  1.00  0.00     0.180 A 
ATOM      2  C   UNL     1      12.399  -3.413  18.238  1.00  0.00     0.208 A 
ATOM      3  C   UNL     1      13.226  -2.790  19.186  1.00  0.00     0.238 A 
ATOM      4  O   UNL     1      13.919  -3.498  19.966  1.00  0.00    -0.285 OA
ATOM      5  C   UNL     1      13.265  -1.383  19.257  1.00  0.00     0.111 A 
ATOM      6  C   UNL     1      14.068  -0.676  20.186  1.00  0.00     0.134 A 
ATOM      7  C   UNL     1      14.044   0.726  20.202  1.00  0.00     0.093 A 
ATOM      8  C   UNL     1      13.233   1.435  19.308  1.00  0.00     0.123 A 
ATOM      9  C   UNL     1      12.441   0.743  18.390  1.00  0.00     0.094 A 
ATOM     10  C   UNL     1      12.451  -0.655  18.358  1.00  0.00     0.146 A 
ATOM     11  O   UNL     1      11.691  -1.287  17.471  1.00  0.00    -0.452 OA
ENDROOT
BRANCH   1  12
ATOM     12  C   UNL     1      10.760  -3.194  16.325  1.00  0.00     0.025 A 
ATOM     13  C   UNL     1       9.370  -3.195  16.520  1.00  0.00     0.016 A 
ATOM     14  C   UNL     1       8.520  -3.721  15.545  1.00  0.00     0.051 A 
ATOM     15  C   UNL     1       9.041  -4.237  14.355  1.00  0.00     0.157 A 
ATOM     16  C   UNL     1      11.282  -3.694  15.118  1.00  0.00     0.062 A 
ATOM     17  C   UNL     1      10.429  -4.220  14.137  1.00  0.00     0.158 A 
BRANCH  15  18
ATOM     18  O   UNL     1       8.168  -4.757  13.400  1.00  0.00    -0.504 OA
ATOM     19  H   UNL     1       8.500  -5.201  12.552  1.00  0.00     0.293 HD
ENDBRANCH  15  18
BRANCH  17  20
ATOM     20  O   UNL     1      10.956  -4.719  12.947  1.00  0.00    -0.504 OA
ATOM     21  H   UNL     1      11.844  -5.206  12.922  1.00  0.00     0.293 HD
ENDBRANCH  17  20
ENDBRANCH   1  12
BRANCH   2  22
ATOM     22  O   UNL     1      12.305  -4.806  18.178  1.00  0.00    -0.502 OA
ATOM     23  H   UNL     1      11.446  -5.283  17.933  1.00  0.00     0.293 HD
ENDBRANCH   2  22
BRANCH   6  24
ATOM     24  O   UNL     1      14.885  -1.356  21.091  1.00  0.00    -0.507 OA
ATOM     25  H   UNL     1      15.845  -1.594  20.867  1.00  0.00     0.293 HD
ENDBRANCH   6  24
BRANCH   8  26
ATOM     26  O   UNL     1      13.209   2.828  19.323  1.00  0.00    -0.508 OA
ATOM     27  H   UNL     1      13.861   3.375  18.775  1.00  0.00     0.293 HD
ENDBRANCH   8  26
TORSDOF 6
ENDMDL
MODEL 3
REMARK VINA RESULT:    -7.074      3.288      5.280
REMARK INTER + INTRA:          -8.769
REMARK INTER:                  -8.477
REMARK INTRA:                  -0.292
REMARK UNBOUND:                -0.248
REMARK SMILES O=c1c(O)c(-c2ccc(O)c(O)c2)oc2cc(O)cc(O)c12
REMARK SMILES IDX 5 1 3 2 2 3 1 4 22 5 20 6 19 7 17 8 16 9 15 10 14 11 6 12
REMARK SMILES IDX 7 13 8 14 9 15 13 16 11 17 10 18 12 20 4 22 21 24 18 26
REMARK H PARENT 10 19 12 21 4 23 21 25 18 27
REMARK Flexibility Score: inf
ROOT
ATOM      1  C   UNL     1      13.395  -1.471  18.983  1.00  0.00     0.180 A 
ATOM      2  C   UNL     1      12.865  -0.271  18.470  1.00  0.00     0.208 A 
ATOM      3  C   UNL     1      13.006   0.908  19.219  1.00  0.00     0.238 A 
ATOM      4  O   UNL     1      12.525   1.986  18.776  1.00  0.00    -0.285 OA
ATOM      5  C   UNL     1      13.688   0.872  20.453  1.00  0.00     0.111 A 
ATOM      6  C   UNL     1      13.877   2.015  21.267  1.00  0.00     0.134 A 
ATOM      7  C   UNL     1      14.576   1.900  22.477  1.00  0.00     0.093 A 
ATOM      8  C   UNL     1      15.090   0.664  22.888  1.00  0.00     0.123 A 
ATOM      9  C   UNL     1      14.905  -0.465  22.089  1.00  0.00     0.094 A 
ATOM     10  C   UNL     1      14.210  -0.371  20.880  1.00  0.00     0.146 A 
ATOM     11  O   UNL     1      14.046  -1.463  20.142  1.00  0.00    -0.452 OA
ENDROOT
BRANCH   1  12
ATOM     12  C   UNL     1      13.271  -2.758  18.261  1.00  0.00     0.025 A 
ATOM     13  C   UNL     1      14.153  -3.048  17.209  1.00  0.00     0.016 A 
ATOM     14  C   UNL     1      14.068  -4.264  16.528  1.00  0.00     0.051 A 
ATOM     15  C   UNL     1      13.112  -5.216  16.896  1.00  0.00     0.157 A 
ATOM     16  C   UNL     1      12.324  -3.725  18.645  1.00  0.00     0.062 A 
ATOM     17  C   UNL     1      12.237  -4.947  17.963  1.00  0.00     0.158 A 
BRANCH  15  18
ATOM     18  O   UNL     1      13.048  -6.420  16.197  1.00  0.00    -0.504 OA
ATOM     19  H   UNL     1      12.217  -6.707  15.693  1.00  0.00     0.293 HD
ENDBRANCH  15  18
BRANCH  17  20
ATOM     20  O   UNL     1      11.291  -5.897  18.346  1.00  0.00    -0.504 OA
ATOM     21  H   UNL     1      11.073  -6.696  17.761  1.00  0.00     0.293 HD
ENDBRANCH  17  20
ENDBRANCH   1  12
BRANCH   2  22
ATOM     22  O   UNL     1      12.237  -0.254  17.223  1.00  0.00    -0.502 OA
ATOM     23  H   UNL     1      11.810  -1.078  16.818  1.00  0.00     0.293 HD
ENDBRANCH   2  22
BRANCH   6  24
ATOM     24  O   UNL     1      13.377   3.260  20.883  1.00  0.00    -0.507 OA
ATOM     25  H   UNL     1      12.713   3.357  20.122  1.00  0.00     0.293 HD
ENDBRANCH   6  24
BRANCH   8  26
ATOM     26  O   UNL     1      15.785   0.550  24.090  1.00  0.00    -0.508 OA
ATOM     27  H   UNL     1      16.480  -0.174  24.234  1.00  0.00     0.293 HD
ENDBRANCH   8  26
TORSDOF 6
ENDMDL
MODEL 4
REMARK VINA RESULT:    -6.957      4.383      5.041
REMARK INTER + INTRA:          -8.629
REMARK INTER:                  -8.299
REMARK INTRA:                  -0.330
REMARK UNBOUND:                -0.248
REMARK SMILES O=c1c(O)c(-c2ccc(O)c(O)c2)oc2cc(O)cc(O)c12
REMARK SMILES IDX 5 1 3 2 2 3 1 4 22 5 20 6 19 7 17 8 16 9 15 10 14 11 6 12
REMARK SMILES IDX 7 13 8 14 9 15 13 16 11 17 10 18 12 20 4 22 21 24 18 26
REMARK H PARENT 10 19 12 21 4 23 21 25 18 27
REMARK Flexibility Score: inf
ROOT
ATOM      1  C   UNL     1      12.300  -2.344  17.828  1.00  0.00     0.180 A 
ATOM      2  C   UNL     1      12.508  -0.957  17.962  1.00  0.00     0.208 A 
ATOM      3  C   UNL     1      13.257  -0.485  19.052  1.00  0.00     0.238 A 
ATOM      4  O   UNL     1      13.440   0.755  19.188  1.00  0.00    -0.285 OA
ATOM      5  C   UNL     1      13.799  -1.404  19.974  1.00  0.00     0.111 A 
ATOM      6  C   UNL     1      14.569  -1.012  21.096  1.00  0.00     0.134 A 
ATOM      7  C   UNL     1      15.083  -1.987  21.963  1.00  0.00     0.093 A 
ATOM      8  C   UNL     1      14.842  -3.346  21.728  1.00  0.00     0.123 A 
ATOM      9  C   UNL     1      14.084  -3.737  20.624  1.00  0.00     0.094 A 
ATOM     10  C   UNL     1      13.562  -2.780  19.749  1.00  0.00     0.146 A 
ATOM     11  O   UNL     1      12.840  -3.180  18.709  1.00  0.00    -0.452 OA
ENDROOT
BRANCH   1  12
ATOM     12  C   UNL     1      11.506  -2.916  16.717  1.00  0.00     0.025 A 
ATOM     13  C   UNL     1      12.151  -3.289  15.527  1.00  0.00     0.016 A 
ATOM     14  C   UNL     1      11.426  -3.850  14.474  1.00  0.00     0.051 A 
ATOM     15  C   UNL     1      10.049  -4.063  14.598  1.00  0.00     0.157 A 
ATOM     16  C   UNL     1      10.125  -3.152  16.848  1.00  0.00     0.062 A 
ATOM     17  C   UNL     1       9.395  -3.716  15.792  1.00  0.00     0.158 A 
BRANCH  15  18
ATOM     18  O   UNL     1       9.351  -4.624  13.529  1.00  0.00    -0.504 OA
ATOM     19  H   UNL     1       8.478  -5.121  13.659  1.00  0.00     0.293 HD
ENDBRANCH  15  18
BRANCH  17  20
ATOM     20  O   UNL     1       8.026  -3.940  15.928  1.00  0.00    -0.504 OA
ATOM     21  H   UNL     1       7.660  -4.592  16.612  1.00  0.00     0.293 HD
ENDBRANCH  17  20
ENDBRANCH   1  12
BRANCH   2  22
ATOM     22  O   UNL     1      12.001  -0.072  17.008  1.00  0.00    -0.502 OA
ATOM     23  H   UNL     1      12.582   0.613  16.539  1.00  0.00     0.293 HD
ENDBRANCH   2  22
BRANCH   6  24
ATOM     24  O   UNL     1      14.826   0.335  21.355  1.00  0.00    -0.507 OA
ATOM     25  H   UNL     1      14.076   1.008  21.473  1.00  0.00     0.293 HD
ENDBRANCH   6  24
BRANCH   8  26
ATOM     26  O   UNL     1      15.354  -4.316  22.589  1.00  0.00    -0.508 OA
ATOM     27  H   UNL     1      14.753  -4.839  23.214  1.00  0.00     0.293 HD
ENDBRANCH   8  26
TORSDOF 6
ENDMDL
MODEL 5
REMARK VINA RESULT:    -6.945      4.768      6.881
REMARK INTER + INTRA:          -8.614
REMARK INTER:                  -8.281
REMARK INTRA:                  -0.333
REMARK UNBOUND:                -0.248
REMARK SMILES O=c1c(O)c(-c2ccc(O)c(O)c2)oc2cc(O)cc(O)c12
REMARK SMILES IDX 5 1 3 2 2 3 1 4 22 5 20 6 19 7 17 8 16 9 15 10 14 11 6 12
REMARK SMILES IDX 7 13 8 14 9 15 13 16 11 17 10 18 12 20 4 22 21 24 18 26
REMARK H PARENT 10 19 12 21 4 23 21 25 18 27
REMARK Flexibility Score: inf
ROOT
ATOM      1  C   UNL     1      12.739  -1.267  17.367  1.00  0.00     0.180 A 
ATOM      2  C   UNL     1      13.800  -1.874  16.668  1.00  0.00     0.208 A 
ATOM      3  C   UNL     1      13.536  -3.005  15.879  1.00  0.00     0.238 A 
ATOM      4  O   UNL     1      14.481  -3.562  15.258  1.00  0.00    -0.285 OA
ATOM      5  C   UNL     1      12.218  -3.496  15.787  1.00  0.00     0.111 A 
ATOM      6  C   UNL     1      11.866  -4.628  15.011  1.00  0.00     0.134 A 
ATOM      7  C   UNL     1      10.529  -5.049  14.962  1.00  0.00     0.093 A 
ATOM      8  C   UNL     1       9.539  -4.362  15.673  1.00  0.00     0.123 A 
ATOM      9  C   UNL     1       9.881  -3.247  16.440  1.00  0.00     0.094 A 
ATOM     10  C   UNL     1      11.208  -2.811  16.502  1.00  0.00     0.146 A 
ATOM     11  O   UNL     1      11.506  -1.750  17.243  1.00  0.00    -0.452 OA
ENDROOT
BRANCH   1  12
ATOM     12  C   UNL     1      12.941  -0.084  18.233  1.00  0.00     0.025 A 
ATOM     13  C   UNL     1      12.701   1.199  17.717  1.00  0.00     0.016 A 
ATOM     14  C   UNL     1      12.866   2.329  18.522  1.00  0.00     0.051 A 
ATOM     15  C   UNL     1      13.255   2.194  19.858  1.00  0.00     0.157 A 
ATOM     16  C   UNL     1      13.312  -0.218  19.583  1.00  0.00     0.062 A 
ATOM     17  C   UNL     1      13.476   0.914  20.394  1.00  0.00     0.158 A 
BRANCH  15  18
ATOM     18  O   UNL     1      13.414   3.340  20.637  1.00  0.00    -0.504 OA
ATOM     19  H   UNL     1      12.716   3.632  21.311  1.00  0.00     0.293 HD
ENDBRANCH  15  18
BRANCH  17  20
ATOM     20  O   UNL     1      13.850   0.771  21.729  1.00  0.00    -0.504 OA
ATOM     21  H   UNL     1      13.381   0.117  22.345  1.00  0.00     0.293 HD
ENDBRANCH  17  20
ENDBRANCH   1  12
BRANCH   2  22
ATOM     22  O   UNL     1      15.088  -1.337  16.738  1.00  0.00    -0.502 OA
ATOM     23  H   UNL     1      15.903  -1.834  16.398  1.00  0.00     0.293 HD
ENDBRANCH   2  22
BRANCH   6  24
ATOM     24  O   UNL     1      12.831  -5.332  14.291  1.00  0.00    -0.507 OA
ATOM     25  H   UNL     1      12.897  -5.267  13.281  1.00  0.00     0.293 HD
ENDBRANCH   6  24
BRANCH   8  26
ATOM     26  O   UNL     1       8.211  -4.780  15.624  1.00  0.00    -0.508 OA
ATOM     27  H   UNL     1       7.966  -5.748  15.452  1.00  0.00     0.293 HD
ENDBRANCH   8  26
TORSDOF 6
ENDMDL
MODEL 6
REMARK VINA RESULT:    -6.858      2.633      5.952
REMARK INTER + INTRA:          -8.509
REMARK INTER:                  -8.345
REMARK INTRA:                  -0.164
REMARK UNBOUND:                -0.248
REMARK SMILES O=c1c(O)c(-c2ccc(O)c(O)c2)oc2cc(O)cc(O)c12
REMARK SMILES IDX 5 1 3 2 2 3 1 4 22 5 20 6 19 7 17 8 16 9 15 10 14 11 6 12
REMARK SMILES IDX 7 13 8 14 9 15 13 16 11 17 10 18 12 20 4 22 21 24 18 26
REMARK H PARENT 10 19 12 21 4 23 21 25 18 27
REMARK Flexibility Score: inf
ROOT
ATOM      1  C   UNL     1      14.384   1.247  21.216  1.00  0.00     0.180 A 
ATOM      2  C   UNL     1      13.582   1.921  20.274  1.00  0.00     0.208 A 
ATOM      3  C   UNL     1      12.966   1.181  19.253  1.00  0.00     0.238 A 
ATOM      4  O   UNL     1      12.255   1.776  18.398  1.00  0.00    -0.285 OA
ATOM      5  C   UNL     1      13.145  -0.217  19.201  1.00  0.00     0.111 A 
ATOM      6  C   UNL     1      12.557  -1.037  18.207  1.00  0.00     0.134 A 
ATOM      7  C   UNL     1      12.774  -2.422  18.230  1.00  0.00     0.093 A 
ATOM      8  C   UNL     1      13.568  -3.002  19.227  1.00  0.00     0.123 A 
ATOM      9  C   UNL     1      14.150  -2.198  20.207  1.00  0.00     0.094 A 
ATOM     10  C   UNL     1      13.946  -0.815  20.202  1.00  0.00     0.146 A 
ATOM     11  O   UNL     1      14.516  -0.074  21.144  1.00  0.00    -0.452 OA
ENDROOT
BRANCH   1  12
ATOM     12  C   UNL     1      15.080   1.961  22.310  1.00  0.00     0.025 A 
ATOM     13  C   UNL     1      16.483   2.026  22.309  1.00  0.00     0.016 A 
ATOM     14  C   UNL     1      17.160   2.711  23.321  1.00  0.00     0.051 A 
ATOM     15  C   UNL     1      16.449   3.354  24.338  1.00  0.00     0.157 A 
ATOM     16  C   UNL     1      14.366   2.627  23.323  1.00  0.00     0.062 A 
ATOM     17  C   UNL     1      15.045   3.316  24.338  1.00  0.00     0.158 A 
BRANCH  15  18
ATOM     18  O   UNL     1      17.153   4.029  25.336  1.00  0.00    -0.504 OA
ATOM     19  H   UNL     1      17.961   3.622  25.792  1.00  0.00     0.293 HD
ENDBRANCH  15  18
BRANCH  17  20
ATOM     20  O   UNL     1      14.329   3.968  25.341  1.00  0.00    -0.504 OA
ATOM     21  H   UNL     1      13.815   3.454  26.047  1.00  0.00     0.293 HD
ENDBRANCH  17  20
ENDBRANCH   1  12
BRANCH   2  22
ATOM     22  O   UNL     1      13.381   3.300  20.377  1.00  0.00    -0.502 OA
ATOM     23  H   UNL     1      12.722   3.706  21.030  1.00  0.00     0.293 HD
ENDBRANCH   2  22
BRANCH   6  24
ATOM     24  O   UNL     1      11.760  -0.486  17.203  1.00  0.00    -0.507 OA
ATOM     25  H   UNL     1      12.090   0.271  16.615  1.00  0.00     0.293 HD
ENDBRANCH   6  24
BRANCH   8  26
ATOM     26  O   UNL     1      13.783  -4.379  19.249  1.00  0.00    -0.508 OA
ATOM     27  H   UNL     1      14.617  -4.778  19.665  1.00  0.00     0.293 HD
ENDBRANCH   8  26
TORSDOF 6
ENDMDL
MODEL 7
REMARK VINA RESULT:    -6.633      1.444      3.307
REMARK INTER + INTRA:          -8.239
REMARK INTER:                  -7.919
REMARK INTRA:                  -0.320
REMARK UNBOUND:                -0.248
REMARK SMILES O=c1c(O)c(-c2ccc(O)c(O)c2)oc2cc(O)cc(O)c12
REMARK SMILES IDX 5 1 3 2 2 3 1 4 22 5 20 6 19 7 17 8 16 9 15 10 14 11 6 12
REMARK SMILES IDX 7 13 8 14 9 15 13 16 11 17 10 18 12 20 4 22 21 24 18 26
REMARK H PARENT 10 19 12 21 4 23 21 25 18 27
REMARK Flexibility Score: inf
ROOT
ATOM      1  C   UNL     1      14.259  -0.342  18.786  1.00  0.00     0.180 A 
ATOM      2  C   UNL     1      14.053  -1.734  18.755  1.00  0.00     0.208 A 
ATOM      3  C   UNL     1      14.209  -2.471  19.940  1.00  0.00     0.238 A 
ATOM      4  O   UNL     1      14.038  -3.720  19.922  1.00  0.00    -0.285 OA
ATOM      5  C   UNL     1      14.548  -1.803  21.135  1.00  0.00     0.111 A 
ATOM      6  C   UNL     1      14.720  -2.470  22.373  1.00  0.00     0.134 A 
ATOM      7  C   UNL     1      15.047  -1.733  23.520  1.00  0.00     0.093 A 
ATOM      8  C   UNL     1      15.205  -0.344  23.454  1.00  0.00     0.123 A 
ATOM      9  C   UNL     1      15.037   0.317  22.236  1.00  0.00     0.094 A 
ATOM     10  C   UNL     1      14.711  -0.399  21.081  1.00  0.00     0.146 A 
ATOM     11  O   UNL     1      14.562   0.255  19.935  1.00  0.00    -0.452 OA
ENDROOT
BRANCH   1  12
ATOM     12  C   UNL     1      14.131   0.500  17.575  1.00  0.00     0.025 A 
ATOM     13  C   UNL     1      15.227   0.634  16.708  1.00  0.00     0.016 A 
ATOM     14  C   UNL     1      15.122   1.406  15.549  1.00  0.00     0.051 A 
ATOM     15  C   UNL     1      13.919   2.043  15.229  1.00  0.00     0.157 A 
ATOM     16  C   UNL     1      12.915   1.124  17.241  1.00  0.00     0.062 A 
ATOM     17  C   UNL     1      12.808   1.899  16.077  1.00  0.00     0.158 A 
BRANCH  15  18
ATOM     18  O   UNL     1      13.845   2.809  14.066  1.00  0.00    -0.504 OA
ATOM     19  H   UNL     1      14.541   2.743  13.333  1.00  0.00     0.293 HD
ENDBRANCH  15  18
BRANCH  17  20
ATOM     20  O   UNL     1      11.601   2.518  15.757  1.00  0.00    -0.504 OA
ATOM     21  H   UNL     1      10.906   2.061  15.177  1.00  0.00     0.293 HD
ENDBRANCH  17  20
ENDBRANCH   1  12
BRANCH   2  22
ATOM     22  O   UNL     1      13.670  -2.365  17.568  1.00  0.00    -0.502 OA
ATOM     23  H   UNL     1      14.086  -2.137  16.673  1.00  0.00     0.293 HD
ENDBRANCH   2  22
BRANCH   6  24
ATOM     24  O   UNL     1      14.568  -3.854  22.469  1.00  0.00    -0.507 OA
ATOM     25  H   UNL     1      13.938  -4.275  23.142  1.00  0.00     0.293 HD
ENDBRANCH   6  24
BRANCH   8  26
ATOM     26  O   UNL     1      15.530   0.388  24.594  1.00  0.00    -0.508 OA
ATOM     27  H   UNL     1      14.891   1.071  24.985  1.00  0.00     0.293 HD
ENDBRANCH   8  26
TORSDOF 6
ENDMDL
MODEL 8
REMARK VINA RESULT:    -6.627      3.704      4.893
REMARK INTER + INTRA:          -8.232
REMARK INTER:                  -7.915
REMARK INTRA:                  -0.317
REMARK UNBOUND:                -0.248
REMARK SMILES O=c1c(O)c(-c2ccc(O)c(O)c2)oc2cc(O)cc(O)c12
REMARK SMILES IDX 5 1 3 2 2 3 1 4 22 5 20 6 19 7 17 8 16 9 15 10 14 11 6 12
REMARK SMILES IDX 7 13 8 14 9 15 13 16 11 17 10 18 12 20 4 22 21 24 18 26
REMARK H PARENT 10 19 12 21 4 23 21 25 18 27
REMARK Flexibility Score: inf
ROOT
ATOM      1  C   UNL     1      12.994  -0.988  18.194  1.00  0.00     0.180 A 
ATOM      2  C   UNL     1      12.596   0.323  17.869  1.00  0.00     0.208 A 
ATOM      3  C   UNL     1      12.848   1.356  18.785  1.00  0.00     0.238 A 
ATOM      4  O   UNL     1      12.485   2.532  18.510  1.00  0.00    -0.285 OA
ATOM      5  C   UNL     1      13.508   1.066  19.997  1.00  0.00     0.111 A 
ATOM      6  C   UNL     1      13.804   2.050  20.972  1.00  0.00     0.134 A 
ATOM      7  C   UNL     1      14.474   1.683  22.148  1.00  0.00     0.093 A 
ATOM      8  C   UNL     1      14.854   0.354  22.368  1.00  0.00     0.123 A 
ATOM      9  C   UNL     1      14.564  -0.618  21.410  1.00  0.00     0.094 A 
ATOM     10  C   UNL     1      13.896  -0.274  20.231  1.00  0.00     0.146 A 
ATOM     11  O   UNL     1      13.629  -1.220  19.339  1.00  0.00    -0.452 OA
ENDROOT
BRANCH   1  12
ATOM     12  C   UNL     1      12.747  -2.133  17.288  1.00  0.00     0.025 A 
ATOM     13  C   UNL     1      13.669  -2.419  16.269  1.00  0.00     0.016 A 
ATOM     14  C   UNL     1      13.467  -3.507  15.416  1.00  0.00     0.051 A 
ATOM     15  C   UNL     1      12.351  -4.333  15.577  1.00  0.00     0.157 A 
ATOM     16  C   UNL     1      11.636  -2.978  17.462  1.00  0.00     0.062 A 
ATOM     17  C   UNL     1      11.432  -4.071  16.607  1.00  0.00     0.158 A 
BRANCH  15  18
ATOM     18  O   UNL     1      12.174  -5.411  14.709  1.00  0.00    -0.504 OA
ATOM     19  H   UNL     1      12.385  -5.345  13.720  1.00  0.00     0.293 HD
ENDBRANCH  15  18
BRANCH  17  20
ATOM     20  O   UNL     1      10.325  -4.900  16.783  1.00  0.00    -0.504 OA
ATOM     21  H   UNL     1      10.416  -5.832  17.171  1.00  0.00     0.293 HD
ENDBRANCH  17  20
ENDBRANCH   1  12
BRANCH   2  22
ATOM     22  O   UNL     1      11.986   0.592  16.641  1.00  0.00    -0.502 OA
ATOM     23  H   UNL     1      11.010   0.390  16.463  1.00  0.00     0.293 HD
ENDBRANCH   2  22
BRANCH   6  24
ATOM     24  O   UNL     1      13.439   3.383  20.781  1.00  0.00    -0.507 OA
ATOM     25  H   UNL     1      13.329   4.023  21.559  1.00  0.00     0.293 HD
ENDBRANCH   6  24
BRANCH   8  26
ATOM     26  O   UNL     1      15.520  -0.010  23.536  1.00  0.00    -0.508 OA
ATOM     27  H   UNL     1      15.053  -0.005  24.436  1.00  0.00     0.293 HD
ENDBRANCH   8  26
TORSDOF 6
ENDMDL
MODEL 9
REMARK VINA RESULT:    -6.588      3.640      6.065
REMARK INTER + INTRA:          -8.184
REMARK INTER:                  -8.048
REMARK INTRA:                  -0.136
REMARK UNBOUND:                -0.248
REMARK SMILES O=c1c(O)c(-c2ccc(O)c(O)c2)oc2cc(O)cc(O)c12
REMARK SMILES IDX 5 1 3 2 2 3 1 4 22 5 20 6 19 7 17 8 16 9 15 10 14 11 6 12
REMARK SMILES IDX 7 13 8 14 9 15 13 16 11 17 10 18 12 20 4 22 21 24 18 26
REMARK H PARENT 10 19 12 21 4 23 21 25 18 27
REMARK Flexibility Score: inf
ROOT
ATOM      1  C   UNL     1      16.691  -0.984  23.744  1.00  0.00     0.180 A 
ATOM      2  C   UNL     1      17.934  -0.714  24.348  1.00  0.00     0.208 A 
ATOM      3  C   UNL     1      18.654  -1.772  24.925  1.00  0.00     0.238 A 
ATOM      4  O   UNL     1      19.763  -1.540  25.478  1.00  0.00    -0.285 OA
ATOM      5  C   UNL     1      18.131  -3.080  24.871  1.00  0.00     0.111 A 
ATOM      6  C   UNL     1      18.795  -4.203  25.423  1.00  0.00     0.134 A 
ATOM      7  C   UNL     1      18.214  -5.475  25.319  1.00  0.00     0.093 A 
ATOM      8  C   UNL     1      16.983  -5.646  24.673  1.00  0.00     0.123 A 
ATOM      9  C   UNL     1      16.326  -4.543  24.128  1.00  0.00     0.094 A 
ATOM     10  C   UNL     1      16.888  -3.266  24.222  1.00  0.00     0.146 A 
ATOM     11  O   UNL     1      16.238  -2.233  23.698  1.00  0.00    -0.452 OA
ENDROOT
BRANCH   1  12
ATOM     12  C   UNL     1      15.865   0.081  23.132  1.00  0.00     0.025 A 
ATOM     13  C   UNL     1      15.487  -0.027  21.784  1.00  0.00     0.016 A 
ATOM     14  C   UNL     1      14.691   0.956  21.192  1.00  0.00     0.051 A 
ATOM     15  C   UNL     1      14.247   2.052  21.938  1.00  0.00     0.157 A 
ATOM     16  C   UNL     1      15.400   1.173  23.887  1.00  0.00     0.062 A 
ATOM     17  C   UNL     1      14.599   2.160  23.294  1.00  0.00     0.158 A 
BRANCH  15  18
ATOM     18  O   UNL     1      13.455   3.018  21.319  1.00  0.00    -0.504 OA
ATOM     19  H   UNL     1      12.636   2.775  20.774  1.00  0.00     0.293 HD
ENDBRANCH  15  18
BRANCH  17  20
ATOM     20  O   UNL     1      14.148   3.242  24.048  1.00  0.00    -0.504 OA
ATOM     21  H   UNL     1      13.170   3.505  24.067  1.00  0.00     0.293 HD
ENDBRANCH  17  20
ENDBRANCH   1  12
BRANCH   2  22
ATOM     22  O   UNL     1      18.453   0.584  24.345  1.00  0.00    -0.502 OA
ATOM     23  H   UNL     1      19.214   0.864  23.738  1.00  0.00     0.293 HD
ENDBRANCH   2  22
BRANCH   6  24
ATOM     24  O   UNL     1      20.023  -4.064  26.071  1.00  0.00    -0.507 OA
ATOM     25  H   UNL     1      20.765  -3.489  25.688  1.00  0.00     0.293 HD
ENDBRANCH   6  24
BRANCH   8  26
ATOM     26  O   UNL     1      16.406  -6.910  24.569  1.00  0.00    -0.508 OA
ATOM     27  H   UNL     1      16.940  -7.753  24.748  1.00  0.00     0.293 HD
ENDBRANCH   8  26
TORSDOF 6
ENDMDL
