MODEL 1
REMARK VINA RESULT:    -3.834      0.000      0.000
REMARK INTER + INTRA:          -8.071
REMARK INTER:                  -6.972
REMARK INTRA:                  -1.100
REMARK UNBOUND:                -1.100
REMARK SMILES CCCCCCCCCCCCCC[C@H](C)C(=O)[O-]
REMARK SMILES IDX 9 1 10 2 11 3 12 4 13 5 14 6 15 7 16 8 17 9 18 10 19 11 8 12
REMARK SMILES IDX 7 13 6 14 5 15 4 16 3 17 2 18 1 19
REMARK H PARENT
REMARK Flexibility Score: inf
ROOT
ATOM      1  C   UNL     1      50.444  44.770  15.282  1.00  0.00     0.000 C 
ENDROOT
BRANCH   1   2
ATOM      2  C   UNL     1      50.863  46.067  14.567  1.00  0.00     0.000 C 
BRANCH   2   3
ATOM      3  C   UNL     1      51.191  47.204  15.547  1.00  0.00     0.000 C 
BRANCH   3   4
ATOM      4  C   UNL     1      50.476  48.518  15.185  1.00  0.00     0.000 C 
BRANCH   4   5
ATOM      5  C   UNL     1      49.877  48.494  13.769  1.00  0.00     0.001 C 
BRANCH   5   6
ATOM      6  C   UNL     1      50.456  49.601  12.864  1.00  0.00     0.009 C 
BRANCH   6   7
ATOM      7  C   UNL     1      51.514  49.108  11.852  1.00  0.00     0.032 C 
ATOM      8  C   UNL     1      52.934  49.082  12.438  1.00  0.00     0.014 C 
BRANCH   7   9
ATOM      9  C   UNL     1      51.453  49.880  10.560  1.00  0.00     0.044 C 
ATOM     10  O   UNL     1      52.272  49.654   9.630  1.00  0.00    -0.550 OA
ATOM     11  O   UNL     1      50.513  50.892  10.408  1.00  0.00    -0.550 OA
ENDBRANCH   7   9
ENDBRANCH   6   7
ENDBRANCH   5   6
ENDBRANCH   4   5
ENDBRANCH   3   4
ENDBRANCH   2   3
ENDBRANCH   1   2
BRANCH   1  12
ATOM     12  C   UNL     1      49.054  44.269  14.848  1.00  0.00     0.000 C 
BRANCH  12  13
ATOM     13  C   UNL     1      47.870  45.104  15.370  1.00  0.00    -0.000 C 
BRANCH  13  14
ATOM     14  C   UNL     1      46.527  44.357  15.284  1.00  0.00    -0.000 C 
BRANCH  14  15
ATOM     15  C   UNL     1      46.648  43.014  14.545  1.00  0.00    -0.000 C 
BRANCH  15  16
ATOM     16  C   UNL     1      45.765  41.918  15.167  1.00  0.00    -0.000 C 
BRANCH  16  17
ATOM     17  C   UNL     1      46.451  40.542  15.179  1.00  0.00    -0.000 C 
BRANCH  17  18
ATOM     18  C   UNL     1      45.449  39.380  15.116  1.00  0.00    -0.003 C 
ATOM     19  C   UNL     1      46.157  38.036  15.266  1.00  0.00     0.004 C 
ENDBRANCH  17  18
ENDBRANCH  16  17
ENDBRANCH  15  16
ENDBRANCH  14  15
ENDBRANCH  13  14
ENDBRANCH  12  13
ENDBRANCH   1  12
TORSDOF 14
ENDMDL
MODEL 2
REMARK VINA RESULT:    -3.809     11.520     14.001
REMARK INTER + INTRA:          -8.027
REMARK INTER:                  -6.176
REMARK INTRA:                  -1.851
REMARK UNBOUND:                -1.100
REMARK SMILES CCCCCCCCCCCCCC[C@H](C)C(=O)[O-]
REMARK SMILES IDX 9 1 10 2 11 3 12 4 13 5 14 6 15 7 16 8 17 9 18 10 19 11 8 12
REMARK SMILES IDX 7 13 6 14 5 15 4 16 3 17 2 18 1 19
REMARK H PARENT
REMARK Flexibility Score: inf
ROOT
ATOM      1  C   UNL     1      63.772  43.454  15.192  1.00  0.00     0.000 C 
ENDROOT
BRANCH   1   2
ATOM      2  C   UNL     1      64.243  44.780  15.814  1.00  0.00     0.000 C 
BRANCH   2   3
ATOM      3  C   UNL     1      63.202  45.391  16.765  1.00  0.00     0.000 C 
BRANCH   3   4
ATOM      4  C   UNL     1      62.017  44.444  17.029  1.00  0.00     0.000 C 
BRANCH   4   5
ATOM      5  C   UNL     1      60.761  45.190  17.509  1.00  0.00     0.001 C 
BRANCH   5   6
ATOM      6  C   UNL     1      59.475  44.675  16.831  1.00  0.00     0.009 C 
BRANCH   6   7
ATOM      7  C   UNL     1      58.317  45.699  16.803  1.00  0.00     0.032 C 
ATOM      8  C   UNL     1      57.857  46.118  18.208  1.00  0.00     0.014 C 
BRANCH   7   9
ATOM      9  C   UNL     1      57.168  45.218  15.956  1.00  0.00     0.044 C 
ATOM     10  O   UNL     1      57.240  44.130  15.323  1.00  0.00    -0.550 OA
ATOM     11  O   UNL     1      56.032  46.006  15.826  1.00  0.00    -0.550 OA
ENDBRANCH   7   9
ENDBRANCH   6   7
ENDBRANCH   5   6
ENDBRANCH   4   5
ENDBRANCH   3   4
ENDBRANCH   2   3
ENDBRANCH   1   2
BRANCH   1  12
ATOM     12  C   UNL     1      64.661  42.259  15.585  1.00  0.00     0.000 C 
BRANCH  12  13
ATOM     13  C   UNL     1      63.898  40.961  15.911  1.00  0.00    -0.000 C 
BRANCH  13  14
ATOM     14  C   UNL     1      64.069  40.517  17.374  1.00  0.00    -0.000 C 
BRANCH  14  15
ATOM     15  C   UNL     1      64.273  41.705  18.328  1.00  0.00    -0.000 C 
BRANCH  15  16
ATOM     16  C   UNL     1      63.099  41.883  19.306  1.00  0.00    -0.000 C 
BRANCH  16  17
ATOM     17  C   UNL     1      63.275  43.101  20.227  1.00  0.00    -0.000 C 
BRANCH  17  18
ATOM     18  C   UNL     1      61.944  43.603  20.808  1.00  0.00    -0.003 C 
ATOM     19  C   UNL     1      60.778  42.741  20.333  1.00  0.00     0.004 C 
ENDBRANCH  17  18
ENDBRANCH  16  17
ENDBRANCH  15  16
ENDBRANCH  14  15
ENDBRANCH  13  14
ENDBRANCH  12  13
ENDBRANCH   1  12
TORSDOF 14
ENDMDL
MODEL 3
REMARK VINA RESULT:    -3.753      8.761     11.740
REMARK INTER + INTRA:          -7.924
REMARK INTER:                  -5.979
REMARK INTRA:                  -1.945
REMARK UNBOUND:                -1.100
REMARK SMILES CCCCCCCCCCCCCC[C@H](C)C(=O)[O-]
REMARK SMILES IDX 9 1 10 2 11 3 12 4 13 5 14 6 15 7 16 8 17 9 18 10 19 11 8 12
REMARK SMILES IDX 7 13 6 14 5 15 4 16 3 17 2 18 1 19
REMARK H PARENT
REMARK Flexibility Score: inf
ROOT
ATOM      1  C   UNL     1      57.833  43.745  20.345  1.00  0.00     0.000 C 
ENDROOT
BRANCH   1   2
ATOM      2  C   UNL     1      56.799  43.654  19.208  1.00  0.00     0.000 C 
BRANCH   2   3
ATOM      3  C   UNL     1      56.986  42.403  18.336  1.00  0.00     0.000 C 
BRANCH   3   4
ATOM      4  C   UNL     1      57.093  42.739  16.838  1.00  0.00     0.000 C 
BRANCH   4   5
ATOM      5  C   UNL     1      56.635  44.172  16.521  1.00  0.00     0.001 C 
BRANCH   5   6
ATOM      6  C   UNL     1      57.456  44.815  15.384  1.00  0.00     0.009 C 
BRANCH   6   7
ATOM      7  C   UNL     1      57.479  46.360  15.411  1.00  0.00     0.032 C 
ATOM      8  C   UNL     1      56.842  46.945  16.681  1.00  0.00     0.014 C 
BRANCH   7   9
ATOM      9  C   UNL     1      56.881  46.948  14.160  1.00  0.00     0.044 C 
ATOM     10  O   UNL     1      57.482  47.849  13.515  1.00  0.00    -0.550 OA
ATOM     11  O   UNL     1      55.626  46.530  13.735  1.00  0.00    -0.550 OA
ENDBRANCH   7   9
ENDBRANCH   6   7
ENDBRANCH   5   6
ENDBRANCH   4   5
ENDBRANCH   3   4
ENDBRANCH   2   3
ENDBRANCH   1   2
BRANCH   1  12
ATOM     12  C   UNL     1      59.276  43.896  19.830  1.00  0.00     0.000 C 
BRANCH  12  13
ATOM     13  C   UNL     1      59.813  45.340  19.815  1.00  0.00    -0.000 C 
BRANCH  13  14
ATOM     14  C   UNL     1      59.967  45.907  18.392  1.00  0.00    -0.000 C 
BRANCH  14  15
ATOM     15  C   UNL     1      60.555  44.878  17.411  1.00  0.00    -0.000 C 
BRANCH  15  16
ATOM     16  C   UNL     1      62.046  45.124  17.123  1.00  0.00    -0.000 C 
BRANCH  16  17
ATOM     17  C   UNL     1      62.812  43.826  16.822  1.00  0.00    -0.000 C 
BRANCH  17  18
ATOM     18  C   UNL     1      63.745  43.956  15.608  1.00  0.00    -0.003 C 
ATOM     19  C   UNL     1      63.636  42.736  14.698  1.00  0.00     0.004 C 
ENDBRANCH  17  18
ENDBRANCH  16  17
ENDBRANCH  15  16
ENDBRANCH  14  15
ENDBRANCH  13  14
ENDBRANCH  12  13
ENDBRANCH   1  12
TORSDOF 14
ENDMDL
MODEL 4
REMARK VINA RESULT:    -3.731     11.873     14.863
REMARK INTER + INTRA:          -7.885
REMARK INTER:                  -6.177
REMARK INTRA:                  -1.708
REMARK UNBOUND:                -1.100
REMARK SMILES CCCCCCCCCCCCCC[C@H](C)C(=O)[O-]
REMARK SMILES IDX 9 1 10 2 11 3 12 4 13 5 14 6 15 7 16 8 17 9 18 10 19 11 8 12
REMARK SMILES IDX 7 13 6 14 5 15 4 16 3 17 2 18 1 19
REMARK H PARENT
REMARK Flexibility Score: inf
ROOT
ATOM      1  C   UNL     1      63.337  40.824  19.161  1.00  0.00     0.000 C 
ENDROOT
BRANCH   1   2
ATOM      2  C   UNL     1      63.402  42.352  19.326  1.00  0.00     0.000 C 
BRANCH   2   3
ATOM      3  C   UNL     1      62.048  43.033  19.072  1.00  0.00     0.000 C 
BRANCH   3   4
ATOM      4  C   UNL     1      62.201  44.450  18.492  1.00  0.00     0.000 C 
BRANCH   4   5
ATOM      5  C   UNL     1      60.996  44.870  17.634  1.00  0.00     0.001 C 
BRANCH   5   6
ATOM      6  C   UNL     1      59.855  45.478  18.476  1.00  0.00     0.009 C 
BRANCH   6   7
ATOM      7  C   UNL     1      58.447  44.955  18.112  1.00  0.00     0.032 C 
ATOM      8  C   UNL     1      58.164  43.556  18.679  1.00  0.00     0.014 C 
BRANCH   7   9
ATOM      9  C   UNL     1      58.195  45.022  16.628  1.00  0.00     0.044 C 
ATOM     10  O   UNL     1      58.060  46.130  16.043  1.00  0.00    -0.550 OA
ATOM     11  O   UNL     1      58.059  43.847  15.899  1.00  0.00    -0.550 OA
ENDBRANCH   7   9
ENDBRANCH   6   7
ENDBRANCH   5   6
ENDBRANCH   4   5
ENDBRANCH   3   4
ENDBRANCH   2   3
ENDBRANCH   1   2
BRANCH   1  12
ATOM     12  C   UNL     1      64.292  40.297  18.074  1.00  0.00     0.000 C 
BRANCH  12  13
ATOM     13  C   UNL     1      63.821  40.531  16.626  1.00  0.00    -0.000 C 
BRANCH  13  14
ATOM     14  C   UNL     1      64.700  41.539  15.866  1.00  0.00    -0.000 C 
BRANCH  14  15
ATOM     15  C   UNL     1      63.903  42.349  14.830  1.00  0.00    -0.000 C 
BRANCH  15  16
ATOM     16  C   UNL     1      63.529  43.752  15.340  1.00  0.00    -0.000 C 
BRANCH  16  17
ATOM     17  C   UNL     1      64.663  44.772  15.149  1.00  0.00    -0.000 C 
BRANCH  17  18
ATOM     18  C   UNL     1      64.949  45.586  16.420  1.00  0.00    -0.003 C 
ATOM     19  C   UNL     1      64.376  46.997  16.309  1.00  0.00     0.004 C 
ENDBRANCH  17  18
ENDBRANCH  16  17
ENDBRANCH  15  16
ENDBRANCH  14  15
ENDBRANCH  13  14
ENDBRANCH  12  13
ENDBRANCH   1  12
TORSDOF 14
ENDMDL
MODEL 5
REMARK VINA RESULT:    -3.688     11.213     13.955
REMARK INTER + INTRA:          -7.806
REMARK INTER:                  -6.315
REMARK INTRA:                  -1.491
REMARK UNBOUND:                -1.100
REMARK SMILES CCCCCCCCCCCCCC[C@H](C)C(=O)[O-]
REMARK SMILES IDX 9 1 10 2 11 3 12 4 13 5 14 6 15 7 16 8 17 9 18 10 19 11 8 12
REMARK SMILES IDX 7 13 6 14 5 15 4 16 3 17 2 18 1 19
REMARK H PARENT
REMARK Flexibility Score: inf
ROOT
ATOM      1  C   UNL     1      62.535  42.038  19.821  1.00  0.00     0.000 C 
ENDROOT
BRANCH   1   2
ATOM      2  C   UNL     1      61.875  43.420  19.666  1.00  0.00     0.000 C 
BRANCH   2   3
ATOM      3  C   UNL     1      60.543  43.528  20.424  1.00  0.00     0.000 C 
BRANCH   3   4
ATOM      4  C   UNL     1      59.338  43.682  19.480  1.00  0.00     0.000 C 
BRANCH   4   5
ATOM      5  C   UNL     1      59.386  44.987  18.668  1.00  0.00     0.001 C 
BRANCH   5   6
ATOM      6  C   UNL     1      59.230  44.745  17.152  1.00  0.00     0.009 C 
BRANCH   6   7
ATOM      7  C   UNL     1      57.770  44.542  16.688  1.00  0.00     0.032 C 
ATOM      8  C   UNL     1      57.638  43.493  15.574  1.00  0.00     0.014 C 
BRANCH   7   9
ATOM      9  C   UNL     1      57.119  45.848  16.311  1.00  0.00     0.044 C 
ATOM     10  O   UNL     1      57.814  46.853  16.003  1.00  0.00    -0.550 OA
ATOM     11  O   UNL     1      55.735  45.963  16.350  1.00  0.00    -0.550 OA
ENDBRANCH   7   9
ENDBRANCH   6   7
ENDBRANCH   5   6
ENDBRANCH   4   5
ENDBRANCH   3   4
ENDBRANCH   2   3
ENDBRANCH   1   2
BRANCH   1  12
ATOM     12  C   UNL     1      63.654  41.791  18.793  1.00  0.00     0.000 C 
BRANCH  12  13
ATOM     13  C   UNL     1      63.640  40.395  18.141  1.00  0.00    -0.000 C 
BRANCH  13  14
ATOM     14  C   UNL     1      63.955  40.434  16.635  1.00  0.00    -0.000 C 
BRANCH  14  15
ATOM     15  C   UNL     1      64.530  41.790  16.191  1.00  0.00    -0.000 C 
BRANCH  15  16
ATOM     16  C   UNL     1      63.906  42.292  14.877  1.00  0.00    -0.000 C 
BRANCH  16  17
ATOM     17  C   UNL     1      63.164  43.627  15.047  1.00  0.00    -0.000 C 
BRANCH  17  18
ATOM     18  C   UNL     1      63.940  44.630  15.915  1.00  0.00    -0.003 C 
ATOM     19  C   UNL     1      63.006  45.360  16.877  1.00  0.00     0.004 C 
ENDBRANCH  17  18
ENDBRANCH  16  17
ENDBRANCH  15  16
ENDBRANCH  14  15
ENDBRANCH  13  14
ENDBRANCH  12  13
ENDBRANCH   1  12
TORSDOF 14
ENDMDL
MODEL 6
REMARK VINA RESULT:    -3.678      2.100      3.598
REMARK INTER + INTRA:          -7.788
REMARK INTER:                  -6.237
REMARK INTRA:                  -1.551
REMARK UNBOUND:                -1.100
REMARK SMILES CCCCCCCCCCCCCC[C@H](C)C(=O)[O-]
REMARK SMILES IDX 9 1 10 2 11 3 12 4 13 5 14 6 15 7 16 8 17 9 18 10 19 11 8 12
REMARK SMILES IDX 7 13 6 14 5 15 4 16 3 17 2 18 1 19
REMARK H PARENT
REMARK Flexibility Score: inf
ROOT
ATOM      1  C   UNL     1      50.655  48.352  15.294  1.00  0.00     0.000 C 
ENDROOT
BRANCH   1   2
ATOM      2  C   UNL     1      50.567  49.715  14.585  1.00  0.00     0.000 C 
BRANCH   2   3
ATOM      3  C   UNL     1      49.767  49.650  13.275  1.00  0.00     0.000 C 
BRANCH   3   4
ATOM      4  C   UNL     1      50.603  50.069  12.052  1.00  0.00     0.000 C 
BRANCH   4   5
ATOM      5  C   UNL     1      51.749  49.087  11.756  1.00  0.00     0.001 C 
BRANCH   5   6
ATOM      6  C   UNL     1      53.137  49.749  11.871  1.00  0.00     0.009 C 
BRANCH   6   7
ATOM      7  C   UNL     1      54.106  49.033  12.839  1.00  0.00     0.032 C 
ATOM      8  C   UNL     1      53.580  47.669  13.309  1.00  0.00     0.014 C 
BRANCH   7   9
ATOM      9  C   UNL     1      54.491  49.917  13.996  1.00  0.00     0.044 C 
ATOM     10  O   UNL     1      53.798  50.924  14.301  1.00  0.00    -0.550 OA
ATOM     11  O   UNL     1      55.653  49.649  14.709  1.00  0.00    -0.550 OA
ENDBRANCH   7   9
ENDBRANCH   6   7
ENDBRANCH   5   6
ENDBRANCH   4   5
ENDBRANCH   3   4
ENDBRANCH   2   3
ENDBRANCH   1   2
BRANCH   1  12
ATOM     12  C   UNL     1      49.790  47.270  14.621  1.00  0.00     0.000 C 
BRANCH  12  13
ATOM     13  C   UNL     1      50.500  45.923  14.387  1.00  0.00    -0.000 C 
BRANCH  13  14
ATOM     14  C   UNL     1      49.809  44.749  15.103  1.00  0.00    -0.000 C 
BRANCH  14  15
ATOM     15  C   UNL     1      48.306  44.994  15.315  1.00  0.00    -0.000 C 
BRANCH  15  16
ATOM     16  C   UNL     1      47.535  43.696  15.612  1.00  0.00    -0.000 C 
BRANCH  16  17
ATOM     17  C   UNL     1      46.035  43.813  15.295  1.00  0.00    -0.000 C 
BRANCH  17  18
ATOM     18  C   UNL     1      45.341  42.446  15.200  1.00  0.00    -0.003 C 
ATOM     19  C   UNL     1      46.356  41.328  14.982  1.00  0.00     0.004 C 
ENDBRANCH  17  18
ENDBRANCH  16  17
ENDBRANCH  15  16
ENDBRANCH  14  15
ENDBRANCH  13  14
ENDBRANCH  12  13
ENDBRANCH   1  12
TORSDOF 14
ENDMDL
MODEL 7
REMARK VINA RESULT:    -3.651      2.864      4.277
REMARK INTER + INTRA:          -7.738
REMARK INTER:                  -5.174
REMARK INTRA:                  -2.564
REMARK UNBOUND:                -1.100
REMARK SMILES CCCCCCCCCCCCCC[C@H](C)C(=O)[O-]
REMARK SMILES IDX 9 1 10 2 11 3 12 4 13 5 14 6 15 7 16 8 17 9 18 10 19 11 8 12
REMARK SMILES IDX 7 13 6 14 5 15 4 16 3 17 2 18 1 19
REMARK H PARENT
REMARK Flexibility Score: inf
ROOT
ATOM      1  C   UNL     1      47.053  44.207  18.666  1.00  0.00     0.000 C 
ENDROOT
BRANCH   1   2
ATOM      2  C   UNL     1      48.092  43.133  18.296  1.00  0.00     0.000 C 
BRANCH   2   3
ATOM      3  C   UNL     1      49.407  43.735  17.778  1.00  0.00     0.000 C 
BRANCH   3   4
ATOM      4  C   UNL     1      49.891  43.064  16.480  1.00  0.00     0.000 C 
BRANCH   4   5
ATOM      5  C   UNL     1      50.857  43.953  15.680  1.00  0.00     0.001 C 
BRANCH   5   6
ATOM      6  C   UNL     1      50.119  44.932  14.744  1.00  0.00     0.009 C 
BRANCH   6   7
ATOM      7  C   UNL     1      50.797  46.314  14.608  1.00  0.00     0.032 C 
ATOM      8  C   UNL     1      52.189  46.364  15.255  1.00  0.00     0.014 C 
BRANCH   7   9
ATOM      9  C   UNL     1      49.906  47.423  15.104  1.00  0.00     0.044 C 
ATOM     10  O   UNL     1      49.068  47.973  14.340  1.00  0.00    -0.550 OA
ATOM     11  O   UNL     1      50.041  47.883  16.408  1.00  0.00    -0.550 OA
ENDBRANCH   7   9
ENDBRANCH   6   7
ENDBRANCH   5   6
ENDBRANCH   4   5
ENDBRANCH   3   4
ENDBRANCH   2   3
ENDBRANCH   1   2
BRANCH   1  12
ATOM     12  C   UNL     1      47.413  45.600  18.118  1.00  0.00     0.000 C 
BRANCH  12  13
ATOM     13  C   UNL     1      46.791  45.942  16.751  1.00  0.00    -0.000 C 
BRANCH  13  14
ATOM     14  C   UNL     1      45.352  45.418  16.600  1.00  0.00    -0.000 C 
BRANCH  14  15
ATOM     15  C   UNL     1      45.245  44.286  15.564  1.00  0.00    -0.000 C 
BRANCH  15  16
ATOM     16  C   UNL     1      46.568  44.048  14.814  1.00  0.00    -0.000 C 
BRANCH  16  17
ATOM     17  C   UNL     1      46.812  42.563  14.503  1.00  0.00    -0.000 C 
BRANCH  17  18
ATOM     18  C   UNL     1      45.927  41.628  15.341  1.00  0.00    -0.003 C 
ATOM     19  C   UNL     1      46.753  40.510  15.972  1.00  0.00     0.004 C 
ENDBRANCH  17  18
ENDBRANCH  16  17
ENDBRANCH  15  16
ENDBRANCH  14  15
ENDBRANCH  13  14
ENDBRANCH  12  13
ENDBRANCH   1  12
TORSDOF 14
ENDMDL
MODEL 8
REMARK VINA RESULT:    -3.640      5.607      7.846
REMARK INTER + INTRA:          -7.720
REMARK INTER:                  -5.571
REMARK INTRA:                  -2.149
REMARK UNBOUND:                -1.100
REMARK SMILES CCCCCCCCCCCCCC[C@H](C)C(=O)[O-]
REMARK SMILES IDX 9 1 10 2 11 3 12 4 13 5 14 6 15 7 16 8 17 9 18 10 19 11 8 12
REMARK SMILES IDX 7 13 6 14 5 15 4 16 3 17 2 18 1 19
REMARK H PARENT
REMARK Flexibility Score: inf
ROOT
ATOM      1  C   UNL     1      53.472  49.321  12.209  1.00  0.00     0.000 C 
ENDROOT
BRANCH   1   2
ATOM      2  C   UNL     1      54.076  50.597  12.822  1.00  0.00     0.000 C 
BRANCH   2   3
ATOM      3  C   UNL     1      54.644  50.366  14.231  1.00  0.00     0.000 C 
BRANCH   3   4
ATOM      4  C   UNL     1      56.107  50.825  14.359  1.00  0.00     0.000 C 
BRANCH   4   5
ATOM      5  C   UNL     1      57.106  49.671  14.173  1.00  0.00     0.001 C 
BRANCH   5   6
ATOM      6  C   UNL     1      56.823  48.487  15.121  1.00  0.00     0.009 C 
BRANCH   6   7
ATOM      7  C   UNL     1      56.845  47.103  14.435  1.00  0.00     0.032 C 
ATOM      8  C   UNL     1      55.504  46.739  13.782  1.00  0.00     0.014 C 
BRANCH   7   9
ATOM      9  C   UNL     1      57.327  46.025  15.371  1.00  0.00     0.044 C 
ATOM     10  O   UNL     1      58.181  46.275  16.262  1.00  0.00    -0.550 OA
ATOM     11  O   UNL     1      56.862  44.724  15.219  1.00  0.00    -0.550 OA
ENDBRANCH   7   9
ENDBRANCH   6   7
ENDBRANCH   5   6
ENDBRANCH   4   5
ENDBRANCH   3   4
ENDBRANCH   2   3
ENDBRANCH   1   2
BRANCH   1  12
ATOM     12  C   UNL     1      52.430  49.617  11.115  1.00  0.00     0.000 C 
BRANCH  12  13
ATOM     13  C   UNL     1      51.604  50.899  11.335  1.00  0.00    -0.000 C 
BRANCH  13  14
ATOM     14  C   UNL     1      50.163  50.612  11.793  1.00  0.00    -0.000 C 
BRANCH  14  15
ATOM     15  C   UNL     1      50.051  50.468  13.320  1.00  0.00    -0.000 C 
BRANCH  15  16
ATOM     16  C   UNL     1      49.974  48.998  13.768  1.00  0.00    -0.000 C 
BRANCH  16  17
ATOM     17  C   UNL     1      50.821  48.716  15.020  1.00  0.00    -0.000 C 
BRANCH  17  18
ATOM     18  C   UNL     1      51.812  47.559  14.818  1.00  0.00    -0.003 C 
ATOM     19  C   UNL     1      51.336  46.615  13.716  1.00  0.00     0.004 C 
ENDBRANCH  17  18
ENDBRANCH  16  17
ENDBRANCH  15  16
ENDBRANCH  14  15
ENDBRANCH  13  14
ENDBRANCH  12  13
ENDBRANCH   1  12
TORSDOF 14
ENDMDL
MODEL 9
REMARK VINA RESULT:    -3.622      9.866     12.575
REMARK INTER + INTRA:          -7.686
REMARK INTER:                  -6.507
REMARK INTRA:                  -1.179
REMARK UNBOUND:                -1.100
REMARK SMILES CCCCCCCCCCCCCC[C@H](C)C(=O)[O-]
REMARK SMILES IDX 9 1 10 2 11 3 12 4 13 5 14 6 15 7 16 8 17 9 18 10 19 11 8 12
REMARK SMILES IDX 7 13 6 14 5 15 4 16 3 17 2 18 1 19
REMARK H PARENT
REMARK Flexibility Score: inf
ROOT
ATOM      1  C   UNL     1      60.759  44.394  18.584  1.00  0.00     0.000 C 
ENDROOT
BRANCH   1   2
ATOM      2  C   UNL     1      59.762  45.229  17.760  1.00  0.00     0.000 C 
BRANCH   2   3
ATOM      3  C   UNL     1      58.536  44.417  17.315  1.00  0.00     0.000 C 
BRANCH   3   4
ATOM      4  C   UNL     1      57.210  45.084  17.720  1.00  0.00     0.000 C 
BRANCH   4   5
ATOM      5  C   UNL     1      56.374  45.522  16.506  1.00  0.00     0.001 C 
BRANCH   5   6
ATOM      6  C   UNL     1      57.234  45.733  15.243  1.00  0.00     0.009 C 
BRANCH   6   7
ATOM      7  C   UNL     1      57.342  47.205  14.785  1.00  0.00     0.032 C 
ATOM      8  C   UNL     1      57.481  48.187  15.958  1.00  0.00     0.014 C 
BRANCH   7   9
ATOM      9  C   UNL     1      56.212  47.585  13.863  1.00  0.00     0.044 C 
ATOM     10  O   UNL     1      55.448  46.708  13.377  1.00  0.00    -0.550 OA
ATOM     11  O   UNL     1      56.037  48.915  13.502  1.00  0.00    -0.550 OA
ENDBRANCH   7   9
ENDBRANCH   6   7
ENDBRANCH   5   6
ENDBRANCH   4   5
ENDBRANCH   3   4
ENDBRANCH   2   3
ENDBRANCH   1   2
BRANCH   1  12
ATOM     12  C   UNL     1      62.221  44.611  18.152  1.00  0.00     0.000 C 
BRANCH  12  13
ATOM     13  C   UNL     1      62.433  44.782  16.636  1.00  0.00    -0.000 C 
BRANCH  13  14
ATOM     14  C   UNL     1      63.884  45.141  16.271  1.00  0.00    -0.000 C 
BRANCH  14  15
ATOM     15  C   UNL     1      64.485  44.177  15.234  1.00  0.00    -0.000 C 
BRANCH  15  16
ATOM     16  C   UNL     1      63.633  42.909  15.048  1.00  0.00    -0.000 C 
BRANCH  16  17
ATOM     17  C   UNL     1      64.304  41.655  15.632  1.00  0.00    -0.000 C 
BRANCH  17  18
ATOM     18  C   UNL     1      64.290  41.636  17.168  1.00  0.00    -0.003 C 
ATOM     19  C   UNL     1      63.796  40.292  17.696  1.00  0.00     0.004 C 
ENDBRANCH  17  18
ENDBRANCH  16  17
ENDBRANCH  15  16
ENDBRANCH  14  15
ENDBRANCH  13  14
ENDBRANCH  12  13
ENDBRANCH   1  12
TORSDOF 14
ENDMDL
