MODEL 1
REMARK VINA RESULT:     6.181      0.000      0.000
REMARK INTER + INTRA:          13.069
REMARK INTER:                  11.240
REMARK INTRA:                   1.828
REMARK UNBOUND:                 1.828
REMARK SMILES CCCCCCCCCCCCCC[C@@H](C)C(=O)[O-]
REMARK SMILES IDX 9 1 10 2 11 3 12 4 13 5 14 6 15 7 16 8 17 9 18 10 19 11 8 12
REMARK SMILES IDX 7 13 6 14 5 15 4 16 3 17 2 18 1 19
REMARK H PARENT
REMARK Flexibility Score: inf
ROOT
ATOM      1  C   UNL     1     -27.873   8.264  -1.676  1.00  0.00     0.000 C 
ENDROOT
BRANCH   1   2
ATOM      2  C   UNL     1     -27.674   7.988  -0.175  1.00  0.00     0.000 C 
BRANCH   2   3
ATOM      3  C   UNL     1     -28.807   7.148   0.451  1.00  0.00     0.000 C 
BRANCH   3   4
ATOM      4  C   UNL     1     -29.059   7.518   1.924  1.00  0.00     0.000 C 
BRANCH   4   5
ATOM      5  C   UNL     1     -30.469   7.131   2.398  1.00  0.00     0.001 C 
BRANCH   5   6
ATOM      6  C   UNL     1     -31.344   6.574   1.261  1.00  0.00     0.009 C 
BRANCH   6   7
ATOM      7  C   UNL     1     -31.294   7.449  -0.010  1.00  0.00     0.032 C 
ATOM      8  C   UNL     1     -30.972   6.630  -1.268  1.00  0.00     0.014 C 
BRANCH   7   9
ATOM      9  C   UNL     1     -32.604   8.167  -0.191  1.00  0.00     0.044 C 
ATOM     10  O   UNL     1     -33.194   8.150  -1.305  1.00  0.00    -0.550 OA
ATOM     11  O   UNL     1     -33.170   8.854   0.875  1.00  0.00    -0.550 OA
ENDBRANCH   7   9
ENDBRANCH   6   7
ENDBRANCH   5   6
ENDBRANCH   4   5
ENDBRANCH   3   4
ENDBRANCH   2   3
ENDBRANCH   1   2
BRANCH   1  12
ATOM     12  C   UNL     1     -26.910   7.457  -2.562  1.00  0.00     0.000 C 
BRANCH  12  13
ATOM     13  C   UNL     1     -26.930   7.914  -4.030  1.00  0.00    -0.000 C 
BRANCH  13  14
ATOM     14  C   UNL     1     -28.178   8.748  -4.369  1.00  0.00    -0.000 C 
BRANCH  14  15
ATOM     15  C   UNL     1     -28.605   8.608  -5.840  1.00  0.00    -0.000 C 
BRANCH  15  16
ATOM     16  C   UNL     1     -27.460   8.709  -6.867  1.00  0.00    -0.000 C 
BRANCH  16  17
ATOM     17  C   UNL     1     -26.315   7.704  -6.625  1.00  0.00    -0.000 C 
BRANCH  17  18
ATOM     18  C   UNL     1     -24.934   8.313  -6.916  1.00  0.00    -0.003 C 
ATOM     19  C   UNL     1     -24.875   9.776  -6.487  1.00  0.00     0.004 C 
ENDBRANCH  17  18
ENDBRANCH  16  17
ENDBRANCH  15  16
ENDBRANCH  14  15
ENDBRANCH  13  14
ENDBRANCH  12  13
ENDBRANCH   1  12
TORSDOF 14
ENDMDL
MODEL 2
REMARK VINA RESULT:     6.488      3.767      6.608
REMARK INTER + INTRA:          13.626
REMARK INTER:                  14.361
REMARK INTRA:                  -0.735
REMARK UNBOUND:                 1.828
REMARK SMILES CCCCCCCCCCCCCC[C@@H](C)C(=O)[O-]
REMARK SMILES IDX 9 1 10 2 11 3 12 4 13 5 14 6 15 7 16 8 17 9 18 10 19 11 8 12
REMARK SMILES IDX 7 13 6 14 5 15 4 16 3 17 2 18 1 19
REMARK H PARENT
REMARK Flexibility Score: inf
ROOT
ATOM      1  C   UNL     1     -30.332   7.294   0.855  1.00  0.00     0.000 C 
ENDROOT
BRANCH   1   2
ATOM      2  C   UNL     1     -29.424   7.291  -0.386  1.00  0.00     0.000 C 
BRANCH   2   3
ATOM      3  C   UNL     1     -27.934   7.530  -0.059  1.00  0.00     0.000 C 
BRANCH   3   4
ATOM      4  C   UNL     1     -27.196   8.250  -1.202  1.00  0.00     0.000 C 
BRANCH   4   5
ATOM      5  C   UNL     1     -27.840   7.997  -2.574  1.00  0.00     0.001 C 
BRANCH   5   6
ATOM      6  C   UNL     1     -26.802   7.898  -3.706  1.00  0.00     0.009 C 
BRANCH   6   7
ATOM      7  C   UNL     1     -27.446   7.958  -5.109  1.00  0.00     0.032 C 
ATOM      8  C   UNL     1     -28.722   8.810  -5.127  1.00  0.00     0.014 C 
BRANCH   7   9
ATOM      9  C   UNL     1     -26.457   8.500  -6.104  1.00  0.00     0.044 C 
ATOM     10  O   UNL     1     -25.541   7.765  -6.562  1.00  0.00    -0.550 OA
ATOM     11  O   UNL     1     -26.551   9.821  -6.526  1.00  0.00    -0.550 OA
ENDBRANCH   7   9
ENDBRANCH   6   7
ENDBRANCH   5   6
ENDBRANCH   4   5
ENDBRANCH   3   4
ENDBRANCH   2   3
ENDBRANCH   1   2
BRANCH   1  12
ATOM     12  C   UNL     1     -31.802   6.989   0.519  1.00  0.00     0.000 C 
BRANCH  12  13
ATOM     13  C   UNL     1     -32.445   8.070  -0.364  1.00  0.00    -0.000 C 
BRANCH  13  14
ATOM     14  C   UNL     1     -32.532   7.647  -1.842  1.00  0.00    -0.000 C 
BRANCH  14  15
ATOM     15  C   UNL     1     -33.643   8.384  -2.607  1.00  0.00    -0.000 C 
BRANCH  15  16
ATOM     16  C   UNL     1     -33.396   8.550  -4.119  1.00  0.00    -0.000 C 
BRANCH  16  17
ATOM     17  C   UNL     1     -33.179   7.218  -4.867  1.00  0.00    -0.000 C 
BRANCH  17  18
ATOM     18  C   UNL     1     -33.102   7.410  -6.390  1.00  0.00    -0.003 C 
ATOM     19  C   UNL     1     -33.831   6.290  -7.125  1.00  0.00     0.004 C 
ENDBRANCH  17  18
ENDBRANCH  16  17
ENDBRANCH  15  16
ENDBRANCH  14  15
ENDBRANCH  13  14
ENDBRANCH  12  13
ENDBRANCH   1  12
TORSDOF 14
ENDMDL
MODEL 3
REMARK VINA RESULT:     6.519      2.464      4.048
REMARK INTER + INTRA:          13.683
REMARK INTER:                  13.760
REMARK INTRA:                  -0.077
REMARK UNBOUND:                 1.828
REMARK SMILES CCCCCCCCCCCCCC[C@@H](C)C(=O)[O-]
REMARK SMILES IDX 9 1 10 2 11 3 12 4 13 5 14 6 15 7 16 8 17 9 18 10 19 11 8 12
REMARK SMILES IDX 7 13 6 14 5 15 4 16 3 17 2 18 1 19
REMARK H PARENT
REMARK Flexibility Score: inf
ROOT
ATOM      1  C   UNL     1     -26.736   7.889  -3.302  1.00  0.00     0.000 C 
ENDROOT
BRANCH   1   2
ATOM      2  C   UNL     1     -27.743   8.350  -2.235  1.00  0.00     0.000 C 
BRANCH   2   3
ATOM      3  C   UNL     1     -27.341   7.956  -0.798  1.00  0.00     0.000 C 
BRANCH   3   4
ATOM      4  C   UNL     1     -28.546   7.481   0.034  1.00  0.00     0.000 C 
BRANCH   4   5
ATOM      5  C   UNL     1     -29.815   7.301  -0.814  1.00  0.00     0.001 C 
BRANCH   5   6
ATOM      6  C   UNL     1     -30.804   6.298  -0.194  1.00  0.00     0.009 C 
BRANCH   6   7
ATOM      7  C   UNL     1     -31.473   6.838   1.089  1.00  0.00     0.032 C 
ATOM      8  C   UNL     1     -30.445   7.305   2.129  1.00  0.00     0.014 C 
BRANCH   7   9
ATOM      9  C   UNL     1     -32.400   7.972   0.745  1.00  0.00     0.044 C 
ATOM     10  O   UNL     1     -32.847   8.729   1.649  1.00  0.00    -0.550 OA
ATOM     11  O   UNL     1     -32.769   8.190  -0.576  1.00  0.00    -0.550 OA
ENDBRANCH   7   9
ENDBRANCH   6   7
ENDBRANCH   5   6
ENDBRANCH   4   5
ENDBRANCH   3   4
ENDBRANCH   2   3
ENDBRANCH   1   2
BRANCH   1  12
ATOM     12  C   UNL     1     -27.225   8.153  -4.736  1.00  0.00     0.000 C 
BRANCH  12  13
ATOM     13  C   UNL     1     -28.738   8.412  -4.810  1.00  0.00    -0.000 C 
BRANCH  13  14
ATOM     14  C   UNL     1     -29.564   7.137  -4.563  1.00  0.00    -0.000 C 
BRANCH  14  15
ATOM     15  C   UNL     1     -31.046   7.435  -4.275  1.00  0.00    -0.000 C 
BRANCH  15  16
ATOM     16  C   UNL     1     -31.788   8.198  -5.389  1.00  0.00    -0.000 C 
BRANCH  16  17
ATOM     17  C   UNL     1     -33.178   7.618  -5.724  1.00  0.00    -0.000 C 
BRANCH  17  18
ATOM     18  C   UNL     1     -33.221   6.977  -7.121  1.00  0.00    -0.003 C 
ATOM     19  C   UNL     1     -33.389   5.464  -7.028  1.00  0.00     0.004 C 
ENDBRANCH  17  18
ENDBRANCH  16  17
ENDBRANCH  15  16
ENDBRANCH  14  15
ENDBRANCH  13  14
ENDBRANCH  12  13
ENDBRANCH   1  12
TORSDOF 14
ENDMDL
MODEL 4
REMARK VINA RESULT:     6.753      3.406      7.134
REMARK INTER + INTRA:          14.109
REMARK INTER:                  12.595
REMARK INTRA:                   1.514
REMARK UNBOUND:                 1.828
REMARK SMILES CCCCCCCCCCCCCC[C@@H](C)C(=O)[O-]
REMARK SMILES IDX 9 1 10 2 11 3 12 4 13 5 14 6 15 7 16 8 17 9 18 10 19 11 8 12
REMARK SMILES IDX 7 13 6 14 5 15 4 16 3 17 2 18 1 19
REMARK H PARENT
REMARK Flexibility Score: inf
ROOT
ATOM      1  C   UNL     1     -28.189   7.234   0.373  1.00  0.00     0.000 C 
ENDROOT
BRANCH   1   2
ATOM      2  C   UNL     1     -27.591   8.348  -0.503  1.00  0.00     0.000 C 
BRANCH   2   3
ATOM      3  C   UNL     1     -27.998   8.249  -1.988  1.00  0.00     0.000 C 
BRANCH   3   4
ATOM      4  C   UNL     1     -26.805   7.904  -2.897  1.00  0.00     0.000 C 
BRANCH   4   5
ATOM      5  C   UNL     1     -27.228   7.617  -4.345  1.00  0.00     0.001 C 
BRANCH   5   6
ATOM      6  C   UNL     1     -27.706   8.879  -5.085  1.00  0.00     0.009 C 
BRANCH   6   7
ATOM      7  C   UNL     1     -27.277   8.897  -6.568  1.00  0.00     0.032 C 
ATOM      8  C   UNL     1     -27.165  10.323  -7.124  1.00  0.00     0.014 C 
BRANCH   7   9
ATOM      9  C   UNL     1     -25.963   8.183  -6.731  1.00  0.00     0.044 C 
ATOM     10  O   UNL     1     -24.875   8.796  -6.559  1.00  0.00    -0.550 OA
ATOM     11  O   UNL     1     -25.944   6.836  -7.073  1.00  0.00    -0.550 OA
ENDBRANCH   7   9
ENDBRANCH   6   7
ENDBRANCH   5   6
ENDBRANCH   4   5
ENDBRANCH   3   4
ENDBRANCH   2   3
ENDBRANCH   1   2
BRANCH   1  12
ATOM     12  C   UNL     1     -29.320   7.736   1.286  1.00  0.00     0.000 C 
BRANCH  12  13
ATOM     13  C   UNL     1     -30.534   6.793   1.303  1.00  0.00    -0.000 C 
BRANCH  13  14
ATOM     14  C   UNL     1     -31.856   7.540   1.550  1.00  0.00    -0.000 C 
BRANCH  14  15
ATOM     15  C   UNL     1     -32.406   8.211   0.280  1.00  0.00    -0.000 C 
BRANCH  15  16
ATOM     16  C   UNL     1     -31.748   7.756  -1.037  1.00  0.00    -0.000 C 
BRANCH  16  17
ATOM     17  C   UNL     1     -31.120   6.348  -0.967  1.00  0.00    -0.000 C 
BRANCH  17  18
ATOM     18  C   UNL     1     -30.109   6.104  -2.099  1.00  0.00    -0.003 C 
ATOM     19  C   UNL     1     -30.633   6.635  -3.430  1.00  0.00     0.004 C 
ENDBRANCH  17  18
ENDBRANCH  16  17
ENDBRANCH  15  16
ENDBRANCH  14  15
ENDBRANCH  13  14
ENDBRANCH  12  13
ENDBRANCH   1  12
TORSDOF 14
ENDMDL
MODEL 5
REMARK VINA RESULT:     6.890      3.820      7.811
REMARK INTER + INTRA:          14.358
REMARK INTER:                  15.019
REMARK INTRA:                  -0.661
REMARK UNBOUND:                 1.828
REMARK SMILES CCCCCCCCCCCCCC[C@@H](C)C(=O)[O-]
REMARK SMILES IDX 9 1 10 2 11 3 12 4 13 5 14 6 15 7 16 8 17 9 18 10 19 11 8 12
REMARK SMILES IDX 7 13 6 14 5 15 4 16 3 17 2 18 1 19
REMARK H PARENT
REMARK Flexibility Score: inf
ROOT
ATOM      1  C   UNL     1     -30.259   6.852  -0.351  1.00  0.00     0.000 C 
ENDROOT
BRANCH   1   2
ATOM      2  C   UNL     1     -28.919   7.168   0.337  1.00  0.00     0.000 C 
BRANCH   2   3
ATOM      3  C   UNL     1     -27.911   7.889  -0.582  1.00  0.00     0.000 C 
BRANCH   3   4
ATOM      4  C   UNL     1     -28.259   7.722  -2.072  1.00  0.00     0.000 C 
BRANCH   4   5
ATOM      5  C   UNL     1     -27.165   8.273  -3.000  1.00  0.00     0.001 C 
BRANCH   5   6
ATOM      6  C   UNL     1     -27.634   8.397  -4.461  1.00  0.00     0.009 C 
BRANCH   6   7
ATOM      7  C   UNL     1     -26.607   7.829  -5.465  1.00  0.00     0.032 C 
ATOM      8  C   UNL     1     -27.189   6.683  -6.305  1.00  0.00     0.014 C 
BRANCH   7   9
ATOM      9  C   UNL     1     -26.114   8.924  -6.370  1.00  0.00     0.044 C 
ATOM     10  O   UNL     1     -24.897   8.989  -6.692  1.00  0.00    -0.550 OA
ATOM     11  O   UNL     1     -27.002   9.875  -6.857  1.00  0.00    -0.550 OA
ENDBRANCH   7   9
ENDBRANCH   6   7
ENDBRANCH   5   6
ENDBRANCH   4   5
ENDBRANCH   3   4
ENDBRANCH   2   3
ENDBRANCH   1   2
BRANCH   1  12
ATOM     12  C   UNL     1     -31.472   7.131   0.551  1.00  0.00     0.000 C 
BRANCH  12  13
ATOM     13  C   UNL     1     -32.347   8.283   0.031  1.00  0.00    -0.000 C 
BRANCH  13  14
ATOM     14  C   UNL     1     -33.107   9.001   1.161  1.00  0.00    -0.000 C 
BRANCH  14  15
ATOM     15  C   UNL     1     -33.830  10.270   0.679  1.00  0.00    -0.000 C 
BRANCH  15  16
ATOM     16  C   UNL     1     -32.962  11.543   0.645  1.00  0.00    -0.000 C 
BRANCH  16  17
ATOM     17  C   UNL     1     -33.680  12.771   0.044  1.00  0.00    -0.000 C 
BRANCH  17  18
ATOM     18  C   UNL     1     -33.397  12.933  -1.458  1.00  0.00    -0.003 C 
ATOM     19  C   UNL     1     -34.639  12.625  -2.289  1.00  0.00     0.004 C 
ENDBRANCH  17  18
ENDBRANCH  16  17
ENDBRANCH  15  16
ENDBRANCH  14  15
ENDBRANCH  13  14
ENDBRANCH  12  13
ENDBRANCH   1  12
TORSDOF 14
ENDMDL
MODEL 6
REMARK VINA RESULT:     7.780      2.998      7.660
REMARK INTER + INTRA:          15.977
REMARK INTER:                  12.495
REMARK INTRA:                   3.482
REMARK UNBOUND:                 1.828
REMARK SMILES CCCCCCCCCCCCCC[C@@H](C)C(=O)[O-]
REMARK SMILES IDX 9 1 10 2 11 3 12 4 13 5 14 6 15 7 16 8 17 9 18 10 19 11 8 12
REMARK SMILES IDX 7 13 6 14 5 15 4 16 3 17 2 18 1 19
REMARK H PARENT
REMARK Flexibility Score: inf
ROOT
ATOM      1  C   UNL     1     -28.821   7.470  -0.551  1.00  0.00     0.000 C 
ENDROOT
BRANCH   1   2
ATOM      2  C   UNL     1     -27.733   8.495  -0.918  1.00  0.00     0.000 C 
BRANCH   2   3
ATOM      3  C   UNL     1     -27.187   8.326  -2.352  1.00  0.00     0.000 C 
BRANCH   3   4
ATOM      4  C   UNL     1     -28.313   8.159  -3.388  1.00  0.00     0.000 C 
BRANCH   4   5
ATOM      5  C   UNL     1     -27.783   8.061  -4.827  1.00  0.00     0.001 C 
BRANCH   5   6
ATOM      6  C   UNL     1     -26.248   7.960  -4.887  1.00  0.00     0.009 C 
BRANCH   6   7
ATOM      7  C   UNL     1     -25.654   8.670  -6.123  1.00  0.00     0.032 C 
ATOM      8  C   UNL     1     -25.044   7.680  -7.125  1.00  0.00     0.014 C 
BRANCH   7   9
ATOM      9  C   UNL     1     -26.716   9.492  -6.802  1.00  0.00     0.044 C 
ATOM     10  O   UNL     1     -26.489  10.689  -7.125  1.00  0.00    -0.550 OA
ATOM     11  O   UNL     1     -27.957   8.931  -7.078  1.00  0.00    -0.550 OA
ENDBRANCH   7   9
ENDBRANCH   6   7
ENDBRANCH   5   6
ENDBRANCH   4   5
ENDBRANCH   3   4
ENDBRANCH   2   3
ENDBRANCH   1   2
BRANCH   1  12
ATOM     12  C   UNL     1     -29.455   6.807  -1.786  1.00  0.00     0.000 C 
BRANCH  12  13
ATOM     13  C   UNL     1     -30.899   6.345  -1.536  1.00  0.00    -0.000 C 
BRANCH  13  14
ATOM     14  C   UNL     1     -31.500   6.959  -0.260  1.00  0.00    -0.000 C 
BRANCH  14  15
ATOM     15  C   UNL     1     -32.510   8.080  -0.558  1.00  0.00    -0.000 C 
BRANCH  15  16
ATOM     16  C   UNL     1     -33.154   8.728   0.683  1.00  0.00    -0.000 C 
BRANCH  16  17
ATOM     17  C   UNL     1     -32.526   8.277   2.019  1.00  0.00    -0.000 C 
BRANCH  17  18
ATOM     18  C   UNL     1     -31.004   8.091   1.914  1.00  0.00    -0.003 C 
ATOM     19  C   UNL     1     -30.567   6.764   2.527  1.00  0.00     0.004 C 
ENDBRANCH  17  18
ENDBRANCH  16  17
ENDBRANCH  15  16
ENDBRANCH  14  15
ENDBRANCH  13  14
ENDBRANCH  12  13
ENDBRANCH   1  12
TORSDOF 14
ENDMDL
MODEL 7
REMARK VINA RESULT:     8.175      3.767      8.613
REMARK INTER + INTRA:          16.695
REMARK INTER:                  16.344
REMARK INTRA:                   0.350
REMARK UNBOUND:                 1.828
REMARK SMILES CCCCCCCCCCCCCC[C@@H](C)C(=O)[O-]
REMARK SMILES IDX 9 1 10 2 11 3 12 4 13 5 14 6 15 7 16 8 17 9 18 10 19 11 8 12
REMARK SMILES IDX 7 13 6 14 5 15 4 16 3 17 2 18 1 19
REMARK H PARENT
REMARK Flexibility Score: inf
ROOT
ATOM      1  C   UNL     1     -28.795   7.153   0.783  1.00  0.00     0.000 C 
ENDROOT
BRANCH   1   2
ATOM      2  C   UNL     1     -28.659   7.877  -0.568  1.00  0.00     0.000 C 
BRANCH   2   3
ATOM      3  C   UNL     1     -29.415   7.178  -1.718  1.00  0.00     0.000 C 
BRANCH   3   4
ATOM      4  C   UNL     1     -28.806   7.500  -3.094  1.00  0.00     0.000 C 
BRANCH   4   5
ATOM      5  C   UNL     1     -27.451   8.216  -2.988  1.00  0.00     0.001 C 
BRANCH   5   6
ATOM      6  C   UNL     1     -26.503   7.867  -4.150  1.00  0.00     0.009 C 
BRANCH   6   7
ATOM      7  C   UNL     1     -27.157   8.079  -5.533  1.00  0.00     0.032 C 
ATOM      8  C   UNL     1     -28.458   8.888  -5.444  1.00  0.00     0.014 C 
BRANCH   7   9
ATOM      9  C   UNL     1     -26.191   8.769  -6.457  1.00  0.00     0.044 C 
ATOM     10  O   UNL     1     -26.452   9.913  -6.917  1.00  0.00    -0.550 OA
ATOM     11  O   UNL     1     -25.001   8.144  -6.809  1.00  0.00    -0.550 OA
ENDBRANCH   7   9
ENDBRANCH   6   7
ENDBRANCH   5   6
ENDBRANCH   4   5
ENDBRANCH   3   4
ENDBRANCH   2   3
ENDBRANCH   1   2
BRANCH   1  12
ATOM     12  C   UNL     1     -30.150   7.411   1.463  1.00  0.00     0.000 C 
BRANCH  12  13
ATOM     13  C   UNL     1     -31.330   6.814   0.679  1.00  0.00    -0.000 C 
BRANCH  13  14
ATOM     14  C   UNL     1     -32.350   7.883   0.248  1.00  0.00    -0.000 C 
BRANCH  14  15
ATOM     15  C   UNL     1     -32.400   9.080   1.212  1.00  0.00    -0.000 C 
BRANCH  15  16
ATOM     16  C   UNL     1     -33.786   9.376   1.816  1.00  0.00    -0.000 C 
BRANCH  16  17
ATOM     17  C   UNL     1     -34.080   8.596   3.115  1.00  0.00    -0.000 C 
BRANCH  17  18
ATOM     18  C   UNL     1     -35.407   9.023   3.763  1.00  0.00    -0.003 C 
ATOM     19  C   UNL     1     -36.377   7.848   3.858  1.00  0.00     0.004 C 
ENDBRANCH  17  18
ENDBRANCH  16  17
ENDBRANCH  15  16
ENDBRANCH  14  15
ENDBRANCH  13  14
ENDBRANCH  12  13
ENDBRANCH   1  12
TORSDOF 14
ENDMDL
MODEL 8
REMARK VINA RESULT:     8.271      3.419      7.778
REMARK INTER + INTRA:          16.869
REMARK INTER:                  13.740
REMARK INTRA:                   3.129
REMARK UNBOUND:                 1.828
REMARK SMILES CCCCCCCCCCCCCC[C@@H](C)C(=O)[O-]
REMARK SMILES IDX 9 1 10 2 11 3 12 4 13 5 14 6 15 7 16 8 17 9 18 10 19 11 8 12
REMARK SMILES IDX 7 13 6 14 5 15 4 16 3 17 2 18 1 19
REMARK H PARENT
REMARK Flexibility Score: inf
ROOT
ATOM      1  C   UNL     1     -29.931   6.958  -1.288  1.00  0.00     0.000 C 
ENDROOT
BRANCH   1   2
ATOM      2  C   UNL     1     -30.159   6.535  -2.750  1.00  0.00     0.000 C 
BRANCH   2   3
ATOM      3  C   UNL     1     -29.563   7.522  -3.776  1.00  0.00     0.000 C 
BRANCH   3   4
ATOM      4  C   UNL     1     -28.036   7.654  -3.637  1.00  0.00     0.000 C 
BRANCH   4   5
ATOM      5  C   UNL     1     -27.466   8.820  -4.460  1.00  0.00     0.001 C 
BRANCH   5   6
ATOM      6  C   UNL     1     -28.127   8.945  -5.845  1.00  0.00     0.009 C 
BRANCH   6   7
ATOM      7  C   UNL     1     -27.094   9.048  -6.989  1.00  0.00     0.032 C 
ATOM      8  C   UNL     1     -26.513  10.462  -7.123  1.00  0.00     0.014 C 
BRANCH   7   9
ATOM      9  C   UNL     1     -25.982   8.059  -6.766  1.00  0.00     0.044 C 
ATOM     10  O   UNL     1     -24.890   8.428  -6.255  1.00  0.00    -0.550 OA
ATOM     11  O   UNL     1     -26.155   6.728  -7.125  1.00  0.00    -0.550 OA
ENDBRANCH   7   9
ENDBRANCH   6   7
ENDBRANCH   5   6
ENDBRANCH   4   5
ENDBRANCH   3   4
ENDBRANCH   2   3
ENDBRANCH   1   2
BRANCH   1  12
ATOM     12  C   UNL     1     -28.533   7.551  -1.051  1.00  0.00     0.000 C 
BRANCH  12  13
ATOM     13  C   UNL     1     -28.165   7.629   0.439  1.00  0.00    -0.000 C 
BRANCH  13  14
ATOM     14  C   UNL     1     -29.347   7.264   1.356  1.00  0.00    -0.000 C 
BRANCH  14  15
ATOM     15  C   UNL     1     -30.673   7.123   0.589  1.00  0.00    -0.000 C 
BRANCH  15  16
ATOM     16  C   UNL     1     -31.942   7.182   1.461  1.00  0.00    -0.000 C 
BRANCH  16  17
ATOM     17  C   UNL     1     -32.737   8.497   1.318  1.00  0.00    -0.000 C 
BRANCH  17  18
ATOM     18  C   UNL     1     -32.756   9.012  -0.130  1.00  0.00    -0.003 C 
ATOM     19  C   UNL     1     -33.169   7.910  -1.101  1.00  0.00     0.004 C 
ENDBRANCH  17  18
ENDBRANCH  16  17
ENDBRANCH  15  16
ENDBRANCH  14  15
ENDBRANCH  13  14
ENDBRANCH  12  13
ENDBRANCH   1  12
TORSDOF 14
ENDMDL
MODEL 9
REMARK VINA RESULT:     8.277      1.126      2.945
REMARK INTER + INTRA:          16.879
REMARK INTER:                  14.087
REMARK INTRA:                   2.793
REMARK UNBOUND:                 1.828
REMARK SMILES CCCCCCCCCCCCCC[C@@H](C)C(=O)[O-]
REMARK SMILES IDX 9 1 10 2 11 3 12 4 13 5 14 6 15 7 16 8 17 9 18 10 19 11 8 12
REMARK SMILES IDX 7 13 6 14 5 15 4 16 3 17 2 18 1 19
REMARK H PARENT
REMARK Flexibility Score: inf
ROOT
ATOM      1  C   UNL     1     -26.024   8.226  -3.309  1.00  0.00     0.000 C 
ENDROOT
BRANCH   1   2
ATOM      2  C   UNL     1     -27.285   7.917  -2.483  1.00  0.00     0.000 C 
BRANCH   2   3
ATOM      3  C   UNL     1     -27.097   8.137  -0.967  1.00  0.00     0.000 C 
BRANCH   3   4
ATOM      4  C   UNL     1     -28.297   7.624  -0.152  1.00  0.00     0.000 C 
BRANCH   4   5
ATOM      5  C   UNL     1     -29.596   7.586  -0.971  1.00  0.00     0.001 C 
BRANCH   5   6
ATOM      6  C   UNL     1     -30.532   6.441  -0.544  1.00  0.00     0.009 C 
BRANCH   6   7
ATOM      7  C   UNL     1     -31.391   6.804   0.687  1.00  0.00     0.032 C 
ATOM      8  C   UNL     1     -30.535   7.239   1.885  1.00  0.00     0.014 C 
BRANCH   7   9
ATOM      9  C   UNL     1     -32.362   7.897   0.332  1.00  0.00     0.044 C 
ATOM     10  O   UNL     1     -32.765   8.033  -0.855  1.00  0.00    -0.550 OA
ATOM     11  O   UNL     1     -32.819   8.765   1.315  1.00  0.00    -0.550 OA
ENDBRANCH   7   9
ENDBRANCH   6   7
ENDBRANCH   5   6
ENDBRANCH   4   5
ENDBRANCH   3   4
ENDBRANCH   2   3
ENDBRANCH   1   2
BRANCH   1  12
ATOM     12  C   UNL     1     -26.075   7.621  -4.722  1.00  0.00     0.000 C 
BRANCH  12  13
ATOM     13  C   UNL     1     -25.131   8.329  -5.707  1.00  0.00    -0.000 C 
BRANCH  13  14
ATOM     14  C   UNL     1     -25.734   8.449  -7.117  1.00  0.00    -0.000 C 
BRANCH  14  15
ATOM     15  C   UNL     1     -27.170   9.001  -7.105  1.00  0.00    -0.000 C 
BRANCH  15  16
ATOM     16  C   UNL     1     -27.796   9.164  -5.707  1.00  0.00    -0.000 C 
BRANCH  16  17
ATOM     17  C   UNL     1     -29.158   8.456  -5.547  1.00  0.00    -0.000 C 
BRANCH  17  18
ATOM     18  C   UNL     1     -29.413   8.004  -4.100  1.00  0.00    -0.003 C 
ATOM     19  C   UNL     1     -30.393   6.836  -4.052  1.00  0.00     0.004 C 
ENDBRANCH  17  18
ENDBRANCH  16  17
ENDBRANCH  15  16
ENDBRANCH  14  15
ENDBRANCH  13  14
ENDBRANCH  12  13
ENDBRANCH   1  12
TORSDOF 14
ENDMDL
