MODEL 1
REMARK VINA RESULT:    -3.795      0.000      0.000
REMARK INTER + INTRA:          -5.061
REMARK INTER:                  -4.571
REMARK INTRA:                  -0.490
REMARK UNBOUND:                -0.490
REMARK SMILES NC(=O)C[C@H]([NH3+])C(=O)[O-]
REMARK SMILES IDX 4 1 5 2 6 3 7 7 8 8 9 9 2 10 3 11 1 12
REMARK H PARENT 6 4 6 5 6 6 1 13 1 14
REMARK Flexibility Score: inf
ROOT
ATOM      1  C   UNL     1      26.231   4.706  10.416  1.00  0.00     0.171 C 
ENDROOT
BRANCH   1   2
ATOM      2  C   UNL     1      27.473   5.597  10.622  1.00  0.00     0.237 C 
BRANCH   2   3
ATOM      3  N   UNL     1      28.102   5.946   9.341  1.00  0.00    -0.350 N 
ATOM      4  H   UNL     1      27.379   6.312   8.679  1.00  0.00     0.345 HD
ATOM      5  H   UNL     1      28.530   5.095   8.908  1.00  0.00     0.345 HD
ATOM      6  H   UNL     1      28.842   6.673   9.476  1.00  0.00     0.345 HD
ENDBRANCH   2   3
BRANCH   2   7
ATOM      7  C   UNL     1      28.462   4.887  11.507  1.00  0.00     0.100 C 
ATOM      8  O   UNL     1      29.125   5.533  12.361  1.00  0.00    -0.544 OA
ATOM      9  O   UNL     1      28.640   3.513  11.399  1.00  0.00    -0.544 OA
ENDBRANCH   2   7
ENDBRANCH   1   2
BRANCH   1  10
ATOM     10  C   UNL     1      26.263   4.008   9.087  1.00  0.00     0.223 C 
ATOM     11  O   UNL     1      25.810   4.590   8.065  1.00  0.00    -0.275 OA
ATOM     12  N   UNL     1      26.832   2.705   8.966  1.00  0.00    -0.369 N 
ATOM     13  H   UNL     1      27.231   2.217   9.797  1.00  0.00     0.159 HD
ATOM     14  H   UNL     1      26.862   2.228   8.038  1.00  0.00     0.159 HD
ENDBRANCH   1  10
TORSDOF 4
ENDMDL
MODEL 2
REMARK VINA RESULT:    -3.724      1.840      4.001
REMARK INTER + INTRA:          -4.976
REMARK INTER:                  -4.674
REMARK INTRA:                  -0.302
REMARK UNBOUND:                -0.490
REMARK SMILES NC(=O)C[C@H]([NH3+])C(=O)[O-]
REMARK SMILES IDX 4 1 5 2 6 3 7 7 8 8 9 9 2 10 3 11 1 12
REMARK H PARENT 6 4 6 5 6 6 1 13 1 14
REMARK Flexibility Score: inf
ROOT
ATOM      1  C   UNL     1      28.760   4.943  10.018  1.00  0.00     0.171 C 
ENDROOT
BRANCH   1   2
ATOM      2  C   UNL     1      27.317   4.680   9.542  1.00  0.00     0.237 C 
BRANCH   2   3
ATOM      3  N   UNL     1      26.565   3.885  10.522  1.00  0.00    -0.350 N 
ATOM      4  H   UNL     1      26.600   2.873  10.260  1.00  0.00     0.345 HD
ATOM      5  H   UNL     1      25.560   4.178  10.526  1.00  0.00     0.345 HD
ATOM      6  H   UNL     1      26.962   4.005  11.482  1.00  0.00     0.345 HD
ENDBRANCH   2   3
BRANCH   2   7
ATOM      7  C   UNL     1      27.344   3.973   8.214  1.00  0.00     0.100 C 
ATOM      8  O   UNL     1      27.880   2.839   8.111  1.00  0.00    -0.544 OA
ATOM      9  O   UNL     1      26.763   4.559   7.095  1.00  0.00    -0.544 OA
ENDBRANCH   2   7
ENDBRANCH   1   2
BRANCH   1  10
ATOM     10  C   UNL     1      28.942   4.584  11.464  1.00  0.00     0.223 C 
ATOM     11  O   UNL     1      29.038   3.374  11.800  1.00  0.00    -0.275 OA
ATOM     12  N   UNL     1      29.040   5.605  12.457  1.00  0.00    -0.369 N 
ATOM     13  H   UNL     1      28.985   6.613  12.194  1.00  0.00     0.159 HD
ATOM     14  H   UNL     1      29.178   5.351  13.461  1.00  0.00     0.159 HD
ENDBRANCH   1  10
TORSDOF 4
ENDMDL
MODEL 3
REMARK VINA RESULT:    -3.694      1.410      2.284
REMARK INTER + INTRA:          -4.940
REMARK INTER:                  -4.659
REMARK INTRA:                  -0.281
REMARK UNBOUND:                -0.490
REMARK SMILES NC(=O)C[C@H]([NH3+])C(=O)[O-]
REMARK SMILES IDX 4 1 5 2 6 3 7 7 8 8 9 9 2 10 3 11 1 12
REMARK H PARENT 6 4 6 5 6 6 1 13 1 14
REMARK Flexibility Score: inf
ROOT
ATOM      1  C   UNL     1      27.075   6.000   9.907  1.00  0.00     0.171 C 
ENDROOT
BRANCH   1   2
ATOM      2  C   UNL     1      28.417   5.242   9.866  1.00  0.00     0.237 C 
BRANCH   2   3
ATOM      3  N   UNL     1      28.375   4.125   8.913  1.00  0.00    -0.350 N 
ATOM      4  H   UNL     1      28.259   4.493   7.940  1.00  0.00     0.345 HD
ATOM      5  H   UNL     1      27.556   3.508   9.120  1.00  0.00     0.345 HD
ATOM      6  H   UNL     1      29.254   3.559   8.964  1.00  0.00     0.345 HD
ENDBRANCH   2   3
BRANCH   2   7
ATOM      7  C   UNL     1      28.753   4.734  11.243  1.00  0.00     0.100 C 
ATOM      8  O   UNL     1      28.749   3.498  11.480  1.00  0.00    -0.544 OA
ATOM      9  O   UNL     1      29.085   5.625  12.258  1.00  0.00    -0.544 OA
ENDBRANCH   2   7
ENDBRANCH   1   2
BRANCH   1  10
ATOM     10  C   UNL     1      26.502   6.190   8.533  1.00  0.00     0.223 C 
ATOM     11  O   UNL     1      25.663   5.362   8.087  1.00  0.00    -0.275 OA
ATOM     12  N   UNL     1      26.875   7.317   7.741  1.00  0.00    -0.369 N 
ATOM     13  H   UNL     1      27.551   8.024   8.104  1.00  0.00     0.159 HD
ATOM     14  H   UNL     1      26.465   7.451   6.790  1.00  0.00     0.159 HD
ENDBRANCH   1  10
TORSDOF 4
ENDMDL
MODEL 4
REMARK VINA RESULT:    -3.578      1.683      3.919
REMARK INTER + INTRA:          -4.800
REMARK INTER:                  -4.539
REMARK INTRA:                  -0.261
REMARK UNBOUND:                -0.490
REMARK SMILES NC(=O)C[C@H]([NH3+])C(=O)[O-]
REMARK SMILES IDX 4 1 5 2 6 3 7 7 8 8 9 9 2 10 3 11 1 12
REMARK H PARENT 6 4 6 5 6 6 1 13 1 14
REMARK Flexibility Score: inf
ROOT
ATOM      1  C   UNL     1      28.025   5.692  10.320  1.00  0.00     0.171 C 
ENDROOT
BRANCH   1   2
ATOM      2  C   UNL     1      27.279   4.708   9.396  1.00  0.00     0.237 C 
BRANCH   2   3
ATOM      3  N   UNL     1      28.216   3.920   8.584  1.00  0.00    -0.350 N 
ATOM      4  H   UNL     1      28.142   2.907   8.840  1.00  0.00     0.345 HD
ATOM      5  H   UNL     1      29.198   4.225   8.772  1.00  0.00     0.345 HD
ATOM      6  H   UNL     1      28.009   4.031   7.565  1.00  0.00     0.345 HD
ENDBRANCH   2   3
BRANCH   2   7
ATOM      7  C   UNL     1      26.336   5.469   8.504  1.00  0.00     0.100 C 
ATOM      8  O   UNL     1      25.438   6.196   9.005  1.00  0.00    -0.544 OA
ATOM      9  O   UNL     1      26.459   5.388   7.122  1.00  0.00    -0.544 OA
ENDBRANCH   2   7
ENDBRANCH   1   2
BRANCH   1  10
ATOM     10  C   UNL     1      28.630   4.994  11.503  1.00  0.00     0.223 C 
ATOM     11  O   UNL     1      28.728   3.738  11.504  1.00  0.00    -0.275 OA
ATOM     12  N   UNL     1      29.125   5.743  12.612  1.00  0.00    -0.369 N 
ATOM     13  H   UNL     1      29.073   6.785  12.619  1.00  0.00     0.159 HD
ATOM     14  H   UNL     1      29.555   5.254  13.429  1.00  0.00     0.159 HD
ENDBRANCH   1  10
TORSDOF 4
ENDMDL
MODEL 5
REMARK VINA RESULT:    -3.545      2.692      3.761
REMARK INTER + INTRA:          -4.760
REMARK INTER:                  -4.277
REMARK INTRA:                  -0.484
REMARK UNBOUND:                -0.490
REMARK SMILES NC(=O)C[C@H]([NH3+])C(=O)[O-]
REMARK SMILES IDX 4 1 5 2 6 3 7 7 8 8 9 9 2 10 3 11 1 12
REMARK H PARENT 6 4 6 5 6 6 1 13 1 14
REMARK Flexibility Score: inf
ROOT
ATOM      1  C   UNL     1      25.671   5.965   7.946  1.00  0.00     0.171 C 
ENDROOT
BRANCH   1   2
ATOM      2  C   UNL     1      26.737   5.229   8.782  1.00  0.00     0.237 C 
BRANCH   2   3
ATOM      3  N   UNL     1      27.865   6.111   9.110  1.00  0.00    -0.350 N 
ATOM      4  H   UNL     1      27.507   7.035   9.448  1.00  0.00     0.345 HD
ATOM      5  H   UNL     1      28.443   6.287   8.256  1.00  0.00     0.345 HD
ATOM      6  H   UNL     1      28.468   5.685   9.852  1.00  0.00     0.345 HD
ENDBRANCH   2   3
BRANCH   2   7
ATOM      7  C   UNL     1      27.228   4.023   8.027  1.00  0.00     0.100 C 
ATOM      8  O   UNL     1      28.025   3.215   8.572  1.00  0.00    -0.544 OA
ATOM      9  O   UNL     1      26.792   3.783   6.728  1.00  0.00    -0.544 OA
ENDBRANCH   2   7
ENDBRANCH   1   2
BRANCH   1  10
ATOM     10  C   UNL     1      26.263   7.104   7.169  1.00  0.00     0.223 C 
ATOM     11  O   UNL     1      26.377   8.236   7.711  1.00  0.00    -0.275 OA
ATOM     12  N   UNL     1      26.728   6.907   5.834  1.00  0.00    -0.369 N 
ATOM     13  H   UNL     1      26.662   5.972   5.378  1.00  0.00     0.159 HD
ATOM     14  H   UNL     1      27.149   7.700   5.301  1.00  0.00     0.159 HD
ENDBRANCH   1  10
TORSDOF 4
ENDMDL
MODEL 6
REMARK VINA RESULT:    -3.509      9.504     10.198
REMARK INTER + INTRA:          -4.717
REMARK INTER:                  -4.258
REMARK INTRA:                  -0.459
REMARK UNBOUND:                -0.490
REMARK SMILES NC(=O)C[C@H]([NH3+])C(=O)[O-]
REMARK SMILES IDX 4 1 5 2 6 3 7 7 8 8 9 9 2 10 3 11 1 12
REMARK H PARENT 6 4 6 5 6 6 1 13 1 14
REMARK Flexibility Score: inf
ROOT
ATOM      1  C   UNL     1      24.507   0.554  18.874  1.00  0.00     0.171 C 
ENDROOT
BRANCH   1   2
ATOM      2  C   UNL     1      23.035   0.828  19.244  1.00  0.00     0.237 C 
BRANCH   2   3
ATOM      3  N   UNL     1      22.129  -0.112  18.571  1.00  0.00    -0.350 N 
ATOM      4  H   UNL     1      22.253  -1.072  18.968  1.00  0.00     0.345 HD
ATOM      5  H   UNL     1      22.353  -0.158  17.550  1.00  0.00     0.345 HD
ATOM      6  H   UNL     1      21.132   0.182  18.691  1.00  0.00     0.345 HD
ENDBRANCH   2   3
BRANCH   2   7
ATOM      7  C   UNL     1      22.677   2.243  18.878  1.00  0.00     0.100 C 
ATOM      8  O   UNL     1      21.992   2.947  19.666  1.00  0.00    -0.544 OA
ATOM      9  O   UNL     1      23.114   2.789  17.676  1.00  0.00    -0.544 OA
ENDBRANCH   2   7
ENDBRANCH   1   2
BRANCH   1  10
ATOM     10  C   UNL     1      24.621  -0.314  17.655  1.00  0.00     0.223 C 
ATOM     11  O   UNL     1      24.701  -1.565  17.784  1.00  0.00    -0.275 OA
ATOM     12  N   UNL     1      24.606   0.264  16.350  1.00  0.00    -0.369 N 
ATOM     13  H   UNL     1      24.517   1.296  16.224  1.00  0.00     0.159 HD
ATOM     14  H   UNL     1      24.674  -0.345  15.504  1.00  0.00     0.159 HD
ENDBRANCH   1  10
TORSDOF 4
ENDMDL
MODEL 7
REMARK VINA RESULT:    -3.505      9.291      9.835
REMARK INTER + INTRA:          -4.713
REMARK INTER:                  -4.623
REMARK INTRA:                  -0.090
REMARK UNBOUND:                -0.490
REMARK SMILES NC(=O)C[C@H]([NH3+])C(=O)[O-]
REMARK SMILES IDX 4 1 5 2 6 3 7 7 8 8 9 9 2 10 3 11 1 12
REMARK H PARENT 6 4 6 5 6 6 1 13 1 14
REMARK Flexibility Score: inf
ROOT
ATOM      1  C   UNL     1      24.642  -0.775  18.203  1.00  0.00     0.171 C 
ENDROOT
BRANCH   1   2
ATOM      2  C   UNL     1      24.461   0.708  17.821  1.00  0.00     0.237 C 
BRANCH   2   3
ATOM      3  N   UNL     1      25.755   1.363  17.587  1.00  0.00    -0.350 N 
ATOM      4  H   UNL     1      26.526   0.658  17.648  1.00  0.00     0.345 HD
ATOM      5  H   UNL     1      25.927   2.089  18.320  1.00  0.00     0.345 HD
ATOM      6  H   UNL     1      25.778   1.815  16.643  1.00  0.00     0.345 HD
ENDBRANCH   2   3
BRANCH   2   7
ATOM      7  C   UNL     1      23.710   1.423  18.912  1.00  0.00     0.100 C 
ATOM      8  O   UNL     1      22.934   0.785  19.670  1.00  0.00    -0.544 OA
ATOM      9  O   UNL     1      23.880   2.790  19.101  1.00  0.00    -0.544 OA
ENDBRANCH   2   7
ENDBRANCH   1   2
BRANCH   1  10
ATOM     10  C   UNL     1      24.249  -1.690  17.080  1.00  0.00     0.223 C 
ATOM     11  O   UNL     1      23.498  -2.675  17.312  1.00  0.00    -0.275 OA
ATOM     12  N   UNL     1      24.691  -1.433  15.748  1.00  0.00    -0.369 N 
ATOM     13  H   UNL     1      25.293  -0.609  15.535  1.00  0.00     0.159 HD
ATOM     14  H   UNL     1      24.406  -2.066  14.968  1.00  0.00     0.159 HD
ENDBRANCH   1  10
TORSDOF 4
ENDMDL
MODEL 8
REMARK VINA RESULT:    -3.460      9.670     10.481
REMARK INTER + INTRA:          -4.658
REMARK INTER:                  -4.171
REMARK INTRA:                  -0.487
REMARK UNBOUND:                -0.490
REMARK SMILES NC(=O)C[C@H]([NH3+])C(=O)[O-]
REMARK SMILES IDX 4 1 5 2 6 3 7 7 8 8 9 9 2 10 3 11 1 12
REMARK H PARENT 6 4 6 5 6 6 1 13 1 14
REMARK Flexibility Score: inf
ROOT
ATOM      1  C   UNL     1      24.850  -0.359  18.661  1.00  0.00     0.171 C 
ENDROOT
BRANCH   1   2
ATOM      2  C   UNL     1      24.583  -1.067  17.318  1.00  0.00     0.237 C 
BRANCH   2   3
ATOM      3  N   UNL     1      24.353  -0.098  16.237  1.00  0.00    -0.350 N 
ATOM      4  H   UNL     1      24.107   0.834  16.643  1.00  0.00     0.345 HD
ATOM      5  H   UNL     1      23.551  -0.409  15.642  1.00  0.00     0.345 HD
ATOM      6  H   UNL     1      25.207   0.003  15.640  1.00  0.00     0.345 HD
ENDBRANCH   2   3
BRANCH   2   7
ATOM      7  C   UNL     1      23.394  -1.980  17.454  1.00  0.00     0.100 C 
ATOM      8  O   UNL     1      23.561  -3.207  17.681  1.00  0.00    -0.544 OA
ATOM      9  O   UNL     1      22.104  -1.472  17.348  1.00  0.00    -0.544 OA
ENDBRANCH   2   7
ENDBRANCH   1   2
BRANCH   1  10
ATOM     10  C   UNL     1      24.061   0.912  18.786  1.00  0.00     0.223 C 
ATOM     11  O   UNL     1      24.539   1.989  18.339  1.00  0.00    -0.275 OA
ATOM     12  N   UNL     1      22.761   0.904  19.375  1.00  0.00    -0.369 N 
ATOM     13  H   UNL     1      22.341   0.018  19.729  1.00  0.00     0.159 HD
ATOM     14  H   UNL     1      22.212   1.789  19.449  1.00  0.00     0.159 HD
ENDBRANCH   1  10
TORSDOF 4
ENDMDL
MODEL 9
REMARK VINA RESULT:    -3.446      8.980      9.737
REMARK INTER + INTRA:          -4.641
REMARK INTER:                  -4.212
REMARK INTRA:                  -0.429
REMARK UNBOUND:                -0.490
REMARK SMILES NC(=O)C[C@H]([NH3+])C(=O)[O-]
REMARK SMILES IDX 4 1 5 2 6 3 7 7 8 8 9 9 2 10 3 11 1 12
REMARK H PARENT 6 4 6 5 6 6 1 13 1 14
REMARK Flexibility Score: inf
ROOT
ATOM      1  C   UNL     1      24.262   1.739  18.854  1.00  0.00     0.171 C 
ENDROOT
BRANCH   1   2
ATOM      2  C   UNL     1      24.460   0.402  18.111  1.00  0.00     0.237 C 
BRANCH   2   3
ATOM      3  N   UNL     1      24.894   0.618  16.724  1.00  0.00    -0.350 N 
ATOM      4  H   UNL     1      24.431  -0.078  16.095  1.00  0.00     0.345 HD
ATOM      5  H   UNL     1      25.928   0.479  16.647  1.00  0.00     0.345 HD
ATOM      6  H   UNL     1      24.651   1.584  16.404  1.00  0.00     0.345 HD
ENDBRANCH   2   3
BRANCH   2   7
ATOM      7  C   UNL     1      23.176  -0.383  18.134  1.00  0.00     0.100 C 
ATOM      8  O   UNL     1      23.166  -1.591  17.778  1.00  0.00    -0.544 OA
ATOM      9  O   UNL     1      21.996   0.214  18.563  1.00  0.00    -0.544 OA
ENDBRANCH   2   7
ENDBRANCH   1   2
BRANCH   1  10
ATOM     10  C   UNL     1      24.056   2.879  17.900  1.00  0.00     0.223 C 
ATOM     11  O   UNL     1      25.033   3.606  17.576  1.00  0.00    -0.275 OA
ATOM     12  N   UNL     1      22.771   3.125  17.331  1.00  0.00    -0.369 N 
ATOM     13  H   UNL     1      21.956   2.520  17.570  1.00  0.00     0.159 HD
ATOM     14  H   UNL     1      22.634   3.913  16.659  1.00  0.00     0.159 HD
ENDBRANCH   1  10
TORSDOF 4
ENDMDL
