MODEL 1
REMARK VINA RESULT:     0.565      0.000      0.000
REMARK INTER + INTRA:          -0.173
REMARK INTER:                   1.028
REMARK INTRA:                  -1.201
REMARK UNBOUND:                -1.201
REMARK SMILES CCCCCCCCCCCCCCC(=O)OC
REMARK SMILES IDX 9 1 8 2 7 3 6 4 5 5 4 6 3 7 2 8 1 9 10 10 11 11 12 12 13 13
REMARK SMILES IDX 14 14 15 15 16 16 17 17 18 18
REMARK H PARENT
REMARK Flexibility Score: inf
ROOT
ATOM      1  C   UNL     1     178.124 178.255 171.109  1.00  0.00     0.000 C 
ENDROOT
BRANCH   1   2
ATOM      2  C   UNL     1     176.808 179.043 171.231  1.00  0.00     0.000 C 
BRANCH   2   3
ATOM      3  C   UNL     1     176.446 179.380 172.689  1.00  0.00    -0.000 C 
BRANCH   3   4
ATOM      4  C   UNL     1     176.320 180.882 173.001  1.00  0.00    -0.000 C 
BRANCH   4   5
ATOM      5  C   UNL     1     177.357 181.740 172.256  1.00  0.00    -0.000 C 
BRANCH   5   6
ATOM      6  C   UNL     1     178.636 181.966 173.090  1.00  0.00    -0.000 C 
BRANCH   6   7
ATOM      7  C   UNL     1     178.634 183.288 173.881  1.00  0.00    -0.000 C 
BRANCH   7   8
ATOM      8  C   UNL     1     179.858 183.494 174.789  1.00  0.00    -0.003 C 
ATOM      9  C   UNL     1     179.529 184.277 176.059  1.00  0.00     0.004 C 
ENDBRANCH   7   8
ENDBRANCH   6   7
ENDBRANCH   5   6
ENDBRANCH   4   5
ENDBRANCH   3   4
ENDBRANCH   2   3
ENDBRANCH   1   2
BRANCH   1  10
ATOM     10  C   UNL     1     179.224 179.038 170.367  1.00  0.00     0.000 C 
BRANCH  10  11
ATOM     11  C   UNL     1     180.482 179.354 171.201  1.00  0.00     0.000 C 
BRANCH  11  12
ATOM     12  C   UNL     1     180.326 179.161 172.723  1.00  0.00     0.001 C 
BRANCH  12  13
ATOM     13  C   UNL     1     181.325 178.174 173.359  1.00  0.00     0.012 C 
BRANCH  13  14
ATOM     14  C   UNL     1     181.983 177.208 172.362  1.00  0.00     0.123 C 
BRANCH  14  15
ATOM     15  C   UNL     1     181.045 176.122 171.934  1.00  0.00     0.305 C 
ATOM     16  O   UNL     1     181.328 175.405 170.936  1.00  0.00    -0.252 OA
BRANCH  15  17
ATOM     17  O   UNL     1     179.874 175.897 172.666  1.00  0.00    -0.469 OA
ATOM     18  C   UNL     1     179.492 174.604 173.117  1.00  0.00     0.282 C 
ENDBRANCH  15  17
ENDBRANCH  14  15
ENDBRANCH  13  14
ENDBRANCH  12  13
ENDBRANCH  11  12
ENDBRANCH  10  11
ENDBRANCH   1  10
TORSDOF 14
ENDMDL
MODEL 2
REMARK VINA RESULT:     1.006      1.632      2.269
REMARK INTER + INTRA:           0.628
REMARK INTER:                   1.540
REMARK INTRA:                  -0.913
REMARK UNBOUND:                -1.201
REMARK SMILES CCCCCCCCCCCCCCC(=O)OC
REMARK SMILES IDX 9 1 8 2 7 3 6 4 5 5 4 6 3 7 2 8 1 9 10 10 11 11 12 12 13 13
REMARK SMILES IDX 14 14 15 15 16 16 17 17 18 18
REMARK H PARENT
REMARK Flexibility Score: inf
ROOT
ATOM      1  C   UNL     1     177.948 178.233 172.377  1.00  0.00     0.000 C 
ENDROOT
BRANCH   1   2
ATOM      2  C   UNL     1     176.861 179.083 173.056  1.00  0.00     0.000 C 
BRANCH   2   3
ATOM      3  C   UNL     1     176.150 180.039 172.081  1.00  0.00    -0.000 C 
BRANCH   3   4
ATOM      4  C   UNL     1     176.726 181.465 172.026  1.00  0.00    -0.000 C 
BRANCH   4   5
ATOM      5  C   UNL     1     178.094 181.589 172.718  1.00  0.00    -0.000 C 
BRANCH   5   6
ATOM      6  C   UNL     1     178.421 183.046 173.109  1.00  0.00    -0.000 C 
BRANCH   6   7
ATOM      7  C   UNL     1     179.444 183.163 174.255  1.00  0.00    -0.000 C 
BRANCH   7   8
ATOM      8  C   UNL     1     178.959 183.976 175.467  1.00  0.00    -0.003 C 
ATOM      9  C   UNL     1     180.089 184.340 176.429  1.00  0.00     0.004 C 
ENDBRANCH   7   8
ENDBRANCH   6   7
ENDBRANCH   5   6
ENDBRANCH   4   5
ENDBRANCH   3   4
ENDBRANCH   2   3
ENDBRANCH   1   2
BRANCH   1  10
ATOM     10  C   UNL     1     178.060 178.503 170.864  1.00  0.00     0.000 C 
BRANCH  10  11
ATOM     11  C   UNL     1     179.454 178.944 170.376  1.00  0.00     0.000 C 
BRANCH  11  12
ATOM     12  C   UNL     1     180.488 179.203 171.491  1.00  0.00     0.001 C 
BRANCH  12  13
ATOM     13  C   UNL     1     181.534 178.087 171.680  1.00  0.00     0.012 C 
BRANCH  13  14
ATOM     14  C   UNL     1     181.173 177.057 172.762  1.00  0.00     0.123 C 
BRANCH  14  15
ATOM     15  C   UNL     1     181.957 177.271 174.020  1.00  0.00     0.305 C 
ATOM     16  O   UNL     1     182.586 176.309 174.539  1.00  0.00    -0.252 OA
BRANCH  15  17
ATOM     17  O   UNL     1     182.003 178.546 174.593  1.00  0.00    -0.469 OA
ATOM     18  C   UNL     1     182.532 178.781 175.892  1.00  0.00     0.282 C 
ENDBRANCH  15  17
ENDBRANCH  14  15
ENDBRANCH  13  14
ENDBRANCH  12  13
ENDBRANCH  11  12
ENDBRANCH  10  11
ENDBRANCH   1  10
TORSDOF 14
ENDMDL
MODEL 3
REMARK VINA RESULT:     1.170      2.586      6.700
REMARK INTER + INTRA:           0.926
REMARK INTER:                   1.914
REMARK INTRA:                  -0.987
REMARK UNBOUND:                -1.201
REMARK SMILES CCCCCCCCCCCCCCC(=O)OC
REMARK SMILES IDX 9 1 8 2 7 3 6 4 5 5 4 6 3 7 2 8 1 9 10 10 11 11 12 12 13 13
REMARK SMILES IDX 14 14 15 15 16 16 17 17 18 18
REMARK H PARENT
REMARK Flexibility Score: inf
ROOT
ATOM      1  C   UNL     1     180.221 179.243 172.694  1.00  0.00     0.000 C 
ENDROOT
BRANCH   1   2
ATOM      2  C   UNL     1     181.255 178.210 173.174  1.00  0.00     0.000 C 
BRANCH   2   3
ATOM      3  C   UNL     1     181.783 177.318 172.036  1.00  0.00    -0.000 C 
BRANCH   3   4
ATOM      4  C   UNL     1     181.022 175.994 171.836  1.00  0.00    -0.000 C 
BRANCH   4   5
ATOM      5  C   UNL     1     179.763 175.885 172.714  1.00  0.00    -0.000 C 
BRANCH   5   6
ATOM      6  C   UNL     1     179.549 174.454 173.252  1.00  0.00    -0.000 C 
BRANCH   6   7
ATOM      7  C   UNL     1     178.334 174.322 174.189  1.00  0.00    -0.000 C 
BRANCH   7   8
ATOM      8  C   UNL     1     178.638 173.659 175.544  1.00  0.00    -0.003 C 
ATOM      9  C   UNL     1     177.507 173.833 176.556  1.00  0.00     0.004 C 
ENDBRANCH   7   8
ENDBRANCH   6   7
ENDBRANCH   5   6
ENDBRANCH   4   5
ENDBRANCH   3   4
ENDBRANCH   2   3
ENDBRANCH   1   2
BRANCH   1  10
ATOM     10  C   UNL     1     180.088 179.288 171.160  1.00  0.00     0.000 C 
BRANCH  10  11
ATOM     11  C   UNL     1     178.697 178.913 170.610  1.00  0.00     0.000 C 
BRANCH  11  12
ATOM     12  C   UNL     1     177.662 178.494 171.673  1.00  0.00     0.001 C 
BRANCH  12  13
ATOM     13  C   UNL     1     176.426 179.410 171.775  1.00  0.00     0.012 C 
BRANCH  13  14
ATOM     14  C   UNL     1     176.552 180.530 172.819  1.00  0.00     0.123 C 
BRANCH  14  15
ATOM     15  C   UNL     1     177.407 181.657 172.329  1.00  0.00     0.305 C 
ATOM     16  O   UNL     1     177.027 182.352 171.347  1.00  0.00    -0.252 OA
BRANCH  15  17
ATOM     17  O   UNL     1     178.608 181.945 172.984  1.00  0.00    -0.469 OA
ATOM     18  C   UNL     1     178.779 183.101 173.794  1.00  0.00     0.282 C 
ENDBRANCH  15  17
ENDBRANCH  14  15
ENDBRANCH  13  14
ENDBRANCH  12  13
ENDBRANCH  11  12
ENDBRANCH  10  11
ENDBRANCH   1  10
TORSDOF 14
ENDMDL
MODEL 4
REMARK VINA RESULT:     1.282      3.011      5.908
REMARK INTER + INTRA:           1.129
REMARK INTER:                   1.992
REMARK INTRA:                  -0.862
REMARK UNBOUND:                -1.201
REMARK SMILES CCCCCCCCCCCCCCC(=O)OC
REMARK SMILES IDX 9 1 8 2 7 3 6 4 5 5 4 6 3 7 2 8 1 9 10 10 11 11 12 12 13 13
REMARK SMILES IDX 14 14 15 15 16 16 17 17 18 18
REMARK H PARENT
REMARK Flexibility Score: inf
ROOT
ATOM      1  C   UNL     1     178.041 178.614 170.839  1.00  0.00     0.000 C 
ENDROOT
BRANCH   1   2
ATOM      2  C   UNL     1     179.435 179.105 170.412  1.00  0.00     0.000 C 
BRANCH   2   3
ATOM      3  C   UNL     1     180.493 178.945 171.519  1.00  0.00    -0.000 C 
BRANCH   3   4
ATOM      4  C   UNL     1     181.272 177.618 171.492  1.00  0.00    -0.000 C 
BRANCH   4   5
ATOM      5  C   UNL     1     181.681 177.131 172.893  1.00  0.00    -0.000 C 
BRANCH   5   6
ATOM      6  C   UNL     1     181.536 178.237 173.960  1.00  0.00    -0.000 C 
BRANCH   6   7
ATOM      7  C   UNL     1     182.374 177.986 175.228  1.00  0.00    -0.000 C 
BRANCH   7   8
ATOM      8  C   UNL     1     182.736 179.255 176.019  1.00  0.00    -0.003 C 
ATOM      9  C   UNL     1     182.241 179.214 177.464  1.00  0.00     0.004 C 
ENDBRANCH   7   8
ENDBRANCH   6   7
ENDBRANCH   5   6
ENDBRANCH   4   5
ENDBRANCH   3   4
ENDBRANCH   2   3
ENDBRANCH   1   2
BRANCH   1  10
ATOM     10  C   UNL     1     177.911 178.438 172.364  1.00  0.00     0.000 C 
BRANCH  10  11
ATOM     11  C   UNL     1     176.775 179.245 173.024  1.00  0.00     0.000 C 
BRANCH  11  12
ATOM     12  C   UNL     1     176.270 180.454 172.211  1.00  0.00     0.001 C 
BRANCH  12  13
ATOM     13  C   UNL     1     177.295 181.592 172.034  1.00  0.00     0.012 C 
BRANCH  13  14
ATOM     14  C   UNL     1     178.443 181.576 173.057  1.00  0.00     0.123 C 
BRANCH  14  15
ATOM     15  C   UNL     1     178.833 182.960 173.478  1.00  0.00     0.305 C 
ATOM     16  O   UNL     1     178.374 183.958 172.858  1.00  0.00    -0.252 OA
BRANCH  15  17
ATOM     17  O   UNL     1     179.684 183.130 174.575  1.00  0.00    -0.469 OA
ATOM     18  C   UNL     1     179.441 184.098 175.588  1.00  0.00     0.282 C 
ENDBRANCH  15  17
ENDBRANCH  14  15
ENDBRANCH  13  14
ENDBRANCH  12  13
ENDBRANCH  11  12
ENDBRANCH  10  11
ENDBRANCH   1  10
TORSDOF 14
ENDMDL
MODEL 5
REMARK VINA RESULT:     1.427      3.033      5.598
REMARK INTER + INTRA:           1.394
REMARK INTER:                   2.130
REMARK INTRA:                  -0.735
REMARK UNBOUND:                -1.201
REMARK SMILES CCCCCCCCCCCCCCC(=O)OC
REMARK SMILES IDX 9 1 8 2 7 3 6 4 5 5 4 6 3 7 2 8 1 9 10 10 11 11 12 12 13 13
REMARK SMILES IDX 14 14 15 15 16 16 17 17 18 18
REMARK H PARENT
REMARK Flexibility Score: inf
ROOT
ATOM      1  C   UNL     1     180.281 179.223 171.652  1.00  0.00     0.000 C 
ENDROOT
BRANCH   1   2
ATOM      2  C   UNL     1     181.467 178.246 171.600  1.00  0.00     0.000 C 
BRANCH   2   3
ATOM      3  C   UNL     1     181.209 176.947 172.385  1.00  0.00    -0.000 C 
BRANCH   3   4
ATOM      4  C   UNL     1     181.838 176.897 173.790  1.00  0.00    -0.000 C 
BRANCH   4   5
ATOM      5  C   UNL     1     181.881 178.271 174.479  1.00  0.00    -0.000 C 
BRANCH   5   6
ATOM      6  C   UNL     1     182.807 178.276 175.715  1.00  0.00    -0.000 C 
BRANCH   6   7
ATOM      7  C   UNL     1     182.362 179.255 176.817  1.00  0.00    -0.000 C 
BRANCH   7   8
ATOM      8  C   UNL     1     183.154 180.573 176.863  1.00  0.00    -0.003 C 
ATOM      9  C   UNL     1     182.716 181.489 178.004  1.00  0.00     0.004 C 
ENDBRANCH   7   8
ENDBRANCH   6   7
ENDBRANCH   5   6
ENDBRANCH   4   5
ENDBRANCH   3   4
ENDBRANCH   2   3
ENDBRANCH   1   2
BRANCH   1  10
ATOM     10  C   UNL     1     179.293 179.028 170.486  1.00  0.00     0.000 C 
BRANCH  10  11
ATOM     11  C   UNL     1     177.877 178.574 170.892  1.00  0.00     0.000 C 
BRANCH  11  12
ATOM     12  C   UNL     1     177.680 178.307 172.398  1.00  0.00     0.001 C 
BRANCH  12  13
ATOM     13  C   UNL     1     176.777 179.323 173.126  1.00  0.00     0.012 C 
BRANCH  13  14
ATOM     14  C   UNL     1     176.151 180.385 172.208  1.00  0.00     0.123 C 
BRANCH  14  15
ATOM     15  C   UNL     1     177.078 181.538 171.976  1.00  0.00     0.305 C 
ATOM     16  O   UNL     1     176.790 182.411 171.112  1.00  0.00    -0.252 OA
BRANCH  15  17
ATOM     17  O   UNL     1     178.244 181.648 172.740  1.00  0.00    -0.469 OA
ATOM     18  C   UNL     1     178.573 182.825 173.466  1.00  0.00     0.282 C 
ENDBRANCH  15  17
ENDBRANCH  14  15
ENDBRANCH  13  14
ENDBRANCH  12  13
ENDBRANCH  11  12
ENDBRANCH  10  11
ENDBRANCH   1  10
TORSDOF 14
ENDMDL
MODEL 6
REMARK VINA RESULT:     1.768      2.785      3.793
REMARK INTER + INTRA:           2.014
REMARK INTER:                   2.888
REMARK INTRA:                  -0.874
REMARK UNBOUND:                -1.201
REMARK SMILES CCCCCCCCCCCCCCC(=O)OC
REMARK SMILES IDX 9 1 8 2 7 3 6 4 5 5 4 6 3 7 2 8 1 9 10 10 11 11 12 12 13 13
REMARK SMILES IDX 14 14 15 15 16 16 17 17 18 18
REMARK H PARENT
REMARK Flexibility Score: inf
ROOT
ATOM      1  C   UNL     1     178.870 178.632 171.358  1.00  0.00     0.000 C 
ENDROOT
BRANCH   1   2
ATOM      2  C   UNL     1     177.684 178.581 172.336  1.00  0.00     0.000 C 
BRANCH   2   3
ATOM      3  C   UNL     1     176.500 179.458 171.890  1.00  0.00    -0.000 C 
BRANCH   3   4
ATOM      4  C   UNL     1     176.386 180.816 172.605  1.00  0.00    -0.000 C 
BRANCH   4   5
ATOM      5  C   UNL     1     177.438 181.835 172.134  1.00  0.00    -0.000 C 
BRANCH   5   6
ATOM      6  C   UNL     1     178.612 181.963 173.128  1.00  0.00    -0.000 C 
BRANCH   6   7
ATOM      7  C   UNL     1     178.696 183.341 173.811  1.00  0.00    -0.000 C 
BRANCH   7   8
ATOM      8  C   UNL     1     179.869 183.500 174.793  1.00  0.00    -0.003 C 
ATOM      9  C   UNL     1     179.479 184.250 176.066  1.00  0.00     0.004 C 
ENDBRANCH   7   8
ENDBRANCH   6   7
ENDBRANCH   5   6
ENDBRANCH   4   5
ENDBRANCH   3   4
ENDBRANCH   2   3
ENDBRANCH   1   2
BRANCH   1  10
ATOM     10  C   UNL     1     180.229 178.763 172.072  1.00  0.00     0.000 C 
BRANCH  10  11
ATOM     11  C   UNL     1     180.989 177.438 172.286  1.00  0.00     0.000 C 
BRANCH  11  12
ATOM     12  C   UNL     1     182.098 177.484 173.355  1.00  0.00     0.001 C 
BRANCH  12  13
ATOM     13  C   UNL     1     181.792 178.378 174.573  1.00  0.00     0.012 C 
BRANCH  13  14
ATOM     14  C   UNL     1     182.839 178.302 175.695  1.00  0.00     0.123 C 
BRANCH  14  15
ATOM     15  C   UNL     1     182.543 179.267 176.801  1.00  0.00     0.305 C 
ATOM     16  O   UNL     1     181.753 178.937 177.728  1.00  0.00    -0.252 OA
BRANCH  15  17
ATOM     17  O   UNL     1     183.168 180.518 176.809  1.00  0.00    -0.469 OA
ATOM     18  C   UNL     1     182.868 181.516 177.776  1.00  0.00     0.282 C 
ENDBRANCH  15  17
ENDBRANCH  14  15
ENDBRANCH  13  14
ENDBRANCH  12  13
ENDBRANCH  11  12
ENDBRANCH  10  11
ENDBRANCH   1  10
TORSDOF 14
ENDMDL
MODEL 7
REMARK VINA RESULT:     1.879      2.886      4.420
REMARK INTER + INTRA:           2.216
REMARK INTER:                   3.330
REMARK INTRA:                  -1.114
REMARK UNBOUND:                -1.201
REMARK SMILES CCCCCCCCCCCCCCC(=O)OC
REMARK SMILES IDX 9 1 8 2 7 3 6 4 5 5 4 6 3 7 2 8 1 9 10 10 11 11 12 12 13 13
REMARK SMILES IDX 14 14 15 15 16 16 17 17 18 18
REMARK H PARENT
REMARK Flexibility Score: inf
ROOT
ATOM      1  C   UNL     1     180.436 178.889 171.421  1.00  0.00     0.000 C 
ENDROOT
BRANCH   1   2
ATOM      2  C   UNL     1     179.344 178.987 170.342  1.00  0.00     0.000 C 
BRANCH   2   3
ATOM      3  C   UNL     1     177.961 178.537 170.846  1.00  0.00    -0.000 C 
BRANCH   3   4
ATOM      4  C   UNL     1     177.882 178.228 172.352  1.00  0.00    -0.000 C 
BRANCH   4   5
ATOM      5  C   UNL     1     176.929 179.168 173.110  1.00  0.00    -0.000 C 
BRANCH   5   6
ATOM      6  C   UNL     1     176.229 180.173 172.169  1.00  0.00    -0.000 C 
BRANCH   6   7
ATOM      7  C   UNL     1     176.872 181.573 172.172  1.00  0.00    -0.000 C 
BRANCH   7   8
ATOM      8  C   UNL     1     178.315 181.614 172.704  1.00  0.00    -0.003 C 
ATOM      9  C   UNL     1     178.616 182.882 173.502  1.00  0.00     0.004 C 
ENDBRANCH   7   8
ENDBRANCH   6   7
ENDBRANCH   5   6
ENDBRANCH   4   5
ENDBRANCH   3   4
ENDBRANCH   2   3
ENDBRANCH   1   2
BRANCH   1  10
ATOM     10  C   UNL     1     181.257 177.589 171.323  1.00  0.00     0.000 C 
BRANCH  10  11
ATOM     11  C   UNL     1     182.136 177.273 172.550  1.00  0.00     0.000 C 
BRANCH  11  12
ATOM     12  C   UNL     1     181.468 177.523 173.917  1.00  0.00     0.001 C 
BRANCH  12  13
ATOM     13  C   UNL     1     182.024 178.729 174.702  1.00  0.00     0.012 C 
BRANCH  13  14
ATOM     14  C   UNL     1     182.799 178.353 175.975  1.00  0.00     0.123 C 
BRANCH  14  15
ATOM     15  C   UNL     1     182.525 179.308 177.096  1.00  0.00     0.305 C 
ATOM     16  O   UNL     1     181.794 178.951 178.060  1.00  0.00    -0.252 OA
BRANCH  15  17
ATOM     17  O   UNL     1     183.108 180.579 177.075  1.00  0.00    -0.469 OA
ATOM     18  C   UNL     1     182.694 181.624 177.946  1.00  0.00     0.282 C 
ENDBRANCH  15  17
ENDBRANCH  14  15
ENDBRANCH  13  14
ENDBRANCH  12  13
ENDBRANCH  11  12
ENDBRANCH  10  11
ENDBRANCH   1  10
TORSDOF 14
ENDMDL
MODEL 8
REMARK VINA RESULT:     2.150     12.412     16.625
REMARK INTER + INTRA:           2.709
REMARK INTER:                   3.362
REMARK INTRA:                  -0.653
REMARK UNBOUND:                -1.201
REMARK SMILES CCCCCCCCCCCCCCC(=O)OC
REMARK SMILES IDX 9 1 8 2 7 3 6 4 5 5 4 6 3 7 2 8 1 9 10 10 11 11 12 12 13 13
REMARK SMILES IDX 14 14 15 15 16 16 17 17 18 18
REMARK H PARENT
REMARK Flexibility Score: inf
ROOT
ATOM      1  C   UNL     1     185.506 188.394 185.290  1.00  0.00     0.000 C 
ENDROOT
BRANCH   1   2
ATOM      2  C   UNL     1     185.503 188.858 186.757  1.00  0.00     0.000 C 
BRANCH   2   3
ATOM      3  C   UNL     1     185.353 187.694 187.753  1.00  0.00    -0.000 C 
BRANCH   3   4
ATOM      4  C   UNL     1     185.716 186.305 187.196  1.00  0.00    -0.000 C 
BRANCH   4   5
ATOM      5  C   UNL     1     187.147 185.869 187.554  1.00  0.00    -0.000 C 
BRANCH   5   6
ATOM      6  C   UNL     1     187.195 184.435 188.125  1.00  0.00    -0.000 C 
BRANCH   6   7
ATOM      7  C   UNL     1     188.542 183.724 187.897  1.00  0.00    -0.000 C 
BRANCH   7   8
ATOM      8  C   UNL     1     188.447 182.411 187.101  1.00  0.00    -0.003 C 
ATOM      9  C   UNL     1     188.464 181.173 187.997  1.00  0.00     0.004 C 
ENDBRANCH   7   8
ENDBRANCH   6   7
ENDBRANCH   5   6
ENDBRANCH   4   5
ENDBRANCH   3   4
ENDBRANCH   2   3
ENDBRANCH   1   2
BRANCH   1  10
ATOM     10  C   UNL     1     186.595 189.084 184.447  1.00  0.00     0.000 C 
BRANCH  10  11
ATOM     11  C   UNL     1     186.405 188.986 182.920  1.00  0.00     0.000 C 
BRANCH  11  12
ATOM     12  C   UNL     1     184.945 188.829 182.449  1.00  0.00     0.001 C 
BRANCH  12  13
ATOM     13  C   UNL     1     184.765 188.689 180.924  1.00  0.00     0.012 C 
BRANCH  13  14
ATOM     14  C   UNL     1     186.076 188.734 180.124  1.00  0.00     0.123 C 
BRANCH  14  15
ATOM     15  C   UNL     1     186.496 187.373 179.663  1.00  0.00     0.305 C 
ATOM     16  O   UNL     1     187.133 186.614 180.445  1.00  0.00    -0.252 OA
BRANCH  15  17
ATOM     17  O   UNL     1     186.152 186.946 178.377  1.00  0.00    -0.469 OA
ATOM     18  C   UNL     1     187.100 186.865 177.320  1.00  0.00     0.282 C 
ENDBRANCH  15  17
ENDBRANCH  14  15
ENDBRANCH  13  14
ENDBRANCH  12  13
ENDBRANCH  11  12
ENDBRANCH  10  11
ENDBRANCH   1  10
TORSDOF 14
ENDMDL
MODEL 9
REMARK VINA RESULT:     2.225     13.101     16.863
REMARK INTER + INTRA:           2.846
REMARK INTER:                   3.243
REMARK INTRA:                  -0.398
REMARK UNBOUND:                -1.201
REMARK SMILES CCCCCCCCCCCCCCC(=O)OC
REMARK SMILES IDX 9 1 8 2 7 3 6 4 5 5 4 6 3 7 2 8 1 9 10 10 11 11 12 12 13 13
REMARK SMILES IDX 14 14 15 15 16 16 17 17 18 18
REMARK H PARENT
REMARK Flexibility Score: inf
ROOT
ATOM      1  C   UNL     1     186.018 187.691 185.003  1.00  0.00     0.000 C 
ENDROOT
BRANCH   1   2
ATOM      2  C   UNL     1     186.462 187.473 186.459  1.00  0.00     0.000 C 
BRANCH   2   3
ATOM      3  C   UNL     1     185.624 186.408 187.189  1.00  0.00    -0.000 C 
BRANCH   3   4
ATOM      4  C   UNL     1     186.418 185.477 188.123  1.00  0.00    -0.000 C 
BRANCH   4   5
ATOM      5  C   UNL     1     187.247 184.427 187.363  1.00  0.00    -0.000 C 
BRANCH   5   6
ATOM      6  C   UNL     1     188.672 184.280 187.939  1.00  0.00    -0.000 C 
BRANCH   6   7
ATOM      7  C   UNL     1     189.125 182.816 188.099  1.00  0.00    -0.000 C 
BRANCH   7   8
ATOM      8  C   UNL     1     187.999 181.777 187.954  1.00  0.00    -0.003 C 
ATOM      9  C   UNL     1     188.505 180.339 188.047  1.00  0.00     0.004 C 
ENDBRANCH   7   8
ENDBRANCH   6   7
ENDBRANCH   5   6
ENDBRANCH   4   5
ENDBRANCH   3   4
ENDBRANCH   2   3
ENDBRANCH   1   2
BRANCH   1  10
ATOM     10  C   UNL     1     186.657 188.938 184.362  1.00  0.00     0.000 C 
BRANCH  10  11
ATOM     11  C   UNL     1     186.465 189.065 182.837  1.00  0.00     0.000 C 
BRANCH  11  12
ATOM     12  C   UNL     1     184.999 189.087 182.360  1.00  0.00     0.001 C 
BRANCH  12  13
ATOM     13  C   UNL     1     184.717 188.263 181.087  1.00  0.00     0.012 C 
BRANCH  13  14
ATOM     14  C   UNL     1     183.903 189.009 180.018  1.00  0.00     0.123 C 
BRANCH  14  15
ATOM     15  C   UNL     1     182.430 188.907 180.266  1.00  0.00     0.305 C 
ATOM     16  O   UNL     1     181.629 188.881 179.292  1.00  0.00    -0.252 OA
BRANCH  15  17
ATOM     17  O   UNL     1     181.958 188.814 181.580  1.00  0.00    -0.469 OA
ATOM     18  C   UNL     1     180.607 189.085 181.927  1.00  0.00     0.282 C 
ENDBRANCH  15  17
ENDBRANCH  14  15
ENDBRANCH  13  14
ENDBRANCH  12  13
ENDBRANCH  11  12
ENDBRANCH  10  11
ENDBRANCH   1  10
TORSDOF 14
ENDMDL
