MODEL 1
REMARK VINA RESULT:    -3.193      0.000      0.000
REMARK INTER + INTRA:          -4.536
REMARK INTER:                  -4.313
REMARK INTRA:                  -0.223
REMARK UNBOUND:                -0.223
REMARK SMILES CCCCCCCC(=O)[O-]
REMARK SMILES IDX 5 1 6 2 7 3 8 4 9 5 10 6 4 7 3 8 2 9 1 10
REMARK H PARENT
REMARK Flexibility Score: inf
ROOT
ATOM      1  C   UNL     1       3.471  69.117  19.978  1.00  0.00     0.000 C 
ENDROOT
BRANCH   1   2
ATOM      2  C   UNL     1       2.116  69.828  20.131  1.00  0.00     0.006 C 
BRANCH   2   3
ATOM      3  C   UNL     1       1.712  70.618  18.879  1.00  0.00     0.053 C 
BRANCH   3   4
ATOM      4  C   UNL     1       2.089  72.058  19.026  1.00  0.00     0.041 C 
ATOM      5  O   UNL     1       3.255  72.440  18.749  1.00  0.00    -0.550 OA
ATOM      6  O   UNL     1       1.163  72.971  19.517  1.00  0.00    -0.550 OA
ENDBRANCH   3   4
ENDBRANCH   2   3
ENDBRANCH   1   2
BRANCH   1   7
ATOM      7  C   UNL     1       4.551  69.539  20.995  1.00  0.00     0.000 C 
BRANCH   7   8
ATOM      8  C   UNL     1       4.465  68.842  22.365  1.00  0.00    -0.000 C 
BRANCH   8   9
ATOM      9  C   UNL     1       5.161  69.634  23.481  1.00  0.00    -0.003 C 
ATOM     10  C   UNL     1       6.675  69.444  23.426  1.00  0.00     0.004 C 
ENDBRANCH   8   9
ENDBRANCH   7   8
ENDBRANCH   1   7
TORSDOF 6
ENDMDL
MODEL 2
REMARK VINA RESULT:    -3.160     14.154     15.383
REMARK INTER + INTRA:          -4.492
REMARK INTER:                  -4.203
REMARK INTRA:                  -0.289
REMARK UNBOUND:                -0.223
REMARK SMILES CCCCCCCC(=O)[O-]
REMARK SMILES IDX 5 1 6 2 7 3 8 4 9 5 10 6 4 7 3 8 2 9 1 10
REMARK H PARENT
REMARK Flexibility Score: inf
ROOT
ATOM      1  C   UNL     1       2.474  66.049   6.623  1.00  0.00     0.000 C 
ENDROOT
BRANCH   1   2
ATOM      2  C   UNL     1       3.976  65.967   6.295  1.00  0.00     0.006 C 
BRANCH   2   3
ATOM      3  C   UNL     1       4.297  66.408   4.862  1.00  0.00     0.053 C 
BRANCH   3   4
ATOM      4  C   UNL     1       5.713  66.884   4.767  1.00  0.00     0.041 C 
ATOM      5  O   UNL     1       6.101  67.861   5.459  1.00  0.00    -0.550 OA
ATOM      6  O   UNL     1       6.590  66.279   3.875  1.00  0.00    -0.550 OA
ENDBRANCH   3   4
ENDBRANCH   2   3
ENDBRANCH   1   2
BRANCH   1   7
ATOM      7  C   UNL     1       2.088  65.584   8.042  1.00  0.00     0.000 C 
BRANCH   7   8
ATOM      8  C   UNL     1       1.155  64.361   8.097  1.00  0.00    -0.000 C 
BRANCH   8   9
ATOM      9  C   UNL     1       1.916  63.029   8.036  1.00  0.00    -0.003 C 
ATOM     10  C   UNL     1       3.108  63.034   8.989  1.00  0.00     0.004 C 
ENDBRANCH   8   9
ENDBRANCH   7   8
ENDBRANCH   1   7
TORSDOF 6
ENDMDL
MODEL 3
REMARK VINA RESULT:    -3.156     14.526     15.699
REMARK INTER + INTRA:          -4.486
REMARK INTER:                  -4.171
REMARK INTRA:                  -0.315
REMARK UNBOUND:                -0.223
REMARK SMILES CCCCCCCC(=O)[O-]
REMARK SMILES IDX 5 1 6 2 7 3 8 4 9 5 10 6 4 7 3 8 2 9 1 10
REMARK H PARENT
REMARK Flexibility Score: inf
ROOT
ATOM      1  C   UNL     1       2.592  66.640   6.854  1.00  0.00     0.000 C 
ENDROOT
BRANCH   1   2
ATOM      2  C   UNL     1       1.925  65.417   7.507  1.00  0.00     0.006 C 
BRANCH   2   3
ATOM      3  C   UNL     1       2.926  64.309   7.859  1.00  0.00     0.053 C 
BRANCH   3   4
ATOM      4  C   UNL     1       2.207  63.029   8.148  1.00  0.00     0.041 C 
ATOM      5  O   UNL     1       1.085  62.800   7.626  1.00  0.00    -0.550 OA
ATOM      6  O   UNL     1       2.756  62.110   9.034  1.00  0.00    -0.550 OA
ENDBRANCH   3   4
ENDBRANCH   2   3
ENDBRANCH   1   2
BRANCH   1   7
ATOM      7  C   UNL     1       2.348  66.786   5.337  1.00  0.00     0.000 C 
BRANCH   7   8
ATOM      8  C   UNL     1       3.597  66.609   4.455  1.00  0.00    -0.000 C 
BRANCH   8   9
ATOM      9  C   UNL     1       4.893  66.511   5.272  1.00  0.00    -0.003 C 
ATOM     10  C   UNL     1       6.097  66.953   4.445  1.00  0.00     0.004 C 
ENDBRANCH   8   9
ENDBRANCH   7   8
ENDBRANCH   1   7
TORSDOF 6
ENDMDL
MODEL 4
REMARK VINA RESULT:    -3.117      3.392      5.573
REMARK INTER + INTRA:          -4.434
REMARK INTER:                  -4.217
REMARK INTRA:                  -0.217
REMARK UNBOUND:                -0.223
REMARK SMILES CCCCCCCC(=O)[O-]
REMARK SMILES IDX 5 1 6 2 7 3 8 4 9 5 10 6 4 7 3 8 2 9 1 10
REMARK H PARENT
REMARK Flexibility Score: inf
ROOT
ATOM      1  C   UNL     1       4.131  69.661  20.815  1.00  0.00     0.000 C 
ENDROOT
BRANCH   1   2
ATOM      2  C   UNL     1       4.364  68.915  22.141  1.00  0.00     0.006 C 
BRANCH   2   3
ATOM      3  C   UNL     1       5.370  69.626  23.055  1.00  0.00     0.053 C 
BRANCH   3   4
ATOM      4  C   UNL     1       6.691  68.924  23.024  1.00  0.00     0.041 C 
ATOM      5  O   UNL     1       7.616  69.279  23.801  1.00  0.00    -0.550 OA
ATOM      6  O   UNL     1       6.917  67.910  22.102  1.00  0.00    -0.550 OA
ENDBRANCH   3   4
ENDBRANCH   2   3
ENDBRANCH   1   2
BRANCH   1   7
ATOM      7  C   UNL     1       2.714  69.515  20.223  1.00  0.00     0.000 C 
BRANCH   7   8
ATOM      8  C   UNL     1       2.237  70.706  19.373  1.00  0.00    -0.000 C 
BRANCH   8   9
ATOM      9  C   UNL     1       3.390  71.608  18.911  1.00  0.00    -0.003 C 
ATOM     10  C   UNL     1       2.878  72.986  18.501  1.00  0.00     0.004 C 
ENDBRANCH   8   9
ENDBRANCH   7   8
ENDBRANCH   1   7
TORSDOF 6
ENDMDL
MODEL 5
REMARK VINA RESULT:    -3.114      0.856      1.358
REMARK INTER + INTRA:          -4.429
REMARK INTER:                  -4.208
REMARK INTRA:                  -0.221
REMARK UNBOUND:                -0.223
REMARK SMILES CCCCCCCC(=O)[O-]
REMARK SMILES IDX 5 1 6 2 7 3 8 4 9 5 10 6 4 7 3 8 2 9 1 10
REMARK H PARENT
REMARK Flexibility Score: inf
ROOT
ATOM      1  C   UNL     1       3.589  69.917  19.999  1.00  0.00     0.000 C 
ENDROOT
BRANCH   1   2
ATOM      2  C   UNL     1       2.082  69.976  19.696  1.00  0.00     0.006 C 
BRANCH   2   3
ATOM      3  C   UNL     1       1.750  70.878  18.501  1.00  0.00     0.053 C 
BRANCH   3   4
ATOM      4  C   UNL     1       1.950  72.317  18.859  1.00  0.00     0.041 C 
ATOM      5  O   UNL     1       1.120  72.907  19.599  1.00  0.00    -0.550 OA
ATOM      6  O   UNL     1       3.028  73.020  18.336  1.00  0.00    -0.550 OA
ENDBRANCH   3   4
ENDBRANCH   2   3
ENDBRANCH   1   2
BRANCH   1   7
ATOM      7  C   UNL     1       3.956  69.352  21.387  1.00  0.00     0.000 C 
BRANCH   7   8
ATOM      8  C   UNL     1       4.928  68.158  21.370  1.00  0.00    -0.000 C 
BRANCH   8   9
ATOM      9  C   UNL     1       6.167  68.386  22.247  1.00  0.00    -0.003 C 
ATOM     10  C   UNL     1       5.951  69.552  23.207  1.00  0.00     0.004 C 
ENDBRANCH   8   9
ENDBRANCH   7   8
ENDBRANCH   1   7
TORSDOF 6
ENDMDL
MODEL 6
REMARK VINA RESULT:    -2.905      8.459      9.184
REMARK INTER + INTRA:          -4.147
REMARK INTER:                  -3.854
REMARK INTRA:                  -0.293
REMARK UNBOUND:                -0.223
REMARK SMILES CCCCCCCC(=O)[O-]
REMARK SMILES IDX 5 1 6 2 7 3 8 4 9 5 10 6 4 7 3 8 2 9 1 10
REMARK H PARENT
REMARK Flexibility Score: inf
ROOT
ATOM      1  C   UNL     1       5.703  63.797  16.671  1.00  0.00     0.000 C 
ENDROOT
BRANCH   1   2
ATOM      2  C   UNL     1       4.918  62.515  16.999  1.00  0.00     0.006 C 
BRANCH   2   3
ATOM      3  C   UNL     1       4.095  61.999  15.812  1.00  0.00     0.053 C 
BRANCH   3   4
ATOM      4  C   UNL     1       3.229  63.089  15.264  1.00  0.00     0.041 C 
ATOM      5  O   UNL     1       2.270  63.539  15.943  1.00  0.00    -0.550 OA
ATOM      6  O   UNL     1       3.452  63.574  13.981  1.00  0.00    -0.550 OA
ENDBRANCH   3   4
ENDBRANCH   2   3
ENDBRANCH   1   2
BRANCH   1   7
ATOM      7  C   UNL     1       7.194  63.771  17.068  1.00  0.00     0.000 C 
BRANCH   7   8
ATOM      8  C   UNL     1       7.784  62.368  17.295  1.00  0.00    -0.000 C 
BRANCH   8   9
ATOM      9  C   UNL     1       9.320  62.363  17.301  1.00  0.00    -0.003 C 
ATOM     10  C   UNL     1       9.875  63.678  16.761  1.00  0.00     0.004 C 
ENDBRANCH   8   9
ENDBRANCH   7   8
ENDBRANCH   1   7
TORSDOF 6
ENDMDL
MODEL 7
REMARK VINA RESULT:    -2.887      2.973      5.114
REMARK INTER + INTRA:          -4.123
REMARK INTER:                  -3.692
REMARK INTRA:                  -0.431
REMARK UNBOUND:                -0.223
REMARK SMILES CCCCCCCC(=O)[O-]
REMARK SMILES IDX 5 1 6 2 7 3 8 4 9 5 10 6 4 7 3 8 2 9 1 10
REMARK H PARENT
REMARK Flexibility Score: inf
ROOT
ATOM      1  C   UNL     1       2.362  68.892  19.872  1.00  0.00     0.000 C 
ENDROOT
BRANCH   1   2
ATOM      2  C   UNL     1       3.123  69.094  21.194  1.00  0.00     0.006 C 
BRANCH   2   3
ATOM      3  C   UNL     1       4.574  69.547  20.984  1.00  0.00     0.053 C 
BRANCH   3   4
ATOM      4  C   UNL     1       5.452  69.004  22.066  1.00  0.00     0.041 C 
ATOM      5  O   UNL     1       5.454  69.536  23.207  1.00  0.00    -0.550 OA
ATOM      6  O   UNL     1       6.306  67.940  21.800  1.00  0.00    -0.550 OA
ENDBRANCH   3   4
ENDBRANCH   2   3
ENDBRANCH   1   2
BRANCH   1   7
ATOM      7  C   UNL     1       1.095  69.757  19.707  1.00  0.00     0.000 C 
BRANCH   7   8
ATOM      8  C   UNL     1       1.189  70.852  18.629  1.00  0.00    -0.000 C 
BRANCH   8   9
ATOM      9  C   UNL     1       2.613  71.032  18.086  1.00  0.00    -0.003 C 
ATOM     10  C   UNL     1       3.223  72.344  18.572  1.00  0.00     0.004 C 
ENDBRANCH   8   9
ENDBRANCH   7   8
ENDBRANCH   1   7
TORSDOF 6
ENDMDL
MODEL 8
REMARK VINA RESULT:    -2.860     13.540     14.867
REMARK INTER + INTRA:          -4.087
REMARK INTER:                  -3.658
REMARK INTRA:                  -0.429
REMARK UNBOUND:                -0.223
REMARK SMILES CCCCCCCC(=O)[O-]
REMARK SMILES IDX 5 1 6 2 7 3 8 4 9 5 10 6 4 7 3 8 2 9 1 10
REMARK H PARENT
REMARK Flexibility Score: inf
ROOT
ATOM      1  C   UNL     1       2.952  66.705   8.344  1.00  0.00     0.000 C 
ENDROOT
BRANCH   1   2
ATOM      2  C   UNL     1       2.887  66.626   6.808  1.00  0.00     0.006 C 
BRANCH   2   3
ATOM      3  C   UNL     1       4.154  66.022   6.189  1.00  0.00     0.053 C 
BRANCH   3   4
ATOM      4  C   UNL     1       4.199  66.295   4.719  1.00  0.00     0.041 C 
ATOM      5  O   UNL     1       5.268  66.130   4.076  1.00  0.00    -0.550 OA
ATOM      6  O   UNL     1       3.071  66.780   4.068  1.00  0.00    -0.550 OA
ENDBRANCH   3   4
ENDBRANCH   2   3
ENDBRANCH   1   2
BRANCH   1   7
ATOM      7  C   UNL     1       1.942  65.807   9.088  1.00  0.00     0.000 C 
BRANCH   7   8
ATOM      8  C   UNL     1       2.545  64.553   9.747  1.00  0.00    -0.000 C 
BRANCH   8   9
ATOM      9  C   UNL     1       2.927  63.471   8.727  1.00  0.00    -0.003 C 
ATOM     10  C   UNL     1       1.701  62.984   7.959  1.00  0.00     0.004 C 
ENDBRANCH   8   9
ENDBRANCH   7   8
ENDBRANCH   1   7
TORSDOF 6
ENDMDL
MODEL 9
REMARK VINA RESULT:    -2.856      2.876      4.487
REMARK INTER + INTRA:          -4.081
REMARK INTER:                  -3.531
REMARK INTRA:                  -0.550
REMARK UNBOUND:                -0.223
REMARK SMILES CCCCCCCC(=O)[O-]
REMARK SMILES IDX 5 1 6 2 7 3 8 4 9 5 10 6 4 7 3 8 2 9 1 10
REMARK H PARENT
REMARK Flexibility Score: inf
ROOT
ATOM      1  C   UNL     1       1.992  69.102  18.851  1.00  0.00     0.000 C 
ENDROOT
BRANCH   1   2
ATOM      2  C   UNL     1       2.278  70.301  19.772  1.00  0.00     0.006 C 
BRANCH   2   3
ATOM      3  C   UNL     1       3.313  71.269  19.186  1.00  0.00     0.053 C 
BRANCH   3   4
ATOM      4  C   UNL     1       2.649  72.529  18.726  1.00  0.00     0.041 C 
ATOM      5  O   UNL     1       3.197  73.253  17.855  1.00  0.00    -0.550 OA
ATOM      6  O   UNL     1       1.447  72.928  19.297  1.00  0.00    -0.550 OA
ENDBRANCH   3   4
ENDBRANCH   2   3
ENDBRANCH   1   2
BRANCH   1   7
ATOM      7  C   UNL     1       3.234  68.486  18.175  1.00  0.00     0.000 C 
BRANCH   7   8
ATOM      8  C   UNL     1       3.133  68.326  16.647  1.00  0.00    -0.000 C 
BRANCH   8   9
ATOM      9  C   UNL     1       2.051  69.221  16.025  1.00  0.00    -0.003 C 
ATOM     10  C   UNL     1       2.663  70.483  15.424  1.00  0.00     0.004 C 
ENDBRANCH   8   9
ENDBRANCH   7   8
ENDBRANCH   1   7
TORSDOF 6
ENDMDL
