MODEL 1
REMARK VINA RESULT:    -5.204      0.000      0.000
REMARK INTER + INTRA:         -10.999
REMARK INTER:                 -10.071
REMARK INTRA:                  -0.927
REMARK UNBOUND:                -0.927
REMARK SMILES CCCCCCCCCCCCCCCCCC(=O)[O-]
REMARK SMILES IDX 10 1 11 2 12 3 13 4 14 5 15 6 16 7 17 8 18 9 19 10 20 11
REMARK SMILES IDX 9 12 8 13 7 14 6 15 5 16 4 17 3 18 2 19 1 20
REMARK H PARENT
REMARK Flexibility Score: inf
ROOT
ATOM      1  C   UNL     1      17.315  21.813  34.023  1.00  0.00     0.000 C 
ENDROOT
BRANCH   1   2
ATOM      2  C   UNL     1      15.816  22.145  34.137  1.00  0.00     0.000 C 
BRANCH   2   3
ATOM      3  C   UNL     1      15.031  21.289  35.153  1.00  0.00     0.000 C 
BRANCH   3   4
ATOM      4  C   UNL     1      13.749  20.639  34.604  1.00  0.00     0.000 C 
BRANCH   4   5
ATOM      5  C   UNL     1      12.577  21.629  34.496  1.00  0.00     0.000 C 
BRANCH   5   6
ATOM      6  C   UNL     1      12.537  22.625  35.665  1.00  0.00     0.000 C 
BRANCH   6   7
ATOM      7  C   UNL     1      11.631  22.150  36.814  1.00  0.00     0.006 C 
BRANCH   7   8
ATOM      8  C   UNL     1      12.425  21.860  38.095  1.00  0.00     0.053 C 
BRANCH   8   9
ATOM      9  C   UNL     1      11.743  22.413  39.309  1.00  0.00     0.041 C 
ATOM     10  O   UNL     1      12.421  22.947  40.227  1.00  0.00    -0.550 OA
ATOM     11  O   UNL     1      10.359  22.371  39.411  1.00  0.00    -0.550 OA
ENDBRANCH   8   9
ENDBRANCH   7   8
ENDBRANCH   6   7
ENDBRANCH   5   6
ENDBRANCH   4   5
ENDBRANCH   3   4
ENDBRANCH   2   3
ENDBRANCH   1   2
BRANCH   1  12
ATOM     12  C   UNL     1      17.916  22.005  32.617  1.00  0.00     0.000 C 
BRANCH  12  13
ATOM     13  C   UNL     1      19.436  21.743  32.551  1.00  0.00    -0.000 C 
BRANCH  13  14
ATOM     14  C   UNL     1      19.939  20.892  33.726  1.00  0.00    -0.000 C 
BRANCH  14  15
ATOM     15  C   UNL     1      21.196  21.508  34.353  1.00  0.00    -0.000 C 
BRANCH  15  16
ATOM     16  C   UNL     1      21.106  21.499  35.887  1.00  0.00    -0.000 C 
BRANCH  16  17
ATOM     17  C   UNL     1      22.376  22.045  36.558  1.00  0.00    -0.000 C 
BRANCH  17  18
ATOM     18  C   UNL     1      23.613  21.949  35.651  1.00  0.00    -0.000 C 
BRANCH  18  19
ATOM     19  C   UNL     1      24.903  22.082  36.468  1.00  0.00    -0.003 C 
ATOM     20  C   UNL     1      25.010  20.975  37.514  1.00  0.00     0.004 C 
ENDBRANCH  18  19
ENDBRANCH  17  18
ENDBRANCH  16  17
ENDBRANCH  15  16
ENDBRANCH  14  15
ENDBRANCH  13  14
ENDBRANCH  12  13
ENDBRANCH   1  12
TORSDOF 16
ENDMDL
MODEL 2
REMARK VINA RESULT:    -5.146      9.013     13.675
REMARK INTER + INTRA:         -10.886
REMARK INTER:                  -9.680
REMARK INTRA:                  -1.206
REMARK UNBOUND:                -0.927
REMARK SMILES CCCCCCCCCCCCCCCCCC(=O)[O-]
REMARK SMILES IDX 10 1 11 2 12 3 13 4 14 5 15 6 16 7 17 8 18 9 19 10 20 11
REMARK SMILES IDX 9 12 8 13 7 14 6 15 5 16 4 17 3 18 2 19 1 20
REMARK H PARENT
REMARK Flexibility Score: inf
ROOT
ATOM      1  C   UNL     1      15.489  22.545  46.215  1.00  0.00     0.000 C 
ENDROOT
BRANCH   1   2
ATOM      2  C   UNL     1      16.921  23.112  46.216  1.00  0.00     0.000 C 
BRANCH   2   3
ATOM      3  C   UNL     1      17.505  23.414  47.612  1.00  0.00     0.000 C 
BRANCH   3   4
ATOM      4  C   UNL     1      17.974  22.179  48.402  1.00  0.00     0.000 C 
BRANCH   4   5
ATOM      5  C   UNL     1      19.503  22.020  48.407  1.00  0.00     0.000 C 
BRANCH   5   6
ATOM      6  C   UNL     1      20.237  23.366  48.501  1.00  0.00     0.000 C 
BRANCH   6   7
ATOM      7  C   UNL     1      21.349  23.508  47.446  1.00  0.00     0.006 C 
BRANCH   7   8
ATOM      8  C   UNL     1      21.009  22.770  46.144  1.00  0.00     0.053 C 
BRANCH   8   9
ATOM      9  C   UNL     1      20.593  23.717  45.061  1.00  0.00     0.041 C 
ATOM     10  O   UNL     1      19.907  24.736  45.340  1.00  0.00    -0.550 OA
ATOM     11  O   UNL     1      20.991  23.494  43.749  1.00  0.00    -0.550 OA
ENDBRANCH   8   9
ENDBRANCH   7   8
ENDBRANCH   6   7
ENDBRANCH   5   6
ENDBRANCH   4   5
ENDBRANCH   3   4
ENDBRANCH   2   3
ENDBRANCH   1   2
BRANCH   1  12
ATOM     12  C   UNL     1      14.575  23.093  47.328  1.00  0.00     0.000 C 
BRANCH  12  13
ATOM     13  C   UNL     1      13.075  23.075  46.963  1.00  0.00    -0.000 C 
BRANCH  13  14
ATOM     14  C   UNL     1      12.669  24.265  46.080  1.00  0.00    -0.000 C 
BRANCH  14  15
ATOM     15  C   UNL     1      12.768  23.907  44.593  1.00  0.00    -0.000 C 
BRANCH  15  16
ATOM     16  C   UNL     1      11.958  22.642  44.276  1.00  0.00    -0.000 C 
BRANCH  16  17
ATOM     17  C   UNL     1      10.956  22.851  43.130  1.00  0.00    -0.000 C 
BRANCH  17  18
ATOM     18  C   UNL     1      11.227  21.929  41.931  1.00  0.00    -0.000 C 
BRANCH  18  19
ATOM     19  C   UNL     1      10.045  21.939  40.954  1.00  0.00    -0.003 C 
ATOM     20  C   UNL     1       8.974  22.932  41.395  1.00  0.00     0.004 C 
ENDBRANCH  18  19
ENDBRANCH  17  18
ENDBRANCH  16  17
ENDBRANCH  15  16
ENDBRANCH  14  15
ENDBRANCH  13  14
ENDBRANCH  12  13
ENDBRANCH   1  12
TORSDOF 16
ENDMDL
MODEL 3
REMARK VINA RESULT:    -5.140      8.481     11.050
REMARK INTER + INTRA:         -10.874
REMARK INTER:                  -8.828
REMARK INTRA:                  -2.046
REMARK UNBOUND:                -0.927
REMARK SMILES CCCCCCCCCCCCCCCCCC(=O)[O-]
REMARK SMILES IDX 10 1 11 2 12 3 13 4 14 5 15 6 16 7 17 8 18 9 19 10 20 11
REMARK SMILES IDX 9 12 8 13 7 14 6 15 5 16 4 17 3 18 2 19 1 20
REMARK H PARENT
REMARK Flexibility Score: inf
ROOT
ATOM      1  C   UNL     1      16.770  23.316  46.429  1.00  0.00     0.000 C 
ENDROOT
BRANCH   1   2
ATOM      2  C   UNL     1      15.396  22.621  46.453  1.00  0.00     0.000 C 
BRANCH   2   3
ATOM      3  C   UNL     1      14.484  23.013  47.634  1.00  0.00     0.000 C 
BRANCH   3   4
ATOM      4  C   UNL     1      12.990  23.137  47.289  1.00  0.00     0.000 C 
BRANCH   4   5
ATOM      5  C   UNL     1      12.662  24.422  46.511  1.00  0.00     0.000 C 
BRANCH   5   6
ATOM      6  C   UNL     1      12.292  24.147  45.046  1.00  0.00     0.000 C 
BRANCH   6   7
ATOM      7  C   UNL     1      12.090  22.648  44.760  1.00  0.00     0.006 C 
BRANCH   7   8
ATOM      8  C   UNL     1      12.281  22.311  43.275  1.00  0.00     0.053 C 
BRANCH   8   9
ATOM      9  C   UNL     1      11.234  22.955  42.419  1.00  0.00     0.041 C 
ATOM     10  O   UNL     1      10.018  22.868  42.735  1.00  0.00    -0.550 OA
ATOM     11  O   UNL     1      11.603  23.680  41.294  1.00  0.00    -0.550 OA
ENDBRANCH   8   9
ENDBRANCH   7   8
ENDBRANCH   6   7
ENDBRANCH   5   6
ENDBRANCH   4   5
ENDBRANCH   3   4
ENDBRANCH   2   3
ENDBRANCH   1   2
BRANCH   1  12
ATOM     12  C   UNL     1      17.457  23.442  47.801  1.00  0.00     0.000 C 
BRANCH  12  13
ATOM     13  C   UNL     1      18.123  22.136  48.285  1.00  0.00    -0.000 C 
BRANCH  13  14
ATOM     14  C   UNL     1      19.543  22.363  48.823  1.00  0.00    -0.000 C 
BRANCH  14  15
ATOM     15  C   UNL     1      20.102  23.711  48.352  1.00  0.00    -0.000 C 
BRANCH  15  16
ATOM     16  C   UNL     1      21.541  23.560  47.835  1.00  0.00    -0.000 C 
BRANCH  16  17
ATOM     17  C   UNL     1      21.599  23.143  46.358  1.00  0.00    -0.000 C 
BRANCH  17  18
ATOM     18  C   UNL     1      20.444  23.730  45.531  1.00  0.00    -0.000 C 
BRANCH  18  19
ATOM     19  C   UNL     1      19.977  22.736  44.461  1.00  0.00    -0.003 C 
ATOM     20  C   UNL     1      19.710  21.360  45.064  1.00  0.00     0.004 C 
ENDBRANCH  18  19
ENDBRANCH  17  18
ENDBRANCH  16  17
ENDBRANCH  15  16
ENDBRANCH  14  15
ENDBRANCH  13  14
ENDBRANCH  12  13
ENDBRANCH   1  12
TORSDOF 16
ENDMDL
MODEL 4
REMARK VINA RESULT:    -5.126      7.467     10.562
REMARK INTER + INTRA:         -10.847
REMARK INTER:                  -9.941
REMARK INTRA:                  -0.906
REMARK UNBOUND:                -0.927
REMARK SMILES CCCCCCCCCCCCCCCCCC(=O)[O-]
REMARK SMILES IDX 10 1 11 2 12 3 13 4 14 5 15 6 16 7 17 8 18 9 19 10 20 11
REMARK SMILES IDX 9 12 8 13 7 14 6 15 5 16 4 17 3 18 2 19 1 20
REMARK H PARENT
REMARK Flexibility Score: inf
ROOT
ATOM      1  C   UNL     1      12.363  22.410  44.838  1.00  0.00     0.000 C 
ENDROOT
BRANCH   1   2
ATOM      2  C   UNL     1      12.356  22.227  43.309  1.00  0.00     0.000 C 
BRANCH   2   3
ATOM      3  C   UNL     1      11.470  23.225  42.535  1.00  0.00     0.000 C 
BRANCH   3   4
ATOM      4  C   UNL     1       9.963  22.915  42.564  1.00  0.00     0.000 C 
BRANCH   4   5
ATOM      5  C   UNL     1       9.402  22.551  41.179  1.00  0.00     0.000 C 
BRANCH   5   6
ATOM      6  C   UNL     1       9.802  21.136  40.734  1.00  0.00     0.000 C 
BRANCH   6   7
ATOM      7  C   UNL     1      10.286  21.092  39.273  1.00  0.00     0.006 C 
BRANCH   7   8
ATOM      8  C   UNL     1      10.958  22.404  38.846  1.00  0.00     0.053 C 
BRANCH   8   9
ATOM      9  C   UNL     1      11.997  22.178  37.792  1.00  0.00     0.041 C 
ATOM     10  O   UNL     1      13.147  21.774  38.112  1.00  0.00    -0.550 OA
ATOM     11  O   UNL     1      11.686  22.379  36.453  1.00  0.00    -0.550 OA
ENDBRANCH   8   9
ENDBRANCH   7   8
ENDBRANCH   6   7
ENDBRANCH   5   6
ENDBRANCH   4   5
ENDBRANCH   3   4
ENDBRANCH   2   3
ENDBRANCH   1   2
BRANCH   1  12
ATOM     12  C   UNL     1      12.737  23.824  45.320  1.00  0.00     0.000 C 
BRANCH  12  13
ATOM     13  C   UNL     1      12.672  23.994  46.854  1.00  0.00    -0.000 C 
BRANCH  13  14
ATOM     14  C   UNL     1      13.681  23.100  47.589  1.00  0.00    -0.000 C 
BRANCH  14  15
ATOM     15  C   UNL     1      15.068  23.185  46.941  1.00  0.00    -0.000 C 
BRANCH  15  16
ATOM     16  C   UNL     1      16.170  23.262  48.008  1.00  0.00    -0.000 C 
BRANCH  16  17
ATOM     17  C   UNL     1      17.578  23.358  47.400  1.00  0.00    -0.000 C 
BRANCH  17  18
ATOM     18  C   UNL     1      18.475  22.175  47.795  1.00  0.00    -0.000 C 
BRANCH  18  19
ATOM     19  C   UNL     1      19.567  22.619  48.776  1.00  0.00    -0.003 C 
ATOM     20  C   UNL     1      19.734  24.136  48.765  1.00  0.00     0.004 C 
ENDBRANCH  18  19
ENDBRANCH  17  18
ENDBRANCH  16  17
ENDBRANCH  15  16
ENDBRANCH  14  15
ENDBRANCH  13  14
ENDBRANCH  12  13
ENDBRANCH   1  12
TORSDOF 16
ENDMDL
MODEL 5
REMARK VINA RESULT:    -5.079      8.197     10.582
REMARK INTER + INTRA:         -10.757
REMARK INTER:                  -9.551
REMARK INTRA:                  -1.206
REMARK UNBOUND:                -0.927
REMARK SMILES CCCCCCCCCCCCCCCCCC(=O)[O-]
REMARK SMILES IDX 10 1 11 2 12 3 13 4 14 5 15 6 16 7 17 8 18 9 19 10 20 11
REMARK SMILES IDX 9 12 8 13 7 14 6 15 5 16 4 17 3 18 2 19 1 20
REMARK H PARENT
REMARK Flexibility Score: inf
ROOT
ATOM      1  C   UNL     1      12.747  24.021  46.611  1.00  0.00     0.000 C 
ENDROOT
BRANCH   1   2
ATOM      2  C   UNL     1      12.172  23.863  45.191  1.00  0.00     0.000 C 
BRANCH   2   3
ATOM      3  C   UNL     1      12.867  22.798  44.318  1.00  0.00     0.000 C 
BRANCH   3   4
ATOM      4  C   UNL     1      12.031  22.280  43.135  1.00  0.00     0.000 C 
BRANCH   4   5
ATOM      5  C   UNL     1      10.667  22.980  43.016  1.00  0.00     0.000 C 
BRANCH   5   6
ATOM      6  C   UNL     1      10.287  23.289  41.560  1.00  0.00     0.000 C 
BRANCH   6   7
ATOM      7  C   UNL     1       9.304  22.260  40.975  1.00  0.00     0.006 C 
BRANCH   7   8
ATOM      8  C   UNL     1      10.019  21.004  40.459  1.00  0.00     0.053 C 
BRANCH   8   9
ATOM      9  C   UNL     1      11.112  21.344  39.493  1.00  0.00     0.041 C 
ATOM     10  O   UNL     1      12.312  21.094  39.783  1.00  0.00    -0.550 OA
ATOM     11  O   UNL     1      10.803  21.903  38.260  1.00  0.00    -0.550 OA
ENDBRANCH   8   9
ENDBRANCH   7   8
ENDBRANCH   6   7
ENDBRANCH   5   6
ENDBRANCH   4   5
ENDBRANCH   3   4
ENDBRANCH   2   3
ENDBRANCH   1   2
BRANCH   1  12
ATOM     12  C   UNL     1      13.556  22.813  47.121  1.00  0.00     0.000 C 
BRANCH  12  13
ATOM     13  C   UNL     1      14.992  23.170  47.561  1.00  0.00    -0.000 C 
BRANCH  13  14
ATOM     14  C   UNL     1      15.920  23.454  46.371  1.00  0.00    -0.000 C 
BRANCH  14  15
ATOM     15  C   UNL     1      17.367  23.059  46.693  1.00  0.00    -0.000 C 
BRANCH  15  16
ATOM     16  C   UNL     1      17.458  22.378  48.066  1.00  0.00    -0.000 C 
BRANCH  16  17
ATOM     17  C   UNL     1      18.902  22.025  48.458  1.00  0.00    -0.000 C 
BRANCH  17  18
ATOM     18  C   UNL     1      19.871  22.092  47.267  1.00  0.00    -0.000 C 
BRANCH  18  19
ATOM     19  C   UNL     1      20.973  23.128  47.516  1.00  0.00    -0.003 C 
ATOM     20  C   UNL     1      20.903  23.677  48.939  1.00  0.00     0.004 C 
ENDBRANCH  18  19
ENDBRANCH  17  18
ENDBRANCH  16  17
ENDBRANCH  15  16
ENDBRANCH  14  15
ENDBRANCH  13  14
ENDBRANCH  12  13
ENDBRANCH   1  12
TORSDOF 16
ENDMDL
MODEL 6
REMARK VINA RESULT:    -5.063      3.750      9.346
REMARK INTER + INTRA:         -10.727
REMARK INTER:                  -9.702
REMARK INTRA:                  -1.025
REMARK UNBOUND:                -0.927
REMARK SMILES CCCCCCCCCCCCCCCCCC(=O)[O-]
REMARK SMILES IDX 10 1 11 2 12 3 13 4 14 5 15 6 16 7 17 8 18 9 19 10 20 11
REMARK SMILES IDX 9 12 8 13 7 14 6 15 5 16 4 17 3 18 2 19 1 20
REMARK H PARENT
REMARK Flexibility Score: inf
ROOT
ATOM      1  C   UNL     1      20.261  20.652  33.787  1.00  0.00     0.000 C 
ENDROOT
BRANCH   1   2
ATOM      2  C   UNL     1      20.762  21.604  34.890  1.00  0.00     0.000 C 
BRANCH   2   3
ATOM      3  C   UNL     1      22.288  21.832  34.915  1.00  0.00     0.000 C 
BRANCH   3   4
ATOM      4  C   UNL     1      22.926  21.803  36.315  1.00  0.00     0.000 C 
BRANCH   4   5
ATOM      5  C   UNL     1      24.419  22.172  36.297  1.00  0.00     0.000 C 
BRANCH   5   6
ATOM      6  C   UNL     1      24.918  22.680  37.659  1.00  0.00     0.000 C 
BRANCH   6   7
ATOM      7  C   UNL     1      24.777  21.624  38.770  1.00  0.00     0.006 C 
BRANCH   7   8
ATOM      8  C   UNL     1      24.519  22.260  40.143  1.00  0.00     0.053 C 
BRANCH   8   9
ATOM      9  C   UNL     1      23.144  21.951  40.649  1.00  0.00     0.041 C 
ATOM     10  O   UNL     1      22.158  21.989  39.866  1.00  0.00    -0.550 OA
ATOM     11  O   UNL     1      22.956  21.588  41.977  1.00  0.00    -0.550 OA
ENDBRANCH   8   9
ENDBRANCH   7   8
ENDBRANCH   6   7
ENDBRANCH   5   6
ENDBRANCH   4   5
ENDBRANCH   3   4
ENDBRANCH   2   3
ENDBRANCH   1   2
BRANCH   1  12
ATOM     12  C   UNL     1      19.499  21.337  32.637  1.00  0.00     0.000 C 
BRANCH  12  13
ATOM     13  C   UNL     1      18.496  22.412  33.110  1.00  0.00    -0.000 C 
BRANCH  13  14
ATOM     14  C   UNL     1      17.086  21.846  33.331  1.00  0.00    -0.000 C 
BRANCH  14  15
ATOM     15  C   UNL     1      16.443  22.442  34.589  1.00  0.00    -0.000 C 
BRANCH  15  16
ATOM     16  C   UNL     1      16.021  21.336  35.568  1.00  0.00    -0.000 C 
BRANCH  16  17
ATOM     17  C   UNL     1      14.534  21.416  35.946  1.00  0.00    -0.000 C 
BRANCH  17  18
ATOM     18  C   UNL     1      13.642  20.575  35.019  1.00  0.00    -0.000 C 
BRANCH  18  19
ATOM     19  C   UNL     1      12.499  21.421  34.445  1.00  0.00    -0.003 C 
ATOM     20  C   UNL     1      12.757  22.910  34.654  1.00  0.00     0.004 C 
ENDBRANCH  18  19
ENDBRANCH  17  18
ENDBRANCH  16  17
ENDBRANCH  15  16
ENDBRANCH  14  15
ENDBRANCH  13  14
ENDBRANCH  12  13
ENDBRANCH   1  12
TORSDOF 16
ENDMDL
MODEL 7
REMARK VINA RESULT:    -5.055      7.836     13.250
REMARK INTER + INTRA:         -10.711
REMARK INTER:                  -9.995
REMARK INTRA:                  -0.716
REMARK UNBOUND:                -0.927
REMARK SMILES CCCCCCCCCCCCCCCCCC(=O)[O-]
REMARK SMILES IDX 10 1 11 2 12 3 13 4 14 5 15 6 16 7 17 8 18 9 19 10 20 11
REMARK SMILES IDX 9 12 8 13 7 14 6 15 5 16 4 17 3 18 2 19 1 20
REMARK H PARENT
REMARK Flexibility Score: inf
ROOT
ATOM      1  C   UNL     1      13.205  22.015  46.752  1.00  0.00     0.000 C 
ENDROOT
BRANCH   1   2
ATOM      2  C   UNL     1      14.161  23.048  47.376  1.00  0.00     0.000 C 
BRANCH   2   3
ATOM      3  C   UNL     1      15.612  22.997  46.853  1.00  0.00     0.000 C 
BRANCH   3   4
ATOM      4  C   UNL     1      16.698  23.038  47.942  1.00  0.00     0.000 C 
BRANCH   4   5
ATOM      5  C   UNL     1      18.068  22.556  47.437  1.00  0.00     0.000 C 
BRANCH   5   6
ATOM      6  C   UNL     1      19.167  22.678  48.505  1.00  0.00     0.000 C 
BRANCH   6   7
ATOM      7  C   UNL     1      20.116  23.861  48.243  1.00  0.00     0.006 C 
BRANCH   7   8
ATOM      8  C   UNL     1      21.399  23.425  47.524  1.00  0.00     0.053 C 
BRANCH   8   9
ATOM      9  C   UNL     1      21.216  23.380  46.038  1.00  0.00     0.041 C 
ATOM     10  O   UNL     1      21.715  22.436  45.368  1.00  0.00    -0.550 OA
ATOM     11  O   UNL     1      20.466  24.357  45.398  1.00  0.00    -0.550 OA
ENDBRANCH   8   9
ENDBRANCH   7   8
ENDBRANCH   6   7
ENDBRANCH   5   6
ENDBRANCH   4   5
ENDBRANCH   3   4
ENDBRANCH   2   3
ENDBRANCH   1   2
BRANCH   1  12
ATOM     12  C   UNL     1      12.331  22.551  45.603  1.00  0.00     0.000 C 
BRANCH  12  13
ATOM     13  C   UNL     1      12.902  22.256  44.198  1.00  0.00    -0.000 C 
BRANCH  13  14
ATOM     14  C   UNL     1      12.166  23.023  43.090  1.00  0.00    -0.000 C 
BRANCH  14  15
ATOM     15  C   UNL     1      10.690  22.613  43.022  1.00  0.00    -0.000 C 
BRANCH  15  16
ATOM     16  C   UNL     1      10.016  23.186  41.767  1.00  0.00    -0.000 C 
BRANCH  16  17
ATOM     17  C   UNL     1       9.350  22.103  40.905  1.00  0.00    -0.000 C 
BRANCH  17  18
ATOM     18  C   UNL     1      10.310  21.495  39.870  1.00  0.00    -0.000 C 
BRANCH  18  19
ATOM     19  C   UNL     1      10.887  22.581  38.955  1.00  0.00    -0.003 C 
ATOM     20  C   UNL     1      11.625  21.967  37.768  1.00  0.00     0.004 C 
ENDBRANCH  18  19
ENDBRANCH  17  18
ENDBRANCH  16  17
ENDBRANCH  15  16
ENDBRANCH  14  15
ENDBRANCH  13  14
ENDBRANCH  12  13
ENDBRANCH   1  12
TORSDOF 16
ENDMDL
MODEL 8
REMARK VINA RESULT:    -5.036      6.475     10.365
REMARK INTER + INTRA:         -10.675
REMARK INTER:                  -9.963
REMARK INTRA:                  -0.711
REMARK UNBOUND:                -0.927
REMARK SMILES CCCCCCCCCCCCCCCCCC(=O)[O-]
REMARK SMILES IDX 10 1 11 2 12 3 13 4 14 5 15 6 16 7 17 8 18 9 19 10 20 11
REMARK SMILES IDX 9 12 8 13 7 14 6 15 5 16 4 17 3 18 2 19 1 20
REMARK H PARENT
REMARK Flexibility Score: inf
ROOT
ATOM      1  C   UNL     1      11.271  22.563  42.799  1.00  0.00     0.000 C 
ENDROOT
BRANCH   1   2
ATOM      2  C   UNL     1       9.817  22.971  42.497  1.00  0.00     0.000 C 
BRANCH   2   3
ATOM      3  C   UNL     1       9.305  22.580  41.095  1.00  0.00     0.000 C 
BRANCH   3   4
ATOM      4  C   UNL     1      10.260  21.694  40.277  1.00  0.00     0.000 C 
BRANCH   4   5
ATOM      5  C   UNL     1      10.558  22.268  38.882  1.00  0.00     0.000 C 
BRANCH   5   6
ATOM      6  C   UNL     1      11.954  21.880  38.371  1.00  0.00     0.000 C 
BRANCH   6   7
ATOM      7  C   UNL     1      12.285  22.523  37.012  1.00  0.00     0.006 C 
BRANCH   7   8
ATOM      8  C   UNL     1      13.274  21.678  36.197  1.00  0.00     0.053 C 
BRANCH   8   9
ATOM      9  C   UNL     1      12.701  21.273  34.874  1.00  0.00     0.041 C 
ATOM     10  O   UNL     1      12.897  20.111  34.429  1.00  0.00    -0.550 OA
ATOM     11  O   UNL     1      11.923  22.166  34.149  1.00  0.00    -0.550 OA
ENDBRANCH   8   9
ENDBRANCH   7   8
ENDBRANCH   6   7
ENDBRANCH   5   6
ENDBRANCH   4   5
ENDBRANCH   3   4
ENDBRANCH   2   3
ENDBRANCH   1   2
BRANCH   1  12
ATOM     12  C   UNL     1      11.901  23.264  44.018  1.00  0.00     0.000 C 
BRANCH  12  13
ATOM     13  C   UNL     1      12.962  22.410  44.745  1.00  0.00    -0.000 C 
BRANCH  13  14
ATOM     14  C   UNL     1      12.452  21.848  46.080  1.00  0.00    -0.000 C 
BRANCH  14  15
ATOM     15  C   UNL     1      12.815  22.778  47.245  1.00  0.00    -0.000 C 
BRANCH  15  16
ATOM     16  C   UNL     1      14.057  23.617  46.912  1.00  0.00    -0.000 C 
BRANCH  16  17
ATOM     17  C   UNL     1      15.265  23.261  47.792  1.00  0.00    -0.000 C 
BRANCH  17  18
ATOM     18  C   UNL     1      16.536  22.992  46.971  1.00  0.00    -0.000 C 
BRANCH  18  19
ATOM     19  C   UNL     1      17.758  22.848  47.886  1.00  0.00    -0.003 C 
ATOM     20  C   UNL     1      18.562  24.144  47.941  1.00  0.00     0.004 C 
ENDBRANCH  18  19
ENDBRANCH  17  18
ENDBRANCH  16  17
ENDBRANCH  15  16
ENDBRANCH  14  15
ENDBRANCH  13  14
ENDBRANCH  12  13
ENDBRANCH   1  12
TORSDOF 16
ENDMDL
MODEL 9
REMARK VINA RESULT:    -5.015      8.969     13.456
REMARK INTER + INTRA:         -10.633
REMARK INTER:                  -8.340
REMARK INTRA:                  -2.293
REMARK UNBOUND:                -0.927
REMARK SMILES CCCCCCCCCCCCCCCCCC(=O)[O-]
REMARK SMILES IDX 10 1 11 2 12 3 13 4 14 5 15 6 16 7 17 8 18 9 19 10 20 11
REMARK SMILES IDX 9 12 8 13 7 14 6 15 5 16 4 17 3 18 2 19 1 20
REMARK H PARENT
REMARK Flexibility Score: inf
ROOT
ATOM      1  C   UNL     1      16.754  23.388  46.451  1.00  0.00     0.000 C 
ENDROOT
BRANCH   1   2
ATOM      2  C   UNL     1      17.675  23.547  47.675  1.00  0.00     0.000 C 
BRANCH   2   3
ATOM      3  C   UNL     1      18.179  22.226  48.292  1.00  0.00     0.000 C 
BRANCH   3   4
ATOM      4  C   UNL     1      19.591  22.287  48.898  1.00  0.00     0.000 C 
BRANCH   4   5
ATOM      5  C   UNL     1      20.323  23.601  48.573  1.00  0.00     0.000 C 
BRANCH   5   6
ATOM      6  C   UNL     1      21.455  23.408  47.553  1.00  0.00     0.000 C 
BRANCH   6   7
ATOM      7  C   UNL     1      21.014  23.729  46.114  1.00  0.00     0.006 C 
BRANCH   7   8
ATOM      8  C   UNL     1      20.584  22.472  45.345  1.00  0.00     0.053 C 
BRANCH   8   9
ATOM      9  C   UNL     1      20.211  22.786  43.930  1.00  0.00     0.041 C 
ATOM     10  O   UNL     1      19.158  23.432  43.682  1.00  0.00    -0.550 OA
ATOM     11  O   UNL     1      21.042  22.397  42.887  1.00  0.00    -0.550 OA
ENDBRANCH   8   9
ENDBRANCH   7   8
ENDBRANCH   6   7
ENDBRANCH   5   6
ENDBRANCH   4   5
ENDBRANCH   3   4
ENDBRANCH   2   3
ENDBRANCH   1   2
BRANCH   1  12
ATOM     12  C   UNL     1      15.448  22.616  46.718  1.00  0.00     0.000 C 
BRANCH  12  13
ATOM     13  C   UNL     1      14.505  23.318  47.718  1.00  0.00    -0.000 C 
BRANCH  13  14
ATOM     14  C   UNL     1      13.024  23.038  47.428  1.00  0.00    -0.000 C 
BRANCH  14  15
ATOM     15  C   UNL     1      12.861  21.799  46.539  1.00  0.00    -0.000 C 
BRANCH  15  16
ATOM     16  C   UNL     1      12.014  22.120  45.299  1.00  0.00    -0.000 C 
BRANCH  16  17
ATOM     17  C   UNL     1      12.366  23.479  44.675  1.00  0.00    -0.000 C 
BRANCH  17  18
ATOM     18  C   UNL     1      13.499  23.381  43.642  1.00  0.00    -0.000 C 
BRANCH  18  19
ATOM     19  C   UNL     1      14.379  24.635  43.673  1.00  0.00    -0.003 C 
ATOM     20  C   UNL     1      13.960  25.576  44.800  1.00  0.00     0.004 C 
ENDBRANCH  18  19
ENDBRANCH  17  18
ENDBRANCH  16  17
ENDBRANCH  15  16
ENDBRANCH  14  15
ENDBRANCH  13  14
ENDBRANCH  12  13
ENDBRANCH   1  12
TORSDOF 16
ENDMDL
