MODEL 1
REMARK VINA RESULT:    -4.041      0.000      0.000
REMARK INTER + INTRA:          -5.904
REMARK INTER:                  -4.986
REMARK INTRA:                  -0.918
REMARK UNBOUND:                -0.918
REMARK SMILES CC(C)=CCC[C@H](C)c1ccc(C)cc1
REMARK SMILES IDX 6 1 7 2 8 3 9 4 13 5 12 6 11 7 14 8 10 9 15 10 5 11 4 12
REMARK SMILES IDX 2 13 1 14 3 15
REMARK H PARENT
REMARK Flexibility Score: inf
ROOT
ATOM      1  C   UNL     1      -6.637   0.706  13.715  1.00  0.00     0.012 C 
ENDROOT
BRANCH   1   2
ATOM      2  C   UNL     1      -6.212   1.346  15.059  1.00  0.00     0.016 C 
ATOM      3  C   UNL     1      -7.300   2.258  15.648  1.00  0.00     0.013 C 
BRANCH   2   4
ATOM      4  C   UNL     1      -4.915   2.116  14.883  1.00  0.00    -0.045 A 
ATOM      5  C   UNL     1      -1.192   4.247  14.378  1.00  0.00     0.044 C 
ATOM      6  C   UNL     1      -2.495   3.529  14.570  1.00  0.00    -0.051 A 
ATOM      7  C   UNL     1      -3.550   3.727  13.669  1.00  0.00     0.004 A 
ATOM      8  C   UNL     1      -2.644   2.604  15.613  1.00  0.00     0.004 A 
ATOM      9  C   UNL     1      -4.752   3.031  13.825  1.00  0.00     0.004 A 
ATOM     10  C   UNL     1      -3.845   1.907  15.771  1.00  0.00     0.004 A 
ENDBRANCH   2   4
ENDBRANCH   1   2
BRANCH   1  11
ATOM     11  C   UNL     1      -8.140   0.852  13.403  1.00  0.00     0.028 C 
BRANCH  11  12
ATOM     12  C   UNL     1      -8.396   1.185  11.952  1.00  0.00    -0.028 C 
ATOM     13  C   UNL     1      -8.527   2.441  11.468  1.00  0.00    -0.080 C 
ATOM     14  C   UNL     1      -8.798   2.616   9.996  1.00  0.00     0.039 C 
ATOM     15  C   UNL     1      -8.377   3.661  12.346  1.00  0.00     0.039 C 
ENDBRANCH  11  12
ENDBRANCH   1  11
TORSDOF 4
ENDMDL
MODEL 2
REMARK VINA RESULT:    -4.015      1.822      3.349
REMARK INTER + INTRA:          -5.871
REMARK INTER:                  -5.169
REMARK INTRA:                  -0.702
REMARK UNBOUND:                -0.918
REMARK SMILES CC(C)=CCC[C@H](C)c1ccc(C)cc1
REMARK SMILES IDX 6 1 7 2 8 3 9 4 13 5 12 6 11 7 14 8 10 9 15 10 5 11 4 12
REMARK SMILES IDX 2 13 1 14 3 15
REMARK H PARENT
REMARK Flexibility Score: inf
ROOT
ATOM      1  C   UNL     1      -6.377   1.617  13.473  1.00  0.00     0.012 C 
ENDROOT
BRANCH   1   2
ATOM      2  C   UNL     1      -5.944   2.056  14.892  1.00  0.00     0.016 C 
ATOM      3  C   UNL     1      -6.868   3.130  15.487  1.00  0.00     0.013 C 
BRANCH   2   4
ATOM      4  C   UNL     1      -4.506   2.548  14.870  1.00  0.00    -0.045 A 
ATOM      5  C   UNL     1      -0.399   3.882  14.804  1.00  0.00     0.044 C 
ATOM      6  C   UNL     1      -1.832   3.442  14.844  1.00  0.00    -0.051 A 
ATOM      7  C   UNL     1      -2.726   3.856  13.846  1.00  0.00     0.004 A 
ATOM      8  C   UNL     1      -2.273   2.559  15.839  1.00  0.00     0.004 A 
ATOM      9  C   UNL     1      -4.053   3.418  13.861  1.00  0.00     0.004 A 
ATOM     10  C   UNL     1      -3.600   2.120  15.856  1.00  0.00     0.004 A 
ENDBRANCH   2   4
ENDBRANCH   1   2
BRANCH   1  11
ATOM     11  C   UNL     1      -6.974   0.197  13.415  1.00  0.00     0.028 C 
BRANCH  11  12
ATOM     12  C   UNL     1      -6.593  -0.636  14.616  1.00  0.00    -0.028 C 
ATOM     13  C   UNL     1      -6.780  -1.972  14.710  1.00  0.00    -0.080 C 
ATOM     14  C   UNL     1      -6.364  -2.666  15.981  1.00  0.00     0.039 C 
ATOM     15  C   UNL     1      -7.358  -2.785  13.574  1.00  0.00     0.039 C 
ENDBRANCH  11  12
ENDBRANCH   1  11
TORSDOF 4
ENDMDL
MODEL 3
REMARK VINA RESULT:    -3.984      2.153      3.585
REMARK INTER + INTRA:          -5.833
REMARK INTER:                  -5.155
REMARK INTRA:                  -0.678
REMARK UNBOUND:                -0.918
REMARK SMILES CC(C)=CCC[C@H](C)c1ccc(C)cc1
REMARK SMILES IDX 6 1 7 2 8 3 9 4 13 5 12 6 11 7 14 8 10 9 15 10 5 11 4 12
REMARK SMILES IDX 2 13 1 14 3 15
REMARK H PARENT
REMARK Flexibility Score: inf
ROOT
ATOM      1  C   UNL     1      -4.845   1.139  15.849  1.00  0.00     0.012 C 
ENDROOT
BRANCH   1   2
ATOM      2  C   UNL     1      -4.832   2.520  15.150  1.00  0.00     0.016 C 
ATOM      3  C   UNL     1      -5.620   2.522  13.831  1.00  0.00     0.013 C 
BRANCH   2   4
ATOM      4  C   UNL     1      -3.401   2.971  14.912  1.00  0.00    -0.045 A 
ATOM      5  C   UNL     1       0.648   4.315  14.236  1.00  0.00     0.044 C 
ATOM      6  C   UNL     1      -0.752   3.823  14.455  1.00  0.00    -0.051 A 
ATOM      7  C   UNL     1      -1.063   3.062  15.590  1.00  0.00     0.004 A 
ATOM      8  C   UNL     1      -1.773   4.179  13.563  1.00  0.00     0.004 A 
ATOM      9  C   UNL     1      -2.375   2.634  15.815  1.00  0.00     0.004 A 
ATOM     10  C   UNL     1      -3.085   3.752  13.786  1.00  0.00     0.004 A 
ENDBRANCH   2   4
ENDBRANCH   1   2
BRANCH   1  11
ATOM     11  C   UNL     1      -6.244   0.494  15.926  1.00  0.00     0.028 C 
BRANCH  11  12
ATOM     12  C   UNL     1      -6.231  -0.959  15.514  1.00  0.00    -0.028 C 
ATOM     13  C   UNL     1      -6.854  -1.448  14.418  1.00  0.00    -0.080 C 
ATOM     14  C   UNL     1      -6.766  -2.927  14.145  1.00  0.00     0.039 C 
ATOM     15  C   UNL     1      -7.600  -0.557  13.453  1.00  0.00     0.039 C 
ENDBRANCH  11  12
ENDBRANCH   1  11
TORSDOF 4
ENDMDL
MODEL 4
REMARK VINA RESULT:    -3.970      1.924      3.278
REMARK INTER + INTRA:          -5.816
REMARK INTER:                  -5.137
REMARK INTRA:                  -0.678
REMARK UNBOUND:                -0.918
REMARK SMILES CC(C)=CCC[C@H](C)c1ccc(C)cc1
REMARK SMILES IDX 6 1 7 2 8 3 9 4 13 5 12 6 11 7 14 8 10 9 15 10 5 11 4 12
REMARK SMILES IDX 2 13 1 14 3 15
REMARK H PARENT
REMARK Flexibility Score: inf
ROOT
ATOM      1  C   UNL     1      -5.773   0.377  15.662  1.00  0.00     0.012 C 
ENDROOT
BRANCH   1   2
ATOM      2  C   UNL     1      -5.894   1.713  14.888  1.00  0.00     0.016 C 
ATOM      3  C   UNL     1      -6.497   1.531  13.487  1.00  0.00     0.013 C 
BRANCH   2   4
ATOM      4  C   UNL     1      -4.535   2.387  14.797  1.00  0.00    -0.045 A 
ATOM      5  C   UNL     1      -0.645   4.245  14.532  1.00  0.00     0.044 C 
ATOM      6  C   UNL     1      -2.005   3.622  14.641  1.00  0.00    -0.051 A 
ATOM      7  C   UNL     1      -2.995   3.917  13.693  1.00  0.00     0.004 A 
ATOM      8  C   UNL     1      -2.275   2.688  15.651  1.00  0.00     0.004 A 
ATOM      9  C   UNL     1      -4.252   3.310  13.772  1.00  0.00     0.004 A 
ATOM     10  C   UNL     1      -3.531   2.079  15.731  1.00  0.00     0.004 A 
ENDBRANCH   2   4
ENDBRANCH   1   2
BRANCH   1  11
ATOM     11  C   UNL     1      -7.036  -0.504  15.584  1.00  0.00     0.028 C 
BRANCH  11  12
ATOM     12  C   UNL     1      -6.746  -1.877  15.026  1.00  0.00    -0.028 C 
ATOM     13  C   UNL     1      -7.437  -2.453  14.016  1.00  0.00    -0.080 C 
ATOM     14  C   UNL     1      -7.042  -3.840  13.578  1.00  0.00     0.039 C 
ATOM     15  C   UNL     1      -8.561  -1.740  13.301  1.00  0.00     0.039 C 
ENDBRANCH  11  12
ENDBRANCH   1  11
TORSDOF 4
ENDMDL
MODEL 5
REMARK VINA RESULT:    -3.958      5.026      9.971
REMARK INTER + INTRA:          -5.801
REMARK INTER:                  -5.260
REMARK INTRA:                  -0.542
REMARK UNBOUND:                -0.918
REMARK SMILES CC(C)=CCC[C@H](C)c1ccc(C)cc1
REMARK SMILES IDX 6 1 7 2 8 3 9 4 13 5 12 6 11 7 14 8 10 9 15 10 5 11 4 12
REMARK SMILES IDX 2 13 1 14 3 15
REMARK H PARENT
REMARK Flexibility Score: inf
ROOT
ATOM      1  C   UNL     1     -11.549   2.089   7.332  1.00  0.00     0.012 C 
ENDROOT
BRANCH   1   2
ATOM      2  C   UNL     1     -10.977   1.895   5.906  1.00  0.00     0.016 C 
ATOM      3  C   UNL     1     -11.928   2.408   4.814  1.00  0.00     0.013 C 
BRANCH   2   4
ATOM      4  C   UNL     1     -10.644   0.431   5.673  1.00  0.00    -0.045 A 
ATOM      5  C   UNL     1      -9.745  -3.734   4.964  1.00  0.00     0.044 C 
ATOM      6  C   UNL     1     -10.048  -2.291   5.239  1.00  0.00    -0.051 A 
ATOM      7  C   UNL     1      -9.068  -1.311   5.031  1.00  0.00     0.004 A 
ATOM      8  C   UNL     1     -11.335  -1.903   5.638  1.00  0.00     0.004 A 
ATOM      9  C   UNL     1      -9.360   0.039   5.251  1.00  0.00     0.004 A 
ATOM     10  C   UNL     1     -11.629  -0.555   5.859  1.00  0.00     0.004 A 
ENDBRANCH   2   4
ENDBRANCH   1   2
BRANCH   1  11
ATOM     11  C   UNL     1     -10.745   3.082   8.195  1.00  0.00     0.028 C 
BRANCH  11  12
ATOM     12  C   UNL     1     -10.102   2.417   9.389  1.00  0.00    -0.028 C 
ATOM     13  C   UNL     1      -9.159   2.993  10.169  1.00  0.00    -0.080 C 
ATOM     14  C   UNL     1      -8.596   2.196  11.318  1.00  0.00     0.039 C 
ATOM     15  C   UNL     1      -8.684   4.409   9.943  1.00  0.00     0.039 C 
ENDBRANCH  11  12
ENDBRANCH   1  11
TORSDOF 4
ENDMDL
MODEL 6
REMARK VINA RESULT:    -3.956      7.406     11.156
REMARK INTER + INTRA:          -5.799
REMARK INTER:                  -5.045
REMARK INTRA:                  -0.754
REMARK UNBOUND:                -0.918
REMARK SMILES CC(C)=CCC[C@H](C)c1ccc(C)cc1
REMARK SMILES IDX 6 1 7 2 8 3 9 4 13 5 12 6 11 7 14 8 10 9 15 10 5 11 4 12
REMARK SMILES IDX 2 13 1 14 3 15
REMARK H PARENT
REMARK Flexibility Score: inf
ROOT
ATOM      1  C   UNL     1     -10.867   0.477   4.510  1.00  0.00     0.012 C 
ENDROOT
BRANCH   1   2
ATOM      2  C   UNL     1      -9.845  -0.384   5.292  1.00  0.00     0.016 C 
ATOM      3  C   UNL     1      -8.453  -0.382   4.644  1.00  0.00     0.013 C 
BRANCH   2   4
ATOM      4  C   UNL     1     -10.361  -1.806   5.435  1.00  0.00    -0.045 A 
ATOM      5  C   UNL     1     -11.873  -5.836   5.792  1.00  0.00     0.044 C 
ATOM      6  C   UNL     1     -11.342  -4.436   5.697  1.00  0.00    -0.051 A 
ATOM      7  C   UNL     1      -9.998  -4.213   5.366  1.00  0.00     0.004 A 
ATOM      8  C   UNL     1     -12.199  -3.342   5.871  1.00  0.00     0.004 A 
ATOM      9  C   UNL     1      -9.509  -2.909   5.241  1.00  0.00     0.004 A 
ATOM     10  C   UNL     1     -11.713  -2.037   5.746  1.00  0.00     0.004 A 
ENDBRANCH   2   4
ENDBRANCH   1   2
BRANCH   1  11
ATOM     11  C   UNL     1     -11.486   1.618   5.341  1.00  0.00     0.028 C 
BRANCH  11  12
ATOM     12  C   UNL     1     -10.913   1.689   6.737  1.00  0.00    -0.028 C 
ATOM     13  C   UNL     1     -10.973   2.780   7.533  1.00  0.00    -0.080 C 
ATOM     14  C   UNL     1     -10.340   2.706   8.899  1.00  0.00     0.039 C 
ATOM     15  C   UNL     1     -11.678   4.047   7.110  1.00  0.00     0.039 C 
ENDBRANCH  11  12
ENDBRANCH   1  11
TORSDOF 4
ENDMDL
MODEL 7
REMARK VINA RESULT:    -3.864      0.973      2.223
REMARK INTER + INTRA:          -5.685
REMARK INTER:                  -4.927
REMARK INTRA:                  -0.758
REMARK UNBOUND:                -0.918
REMARK SMILES CC(C)=CCC[C@H](C)c1ccc(C)cc1
REMARK SMILES IDX 6 1 7 2 8 3 9 4 13 5 12 6 11 7 14 8 10 9 15 10 5 11 4 12
REMARK SMILES IDX 2 13 1 14 3 15
REMARK H PARENT
REMARK Flexibility Score: inf
ROOT
ATOM      1  C   UNL     1      -6.292   4.165  13.638  1.00  0.00     0.012 C 
ENDROOT
BRANCH   1   2
ATOM      2  C   UNL     1      -5.559   2.816  13.838  1.00  0.00     0.016 C 
ATOM      3  C   UNL     1      -6.250   1.916  14.874  1.00  0.00     0.013 C 
BRANCH   2   4
ATOM      4  C   UNL     1      -4.113   3.062  14.231  1.00  0.00    -0.045 A 
ATOM      5  C   UNL     1      -0.012   3.827  15.353  1.00  0.00     0.044 C 
ATOM      6  C   UNL     1      -1.427   3.538  14.947  1.00  0.00    -0.051 A 
ATOM      7  C   UNL     1      -2.232   2.704  15.736  1.00  0.00     0.004 A 
ATOM      8  C   UNL     1      -1.977   4.154  13.815  1.00  0.00     0.004 A 
ATOM      9  C   UNL     1      -3.562   2.463  15.380  1.00  0.00     0.004 A 
ATOM     10  C   UNL     1      -3.306   3.914  13.456  1.00  0.00     0.004 A 
ENDBRANCH   2   4
ENDBRANCH   1   2
BRANCH   1  11
ATOM     11  C   UNL     1      -7.819   4.025  13.470  1.00  0.00     0.028 C 
BRANCH  11  12
ATOM     12  C   UNL     1      -8.240   4.020  12.020  1.00  0.00    -0.028 C 
ATOM     13  C   UNL     1      -8.576   2.909  11.325  1.00  0.00    -0.080 C 
ATOM     14  C   UNL     1      -8.959   3.059   9.876  1.00  0.00     0.039 C 
ATOM     15  C   UNL     1      -8.608   1.540  11.964  1.00  0.00     0.039 C 
ENDBRANCH  11  12
ENDBRANCH   1  11
TORSDOF 4
ENDMDL
MODEL 8
REMARK VINA RESULT:    -3.834     15.257     17.319
REMARK INTER + INTRA:          -5.648
REMARK INTER:                  -4.855
REMARK INTRA:                  -0.793
REMARK UNBOUND:                -0.918
REMARK SMILES CC(C)=CCC[C@H](C)c1ccc(C)cc1
REMARK SMILES IDX 6 1 7 2 8 3 9 4 13 5 12 6 11 7 14 8 10 9 15 10 5 11 4 12
REMARK SMILES IDX 2 13 1 14 3 15
REMARK H PARENT
REMARK Flexibility Score: inf
ROOT
ATOM      1  C   UNL     1       5.720  -1.941   2.472  1.00  0.00     0.012 C 
ENDROOT
BRANCH   1   2
ATOM      2  C   UNL     1       4.395  -1.358   1.922  1.00  0.00     0.016 C 
ATOM      3  C   UNL     1       3.352  -1.122   3.025  1.00  0.00     0.013 C 
BRANCH   2   4
ATOM      4  C   UNL     1       3.831  -2.268   0.845  1.00  0.00    -0.045 A 
ATOM      5  C   UNL     1       2.213  -4.903  -2.171  1.00  0.00     0.044 C 
ATOM      6  C   UNL     1       2.794  -3.977  -1.144  1.00  0.00    -0.051 A 
ATOM      7  C   UNL     1       2.246  -2.701  -0.952  1.00  0.00     0.004 A 
ATOM      8  C   UNL     1       3.845  -4.406  -0.321  1.00  0.00     0.004 A 
ATOM      9  C   UNL     1       2.762  -1.851   0.030  1.00  0.00     0.004 A 
ATOM     10  C   UNL     1       4.363  -3.557   0.662  1.00  0.00     0.004 A 
ENDBRANCH   2   4
ENDBRANCH   1   2
BRANCH   1  11
ATOM     11  C   UNL     1       6.774  -0.871   2.819  1.00  0.00     0.028 C 
BRANCH  11  12
ATOM     12  C   UNL     1       6.715  -0.456   4.270  1.00  0.00    -0.028 C 
ATOM     13  C   UNL     1       6.249   0.736   4.706  1.00  0.00    -0.080 C 
ATOM     14  C   UNL     1       6.269   1.016   6.187  1.00  0.00     0.039 C 
ATOM     15  C   UNL     1       5.684   1.772   3.762  1.00  0.00     0.039 C 
ENDBRANCH  11  12
ENDBRANCH   1  11
TORSDOF 4
ENDMDL
MODEL 9
REMARK VINA RESULT:    -3.686      2.399      7.216
REMARK INTER + INTRA:          -5.465
REMARK INTER:                  -4.785
REMARK INTRA:                  -0.680
REMARK UNBOUND:                -0.918
REMARK SMILES CC(C)=CCC[C@H](C)c1ccc(C)cc1
REMARK SMILES IDX 6 1 7 2 8 3 9 4 13 5 12 6 11 7 14 8 10 9 15 10 5 11 4 12
REMARK SMILES IDX 2 13 1 14 3 15
REMARK H PARENT
REMARK Flexibility Score: inf
ROOT
ATOM      1  C   UNL     1      -0.881   3.888  13.840  1.00  0.00     0.012 C 
ENDROOT
BRANCH   1   2
ATOM      2  C   UNL     1      -1.518   3.644  15.230  1.00  0.00     0.016 C 
ATOM      3  C   UNL     1      -0.654   2.742  16.125  1.00  0.00     0.013 C 
BRANCH   2   4
ATOM      4  C   UNL     1      -2.909   3.054  15.069  1.00  0.00    -0.045 A 
ATOM      5  C   UNL     1      -6.848   1.358  14.551  1.00  0.00     0.044 C 
ATOM      6  C   UNL     1      -5.492   1.968  14.750  1.00  0.00    -0.051 A 
ATOM      7  C   UNL     1      -4.653   1.507  15.774  1.00  0.00     0.004 A 
ATOM      8  C   UNL     1      -5.025   2.954  13.869  1.00  0.00     0.004 A 
ATOM      9  C   UNL     1      -3.375   2.048  15.937  1.00  0.00     0.004 A 
ATOM     10  C   UNL     1      -3.747   3.496  14.031  1.00  0.00     0.004 A 
ENDBRANCH   2   4
ENDBRANCH   1   2
BRANCH   1  11
ATOM     11  C   UNL     1       0.598   4.320  13.901  1.00  0.00     0.028 C 
BRANCH  11  12
ATOM     12  C   UNL     1       1.407   3.763  12.753  1.00  0.00    -0.028 C 
ATOM     13  C   UNL     1       2.267   2.725  12.858  1.00  0.00    -0.080 C 
ATOM     14  C   UNL     1       3.019   2.291  11.626  1.00  0.00     0.039 C 
ATOM     15  C   UNL     1       2.469   1.975  14.153  1.00  0.00     0.039 C 
ENDBRANCH  11  12
ENDBRANCH   1  11
TORSDOF 4
ENDMDL
