MODEL 1
REMARK VINA RESULT:    -4.441      0.000      0.000
REMARK INTER + INTRA:          -6.360
REMARK INTER:                  -5.999
REMARK INTRA:                  -0.361
REMARK UNBOUND:                -0.361
REMARK SMILES O=C[C@H](O)[C@@H](O)[C@@H](O)CO
REMARK SMILES IDX 7 1 9 2 10 3 5 5 3 6 2 7 1 8 4 9 6 11 8 13
REMARK H PARENT 10 4 4 10 6 12 8 14
REMARK Flexibility Score: inf
ROOT
ATOM      1  C   UNL     1      24.985  -2.128 -48.699  1.00  0.00     0.171 C 
ENDROOT
BRANCH   1   2
ATOM      2  C   UNL     1      24.651  -1.634 -50.118  1.00  0.00     0.190 C 
BRANCH   2   3
ATOM      3  O   UNL     1      23.527  -0.794 -50.095  1.00  0.00    -0.394 OA
ATOM      4  H   UNL     1      23.817   0.083 -50.456  1.00  0.00     0.210 HD
ENDBRANCH   2   3
ENDBRANCH   1   2
BRANCH   1   5
ATOM      5  C   UNL     1      25.787  -1.064 -47.906  1.00  0.00     0.181 C 
BRANCH   5   6
ATOM      6  C   UNL     1      27.099  -0.662 -48.626  1.00  0.00     0.209 C 
BRANCH   6   7
ATOM      7  C   UNL     1      28.309  -1.155 -47.884  1.00  0.00     0.258 C 
ATOM      8  O   UNL     1      28.381  -2.318 -47.520  1.00  0.00    -0.300 OA
ENDBRANCH   6   7
BRANCH   6   9
ATOM      9  O   UNL     1      27.189   0.738 -48.706  1.00  0.00    -0.383 OA
ATOM     10  H   UNL     1      27.895   1.023 -48.068  1.00  0.00     0.211 HD
ENDBRANCH   6   9
ENDBRANCH   5   6
BRANCH   5  11
ATOM     11  O   UNL     1      24.999   0.092 -47.751  1.00  0.00    -0.387 OA
ATOM     12  H   UNL     1      24.878   0.243 -46.777  1.00  0.00     0.211 HD
ENDBRANCH   5  11
ENDBRANCH   1   5
BRANCH   1  13
ATOM     13  O   UNL     1      23.786  -2.417 -48.024  1.00  0.00    -0.388 OA
ATOM     14  H   UNL     1      23.536  -3.349 -48.258  1.00  0.00     0.211 HD
ENDBRANCH   1  13
TORSDOF 8
ENDMDL
MODEL 2
REMARK VINA RESULT:    -4.216      9.532     10.885
REMARK INTER + INTRA:          -6.056
REMARK INTER:                  -5.345
REMARK INTRA:                  -0.711
REMARK UNBOUND:                -0.361
REMARK SMILES O=C[C@H](O)[C@@H](O)[C@@H](O)CO
REMARK SMILES IDX 7 1 9 2 10 3 5 5 3 6 2 7 1 8 4 9 6 11 8 13
REMARK H PARENT 10 4 4 10 6 12 8 14
REMARK Flexibility Score: inf
ROOT
ATOM      1  C   UNL     1      16.868   1.807 -47.790  1.00  0.00     0.171 C 
ENDROOT
BRANCH   1   2
ATOM      2  C   UNL     1      16.968   1.765 -46.255  1.00  0.00     0.190 C 
BRANCH   2   3
ATOM      3  O   UNL     1      17.275   0.468 -45.817  1.00  0.00    -0.394 OA
ATOM      4  H   UNL     1      17.605  -0.032 -46.608  1.00  0.00     0.210 HD
ENDBRANCH   2   3
ENDBRANCH   1   2
BRANCH   1   5
ATOM      5  C   UNL     1      15.556   1.147 -48.288  1.00  0.00     0.181 C 
BRANCH   5   6
ATOM      6  C   UNL     1      15.823  -0.135 -49.116  1.00  0.00     0.209 C 
BRANCH   6   7
ATOM      7  C   UNL     1      14.541  -0.817 -49.505  1.00  0.00     0.258 C 
ATOM      8  O   UNL     1      13.608  -0.172 -49.957  1.00  0.00    -0.300 OA
ENDBRANCH   6   7
BRANCH   6   9
ATOM      9  O   UNL     1      16.576  -1.045 -48.356  1.00  0.00    -0.383 OA
ATOM     10  H   UNL     1      16.786  -1.817 -48.945  1.00  0.00     0.211 HD
ENDBRANCH   6   9
ENDBRANCH   5   6
BRANCH   5  11
ATOM     11  O   UNL     1      14.763   0.797 -47.179  1.00  0.00    -0.387 OA
ATOM     12  H   UNL     1      14.000   0.257 -47.516  1.00  0.00     0.211 HD
ENDBRANCH   5  11
ENDBRANCH   1   5
BRANCH   1  13
ATOM     13  O   UNL     1      16.914   3.146 -48.213  1.00  0.00    -0.388 OA
ATOM     14  H   UNL     1      16.163   3.279 -48.849  1.00  0.00     0.211 HD
ENDBRANCH   1  13
TORSDOF 8
ENDMDL
MODEL 3
REMARK VINA RESULT:    -4.189      9.395     11.134
REMARK INTER + INTRA:          -6.019
REMARK INTER:                  -5.307
REMARK INTRA:                  -0.712
REMARK UNBOUND:                -0.361
REMARK SMILES O=C[C@H](O)[C@@H](O)[C@@H](O)CO
REMARK SMILES IDX 7 1 9 2 10 3 5 5 3 6 2 7 1 8 4 9 6 11 8 13
REMARK H PARENT 10 4 4 10 6 12 8 14
REMARK Flexibility Score: inf
ROOT
ATOM      1  C   UNL     1      16.035   1.626 -47.117  1.00  0.00     0.171 C 
ENDROOT
BRANCH   1   2
ATOM      2  C   UNL     1      17.344   1.631 -46.308  1.00  0.00     0.190 C 
BRANCH   2   3
ATOM      3  O   UNL     1      17.403   0.515 -45.460  1.00  0.00    -0.394 OA
ATOM      4  H   UNL     1      17.833  -0.216 -45.976  1.00  0.00     0.210 HD
ENDBRANCH   2   3
ENDBRANCH   1   2
BRANCH   1   5
ATOM      5  C   UNL     1      15.595   0.180 -47.467  1.00  0.00     0.181 C 
BRANCH   5   6
ATOM      6  C   UNL     1      14.337   0.154 -48.372  1.00  0.00     0.209 C 
BRANCH   6   7
ATOM      7  C   UNL     1      14.483  -0.839 -49.491  1.00  0.00     0.258 C 
ATOM      8  O   UNL     1      14.418  -2.038 -49.268  1.00  0.00    -0.300 OA
ENDBRANCH   6   7
BRANCH   6   9
ATOM      9  O   UNL     1      14.139   1.420 -48.949  1.00  0.00    -0.383 OA
ATOM     10  H   UNL     1      13.860   1.272 -49.890  1.00  0.00     0.211 HD
ENDBRANCH   6   9
ENDBRANCH   5   6
BRANCH   5  11
ATOM     11  O   UNL     1      16.640  -0.471 -48.149  1.00  0.00    -0.387 OA
ATOM     12  H   UNL     1      17.494  -0.066 -47.843  1.00  0.00     0.211 HD
ENDBRANCH   5  11
ENDBRANCH   1   5
BRANCH   1  13
ATOM     13  O   UNL     1      15.031   2.256 -46.362  1.00  0.00    -0.388 OA
ATOM     14  H   UNL     1      14.350   2.591 -47.002  1.00  0.00     0.211 HD
ENDBRANCH   1  13
TORSDOF 8
ENDMDL
MODEL 4
REMARK VINA RESULT:    -4.158     18.842     20.132
REMARK INTER + INTRA:          -5.978
REMARK INTER:                  -5.490
REMARK INTRA:                  -0.487
REMARK UNBOUND:                -0.361
REMARK SMILES O=C[C@H](O)[C@@H](O)[C@@H](O)CO
REMARK SMILES IDX 7 1 9 2 10 3 5 5 3 6 2 7 1 8 4 9 6 11 8 13
REMARK H PARENT 10 4 4 10 6 12 8 14
REMARK Flexibility Score: inf
ROOT
ATOM      1  C   UNL     1      14.688  -6.062 -34.376  1.00  0.00     0.171 C 
ENDROOT
BRANCH   1   2
ATOM      2  C   UNL     1      15.317  -7.464 -34.308  1.00  0.00     0.190 C 
BRANCH   2   3
ATOM      3  O   UNL     1      16.477  -7.522 -35.095  1.00  0.00    -0.394 OA
ATOM      4  H   UNL     1      16.930  -6.643 -35.004  1.00  0.00     0.210 HD
ENDBRANCH   2   3
ENDBRANCH   1   2
BRANCH   1   5
ATOM      5  C   UNL     1      13.761  -5.800 -33.160  1.00  0.00     0.181 C 
BRANCH   5   6
ATOM      6  C   UNL     1      14.387  -6.289 -31.830  1.00  0.00     0.209 C 
BRANCH   6   7
ATOM      7  C   UNL     1      13.433  -6.127 -30.679  1.00  0.00     0.258 C 
ATOM      8  O   UNL     1      13.335  -5.056 -30.101  1.00  0.00    -0.300 OA
ENDBRANCH   6   7
BRANCH   6   9
ATOM      9  O   UNL     1      15.537  -5.536 -31.540  1.00  0.00    -0.383 OA
ATOM     10  H   UNL     1      15.945  -5.277 -32.407  1.00  0.00     0.211 HD
ENDBRANCH   6   9
ENDBRANCH   5   6
BRANCH   5  11
ATOM     11  O   UNL     1      13.518  -4.418 -33.051  1.00  0.00    -0.387 OA
ATOM     12  H   UNL     1      12.682  -4.302 -32.528  1.00  0.00     0.211 HD
ENDBRANCH   5  11
ENDBRANCH   1   5
BRANCH   1  13
ATOM     13  O   UNL     1      15.716  -5.103 -34.402  1.00  0.00    -0.388 OA
ATOM     14  H   UNL     1      15.297  -4.231 -34.628  1.00  0.00     0.211 HD
ENDBRANCH   1  13
TORSDOF 8
ENDMDL
MODEL 5
REMARK VINA RESULT:    -4.091     18.838     20.243
REMARK INTER + INTRA:          -5.887
REMARK INTER:                  -5.732
REMARK INTRA:                  -0.154
REMARK UNBOUND:                -0.361
REMARK SMILES O=C[C@H](O)[C@@H](O)[C@@H](O)CO
REMARK SMILES IDX 7 1 9 2 10 3 5 5 3 6 2 7 1 8 4 9 6 11 8 13
REMARK H PARENT 10 4 4 10 6 12 8 14
REMARK Flexibility Score: inf
ROOT
ATOM      1  C   UNL     1      15.448  -5.714 -33.796  1.00  0.00     0.171 C 
ENDROOT
BRANCH   1   2
ATOM      2  C   UNL     1      15.334  -7.165 -34.297  1.00  0.00     0.190 C 
BRANCH   2   3
ATOM      3  O   UNL     1      16.457  -7.510 -35.064  1.00  0.00    -0.394 OA
ATOM      4  H   UNL     1      16.913  -8.252 -34.587  1.00  0.00     0.210 HD
ENDBRANCH   2   3
ENDBRANCH   1   2
BRANCH   1   5
ATOM      5  C   UNL     1      14.787  -5.545 -32.403  1.00  0.00     0.181 C 
BRANCH   5   6
ATOM      6  C   UNL     1      13.855  -6.731 -32.049  1.00  0.00     0.209 C 
BRANCH   6   7
ATOM      7  C   UNL     1      12.409  -6.379 -32.262  1.00  0.00     0.258 C 
ATOM      8  O   UNL     1      11.923  -6.405 -33.381  1.00  0.00    -0.300 OA
ENDBRANCH   6   7
BRANCH   6   9
ATOM      9  O   UNL     1      14.015  -7.075 -30.697  1.00  0.00    -0.383 OA
ATOM     10  H   UNL     1      13.150  -6.895 -30.244  1.00  0.00     0.211 HD
ENDBRANCH   6   9
ENDBRANCH   5   6
BRANCH   5  11
ATOM     11  O   UNL     1      15.791  -5.466 -31.420  1.00  0.00    -0.387 OA
ATOM     12  H   UNL     1      15.358  -5.180 -30.573  1.00  0.00     0.211 HD
ENDBRANCH   5  11
ENDBRANCH   1   5
BRANCH   1  13
ATOM     13  O   UNL     1      16.807  -5.364 -33.721  1.00  0.00    -0.388 OA
ATOM     14  H   UNL     1      16.926  -4.830 -32.892  1.00  0.00     0.211 HD
ENDBRANCH   1  13
TORSDOF 8
ENDMDL
MODEL 6
REMARK VINA RESULT:    -4.077     18.090     19.208
REMARK INTER + INTRA:          -5.868
REMARK INTER:                  -5.386
REMARK INTRA:                  -0.482
REMARK UNBOUND:                -0.361
REMARK SMILES O=C[C@H](O)[C@@H](O)[C@@H](O)CO
REMARK SMILES IDX 7 1 9 2 10 3 5 5 3 6 2 7 1 8 4 9 6 11 8 13
REMARK H PARENT 10 4 4 10 6 12 8 14
REMARK Flexibility Score: inf
ROOT
ATOM      1  C   UNL     1      17.201  -4.172 -31.822  1.00  0.00     0.171 C 
ENDROOT
BRANCH   1   2
ATOM      2  C   UNL     1      18.732  -4.024 -31.841  1.00  0.00     0.190 C 
BRANCH   2   3
ATOM      3  O   UNL     1      19.123  -2.868 -31.150  1.00  0.00    -0.394 OA
ATOM      4  H   UNL     1      18.527  -2.789 -30.360  1.00  0.00     0.210 HD
ENDBRANCH   2   3
ENDBRANCH   1   2
BRANCH   1   5
ATOM      5  C   UNL     1      16.696  -4.978 -33.047  1.00  0.00     0.181 C 
BRANCH   5   6
ATOM      6  C   UNL     1      15.518  -5.917 -32.685  1.00  0.00     0.209 C 
BRANCH   6   7
ATOM      7  C   UNL     1      15.143  -6.803 -33.841  1.00  0.00     0.258 C 
ATOM      8  O   UNL     1      15.956  -7.058 -34.715  1.00  0.00    -0.300 OA
ENDBRANCH   6   7
BRANCH   6   9
ATOM      9  O   UNL     1      14.387  -5.155 -32.348  1.00  0.00    -0.383 OA
ATOM     10  H   UNL     1      13.636  -5.480 -32.911  1.00  0.00     0.211 HD
ENDBRANCH   6   9
ENDBRANCH   5   6
BRANCH   5  11
ATOM     11  O   UNL     1      16.257  -4.085 -34.042  1.00  0.00    -0.387 OA
ATOM     12  H   UNL     1      16.974  -3.412 -34.177  1.00  0.00     0.211 HD
ENDBRANCH   5  11
ENDBRANCH   1   5
BRANCH   1  13
ATOM     13  O   UNL     1      16.820  -4.824 -30.637  1.00  0.00    -0.388 OA
ATOM     14  H   UNL     1      16.656  -4.121 -29.955  1.00  0.00     0.211 HD
ENDBRANCH   1  13
TORSDOF 8
ENDMDL
MODEL 7
REMARK VINA RESULT:    -4.059      9.765     11.526
REMARK INTER + INTRA:          -5.844
REMARK INTER:                  -5.283
REMARK INTRA:                  -0.561
REMARK UNBOUND:                -0.361
REMARK SMILES O=C[C@H](O)[C@@H](O)[C@@H](O)CO
REMARK SMILES IDX 7 1 9 2 10 3 5 5 3 6 2 7 1 8 4 9 6 11 8 13
REMARK H PARENT 10 4 4 10 6 12 8 14
REMARK Flexibility Score: inf
ROOT
ATOM      1  C   UNL     1      15.798   0.074 -48.476  1.00  0.00     0.171 C 
ENDROOT
BRANCH   1   2
ATOM      2  C   UNL     1      15.804  -1.221 -49.308  1.00  0.00     0.190 C 
BRANCH   2   3
ATOM      3  O   UNL     1      16.970  -1.960 -49.057  1.00  0.00    -0.394 OA
ATOM      4  H   UNL     1      17.668  -1.311 -48.781  1.00  0.00     0.210 HD
ENDBRANCH   2   3
ENDBRANCH   1   2
BRANCH   1   5
ATOM      5  C   UNL     1      14.452   0.257 -47.728  1.00  0.00     0.181 C 
BRANCH   5   6
ATOM      6  C   UNL     1      14.159   1.744 -47.405  1.00  0.00     0.209 C 
BRANCH   6   7
ATOM      7  C   UNL     1      14.190   2.594 -48.645  1.00  0.00     0.258 C 
ATOM      8  O   UNL     1      13.318   2.486 -49.492  1.00  0.00    -0.300 OA
ENDBRANCH   6   7
BRANCH   6   9
ATOM      9  O   UNL     1      15.133   2.241 -46.523  1.00  0.00    -0.383 OA
ATOM     10  H   UNL     1      16.002   1.843 -46.792  1.00  0.00     0.211 HD
ENDBRANCH   6   9
ENDBRANCH   5   6
BRANCH   5  11
ATOM     11  O   UNL     1      13.404  -0.233 -48.530  1.00  0.00    -0.387 OA
ATOM     12  H   UNL     1      13.654  -1.149 -48.820  1.00  0.00     0.211 HD
ENDBRANCH   5  11
ENDBRANCH   1   5
BRANCH   1  13
ATOM     13  O   UNL     1      16.852   0.025 -47.548  1.00  0.00    -0.388 OA
ATOM     14  H   UNL     1      16.453  -0.182 -46.662  1.00  0.00     0.211 HD
ENDBRANCH   1  13
TORSDOF 8
ENDMDL
MODEL 8
REMARK VINA RESULT:    -4.056      9.867     11.099
REMARK INTER + INTRA:          -5.839
REMARK INTER:                  -5.142
REMARK INTRA:                  -0.697
REMARK UNBOUND:                -0.361
REMARK SMILES O=C[C@H](O)[C@@H](O)[C@@H](O)CO
REMARK SMILES IDX 7 1 9 2 10 3 5 5 3 6 2 7 1 8 4 9 6 11 8 13
REMARK H PARENT 10 4 4 10 6 12 8 14
REMARK Flexibility Score: inf
ROOT
ATOM      1  C   UNL     1      14.079   1.441 -48.109  1.00  0.00     0.171 C 
ENDROOT
BRANCH   1   2
ATOM      2  C   UNL     1      12.943   2.479 -48.114  1.00  0.00     0.190 C 
BRANCH   2   3
ATOM      3  O   UNL     1      13.442   3.757 -47.820  1.00  0.00    -0.394 OA
ATOM      4  H   UNL     1      14.431   3.679 -47.791  1.00  0.00     0.210 HD
ENDBRANCH   2   3
ENDBRANCH   1   2
BRANCH   1   5
ATOM      5  C   UNL     1      15.277   1.921 -47.247  1.00  0.00     0.181 C 
BRANCH   5   6
ATOM      6  C   UNL     1      16.064   0.738 -46.628  1.00  0.00     0.209 C 
BRANCH   6   7
ATOM      7  C   UNL     1      17.172   1.220 -45.734  1.00  0.00     0.258 C 
ATOM      8  O   UNL     1      18.140   1.796 -46.203  1.00  0.00    -0.300 OA
ENDBRANCH   6   7
BRANCH   6   9
ATOM      9  O   UNL     1      16.644  -0.034 -47.648  1.00  0.00    -0.383 OA
ATOM     10  H   UNL     1      17.577  -0.231 -47.372  1.00  0.00     0.211 HD
ENDBRANCH   6   9
ENDBRANCH   5   6
BRANCH   5  11
ATOM     11  O   UNL     1      16.160   2.663 -48.053  1.00  0.00    -0.387 OA
ATOM     12  H   UNL     1      16.572   2.034 -48.702  1.00  0.00     0.211 HD
ENDBRANCH   5  11
ENDBRANCH   1   5
BRANCH   1  13
ATOM     13  O   UNL     1      13.586   0.228 -47.599  1.00  0.00    -0.388 OA
ATOM     14  H   UNL     1      14.172  -0.495 -47.946  1.00  0.00     0.211 HD
ENDBRANCH   1  13
TORSDOF 8
ENDMDL
MODEL 9
REMARK VINA RESULT:    -4.054      9.789     11.090
REMARK INTER + INTRA:          -5.836
REMARK INTER:                  -5.085
REMARK INTRA:                  -0.752
REMARK UNBOUND:                -0.361
REMARK SMILES O=C[C@H](O)[C@@H](O)[C@@H](O)CO
REMARK SMILES IDX 7 1 9 2 10 3 5 5 3 6 2 7 1 8 4 9 6 11 8 13
REMARK H PARENT 10 4 4 10 6 12 8 14
REMARK Flexibility Score: inf
ROOT
ATOM      1  C   UNL     1      15.604   0.135 -47.477  1.00  0.00     0.171 C 
ENDROOT
BRANCH   1   2
ATOM      2  C   UNL     1      14.815   1.356 -46.973  1.00  0.00     0.190 C 
BRANCH   2   3
ATOM      3  O   UNL     1      15.191   2.510 -47.677  1.00  0.00    -0.394 OA
ATOM      4  H   UNL     1      15.298   3.234 -47.006  1.00  0.00     0.210 HD
ENDBRANCH   2   3
ENDBRANCH   1   2
BRANCH   1   5
ATOM      5  C   UNL     1      15.474  -0.025 -49.014  1.00  0.00     0.181 C 
BRANCH   5   6
ATOM      6  C   UNL     1      15.736  -1.481 -49.476  1.00  0.00     0.209 C 
BRANCH   6   7
ATOM      7  C   UNL     1      14.710  -2.429 -48.921  1.00  0.00     0.258 C 
ATOM      8  O   UNL     1      13.661  -2.622 -49.515  1.00  0.00    -0.300 OA
ENDBRANCH   6   7
BRANCH   6   9
ATOM      9  O   UNL     1      16.996  -1.904 -49.022  1.00  0.00    -0.383 OA
ATOM     10  H   UNL     1      17.403  -1.142 -48.532  1.00  0.00     0.211 HD
ENDBRANCH   6   9
ENDBRANCH   5   6
BRANCH   5  11
ATOM     11  O   UNL     1      14.172   0.334 -49.410  1.00  0.00    -0.387 OA
ATOM     12  H   UNL     1      13.671  -0.506 -49.585  1.00  0.00     0.211 HD
ENDBRANCH   5  11
ENDBRANCH   1   5
BRANCH   1  13
ATOM     13  O   UNL     1      16.957   0.292 -47.130  1.00  0.00    -0.388 OA
ATOM     14  H   UNL     1      17.446   0.533 -47.960  1.00  0.00     0.211 HD
ENDBRANCH   1  13
TORSDOF 8
ENDMDL
