MODEL 1
REMARK VINA RESULT:    -5.763      0.000      0.000
REMARK INTER + INTRA:          -6.523
REMARK INTER:                  -6.437
REMARK INTRA:                  -0.086
REMARK UNBOUND:                -0.086
REMARK SMILES CCc1ccc(O)cc1O
REMARK SMILES IDX 3 1 9 2 8 3 6 4 5 5 4 6 2 7 1 8 10 9 7 11
REMARK H PARENT 10 10 7 12
REMARK Flexibility Score: inf
ROOT
ATOM      1  C   UNL     1     -13.049   1.879  -9.265  1.00  0.00    -0.006 A 
ATOM      2  C   UNL     1     -12.370   0.670  -9.510  1.00  0.00     0.122 A 
ATOM      3  C   UNL     1     -13.054  -0.412 -10.086  1.00  0.00     0.092 A 
ATOM      4  C   UNL     1     -14.404  -0.292 -10.428  1.00  0.00     0.119 A 
ATOM      5  C   UNL     1     -15.077   0.914 -10.198  1.00  0.00     0.047 A 
ATOM      6  C   UNL     1     -14.401   1.995  -9.625  1.00  0.00     0.011 A 
ENDROOT
BRANCH   1   7
ATOM      7  C   UNL     1     -12.329   3.067  -8.676  1.00  0.00     0.036 C 
ATOM      8  C   UNL     1     -13.294   4.225  -8.446  1.00  0.00     0.009 C 
ENDBRANCH   1   7
BRANCH   2   9
ATOM      9  O   UNL     1     -11.019   0.544  -9.185  1.00  0.00    -0.508 OA
ATOM     10  H   UNL     1     -10.545   1.232  -8.611  1.00  0.00     0.293 HD
ENDBRANCH   2   9
BRANCH   4  11
ATOM     11  O   UNL     1     -15.067  -1.377 -10.998  1.00  0.00    -0.508 OA
ATOM     12  H   UNL     1     -14.952  -2.317 -10.639  1.00  0.00     0.293 HD
ENDBRANCH   4  11
TORSDOF 3
ENDMDL
MODEL 2
REMARK VINA RESULT:    -5.718      1.860      3.678
REMARK INTER + INTRA:          -6.472
REMARK INTER:                  -6.386
REMARK INTRA:                  -0.085
REMARK UNBOUND:                -0.086
REMARK SMILES CCc1ccc(O)cc1O
REMARK SMILES IDX 3 1 9 2 8 3 6 4 5 5 4 6 2 7 1 8 10 9 7 11
REMARK H PARENT 10 10 7 12
REMARK Flexibility Score: inf
ROOT
ATOM      1  C   UNL     1     -13.686   0.766  -9.814  1.00  0.00    -0.006 A 
ATOM      2  C   UNL     1     -12.588   1.436  -9.238  1.00  0.00     0.122 A 
ATOM      3  C   UNL     1     -12.761   2.716  -8.689  1.00  0.00     0.092 A 
ATOM      4  C   UNL     1     -14.018   3.327  -8.702  1.00  0.00     0.119 A 
ATOM      5  C   UNL     1     -15.112   2.656  -9.261  1.00  0.00     0.047 A 
ATOM      6  C   UNL     1     -14.948   1.381  -9.809  1.00  0.00     0.011 A 
ENDROOT
BRANCH   1   7
ATOM      7  C   UNL     1     -13.535  -0.623 -10.382  1.00  0.00     0.036 C 
ATOM      8  C   UNL     1     -14.811  -1.058 -11.095  1.00  0.00     0.009 C 
ENDBRANCH   1   7
BRANCH   2   9
ATOM      9  O   UNL     1     -11.332   0.830  -9.208  1.00  0.00    -0.508 OA
ATOM     10  H   UNL     1     -11.079   0.101  -9.865  1.00  0.00     0.293 HD
ENDBRANCH   2   9
BRANCH   4  11
ATOM     11  O   UNL     1     -14.170   4.598  -8.153  1.00  0.00    -0.508 OA
ATOM     12  H   UNL     1     -13.676   5.400  -8.528  1.00  0.00     0.293 HD
ENDBRANCH   4  11
TORSDOF 3
ENDMDL
MODEL 3
REMARK VINA RESULT:    -5.569      2.011      4.026
REMARK INTER + INTRA:          -6.305
REMARK INTER:                  -6.219
REMARK INTRA:                  -0.086
REMARK UNBOUND:                -0.086
REMARK SMILES CCc1ccc(O)cc1O
REMARK SMILES IDX 3 1 9 2 8 3 6 4 5 5 4 6 2 7 1 8 10 9 7 11
REMARK H PARENT 10 10 7 12
REMARK Flexibility Score: inf
ROOT
ATOM      1  C   UNL     1     -12.835   1.003  -9.631  1.00  0.00    -0.006 A 
ATOM      2  C   UNL     1     -14.222   1.239  -9.554  1.00  0.00     0.122 A 
ATOM      3  C   UNL     1     -14.696   2.453  -9.036  1.00  0.00     0.092 A 
ATOM      4  C   UNL     1     -13.800   3.436  -8.606  1.00  0.00     0.119 A 
ATOM      5  C   UNL     1     -12.422   3.209  -8.695  1.00  0.00     0.047 A 
ATOM      6  C   UNL     1     -11.942   2.002  -9.210  1.00  0.00     0.011 A 
ENDROOT
BRANCH   1   7
ATOM      7  C   UNL     1     -12.298  -0.281 -10.212  1.00  0.00     0.036 C 
ATOM      8  C   UNL     1     -11.028  -0.715  -9.486  1.00  0.00     0.009 C 
ENDBRANCH   1   7
BRANCH   2   9
ATOM      9  O   UNL     1     -15.124   0.270  -9.993  1.00  0.00    -0.508 OA
ATOM     10  H   UNL     1     -14.853  -0.702 -10.092  1.00  0.00     0.293 HD
ENDBRANCH   2   9
BRANCH   4  11
ATOM     11  O   UNL     1     -14.290   4.636  -8.094  1.00  0.00    -0.508 OA
ATOM     12  H   UNL     1     -14.311   4.818  -7.097  1.00  0.00     0.293 HD
ENDBRANCH   4  11
TORSDOF 3
ENDMDL
MODEL 4
REMARK VINA RESULT:    -5.055     15.738     17.150
REMARK INTER + INTRA:          -5.731
REMARK INTER:                  -5.646
REMARK INTRA:                  -0.085
REMARK UNBOUND:                -0.086
REMARK SMILES CCc1ccc(O)cc1O
REMARK SMILES IDX 3 1 9 2 8 3 6 4 5 5 4 6 2 7 1 8 10 9 7 11
REMARK H PARENT 10 10 7 12
REMARK Flexibility Score: inf
ROOT
ATOM      1  C   UNL     1      -9.672   6.066   6.548  1.00  0.00    -0.006 A 
ATOM      2  C   UNL     1     -10.141   5.412   7.705  1.00  0.00     0.122 A 
ATOM      3  C   UNL     1     -10.940   4.265   7.584  1.00  0.00     0.092 A 
ATOM      4  C   UNL     1     -11.264   3.760   6.321  1.00  0.00     0.119 A 
ATOM      5  C   UNL     1     -10.787   4.400   5.171  1.00  0.00     0.047 A 
ATOM      6  C   UNL     1      -9.991   5.543   5.284  1.00  0.00     0.011 A 
ENDROOT
BRANCH   1   7
ATOM      7  C   UNL     1      -8.787   7.283   6.650  1.00  0.00     0.036 C 
ATOM      8  C   UNL     1      -8.818   8.086   5.354  1.00  0.00     0.009 C 
ENDBRANCH   1   7
BRANCH   2   9
ATOM      9  O   UNL     1      -9.813   5.901   8.970  1.00  0.00    -0.508 OA
ATOM     10  H   UNL     1      -8.860   5.884   9.314  1.00  0.00     0.293 HD
ENDBRANCH   2   9
BRANCH   4  11
ATOM     11  O   UNL     1     -12.059   2.620   6.221  1.00  0.00    -0.508 OA
ATOM     12  H   UNL     1     -11.812   1.854   5.604  1.00  0.00     0.293 HD
ENDBRANCH   4  11
TORSDOF 3
ENDMDL
MODEL 5
REMARK VINA RESULT:    -5.046      5.250      6.927
REMARK INTER + INTRA:          -5.722
REMARK INTER:                  -5.618
REMARK INTRA:                  -0.104
REMARK UNBOUND:                -0.086
REMARK SMILES CCc1ccc(O)cc1O
REMARK SMILES IDX 3 1 9 2 8 3 6 4 5 5 4 6 2 7 1 8 10 9 7 11
REMARK H PARENT 10 10 7 12
REMARK Flexibility Score: inf
ROOT
ATOM      1  C   UNL     1     -10.457  -4.550  -7.697  1.00  0.00    -0.006 A 
ATOM      2  C   UNL     1     -10.133  -4.940  -9.011  1.00  0.00     0.122 A 
ATOM      3  C   UNL     1      -9.960  -3.966 -10.006  1.00  0.00     0.092 A 
ATOM      4  C   UNL     1     -10.096  -2.609  -9.698  1.00  0.00     0.119 A 
ATOM      5  C   UNL     1     -10.403  -2.219  -8.389  1.00  0.00     0.047 A 
ATOM      6  C   UNL     1     -10.577  -3.184  -7.393  1.00  0.00     0.011 A 
ENDROOT
BRANCH   1   7
ATOM      7  C   UNL     1     -10.618  -5.575  -6.601  1.00  0.00     0.036 C 
ATOM      8  C   UNL     1     -12.092  -5.893  -6.371  1.00  0.00     0.009 C 
ENDBRANCH   1   7
BRANCH   2   9
ATOM      9  O   UNL     1      -9.982  -6.290  -9.326  1.00  0.00    -0.508 OA
ATOM     10  H   UNL     1      -9.489  -6.927  -8.711  1.00  0.00     0.293 HD
ENDBRANCH   2   9
BRANCH   4  11
ATOM     11  O   UNL     1      -9.920  -1.656 -10.699  1.00  0.00    -0.508 OA
ATOM     12  H   UNL     1      -9.767  -1.923 -11.665  1.00  0.00     0.293 HD
ENDBRANCH   4  11
TORSDOF 3
ENDMDL
MODEL 6
REMARK VINA RESULT:    -4.895      1.595      2.205
REMARK INTER + INTRA:          -5.553
REMARK INTER:                  -5.522
REMARK INTRA:                  -0.030
REMARK UNBOUND:                -0.086
REMARK SMILES CCc1ccc(O)cc1O
REMARK SMILES IDX 3 1 9 2 8 3 6 4 5 5 4 6 2 7 1 8 10 9 7 11
REMARK H PARENT 10 10 7 12
REMARK Flexibility Score: inf
ROOT
ATOM      1  C   UNL     1     -12.928   1.732  -9.252  1.00  0.00    -0.006 A 
ATOM      2  C   UNL     1     -14.325   1.676  -9.428  1.00  0.00     0.122 A 
ATOM      3  C   UNL     1     -14.913   0.536  -9.997  1.00  0.00     0.092 A 
ATOM      4  C   UNL     1     -14.122  -0.551 -10.378  1.00  0.00     0.119 A 
ATOM      5  C   UNL     1     -12.735  -0.504 -10.190  1.00  0.00     0.047 A 
ATOM      6  C   UNL     1     -12.142   0.628  -9.625  1.00  0.00     0.011 A 
ENDROOT
BRANCH   1   7
ATOM      7  C   UNL     1     -12.274   2.932  -8.615  1.00  0.00     0.036 C 
ATOM      8  C   UNL     1     -12.128   4.067  -9.624  1.00  0.00     0.009 C 
ENDBRANCH   1   7
BRANCH   2   9
ATOM      9  O   UNL     1     -15.125   2.751  -9.039  1.00  0.00    -0.508 OA
ATOM     10  H   UNL     1     -14.865   3.708  -9.245  1.00  0.00     0.293 HD
ENDBRANCH   2   9
BRANCH   4  11
ATOM     11  O   UNL     1     -14.723  -1.675 -10.941  1.00  0.00    -0.508 OA
ATOM     12  H   UNL     1     -14.260  -2.222 -11.657  1.00  0.00     0.293 HD
ENDBRANCH   4  11
TORSDOF 3
ENDMDL
MODEL 7
REMARK VINA RESULT:    -4.883     15.212     16.873
REMARK INTER + INTRA:          -5.539
REMARK INTER:                  -5.452
REMARK INTRA:                  -0.087
REMARK UNBOUND:                -0.086
REMARK SMILES CCc1ccc(O)cc1O
REMARK SMILES IDX 3 1 9 2 8 3 6 4 5 5 4 6 2 7 1 8 10 9 7 11
REMARK H PARENT 10 10 7 12
REMARK Flexibility Score: inf
ROOT
ATOM      1  C   UNL     1     -11.992   4.917   5.467  1.00  0.00    -0.006 A 
ATOM      2  C   UNL     1     -11.476   3.911   6.309  1.00  0.00     0.122 A 
ATOM      3  C   UNL     1     -10.709   4.263   7.430  1.00  0.00     0.092 A 
ATOM      4  C   UNL     1     -10.462   5.608   7.723  1.00  0.00     0.119 A 
ATOM      5  C   UNL     1     -10.986   6.609   6.896  1.00  0.00     0.047 A 
ATOM      6  C   UNL     1     -11.750   6.266   5.778  1.00  0.00     0.011 A 
ENDROOT
BRANCH   1   7
ATOM      7  C   UNL     1     -12.845   4.568   4.274  1.00  0.00     0.036 C 
ATOM      8  C   UNL     1     -13.886   5.653   4.017  1.00  0.00     0.009 C 
ENDBRANCH   1   7
BRANCH   2   9
ATOM      9  O   UNL     1     -11.728   2.567   6.033  1.00  0.00    -0.508 OA
ATOM     10  H   UNL     1     -11.058   1.993   5.535  1.00  0.00     0.293 HD
ENDBRANCH   2   9
BRANCH   4  11
ATOM     11  O   UNL     1      -9.698   5.938   8.840  1.00  0.00    -0.508 OA
ATOM     12  H   UNL     1      -8.740   6.256   8.752  1.00  0.00     0.293 HD
ENDBRANCH   4  11
TORSDOF 3
ENDMDL
MODEL 8
REMARK VINA RESULT:    -4.722      6.692      7.877
REMARK INTER + INTRA:          -5.360
REMARK INTER:                  -5.282
REMARK INTRA:                  -0.078
REMARK UNBOUND:                -0.086
REMARK SMILES CCc1ccc(O)cc1O
REMARK SMILES IDX 3 1 9 2 8 3 6 4 5 5 4 6 2 7 1 8 10 9 7 11
REMARK H PARENT 10 10 7 12
REMARK Flexibility Score: inf
ROOT
ATOM      1  C   UNL     1     -10.434  -4.706  -7.625  1.00  0.00    -0.006 A 
ATOM      2  C   UNL     1     -10.271  -5.991  -8.180  1.00  0.00     0.122 A 
ATOM      3  C   UNL     1     -10.638  -7.124  -7.439  1.00  0.00     0.092 A 
ATOM      4  C   UNL     1     -11.175  -6.987  -6.156  1.00  0.00     0.119 A 
ATOM      5  C   UNL     1     -11.351  -5.711  -5.608  1.00  0.00     0.047 A 
ATOM      6  C   UNL     1     -10.988  -4.577  -6.340  1.00  0.00     0.011 A 
ENDROOT
BRANCH   1   7
ATOM      7  C   UNL     1     -10.077  -3.470  -8.411  1.00  0.00     0.036 C 
ATOM      8  C   UNL     1     -11.230  -3.055  -9.320  1.00  0.00     0.009 C 
ENDBRANCH   1   7
BRANCH   2   9
ATOM      9  O   UNL     1      -9.748  -6.139  -9.465  1.00  0.00    -0.508 OA
ATOM     10  H   UNL     1      -8.768  -6.348  -9.619  1.00  0.00     0.293 HD
ENDBRANCH   2   9
BRANCH   4  11
ATOM     11  O   UNL     1     -11.533  -8.124  -5.436  1.00  0.00    -0.508 OA
ATOM     12  H   UNL     1     -12.486  -8.468  -5.426  1.00  0.00     0.293 HD
ENDBRANCH   4  11
TORSDOF 3
ENDMDL
MODEL 9
REMARK VINA RESULT:    -4.567     15.924     17.315
REMARK INTER + INTRA:          -5.186
REMARK INTER:                  -5.100
REMARK INTRA:                  -0.086
REMARK UNBOUND:                -0.086
REMARK SMILES CCc1ccc(O)cc1O
REMARK SMILES IDX 3 1 9 2 8 3 6 4 5 5 4 6 2 7 1 8 10 9 7 11
REMARK H PARENT 10 10 7 12
REMARK Flexibility Score: inf
ROOT
ATOM      1  C   UNL     1     -10.277   5.381   6.360  1.00  0.00    -0.006 A 
ATOM      2  C   UNL     1     -11.011   4.257   5.934  1.00  0.00     0.122 A 
ATOM      3  C   UNL     1     -11.745   3.507   6.866  1.00  0.00     0.092 A 
ATOM      4  C   UNL     1     -11.761   3.876   8.214  1.00  0.00     0.119 A 
ATOM      5  C   UNL     1     -11.044   5.002   8.636  1.00  0.00     0.047 A 
ATOM      6  C   UNL     1     -10.311   5.753   7.714  1.00  0.00     0.011 A 
ENDROOT
BRANCH   1   7
ATOM      7  C   UNL     1      -9.505   6.222   5.374  1.00  0.00     0.036 C 
ATOM      8  C   UNL     1      -9.091   7.549   6.002  1.00  0.00     0.009 C 
ENDBRANCH   1   7
BRANCH   2   9
ATOM      9  O   UNL     1     -11.013   3.887   4.588  1.00  0.00    -0.508 OA
ATOM     10  H   UNL     1     -10.993   2.914   4.305  1.00  0.00     0.293 HD
ENDBRANCH   2   9
BRANCH   4  11
ATOM     11  O   UNL     1     -12.495   3.120   9.125  1.00  0.00    -0.508 OA
ATOM     12  H   UNL     1     -12.041   2.568   9.844  1.00  0.00     0.293 HD
ENDBRANCH   4  11
TORSDOF 3
ENDMDL
