MODEL 1
REMARK VINA RESULT:    -3.847      0.000      0.000
REMARK INTER + INTRA:          -7.993
REMARK INTER:                  -7.220
REMARK INTRA:                  -0.773
REMARK UNBOUND:                -0.773
REMARK SMILES O=C([O-])CCCCCCCCCCCCCCC(=O)[O-]
REMARK SMILES IDX 10 1 9 2 8 3 7 4 6 5 5 6 4 7 2 8 1 9 3 10 11 11 12 12 13 13
REMARK SMILES IDX 14 14 15 15 16 16 17 17 18 18 19 19 20 20
REMARK H PARENT
REMARK Flexibility Score: inf
ROOT
ATOM      1  C   UNL     1       2.023  23.471  21.930  1.00  0.00     0.000 C 
ENDROOT
BRANCH   1   2
ATOM      2  C   UNL     1       2.583  24.852  22.318  1.00  0.00     0.000 C 
BRANCH   2   3
ATOM      3  C   UNL     1       1.837  26.056  21.706  1.00  0.00     0.000 C 
BRANCH   3   4
ATOM      4  C   UNL     1       1.055  26.919  22.712  1.00  0.00     0.000 C 
BRANCH   4   5
ATOM      5  C   UNL     1       0.669  28.294  22.147  1.00  0.00     0.000 C 
BRANCH   5   6
ATOM      6  C   UNL     1      -0.028  28.153  20.788  1.00  0.00     0.006 C 
BRANCH   6   7
ATOM      7  C   UNL     1      -1.107  29.224  20.611  1.00  0.00     0.053 C 
BRANCH   7   8
ATOM      8  C   UNL     1      -0.512  30.480  20.059  1.00  0.00     0.041 C 
ATOM      9  O   UNL     1      -1.258  31.404  19.640  1.00  0.00    -0.550 OA
ATOM     10  O   UNL     1       0.867  30.654  20.052  1.00  0.00    -0.550 OA
ENDBRANCH   7   8
ENDBRANCH   6   7
ENDBRANCH   5   6
ENDBRANCH   4   5
ENDBRANCH   3   4
ENDBRANCH   2   3
ENDBRANCH   1   2
BRANCH   1  11
ATOM     11  C   UNL     1       1.526  22.666  23.140  1.00  0.00     0.000 C 
BRANCH  11  12
ATOM     12  C   UNL     1       1.173  23.598  24.310  1.00  0.00     0.000 C 
BRANCH  12  13
ATOM     13  C   UNL     1       1.114  22.863  25.658  1.00  0.00     0.000 C 
BRANCH  13  14
ATOM     14  C   UNL     1       2.492  22.352  26.114  1.00  0.00     0.000 C 
BRANCH  14  15
ATOM     15  C   UNL     1       3.608  23.384  25.884  1.00  0.00     0.000 C 
BRANCH  15  16
ATOM     16  C   UNL     1       4.845  23.127  26.764  1.00  0.00     0.006 C 
BRANCH  16  17
ATOM     17  C   UNL     1       6.156  23.350  25.998  1.00  0.00     0.053 C 
BRANCH  17  18
ATOM     18  C   UNL     1       6.183  24.684  25.317  1.00  0.00     0.041 C 
ATOM     19  O   UNL     1       6.346  25.735  25.991  1.00  0.00    -0.550 OA
ATOM     20  O   UNL     1       6.066  24.763  23.935  1.00  0.00    -0.550 OA
ENDBRANCH  17  18
ENDBRANCH  16  17
ENDBRANCH  15  16
ENDBRANCH  14  15
ENDBRANCH  13  14
ENDBRANCH  12  13
ENDBRANCH  11  12
ENDBRANCH   1  11
TORSDOF 15
ENDMDL
MODEL 2
REMARK VINA RESULT:    -3.811      1.092      7.726
REMARK INTER + INTRA:          -7.925
REMARK INTER:                  -6.758
REMARK INTRA:                  -1.167
REMARK UNBOUND:                -0.773
REMARK SMILES O=C([O-])CCCCCCCCCCCCCCC(=O)[O-]
REMARK SMILES IDX 10 1 9 2 8 3 7 4 6 5 5 6 4 7 2 8 1 9 3 10 11 11 12 12 13 13
REMARK SMILES IDX 14 14 15 15 16 16 17 17 18 18 19 19 20 20
REMARK H PARENT
REMARK Flexibility Score: inf
ROOT
ATOM      1  C   UNL     1       1.961  22.515  23.938  1.00  0.00     0.000 C 
ENDROOT
BRANCH   1   2
ATOM      2  C   UNL     1       0.829  22.904  24.906  1.00  0.00     0.000 C 
BRANCH   2   3
ATOM      3  C   UNL     1       1.134  24.110  25.819  1.00  0.00     0.000 C 
BRANCH   3   4
ATOM      4  C   UNL     1       2.626  24.349  26.108  1.00  0.00     0.000 C 
BRANCH   4   5
ATOM      5  C   UNL     1       3.254  23.239  26.964  1.00  0.00     0.000 C 
BRANCH   5   6
ATOM      6  C   UNL     1       4.781  23.235  26.825  1.00  0.00     0.006 C 
BRANCH   6   7
ATOM      7  C   UNL     1       5.247  24.335  25.867  1.00  0.00     0.053 C 
BRANCH   7   8
ATOM      8  C   UNL     1       6.001  23.743  24.718  1.00  0.00     0.041 C 
ATOM      9  O   UNL     1       5.647  23.989  23.534  1.00  0.00    -0.550 OA
ATOM     10  O   UNL     1       7.125  22.961  24.951  1.00  0.00    -0.550 OA
ENDBRANCH   7   8
ENDBRANCH   6   7
ENDBRANCH   5   6
ENDBRANCH   4   5
ENDBRANCH   3   4
ENDBRANCH   2   3
ENDBRANCH   1   2
BRANCH   1  11
ATOM     11  C   UNL     1       1.514  22.509  22.468  1.00  0.00     0.000 C 
BRANCH  11  12
ATOM     12  C   UNL     1       2.242  23.602  21.671  1.00  0.00     0.000 C 
BRANCH  12  13
ATOM     13  C   UNL     1       2.400  24.910  22.463  1.00  0.00     0.000 C 
BRANCH  13  14
ATOM     14  C   UNL     1       1.843  26.129  21.707  1.00  0.00     0.000 C 
BRANCH  14  15
ATOM     15  C   UNL     1       1.094  27.103  22.629  1.00  0.00     0.000 C 
BRANCH  15  16
ATOM     16  C   UNL     1       0.749  28.433  21.935  1.00  0.00     0.006 C 
BRANCH  16  17
ATOM     17  C   UNL     1      -0.327  28.259  20.854  1.00  0.00     0.053 C 
BRANCH  17  18
ATOM     18  C   UNL     1      -0.826  29.578  20.348  1.00  0.00     0.041 C 
ATOM     19  O   UNL     1      -2.059  29.831  20.351  1.00  0.00    -0.550 OA
ATOM     20  O   UNL     1       0.074  30.542  19.910  1.00  0.00    -0.550 OA
ENDBRANCH  17  18
ENDBRANCH  16  17
ENDBRANCH  15  16
ENDBRANCH  14  15
ENDBRANCH  13  14
ENDBRANCH  12  13
ENDBRANCH  11  12
ENDBRANCH   1  11
TORSDOF 15
ENDMDL
MODEL 3
REMARK VINA RESULT:    -3.666      2.539      3.592
REMARK INTER + INTRA:          -7.654
REMARK INTER:                  -6.499
REMARK INTRA:                  -1.155
REMARK UNBOUND:                -0.773
REMARK SMILES O=C([O-])CCCCCCCCCCCCCCC(=O)[O-]
REMARK SMILES IDX 10 1 9 2 8 3 7 4 6 5 5 6 4 7 2 8 1 9 3 10 11 11 12 12 13 13
REMARK SMILES IDX 14 14 15 15 16 16 17 17 18 18 19 19 20 20
REMARK H PARENT
REMARK Flexibility Score: inf
ROOT
ATOM      1  C   UNL     1       3.065  23.867  23.098  1.00  0.00     0.000 C 
ENDROOT
BRANCH   1   2
ATOM      2  C   UNL     1       2.177  25.121  23.202  1.00  0.00     0.000 C 
BRANCH   2   3
ATOM      3  C   UNL     1       1.851  25.804  21.858  1.00  0.00     0.000 C 
BRANCH   3   4
ATOM      4  C   UNL     1       1.841  27.343  21.892  1.00  0.00     0.000 C 
BRANCH   4   5
ATOM      5  C   UNL     1       0.429  27.928  22.041  1.00  0.00     0.000 C 
BRANCH   5   6
ATOM      6  C   UNL     1      -0.251  28.078  20.675  1.00  0.00     0.006 C 
BRANCH   6   7
ATOM      7  C   UNL     1      -1.237  29.248  20.678  1.00  0.00     0.053 C 
BRANCH   7   8
ATOM      8  C   UNL     1      -0.605  30.468  20.086  1.00  0.00     0.041 C 
ATOM      9  O   UNL     1       0.638  30.503  19.885  1.00  0.00    -0.550 OA
ATOM     10  O   UNL     1      -1.393  31.548  19.709  1.00  0.00    -0.550 OA
ENDBRANCH   7   8
ENDBRANCH   6   7
ENDBRANCH   5   6
ENDBRANCH   4   5
ENDBRANCH   3   4
ENDBRANCH   2   3
ENDBRANCH   1   2
BRANCH   1  11
ATOM     11  C   UNL     1       4.493  24.102  23.614  1.00  0.00     0.000 C 
BRANCH  11  12
ATOM     12  C   UNL     1       4.484  24.460  25.108  1.00  0.00     0.000 C 
BRANCH  12  13
ATOM     13  C   UNL     1       4.426  23.220  26.016  1.00  0.00     0.000 C 
BRANCH  13  14
ATOM     14  C   UNL     1       3.200  23.225  26.945  1.00  0.00     0.000 C 
BRANCH  14  15
ATOM     15  C   UNL     1       2.407  21.911  26.882  1.00  0.00     0.000 C 
BRANCH  15  16
ATOM     16  C   UNL     1       0.887  22.137  26.791  1.00  0.00     0.006 C 
BRANCH  16  17
ATOM     17  C   UNL     1       0.523  23.210  25.757  1.00  0.00     0.053 C 
BRANCH  17  18
ATOM     18  C   UNL     1      -0.386  24.253  26.333  1.00  0.00     0.041 C 
ATOM     19  O   UNL     1      -1.416  23.911  26.971  1.00  0.00    -0.550 OA
ATOM     20  O   UNL     1      -0.075  25.600  26.197  1.00  0.00    -0.550 OA
ENDBRANCH  17  18
ENDBRANCH  16  17
ENDBRANCH  15  16
ENDBRANCH  14  15
ENDBRANCH  13  14
ENDBRANCH  12  13
ENDBRANCH  11  12
ENDBRANCH   1  11
TORSDOF 15
ENDMDL
MODEL 4
REMARK VINA RESULT:    -3.079      4.391      9.450
REMARK INTER + INTRA:          -6.551
REMARK INTER:                  -5.502
REMARK INTRA:                  -1.049
REMARK UNBOUND:                -0.773
REMARK SMILES O=C([O-])CCCCCCCCCCCCCCC(=O)[O-]
REMARK SMILES IDX 10 1 9 2 8 3 7 4 6 5 5 6 4 7 2 8 1 9 3 10 11 11 12 12 13 13
REMARK SMILES IDX 14 14 15 15 16 16 17 17 18 18 19 19 20 20
REMARK H PARENT
REMARK Flexibility Score: inf
ROOT
ATOM      1  C   UNL     1       5.079  23.323  26.341  1.00  0.00     0.000 C 
ENDROOT
BRANCH   1   2
ATOM      2  C   UNL     1       6.165  22.232  26.368  1.00  0.00     0.000 C 
BRANCH   2   3
ATOM      3  C   UNL     1       5.780  20.944  27.125  1.00  0.00     0.000 C 
BRANCH   3   4
ATOM      4  C   UNL     1       6.756  19.766  26.950  1.00  0.00     0.000 C 
BRANCH   4   5
ATOM      5  C   UNL     1       6.040  18.430  26.703  1.00  0.00     0.000 C 
BRANCH   5   6
ATOM      6  C   UNL     1       6.394  17.863  25.323  1.00  0.00     0.006 C 
BRANCH   6   7
ATOM      7  C   UNL     1       5.163  17.257  24.647  1.00  0.00     0.053 C 
BRANCH   7   8
ATOM      8  C   UNL     1       5.348  15.786  24.441  1.00  0.00     0.041 C 
ATOM      9  O   UNL     1       5.739  15.059  25.392  1.00  0.00    -0.550 OA
ATOM     10  O   UNL     1       5.043  15.211  23.215  1.00  0.00    -0.550 OA
ENDBRANCH   7   8
ENDBRANCH   6   7
ENDBRANCH   5   6
ENDBRANCH   4   5
ENDBRANCH   3   4
ENDBRANCH   2   3
ENDBRANCH   1   2
BRANCH   1  11
ATOM     11  C   UNL     1       3.719  22.825  26.854  1.00  0.00     0.000 C 
BRANCH  11  12
ATOM     12  C   UNL     1       2.760  24.001  27.094  1.00  0.00     0.000 C 
BRANCH  12  13
ATOM     13  C   UNL     1       1.284  23.572  27.096  1.00  0.00     0.000 C 
BRANCH  13  14
ATOM     14  C   UNL     1       0.965  22.546  25.995  1.00  0.00     0.000 C 
BRANCH  14  15
ATOM     15  C   UNL     1       0.881  23.185  24.600  1.00  0.00     0.000 C 
BRANCH  15  16
ATOM     16  C   UNL     1       1.691  22.414  23.543  1.00  0.00     0.006 C 
BRANCH  16  17
ATOM     17  C   UNL     1       1.922  23.243  22.272  1.00  0.00     0.053 C 
BRANCH  17  18
ATOM     18  C   UNL     1       2.767  24.450  22.541  1.00  0.00     0.041 C 
ATOM     19  O   UNL     1       3.958  24.315  22.928  1.00  0.00    -0.550 OA
ATOM     20  O   UNL     1       2.252  25.723  22.330  1.00  0.00    -0.550 OA
ENDBRANCH  17  18
ENDBRANCH  16  17
ENDBRANCH  15  16
ENDBRANCH  14  15
ENDBRANCH  13  14
ENDBRANCH  12  13
ENDBRANCH  11  12
ENDBRANCH   1  11
TORSDOF 15
ENDMDL
MODEL 5
REMARK VINA RESULT:    -3.054      5.322     10.018
REMARK INTER + INTRA:          -6.505
REMARK INTER:                  -5.663
REMARK INTRA:                  -0.841
REMARK UNBOUND:                -0.773
REMARK SMILES O=C([O-])CCCCCCCCCCCCCCC(=O)[O-]
REMARK SMILES IDX 10 1 9 2 8 3 7 4 6 5 5 6 4 7 2 8 1 9 3 10 11 11 12 12 13 13
REMARK SMILES IDX 14 14 15 15 16 16 17 17 18 18 19 19 20 20
REMARK H PARENT
REMARK Flexibility Score: inf
ROOT
ATOM      1  C   UNL     1       6.297  19.979  26.719  1.00  0.00     0.000 C 
ENDROOT
BRANCH   1   2
ATOM      2  C   UNL     1       6.878  18.716  26.056  1.00  0.00     0.000 C 
BRANCH   2   3
ATOM      3  C   UNL     1       6.494  17.386  26.736  1.00  0.00     0.000 C 
BRANCH   3   4
ATOM      4  C   UNL     1       6.480  16.158  25.808  1.00  0.00     0.000 C 
BRANCH   4   5
ATOM      5  C   UNL     1       5.231  15.283  25.994  1.00  0.00     0.000 C 
BRANCH   5   6
ATOM      6  C   UNL     1       3.952  16.101  25.784  1.00  0.00     0.006 C 
BRANCH   6   7
ATOM      7  C   UNL     1       2.940  15.330  24.932  1.00  0.00     0.053 C 
BRANCH   7   8
ATOM      8  C   UNL     1       3.148  15.622  23.480  1.00  0.00     0.041 C 
ATOM      9  O   UNL     1       3.686  14.764  22.732  1.00  0.00    -0.550 OA
ATOM     10  O   UNL     1       2.703  16.823  22.940  1.00  0.00    -0.550 OA
ENDBRANCH   7   8
ENDBRANCH   6   7
ENDBRANCH   5   6
ENDBRANCH   4   5
ENDBRANCH   3   4
ENDBRANCH   2   3
ENDBRANCH   1   2
BRANCH   1  11
ATOM     11  C   UNL     1       7.086  21.252  26.373  1.00  0.00     0.000 C 
BRANCH  11  12
ATOM     12  C   UNL     1       6.262  22.509  26.690  1.00  0.00     0.000 C 
BRANCH  12  13
ATOM     13  C   UNL     1       6.088  23.428  25.470  1.00  0.00     0.000 C 
BRANCH  13  14
ATOM     14  C   UNL     1       4.752  24.192  25.492  1.00  0.00     0.000 C 
BRANCH  14  15
ATOM     15  C   UNL     1       3.540  23.256  25.624  1.00  0.00     0.000 C 
BRANCH  15  16
ATOM     16  C   UNL     1       2.199  23.997  25.482  1.00  0.00     0.006 C 
BRANCH  16  17
ATOM     17  C   UNL     1       2.019  24.605  24.084  1.00  0.00     0.053 C 
BRANCH  17  18
ATOM     18  C   UNL     1       1.945  23.549  23.023  1.00  0.00     0.041 C 
ATOM     19  O   UNL     1       1.145  22.584  23.147  1.00  0.00    -0.550 OA
ATOM     20  O   UNL     1       2.730  23.652  21.882  1.00  0.00    -0.550 OA
ENDBRANCH  17  18
ENDBRANCH  16  17
ENDBRANCH  15  16
ENDBRANCH  14  15
ENDBRANCH  13  14
ENDBRANCH  12  13
ENDBRANCH  11  12
ENDBRANCH   1  11
TORSDOF 15
ENDMDL
MODEL 6
REMARK VINA RESULT:    -2.866      1.263      2.256
REMARK INTER + INTRA:          -6.152
REMARK INTER:                  -5.248
REMARK INTRA:                  -0.905
REMARK UNBOUND:                -0.773
REMARK SMILES O=C([O-])CCCCCCCCCCCCCCC(=O)[O-]
REMARK SMILES IDX 10 1 9 2 8 3 7 4 6 5 5 6 4 7 2 8 1 9 3 10 11 11 12 12 13 13
REMARK SMILES IDX 14 14 15 15 16 16 17 17 18 18 19 19 20 20
REMARK H PARENT
REMARK Flexibility Score: inf
ROOT
ATOM      1  C   UNL     1       1.240  23.647  24.297  1.00  0.00     0.000 C 
ENDROOT
BRANCH   1   2
ATOM      2  C   UNL     1       1.775  22.961  23.026  1.00  0.00     0.000 C 
BRANCH   2   3
ATOM      3  C   UNL     1       2.540  23.886  22.056  1.00  0.00     0.000 C 
BRANCH   3   4
ATOM      4  C   UNL     1       1.730  25.076  21.513  1.00  0.00     0.000 C 
BRANCH   4   5
ATOM      5  C   UNL     1       2.093  26.406  22.192  1.00  0.00     0.000 C 
BRANCH   5   6
ATOM      6  C   UNL     1       0.844  27.265  22.419  1.00  0.00     0.006 C 
BRANCH   6   7
ATOM      7  C   UNL     1       0.897  28.544  21.580  1.00  0.00     0.053 C 
BRANCH   7   8
ATOM      8  C   UNL     1      -0.373  28.718  20.808  1.00  0.00     0.041 C 
ATOM      9  O   UNL     1      -0.680  29.845  20.340  1.00  0.00    -0.550 OA
ATOM     10  O   UNL     1      -1.193  27.624  20.563  1.00  0.00    -0.550 OA
ENDBRANCH   7   8
ENDBRANCH   6   7
ENDBRANCH   5   6
ENDBRANCH   4   5
ENDBRANCH   3   4
ENDBRANCH   2   3
ENDBRANCH   1   2
BRANCH   1  11
ATOM     11  C   UNL     1       1.393  22.777  25.554  1.00  0.00     0.000 C 
BRANCH  11  12
ATOM     12  C   UNL     1       1.718  23.641  26.782  1.00  0.00     0.000 C 
BRANCH  12  13
ATOM     13  C   UNL     1       3.228  23.758  27.044  1.00  0.00     0.000 C 
BRANCH  13  14
ATOM     14  C   UNL     1       4.044  22.705  26.274  1.00  0.00     0.000 C 
BRANCH  14  15
ATOM     15  C   UNL     1       5.324  22.293  27.017  1.00  0.00     0.000 C 
BRANCH  15  16
ATOM     16  C   UNL     1       6.518  23.212  26.701  1.00  0.00     0.006 C 
BRANCH  16  17
ATOM     17  C   UNL     1       7.006  23.050  25.255  1.00  0.00     0.053 C 
BRANCH  17  18
ATOM     18  C   UNL     1       6.572  24.195  24.391  1.00  0.00     0.041 C 
ATOM     19  O   UNL     1       5.682  24.025  23.517  1.00  0.00    -0.550 OA
ATOM     20  O   UNL     1       7.124  25.456  24.576  1.00  0.00    -0.550 OA
ENDBRANCH  17  18
ENDBRANCH  16  17
ENDBRANCH  15  16
ENDBRANCH  14  15
ENDBRANCH  13  14
ENDBRANCH  12  13
ENDBRANCH  11  12
ENDBRANCH   1  11
TORSDOF 15
ENDMDL
MODEL 7
REMARK VINA RESULT:    -2.732      5.568     10.132
REMARK INTER + INTRA:          -5.901
REMARK INTER:                  -5.279
REMARK INTRA:                  -0.622
REMARK UNBOUND:                -0.773
REMARK SMILES O=C([O-])CCCCCCCCCCCCCCC(=O)[O-]
REMARK SMILES IDX 10 1 9 2 8 3 7 4 6 5 5 6 4 7 2 8 1 9 3 10 11 11 12 12 13 13
REMARK SMILES IDX 14 14 15 15 16 16 17 17 18 18 19 19 20 20
REMARK H PARENT
REMARK Flexibility Score: inf
ROOT
ATOM      1  C   UNL     1       4.204  20.001  27.121  1.00  0.00     0.000 C 
ENDROOT
BRANCH   1   2
ATOM      2  C   UNL     1       5.084  18.826  26.659  1.00  0.00     0.000 C 
BRANCH   2   3
ATOM      3  C   UNL     1       4.432  17.433  26.781  1.00  0.00     0.000 C 
BRANCH   3   4
ATOM      4  C   UNL     1       5.331  16.252  26.374  1.00  0.00     0.000 C 
BRANCH   4   5
ATOM      5  C   UNL     1       4.778  14.894  26.829  1.00  0.00     0.000 C 
BRANCH   5   6
ATOM      6  C   UNL     1       4.040  14.190  25.685  1.00  0.00     0.006 C 
BRANCH   6   7
ATOM      7  C   UNL     1       2.857  15.029  25.195  1.00  0.00     0.053 C 
BRANCH   7   8
ATOM      8  C   UNL     1       3.063  15.446  23.773  1.00  0.00     0.041 C 
ATOM      9  O   UNL     1       2.282  16.275  23.236  1.00  0.00    -0.550 OA
ATOM     10  O   UNL     1       4.148  14.958  23.055  1.00  0.00    -0.550 OA
ENDBRANCH   7   8
ENDBRANCH   6   7
ENDBRANCH   5   6
ENDBRANCH   4   5
ENDBRANCH   3   4
ENDBRANCH   2   3
ENDBRANCH   1   2
BRANCH   1  11
ATOM     11  C   UNL     1       4.951  21.344  27.121  1.00  0.00     0.000 C 
BRANCH  11  12
ATOM     12  C   UNL     1       3.965  22.519  27.052  1.00  0.00     0.000 C 
BRANCH  12  13
ATOM     13  C   UNL     1       4.490  23.686  26.199  1.00  0.00     0.000 C 
BRANCH  13  14
ATOM     14  C   UNL     1       3.512  24.087  25.081  1.00  0.00     0.000 C 
BRANCH  14  15
ATOM     15  C   UNL     1       2.496  22.979  24.761  1.00  0.00     0.000 C 
BRANCH  15  16
ATOM     16  C   UNL     1       1.091  23.529  24.461  1.00  0.00     0.006 C 
BRANCH  16  17
ATOM     17  C   UNL     1       0.370  23.999  25.732  1.00  0.00     0.053 C 
BRANCH  17  18
ATOM     18  C   UNL     1       0.269  25.492  25.795  1.00  0.00     0.041 C 
ATOM     19  O   UNL     1      -0.109  26.056  26.855  1.00  0.00    -0.550 OA
ATOM     20  O   UNL     1       0.629  26.261  24.696  1.00  0.00    -0.550 OA
ENDBRANCH  17  18
ENDBRANCH  16  17
ENDBRANCH  15  16
ENDBRANCH  14  15
ENDBRANCH  13  14
ENDBRANCH  12  13
ENDBRANCH  11  12
ENDBRANCH   1  11
TORSDOF 15
ENDMDL
MODEL 8
REMARK VINA RESULT:    -2.729      5.520      9.947
REMARK INTER + INTRA:          -5.895
REMARK INTER:                  -5.111
REMARK INTRA:                  -0.784
REMARK UNBOUND:                -0.773
REMARK SMILES O=C([O-])CCCCCCCCCCCCCCC(=O)[O-]
REMARK SMILES IDX 10 1 9 2 8 3 7 4 6 5 5 6 4 7 2 8 1 9 3 10 11 11 12 12 13 13
REMARK SMILES IDX 14 14 15 15 16 16 17 17 18 18 19 19 20 20
REMARK H PARENT
REMARK Flexibility Score: inf
ROOT
ATOM      1  C   UNL     1       4.912  18.469  26.311  1.00  0.00     0.000 C 
ENDROOT
BRANCH   1   2
ATOM      2  C   UNL     1       6.322  17.890  26.093  1.00  0.00     0.000 C 
BRANCH   2   3
ATOM      3  C   UNL     1       6.657  17.517  24.634  1.00  0.00     0.000 C 
BRANCH   3   4
ATOM      4  C   UNL     1       7.029  16.041  24.406  1.00  0.00     0.000 C 
BRANCH   4   5
ATOM      5  C   UNL     1       6.260  15.082  25.327  1.00  0.00     0.000 C 
BRANCH   5   6
ATOM      6  C   UNL     1       5.033  14.502  24.614  1.00  0.00     0.006 C 
BRANCH   6   7
ATOM      7  C   UNL     1       3.831  15.441  24.741  1.00  0.00     0.053 C 
BRANCH   7   8
ATOM      8  C   UNL     1       3.308  15.809  23.389  1.00  0.00     0.041 C 
ATOM      9  O   UNL     1       2.914  14.914  22.596  1.00  0.00    -0.550 OA
ATOM     10  O   UNL     1       3.210  17.145  23.021  1.00  0.00    -0.550 OA
ENDBRANCH   7   8
ENDBRANCH   6   7
ENDBRANCH   5   6
ENDBRANCH   4   5
ENDBRANCH   3   4
ENDBRANCH   2   3
ENDBRANCH   1   2
BRANCH   1  11
ATOM     11  C   UNL     1       4.927  19.811  27.059  1.00  0.00     0.000 C 
BRANCH  11  12
ATOM     12  C   UNL     1       3.516  20.416  27.125  1.00  0.00     0.000 C 
BRANCH  12  13
ATOM     13  C   UNL     1       3.523  21.951  27.028  1.00  0.00     0.000 C 
BRANCH  13  14
ATOM     14  C   UNL     1       2.890  22.462  25.722  1.00  0.00     0.000 C 
BRANCH  14  15
ATOM     15  C   UNL     1       1.530  23.141  25.953  1.00  0.00     0.000 C 
BRANCH  15  16
ATOM     16  C   UNL     1       0.955  23.771  24.672  1.00  0.00     0.006 C 
BRANCH  16  17
ATOM     17  C   UNL     1       1.688  25.061  24.282  1.00  0.00     0.053 C 
BRANCH  17  18
ATOM     18  C   UNL     1       2.465  24.897  23.012  1.00  0.00     0.041 C 
ATOM     19  O   UNL     1       2.170  25.582  21.997  1.00  0.00    -0.550 OA
ATOM     20  O   UNL     1       3.538  24.017  22.960  1.00  0.00    -0.550 OA
ENDBRANCH  17  18
ENDBRANCH  16  17
ENDBRANCH  15  16
ENDBRANCH  14  15
ENDBRANCH  13  14
ENDBRANCH  12  13
ENDBRANCH  11  12
ENDBRANCH   1  11
TORSDOF 15
ENDMDL
MODEL 9
REMARK VINA RESULT:    -2.709      4.395      8.852
REMARK INTER + INTRA:          -5.858
REMARK INTER:                  -5.554
REMARK INTRA:                  -0.304
REMARK UNBOUND:                -0.773
REMARK SMILES O=C([O-])CCCCCCCCCCCCCCC(=O)[O-]
REMARK SMILES IDX 10 1 9 2 8 3 7 4 6 5 5 6 4 7 2 8 1 9 3 10 11 11 12 12 13 13
REMARK SMILES IDX 14 14 15 15 16 16 17 17 18 18 19 19 20 20
REMARK H PARENT
REMARK Flexibility Score: inf
ROOT
ATOM      1  C   UNL     1       1.917  22.223  25.896  1.00  0.00     0.000 C 
ENDROOT
BRANCH   1   2
ATOM      2  C   UNL     1       2.856  22.455  27.094  1.00  0.00     0.000 C 
BRANCH   2   3
ATOM      3  C   UNL     1       4.118  21.568  27.117  1.00  0.00     0.000 C 
BRANCH   3   4
ATOM      4  C   UNL     1       3.860  20.059  26.956  1.00  0.00     0.000 C 
BRANCH   4   5
ATOM      5  C   UNL     1       5.134  19.215  27.110  1.00  0.00     0.000 C 
BRANCH   5   6
ATOM      6  C   UNL     1       4.891  17.768  26.667  1.00  0.00     0.006 C 
BRANCH   6   7
ATOM      7  C   UNL     1       4.870  17.658  25.140  1.00  0.00     0.053 C 
BRANCH   7   8
ATOM      8  C   UNL     1       5.074  16.239  24.714  1.00  0.00     0.041 C 
ATOM      9  O   UNL     1       4.355  15.323  25.195  1.00  0.00    -0.550 OA
ATOM     10  O   UNL     1       6.025  15.931  23.750  1.00  0.00    -0.550 OA
ENDBRANCH   7   8
ENDBRANCH   6   7
ENDBRANCH   5   6
ENDBRANCH   4   5
ENDBRANCH   3   4
ENDBRANCH   2   3
ENDBRANCH   1   2
BRANCH   1  11
ATOM     11  C   UNL     1       0.563  22.933  26.051  1.00  0.00     0.000 C 
BRANCH  11  12
ATOM     12  C   UNL     1       0.716  24.450  25.865  1.00  0.00     0.000 C 
BRANCH  12  13
ATOM     13  C   UNL     1       1.340  24.822  24.509  1.00  0.00     0.000 C 
BRANCH  13  14
ATOM     14  C   UNL     1       1.494  23.608  23.577  1.00  0.00     0.000 C 
BRANCH  14  15
ATOM     15  C   UNL     1       2.719  23.723  22.657  1.00  0.00     0.000 C 
BRANCH  15  16
ATOM     16  C   UNL     1       3.770  24.713  23.188  1.00  0.00     0.006 C 
BRANCH  16  17
ATOM     17  C   UNL     1       4.673  24.081  24.257  1.00  0.00     0.053 C 
BRANCH  17  18
ATOM     18  C   UNL     1       6.123  24.345  23.988  1.00  0.00     0.041 C 
ATOM     19  O   UNL     1       6.748  23.644  23.149  1.00  0.00    -0.550 OA
ATOM     20  O   UNL     1       6.772  25.388  24.635  1.00  0.00    -0.550 OA
ENDBRANCH  17  18
ENDBRANCH  16  17
ENDBRANCH  15  16
ENDBRANCH  14  15
ENDBRANCH  13  14
ENDBRANCH  12  13
ENDBRANCH  11  12
ENDBRANCH   1  11
TORSDOF 15
ENDMDL
