MODEL 1
REMARK VINA RESULT:    -3.394      0.000      0.000
REMARK INTER + INTRA:          -5.299
REMARK INTER:                  -5.180
REMARK INTRA:                  -0.118
REMARK UNBOUND:                -0.118
REMARK SMILES CC1=CCC[C@@H](C)C(=O)C[C@H](C(C)C)C(=O)C1
REMARK SMILES IDX 8 1 9 2 6 3 7 4 5 5 4 6 3 7 2 8 1 9 10 11 11 12 15 13 16 14
REMARK SMILES IDX 17 15 12 17 13 18 14 19
REMARK H PARENT
REMARK Flexibility Score: 70.00
ROOT
ATOM      1  C   UNL     1      -0.511  28.030  53.376  1.00  0.00     0.136 C 
ATOM      2  O   UNL     1       0.191  28.063  54.378  1.00  0.00    -0.299 OA
ENDROOT
BRANCH   1   3
ATOM      3  C   UNL     1      -1.545  26.938  53.222  1.00  0.00     0.053 C 
ATOM      4  C   UNL     1      -1.429  26.290  51.837  1.00  0.00     0.016 C 
BRANCH   3   5
ATOM      5  C   UNL     1      -2.969  27.479  53.455  1.00  0.00     0.015 C 
BRANCH   5   6
ATOM      6  C   UNL     1      -3.172  28.039  54.879  1.00  0.00     0.028 C 
BRANCH   6   7
ATOM      7  C   UNL     1      -4.047  29.272  54.873  1.00  0.00    -0.028 C 
ATOM      8  C   UNL     1      -3.654  30.557  54.703  1.00  0.00    -0.070 CG0
ATOM      9  C   UNL     1      -4.718  31.624  54.785  1.00  0.00     0.039 C 
ATOM     10  G   UNL     1      -2.228  30.995  54.415  1.00  0.00     0.000 G0
ENDBRANCH   6   7
ENDBRANCH   5   6
ENDBRANCH   3   5
ENDBRANCH   1   3
BRANCH   1  11
ATOM     11  C   UNL     1      -0.400  29.116  52.331  1.00  0.00     0.087 C 
BRANCH  11  12
ATOM     12  C   UNL     1      -1.735  29.849  52.054  1.00  0.00     0.066 C 
BRANCH  12  13
ATOM     13  C   UNL     1      -1.948  31.078  52.929  1.00  0.00     0.140 C 
ATOM     14  O   UNL     1      -1.838  32.180  52.410  1.00  0.00    -0.299 OA
BRANCH  13  15
ATOM     15  C   UNL     1      -2.219  31.003  54.415  1.00  0.00     0.106 CG0
ATOM     16  G   UNL     1      -3.640  30.542  54.691  1.00  0.00     0.000 G0
ENDBRANCH  13  15
ENDBRANCH  12  13
BRANCH  12  17
ATOM     17  C   UNL     1      -1.945  30.138  50.536  1.00  0.00    -0.006 C 
ATOM     18  C   UNL     1      -0.984  29.307  49.671  1.00  0.00     0.008 C 
ATOM     19  C   UNL     1      -3.390  29.937  50.051  1.00  0.00     0.008 C 
ENDBRANCH  12  17
ENDBRANCH  11  12
ENDBRANCH   1  11
TORSDOF 1
ENDMDL
MODEL 2
REMARK VINA RESULT:    -3.301      1.604      3.750
REMARK INTER + INTRA:          -5.157
REMARK INTER:                  -5.023
REMARK INTRA:                  -0.134
REMARK UNBOUND:                -0.118
REMARK SMILES CC1=CCC[C@@H](C)C(=O)C[C@H](C(C)C)C(=O)C1
REMARK SMILES IDX 8 1 9 2 6 3 7 4 5 5 4 6 3 7 2 8 1 9 10 11 11 12 15 13 16 14
REMARK SMILES IDX 17 15 12 17 13 18 14 19
REMARK H PARENT
REMARK Flexibility Score: 70.00
ROOT
ATOM      1  C   UNL     1      -0.680  29.423  51.676  1.00  0.00     0.136 C 
ATOM      2  O   UNL     1       0.391  29.998  51.531  1.00  0.00    -0.299 OA
ENDROOT
BRANCH   1   3
ATOM      3  C   UNL     1      -1.906  29.931  50.952  1.00  0.00     0.053 C 
ATOM      4  C   UNL     1      -1.775  29.680  49.446  1.00  0.00     0.016 C 
BRANCH   3   5
ATOM      5  C   UNL     1      -2.144  31.427  51.239  1.00  0.00     0.015 C 
BRANCH   5   6
ATOM      6  C   UNL     1      -2.294  31.732  52.745  1.00  0.00     0.028 C 
BRANCH   6   7
ATOM      7  C   UNL     1      -3.479  31.009  53.344  1.00  0.00    -0.028 C 
ATOM      8  C   UNL     1      -3.477  30.175  54.411  1.00  0.00    -0.070 CG0
ATOM      9  C   UNL     1      -4.789  29.534  54.792  1.00  0.00     0.039 C 
ATOM     10  G   UNL     1      -2.257  29.858  55.260  1.00  0.00     0.000 G0
ENDBRANCH   6   7
ENDBRANCH   5   6
ENDBRANCH   3   5
ENDBRANCH   1   3
BRANCH   1  11
ATOM     11  C   UNL     1      -0.767  28.170  52.516  1.00  0.00     0.087 C 
BRANCH  11  12
ATOM     12  C   UNL     1      -0.404  28.394  54.004  1.00  0.00     0.066 C 
BRANCH  12  13
ATOM     13  C   UNL     1      -1.620  28.531  54.913  1.00  0.00     0.140 C 
ATOM     14  O   UNL     1      -2.147  27.508  55.328  1.00  0.00    -0.299 OA
BRANCH  13  15
ATOM     15  C   UNL     1      -2.246  29.861  55.269  1.00  0.00     0.106 CG0
ATOM     16  G   UNL     1      -3.464  30.143  54.405  1.00  0.00     0.000 G0
ENDBRANCH  13  15
ENDBRANCH  12  13
BRANCH  12  17
ATOM     17  C   UNL     1       0.630  27.349  54.523  1.00  0.00    -0.006 C 
ATOM     18  C   UNL     1       0.380  25.963  53.908  1.00  0.00     0.008 C 
ATOM     19  C   UNL     1       2.097  27.757  54.312  1.00  0.00     0.008 C 
ENDBRANCH  12  17
ENDBRANCH  11  12
ENDBRANCH   1  11
TORSDOF 1
ENDMDL
MODEL 3
REMARK VINA RESULT:    -3.278      1.876      3.880
REMARK INTER + INTRA:          -5.122
REMARK INTER:                  -5.085
REMARK INTRA:                  -0.037
REMARK UNBOUND:                -0.118
REMARK SMILES CC1=CCC[C@@H](C)C(=O)C[C@H](C(C)C)C(=O)C1
REMARK SMILES IDX 8 1 9 2 6 3 7 4 5 5 4 6 3 7 2 8 1 9 10 11 11 12 15 13 16 14
REMARK SMILES IDX 17 15 12 17 13 18 14 19
REMARK H PARENT
REMARK Flexibility Score: 70.00
ROOT
ATOM      1  C   UNL     1      -0.985  28.111  54.195  1.00  0.00     0.136 C 
ATOM      2  O   UNL     1      -0.193  28.961  53.809  1.00  0.00    -0.299 OA
ENDROOT
BRANCH   1   3
ATOM      3  C   UNL     1      -0.782  26.666  53.803  1.00  0.00     0.053 C 
ATOM      4  C   UNL     1       0.682  26.260  54.009  1.00  0.00     0.016 C 
BRANCH   3   5
ATOM      5  C   UNL     1      -1.219  26.416  52.346  1.00  0.00     0.015 C 
BRANCH   5   6
ATOM      6  C   UNL     1      -2.744  26.550  52.147  1.00  0.00     0.028 C 
BRANCH   6   7
ATOM      7  C   UNL     1      -3.094  27.780  51.342  1.00  0.00    -0.028 C 
ATOM      8  C   UNL     1      -3.784  28.867  51.762  1.00  0.00    -0.070 CG0
ATOM      9  C   UNL     1      -4.049  29.955  50.750  1.00  0.00     0.039 C 
ATOM     10  G   UNL     1      -4.289  29.077  53.180  1.00  0.00     0.000 G0
ENDBRANCH   6   7
ENDBRANCH   5   6
ENDBRANCH   3   5
ENDBRANCH   1   3
BRANCH   1  11
ATOM     11  C   UNL     1      -2.119  28.489  55.119  1.00  0.00     0.087 C 
BRANCH  11  12
ATOM     12  C   UNL     1      -2.559  29.967  54.988  1.00  0.00     0.066 C 
BRANCH  12  13
ATOM     13  C   UNL     1      -3.600  30.199  53.899  1.00  0.00     0.140 C 
ATOM     14  O   UNL     1      -3.912  31.352  53.636  1.00  0.00    -0.299 OA
BRANCH  13  15
ATOM     15  C   UNL     1      -4.316  29.076  53.181  1.00  0.00     0.106 CG0
ATOM     16  G   UNL     1      -3.767  28.885  51.777  1.00  0.00     0.000 G0
ENDBRANCH  13  15
ENDBRANCH  12  13
BRANCH  12  17
ATOM     17  C   UNL     1      -2.966  30.586  56.360  1.00  0.00    -0.006 C 
ATOM     18  C   UNL     1      -2.905  29.540  57.484  1.00  0.00     0.008 C 
ATOM     19  C   UNL     1      -2.150  31.827  56.758  1.00  0.00     0.008 C 
ENDBRANCH  12  17
ENDBRANCH  11  12
ENDBRANCH   1  11
TORSDOF 1
ENDMDL
MODEL 4
REMARK VINA RESULT:    -3.237      1.675      3.653
REMARK INTER + INTRA:          -5.059
REMARK INTER:                  -5.126
REMARK INTRA:                   0.068
REMARK UNBOUND:                -0.118
REMARK SMILES CC1=CCC[C@@H](C)C(=O)C[C@H](C(C)C)C(=O)C1
REMARK SMILES IDX 8 1 9 2 6 3 7 4 5 5 4 6 3 7 2 8 1 9 10 11 11 12 15 13 16 14
REMARK SMILES IDX 17 15 12 17 13 18 14 19
REMARK H PARENT
REMARK Flexibility Score: 70.00
ROOT
ATOM      1  C   UNL     1      -1.001  28.882  51.408  1.00  0.00     0.136 C 
ATOM      2  O   UNL     1      -0.275  29.864  51.493  1.00  0.00    -0.299 OA
ENDROOT
BRANCH   1   3
ATOM      3  C   UNL     1      -1.875  28.700  50.187  1.00  0.00     0.053 C 
ATOM      4  C   UNL     1      -1.633  29.836  49.187  1.00  0.00     0.016 C 
BRANCH   3   5
ATOM      5  C   UNL     1      -3.365  28.619  50.574  1.00  0.00     0.015 C 
BRANCH   5   6
ATOM      6  C   UNL     1      -3.815  29.791  51.472  1.00  0.00     0.028 C 
BRANCH   6   7
ATOM      7  C   UNL     1      -4.450  29.300  52.753  1.00  0.00    -0.028 C 
ATOM      8  C   UNL     1      -3.911  29.318  53.996  1.00  0.00    -0.070 CG0
ATOM      9  C   UNL     1      -4.730  28.722  55.115  1.00  0.00     0.039 C 
ATOM     10  G   UNL     1      -2.557  29.913  54.344  1.00  0.00     0.000 G0
ENDBRANCH   6   7
ENDBRANCH   5   6
ENDBRANCH   3   5
ENDBRANCH   1   3
BRANCH   1  11
ATOM     11  C   UNL     1      -0.975  27.818  52.481  1.00  0.00     0.087 C 
BRANCH  11  12
ATOM     12  C   UNL     1      -0.459  28.330  53.848  1.00  0.00     0.066 C 
BRANCH  12  13
ATOM     13  C   UNL     1      -1.564  28.848  54.760  1.00  0.00     0.140 C 
ATOM     14  O   UNL     1      -1.689  28.334  55.863  1.00  0.00    -0.299 OA
BRANCH  13  15
ATOM     15  C   UNL     1      -2.553  29.914  54.345  1.00  0.00     0.106 CG0
ATOM     16  G   UNL     1      -3.898  29.305  53.988  1.00  0.00     0.000 G0
ENDBRANCH  13  15
ENDBRANCH  12  13
BRANCH  12  17
ATOM     17  C   UNL     1       0.476  27.297  54.549  1.00  0.00    -0.006 C 
ATOM     18  C   UNL     1       0.253  25.879  54.000  1.00  0.00     0.008 C 
ATOM     19  C   UNL     1       1.969  27.654  54.483  1.00  0.00     0.008 C 
ENDBRANCH  12  17
ENDBRANCH  11  12
ENDBRANCH   1  11
TORSDOF 1
ENDMDL
MODEL 5
REMARK VINA RESULT:    -3.220      1.817      3.828
REMARK INTER + INTRA:          -5.033
REMARK INTER:                  -5.074
REMARK INTRA:                   0.041
REMARK UNBOUND:                -0.118
REMARK SMILES CC1=CCC[C@@H](C)C(=O)C[C@H](C(C)C)C(=O)C1
REMARK SMILES IDX 8 1 9 2 6 3 7 4 5 5 4 6 3 7 2 8 1 9 10 11 11 12 15 13 16 14
REMARK SMILES IDX 17 15 12 17 13 18 14 19
REMARK H PARENT
REMARK Flexibility Score: 70.00
ROOT
ATOM      1  C   UNL     1      -2.835  29.151  50.422  1.00  0.00     0.136 C 
ATOM      2  O   UNL     1      -1.691  29.261  49.999  1.00  0.00    -0.299 OA
ENDROOT
BRANCH   1   3
ATOM      3  C   UNL     1      -3.885  30.159  50.013  1.00  0.00     0.053 C 
ATOM      4  C   UNL     1      -3.941  30.276  48.486  1.00  0.00     0.016 C 
BRANCH   3   5
ATOM      5  C   UNL     1      -3.621  31.533  50.658  1.00  0.00     0.015 C 
BRANCH   5   6
ATOM      6  C   UNL     1      -2.823  31.434  51.976  1.00  0.00     0.028 C 
BRANCH   6   7
ATOM      7  C   UNL     1      -3.732  31.486  53.183  1.00  0.00    -0.028 C 
ATOM      8  C   UNL     1      -3.691  30.688  54.276  1.00  0.00    -0.070 CG0
ATOM      9  C   UNL     1      -4.744  30.908  55.335  1.00  0.00     0.039 C 
ATOM     10  G   UNL     1      -2.652  29.607  54.520  1.00  0.00     0.000 G0
ENDBRANCH   6   7
ENDBRANCH   5   6
ENDBRANCH   3   5
ENDBRANCH   1   3
BRANCH   1  11
ATOM     11  C   UNL     1      -3.217  27.976  51.292  1.00  0.00     0.087 C 
BRANCH  11  12
ATOM     12  C   UNL     1      -2.343  27.834  52.562  1.00  0.00     0.066 C 
BRANCH  12  13
ATOM     13  C   UNL     1      -3.030  28.320  53.832  1.00  0.00     0.140 C 
ATOM     14  O   UNL     1      -3.971  27.669  54.264  1.00  0.00    -0.299 OA
BRANCH  13  15
ATOM     15  C   UNL     1      -2.653  29.602  54.542  1.00  0.00     0.106 CG0
ATOM     16  G   UNL     1      -3.688  30.687  54.301  1.00  0.00     0.000 G0
ENDBRANCH  13  15
ENDBRANCH  12  13
BRANCH  12  17
ATOM     17  C   UNL     1      -1.740  26.403  52.706  1.00  0.00    -0.006 C 
ATOM     18  C   UNL     1      -1.799  25.636  51.375  1.00  0.00     0.008 C 
ATOM     19  C   UNL     1      -0.306  26.377  53.259  1.00  0.00     0.008 C 
ENDBRANCH  12  17
ENDBRANCH  11  12
ENDBRANCH   1  11
TORSDOF 1
ENDMDL
MODEL 6
REMARK VINA RESULT:    -3.091      1.721      3.968
REMARK INTER + INTRA:          -4.835
REMARK INTER:                  -4.505
REMARK INTRA:                  -0.330
REMARK UNBOUND:                -0.118
REMARK SMILES CC1=CCC[C@@H](C)C(=O)C[C@H](C(C)C)C(=O)C1
REMARK SMILES IDX 8 1 9 2 6 3 7 4 5 5 4 6 3 7 2 8 1 9 10 11 11 12 15 13 16 14
REMARK SMILES IDX 17 15 12 17 13 18 14 19
REMARK H PARENT
REMARK Flexibility Score: 70.00
ROOT
ATOM      1  C   UNL     1      -1.690  27.949  54.397  1.00  0.00     0.136 C 
ATOM      2  O   UNL     1      -1.087  27.380  55.298  1.00  0.00    -0.299 OA
ENDROOT
BRANCH   1   3
ATOM      3  C   UNL     1      -1.136  27.923  52.991  1.00  0.00     0.053 C 
ATOM      4  C   UNL     1      -0.792  26.486  52.583  1.00  0.00     0.016 C 
BRANCH   3   5
ATOM      5  C   UNL     1       0.098  28.838  52.861  1.00  0.00     0.015 C 
BRANCH   5   6
ATOM      6  C   UNL     1      -0.215  30.166  52.139  1.00  0.00     0.028 C 
BRANCH   6   7
ATOM      7  C   UNL     1      -1.392  30.027  51.201  1.00  0.00    -0.028 C 
ATOM      8  C   UNL     1      -2.615  30.595  51.328  1.00  0.00    -0.070 CG0
ATOM      9  C   UNL     1      -3.646  30.264  50.276  1.00  0.00     0.039 C 
ATOM     10  G   UNL     1      -3.013  31.554  52.437  1.00  0.00     0.000 G0
ENDBRANCH   6   7
ENDBRANCH   5   6
ENDBRANCH   3   5
ENDBRANCH   1   3
BRANCH   1  11
ATOM     11  C   UNL     1      -3.020  28.613  54.670  1.00  0.00     0.087 C 
BRANCH  11  12
ATOM     12  C   UNL     1      -2.943  30.159  54.714  1.00  0.00     0.066 C 
BRANCH  12  13
ATOM     13  C   UNL     1      -3.707  30.839  53.585  1.00  0.00     0.140 C 
ATOM     14  O   UNL     1      -4.926  30.742  53.574  1.00  0.00    -0.299 OA
BRANCH  13  15
ATOM     15  C   UNL     1      -3.031  31.565  52.443  1.00  0.00     0.106 CG0
ATOM     16  G   UNL     1      -2.617  30.599  51.346  1.00  0.00     0.000 G0
ENDBRANCH  13  15
ENDBRANCH  12  13
BRANCH  12  17
ATOM     17  C   UNL     1      -3.302  30.727  56.121  1.00  0.00    -0.006 C 
ATOM     18  C   UNL     1      -3.281  29.624  57.191  1.00  0.00     0.008 C 
ATOM     19  C   UNL     1      -2.421  31.905  56.568  1.00  0.00     0.008 C 
ENDBRANCH  12  17
ENDBRANCH  11  12
ENDBRANCH   1  11
TORSDOF 1
ENDMDL
MODEL 7
REMARK VINA RESULT:    -3.090      1.777      3.521
REMARK INTER + INTRA:          -4.834
REMARK INTER:                  -4.642
REMARK INTRA:                  -0.192
REMARK UNBOUND:                -0.118
REMARK SMILES CC1=CCC[C@@H](C)C(=O)C[C@H](C(C)C)C(=O)C1
REMARK SMILES IDX 8 1 9 2 6 3 7 4 5 5 4 6 3 7 2 8 1 9 10 11 11 12 15 13 16 14
REMARK SMILES IDX 17 15 12 17 13 18 14 19
REMARK H PARENT
REMARK Flexibility Score: 70.00
ROOT
ATOM      1  C   UNL     1      -2.095  28.442  55.443  1.00  0.00     0.136 C 
ATOM      2  O   UNL     1      -2.252  27.395  56.058  1.00  0.00    -0.299 OA
ENDROOT
BRANCH   1   3
ATOM      3  C   UNL     1      -2.847  29.681  55.868  1.00  0.00     0.053 C 
ATOM      4  C   UNL     1      -2.668  29.921  57.371  1.00  0.00     0.016 C 
BRANCH   3   5
ATOM      5  C   UNL     1      -4.342  29.579  55.504  1.00  0.00     0.015 C 
BRANCH   5   6
ATOM      6  C   UNL     1      -4.705  30.373  54.231  1.00  0.00     0.028 C 
BRANCH   6   7
ATOM      7  C   UNL     1      -3.594  31.315  53.826  1.00  0.00    -0.028 C 
ATOM      8  C   UNL     1      -2.766  31.197  52.761  1.00  0.00    -0.070 CG0
ATOM      9  C   UNL     1      -1.697  32.250  52.594  1.00  0.00     0.039 C 
ATOM     10  G   UNL     1      -2.850  30.097  51.716  1.00  0.00     0.000 G0
ENDBRANCH   6   7
ENDBRANCH   5   6
ENDBRANCH   3   5
ENDBRANCH   1   3
BRANCH   1  11
ATOM     11  C   UNL     1      -1.099  28.517  54.308  1.00  0.00     0.087 C 
BRANCH  11  12
ATOM     12  C   UNL     1      -1.667  28.029  52.952  1.00  0.00     0.066 C 
BRANCH  12  13
ATOM     13  C   UNL     1      -1.692  29.110  51.878  1.00  0.00     0.140 C 
ATOM     14  O   UNL     1      -0.715  29.221  51.151  1.00  0.00    -0.299 OA
BRANCH  13  15
ATOM     15  C   UNL     1      -2.830  30.093  51.714  1.00  0.00     0.106 CG0
ATOM     16  G   UNL     1      -2.771  31.182  52.773  1.00  0.00     0.000 G0
ENDBRANCH  13  15
ENDBRANCH  12  13
BRANCH  12  17
ATOM     17  C   UNL     1      -0.993  26.708  52.472  1.00  0.00    -0.006 C 
ATOM     18  C   UNL     1       0.011  26.183  53.510  1.00  0.00     0.008 C 
ATOM     19  C   UNL     1      -1.985  25.595  52.096  1.00  0.00     0.008 C 
ENDBRANCH  12  17
ENDBRANCH  11  12
ENDBRANCH   1  11
TORSDOF 1
ENDMDL
MODEL 8
REMARK VINA RESULT:    -3.020      2.149      3.984
REMARK INTER + INTRA:          -4.727
REMARK INTER:                  -4.783
REMARK INTRA:                   0.056
REMARK UNBOUND:                -0.118
REMARK SMILES CC1=CCC[C@@H](C)C(=O)C[C@H](C(C)C)C(=O)C1
REMARK SMILES IDX 8 1 9 2 6 3 7 4 5 5 4 6 3 7 2 8 1 9 10 11 11 12 15 13 16 14
REMARK SMILES IDX 17 15 12 17 13 18 14 19
REMARK H PARENT
REMARK Flexibility Score: 70.00
ROOT
ATOM      1  C   UNL     1      -0.925  30.083  53.080  1.00  0.00     0.136 C 
ATOM      2  O   UNL     1      -0.460  31.039  52.474  1.00  0.00    -0.299 OA
ENDROOT
BRANCH   1   3
ATOM      3  C   UNL     1      -1.926  30.314  54.190  1.00  0.00     0.053 C 
ATOM      4  C   UNL     1      -2.629  29.001  54.553  1.00  0.00     0.016 C 
BRANCH   3   5
ATOM      5  C   UNL     1      -2.953  31.395  53.799  1.00  0.00     0.015 C 
BRANCH   5   6
ATOM      6  C   UNL     1      -4.093  30.847  52.914  1.00  0.00     0.028 C 
BRANCH   6   7
ATOM      7  C   UNL     1      -3.946  31.293  51.478  1.00  0.00    -0.028 C 
ATOM      8  C   UNL     1      -3.700  30.514  50.397  1.00  0.00    -0.070 CG0
ATOM      9  C   UNL     1      -3.549  31.206  49.064  1.00  0.00     0.039 C 
ATOM     10  G   UNL     1      -3.586  28.999  50.430  1.00  0.00     0.000 G0
ENDBRANCH   6   7
ENDBRANCH   5   6
ENDBRANCH   3   5
ENDBRANCH   1   3
BRANCH   1  11
ATOM     11  C   UNL     1      -0.560  28.673  52.677  1.00  0.00     0.087 C 
BRANCH  11  12
ATOM     12  C   UNL     1      -1.716  27.905  51.991  1.00  0.00     0.066 C 
BRANCH  12  13
ATOM     13  C   UNL     1      -2.173  28.536  50.681  1.00  0.00     0.140 C 
ATOM     14  O   UNL     1      -1.333  28.738  49.815  1.00  0.00    -0.299 OA
BRANCH  13  15
ATOM     15  C   UNL     1      -3.594  28.988  50.427  1.00  0.00     0.106 CG0
ATOM     16  G   UNL     1      -3.688  30.504  50.379  1.00  0.00     0.000 G0
ENDBRANCH  13  15
ENDBRANCH  12  13
BRANCH  12  17
ATOM     17  C   UNL     1      -1.417  26.381  51.860  1.00  0.00    -0.006 C 
ATOM     18  C   UNL     1      -0.515  25.889  53.004  1.00  0.00     0.008 C 
ATOM     19  C   UNL     1      -2.672  25.498  51.769  1.00  0.00     0.008 C 
ENDBRANCH  12  17
ENDBRANCH  11  12
ENDBRANCH   1  11
TORSDOF 1
ENDMDL
MODEL 9
REMARK VINA RESULT:    -2.935      2.056      2.595
REMARK INTER + INTRA:          -4.598
REMARK INTER:                  -4.712
REMARK INTRA:                   0.114
REMARK UNBOUND:                -0.118
REMARK SMILES CC1=CCC[C@@H](C)C(=O)C[C@H](C(C)C)C(=O)C1
REMARK SMILES IDX 8 1 9 2 6 3 7 4 5 5 4 6 3 7 2 8 1 9 10 11 11 12 15 13 16 14
REMARK SMILES IDX 17 15 12 17 13 18 14 19
REMARK H PARENT
REMARK Flexibility Score: 70.00
ROOT
ATOM      1  C   UNL     1      -1.592  26.994  52.096  1.00  0.00     0.136 C 
ATOM      2  O   UNL     1      -1.926  25.821  51.998  1.00  0.00    -0.299 OA
ENDROOT
BRANCH   1   3
ATOM      3  C   UNL     1      -0.792  27.448  53.295  1.00  0.00     0.053 C 
ATOM      4  C   UNL     1       0.504  26.636  53.406  1.00  0.00     0.016 C 
BRANCH   3   5
ATOM      5  C   UNL     1      -1.618  27.338  54.592  1.00  0.00     0.015 C 
BRANCH   5   6
ATOM      6  C   UNL     1      -1.961  28.714  55.202  1.00  0.00     0.028 C 
BRANCH   6   7
ATOM      7  C   UNL     1      -1.597  29.845  54.268  1.00  0.00    -0.028 C 
ATOM      8  C   UNL     1      -2.380  30.409  53.318  1.00  0.00    -0.070 CG0
ATOM      9  C   UNL     1      -1.769  31.501  52.474  1.00  0.00     0.039 C 
ATOM     10  G   UNL     1      -3.830  30.037  53.058  1.00  0.00     0.000 G0
ENDBRANCH   6   7
ENDBRANCH   5   6
ENDBRANCH   3   5
ENDBRANCH   1   3
BRANCH   1  11
ATOM     11  C   UNL     1      -1.914  27.974  50.991  1.00  0.00     0.087 C 
BRANCH  11  12
ATOM     12  C   UNL     1      -3.396  28.420  50.971  1.00  0.00     0.066 C 
BRANCH  12  13
ATOM     13  C   UNL     1      -3.967  28.703  52.355  1.00  0.00     0.140 C 
ATOM     14  O   UNL     1      -4.610  27.820  52.905  1.00  0.00    -0.299 OA
BRANCH  13  15
ATOM     15  C   UNL     1      -3.837  30.041  53.050  1.00  0.00     0.106 CG0
ATOM     16  G   UNL     1      -2.380  30.384  53.312  1.00  0.00     0.000 G0
ENDBRANCH  13  15
ENDBRANCH  12  13
BRANCH  12  17
ATOM     17  C   UNL     1      -3.649  29.580  49.959  1.00  0.00    -0.006 C 
ATOM     18  C   UNL     1      -2.402  29.858  49.106  1.00  0.00     0.008 C 
ATOM     19  C   UNL     1      -4.868  29.365  49.047  1.00  0.00     0.008 C 
ENDBRANCH  12  17
ENDBRANCH  11  12
ENDBRANCH   1  11
TORSDOF 1
ENDMDL
