MODEL 1
REMARK VINA RESULT:    -7.723      0.000      0.000
REMARK INTER + INTRA:         -11.528
REMARK INTER:                 -10.658
REMARK INTRA:                  -0.870
REMARK UNBOUND:                -0.870
REMARK SMILES O=C([O-])[C@H]1O[C@@H](Oc2cc3oc(-c4ccccc4)cc(=O)c3c(O)c2O)[C@H](O)[C@@H](O)[C@@H]1O
REMARK SMILES IDX 7 1 6 2 4 3 31 4 5 5 29 6 27 7 2 8 1 9 3 10 32 11 30 13
REMARK SMILES IDX 28 15 8 17 25 18 9 19 23 20 10 21 22 22 11 23 20 24 12 25
REMARK SMILES IDX 19 26 21 27 26 28 24 30 13 32 14 33 18 34 15 35 17 36 16 37
REMARK H PARENT 32 12 30 14 28 16 26 29 24 31
REMARK Flexibility Score: inf
ROOT
ATOM      1  O   UNL     1      12.527  41.036  20.331  1.00  0.00    -0.458 OA
ENDROOT
BRANCH   1   2
ATOM      2  C   UNL     1      12.032  40.050  21.248  1.00  0.00     0.339 C 
ATOM      3  C   UNL     1      12.342  39.197  23.404  1.00  0.00     0.199 C 
ATOM      4  C   UNL     1      11.446  37.980  22.990  1.00  0.00     0.180 C 
ATOM      5  O   UNL     1      12.966  39.833  22.289  1.00  0.00    -0.328 OA
ATOM      6  C   UNL     1      11.784  37.516  21.551  1.00  0.00     0.181 C 
ATOM      7  C   UNL     1      11.686  38.699  20.550  1.00  0.00     0.214 C 
BRANCH   3   8
ATOM      8  C   UNL     1      13.410  38.820  24.396  1.00  0.00     0.073 C 
ATOM      9  O   UNL     1      13.328  37.752  25.063  1.00  0.00    -0.547 OA
ATOM     10  O   UNL     1      14.410  39.733  24.712  1.00  0.00    -0.547 OA
ENDBRANCH   3   8
BRANCH   4  11
ATOM     11  O   UNL     1      10.095  38.369  23.068  1.00  0.00    -0.387 OA
ATOM     12  H   UNL     1      10.059  39.348  22.905  1.00  0.00     0.211 HD
ENDBRANCH   4  11
BRANCH   6  13
ATOM     13  O   UNL     1      13.086  36.979  21.517  1.00  0.00    -0.387 OA
ATOM     14  H   UNL     1      13.475  37.115  22.425  1.00  0.00     0.211 HD
ENDBRANCH   6  13
BRANCH   7  15
ATOM     15  O   UNL     1      10.394  38.791  20.006  1.00  0.00    -0.384 OA
ATOM     16  H   UNL     1      10.112  39.742  20.084  1.00  0.00     0.211 HD
ENDBRANCH   7  15
ENDBRANCH   1   2
BRANCH   1  17
ATOM     17  C   UNL     1      12.899  42.333  20.703  1.00  0.00     0.172 A 
ATOM     18  C   UNL     1      11.987  43.404  20.668  1.00  0.00     0.201 A 
ATOM     19  C   UNL     1      14.207  42.550  21.146  1.00  0.00     0.098 A 
ATOM     20  C   UNL     1      12.362  44.664  21.185  1.00  0.00     0.176 A 
ATOM     21  C   UNL     1      14.588  43.787  21.666  1.00  0.00     0.146 A 
ATOM     22  C   UNL     1      13.664  44.855  21.704  1.00  0.00     0.111 A 
ATOM     23  O   UNL     1      15.820  43.939  22.145  1.00  0.00    -0.456 OA
ATOM     24  C   UNL     1      14.094  46.067  22.286  1.00  0.00     0.197 A 
ATOM     25  C   UNL     1      16.259  45.069  22.690  1.00  0.00     0.138 A 
ATOM     26  C   UNL     1      15.398  46.177  22.766  1.00  0.00     0.100 A 
ATOM     27  O   UNL     1      13.314  47.048  22.405  1.00  0.00    -0.289 OA
BRANCH  18  28
ATOM     28  O   UNL     1      10.718  43.250  20.117  1.00  0.00    -0.502 OA
ATOM     29  H   UNL     1       9.872  43.330  20.671  1.00  0.00     0.293 HD
ENDBRANCH  18  28
BRANCH  20  30
ATOM     30  O   UNL     1      11.439  45.716  21.187  1.00  0.00    -0.504 OA
ATOM     31  H   UNL     1      10.625  45.731  20.583  1.00  0.00     0.293 HD
ENDBRANCH  20  30
BRANCH  25  32
ATOM     32  C   UNL     1      17.640  45.114  23.240  1.00  0.00     0.017 A 
ATOM     33  C   UNL     1      18.712  44.660  22.445  1.00  0.00     0.012 A 
ATOM     34  C   UNL     1      17.915  45.610  24.529  1.00  0.00     0.012 A 
ATOM     35  C   UNL     1      20.021  44.701  22.929  1.00  0.00     0.001 A 
ATOM     36  C   UNL     1      19.228  45.634  25.015  1.00  0.00     0.001 A 
ATOM     37  C   UNL     1      20.279  45.179  24.216  1.00  0.00     0.000 A 
ENDBRANCH  25  32
ENDBRANCH   1  17
TORSDOF 9
ENDMDL
MODEL 2
REMARK VINA RESULT:    -7.567      8.292     13.168
REMARK INTER + INTRA:         -11.313
REMARK INTER:                 -10.746
REMARK INTRA:                  -0.566
REMARK UNBOUND:                -0.870
REMARK SMILES O=C([O-])[C@H]1O[C@@H](Oc2cc3oc(-c4ccccc4)cc(=O)c3c(O)c2O)[C@H](O)[C@@H](O)[C@@H]1O
REMARK SMILES IDX 7 1 6 2 4 3 31 4 5 5 29 6 27 7 2 8 1 9 3 10 32 11 30 13
REMARK SMILES IDX 28 15 8 17 25 18 9 19 23 20 10 21 22 22 11 23 20 24 12 25
REMARK SMILES IDX 19 26 21 27 26 28 24 30 13 32 14 33 18 34 15 35 17 36 16 37
REMARK H PARENT 32 12 30 14 28 16 26 29 24 31
REMARK Flexibility Score: inf
ROOT
ATOM      1  O   UNL     1      11.799  35.215  28.688  1.00  0.00    -0.458 OA
ENDROOT
BRANCH   1   2
ATOM      2  C   UNL     1      11.038  35.745  27.594  1.00  0.00     0.339 C 
ATOM      3  C   UNL     1      11.120  37.315  25.862  1.00  0.00     0.199 C 
ATOM      4  C   UNL     1       9.574  37.118  25.688  1.00  0.00     0.180 C 
ATOM      5  O   UNL     1      11.578  36.983  27.173  1.00  0.00    -0.328 OA
ATOM      6  C   UNL     1       8.876  37.019  27.068  1.00  0.00     0.181 C 
ATOM      7  C   UNL     1       9.526  35.910  27.939  1.00  0.00     0.214 C 
BRANCH   3   8
ATOM      8  C   UNL     1      11.566  38.717  25.543  1.00  0.00     0.073 C 
ATOM      9  O   UNL     1      12.734  38.947  25.125  1.00  0.00    -0.547 OA
ATOM     10  O   UNL     1      10.747  39.791  25.871  1.00  0.00    -0.547 OA
ENDBRANCH   3   8
BRANCH   4  11
ATOM     11  O   UNL     1       9.352  35.942  24.947  1.00  0.00    -0.387 OA
ATOM     12  H   UNL     1       8.383  35.732  25.008  1.00  0.00     0.211 HD
ENDBRANCH   4  11
BRANCH   6  13
ATOM     13  O   UNL     1       8.966  38.256  27.737  1.00  0.00    -0.387 OA
ATOM     14  H   UNL     1       9.273  38.923  27.063  1.00  0.00     0.211 HD
ENDBRANCH   6  13
BRANCH   7  15
ATOM     15  O   UNL     1       8.881  34.677  27.744  1.00  0.00    -0.384 OA
ATOM     16  H   UNL     1       8.979  34.446  26.781  1.00  0.00     0.211 HD
ENDBRANCH   7  15
ENDBRANCH   1   2
BRANCH   1  17
ATOM     17  C   UNL     1      12.236  33.887  28.766  1.00  0.00     0.172 A 
ATOM     18  C   UNL     1      12.153  33.014  27.666  1.00  0.00     0.201 A 
ATOM     19  C   UNL     1      12.793  33.438  29.968  1.00  0.00     0.098 A 
ATOM     20  C   UNL     1      12.734  31.728  27.744  1.00  0.00     0.176 A 
ATOM     21  C   UNL     1      13.377  32.174  30.056  1.00  0.00     0.146 A 
ATOM     22  C   UNL     1      13.365  31.310  28.938  1.00  0.00     0.111 A 
ATOM     23  O   UNL     1      13.962  31.806  31.192  1.00  0.00    -0.456 OA
ATOM     24  C   UNL     1      14.013  30.063  29.073  1.00  0.00     0.197 A 
ATOM     25  C   UNL     1      14.572  30.636  31.356  1.00  0.00     0.138 A 
ATOM     26  C   UNL     1      14.605  29.722  30.290  1.00  0.00     0.100 A 
ATOM     27  O   UNL     1      14.093  29.259  28.108  1.00  0.00    -0.289 OA
BRANCH  18  28
ATOM     28  O   UNL     1      11.494  33.389  26.499  1.00  0.00    -0.502 OA
ATOM     29  H   UNL     1      11.732  34.232  25.988  1.00  0.00     0.293 HD
ENDBRANCH  18  28
BRANCH  20  30
ATOM     30  O   UNL     1      12.686  30.877  26.633  1.00  0.00    -0.504 OA
ATOM     31  H   UNL     1      13.242  30.032  26.566  1.00  0.00     0.293 HD
ENDBRANCH  20  30
BRANCH  25  32
ATOM     32  C   UNL     1      15.236  30.346  32.654  1.00  0.00     0.017 A 
ATOM     33  C   UNL     1      15.391  29.007  33.065  1.00  0.00     0.012 A 
ATOM     34  C   UNL     1      15.731  31.371  33.484  1.00  0.00     0.012 A 
ATOM     35  C   UNL     1      16.022  28.703  34.272  1.00  0.00     0.001 A 
ATOM     36  C   UNL     1      16.348  31.061  34.702  1.00  0.00     0.001 A 
ATOM     37  C   UNL     1      16.492  29.729  35.095  1.00  0.00     0.000 A 
ENDBRANCH  25  32
ENDBRANCH   1  17
TORSDOF 9
ENDMDL
MODEL 3
REMARK VINA RESULT:    -6.638      2.508      4.418
REMARK INTER + INTRA:         -10.030
REMARK INTER:                  -8.801
REMARK INTRA:                  -1.229
REMARK UNBOUND:                -0.870
REMARK SMILES O=C([O-])[C@H]1O[C@@H](Oc2cc3oc(-c4ccccc4)cc(=O)c3c(O)c2O)[C@H](O)[C@@H](O)[C@@H]1O
REMARK SMILES IDX 7 1 6 2 4 3 31 4 5 5 29 6 27 7 2 8 1 9 3 10 32 11 30 13
REMARK SMILES IDX 28 15 8 17 25 18 9 19 23 20 10 21 22 22 11 23 20 24 12 25
REMARK SMILES IDX 19 26 21 27 26 28 24 30 13 32 14 33 18 34 15 35 17 36 16 37
REMARK H PARENT 32 12 30 14 28 16 26 29 24 31
REMARK Flexibility Score: inf
ROOT
ATOM      1  O   UNL     1      14.355  42.408  21.731  1.00  0.00    -0.458 OA
ENDROOT
BRANCH   1   2
ATOM      2  C   UNL     1      13.372  42.063  20.744  1.00  0.00     0.339 C 
ATOM      3  C   UNL     1      11.303  42.722  19.874  1.00  0.00     0.199 C 
ATOM      4  C   UNL     1      11.227  41.330  19.155  1.00  0.00     0.180 C 
ATOM      5  O   UNL     1      12.144  42.706  21.027  1.00  0.00    -0.328 OA
ATOM      6  C   UNL     1      11.733  40.203  20.090  1.00  0.00     0.181 C 
ATOM      7  C   UNL     1      13.155  40.523  20.625  1.00  0.00     0.214 C 
BRANCH   3   8
ATOM      8  C   UNL     1       9.949  43.240  20.278  1.00  0.00     0.073 C 
ATOM      9  O   UNL     1       9.784  44.454  20.583  1.00  0.00    -0.547 OA
ATOM     10  O   UNL     1       8.904  42.348  20.486  1.00  0.00    -0.547 OA
ENDBRANCH   3   8
BRANCH   4  11
ATOM     11  O   UNL     1      12.016  41.383  17.989  1.00  0.00    -0.387 OA
ATOM     12  H   UNL     1      11.753  40.614  17.419  1.00  0.00     0.211 HD
ENDBRANCH   4  11
BRANCH   6  13
ATOM     13  O   UNL     1      10.846  40.050  21.174  1.00  0.00    -0.387 OA
ATOM     14  H   UNL     1      11.280  39.417  21.810  1.00  0.00     0.211 HD
ENDBRANCH   6  13
BRANCH   7  15
ATOM     15  O   UNL     1      14.141  39.993  19.777  1.00  0.00    -0.384 OA
ATOM     16  H   UNL     1      14.938  40.583  19.853  1.00  0.00     0.211 HD
ENDBRANCH   7  15
ENDBRANCH   1   2
BRANCH   1  17
ATOM     17  C   UNL     1      15.049  43.623  21.751  1.00  0.00     0.172 A 
ATOM     18  C   UNL     1      14.479  44.793  22.286  1.00  0.00     0.201 A 
ATOM     19  C   UNL     1      16.354  43.654  21.250  1.00  0.00     0.098 A 
ATOM     20  C   UNL     1      15.264  45.961  22.417  1.00  0.00     0.176 A 
ATOM     21  C   UNL     1      17.142  44.798  21.380  1.00  0.00     0.146 A 
ATOM     22  C   UNL     1      16.608  45.961  21.979  1.00  0.00     0.111 A 
ATOM     23  O   UNL     1      18.403  44.770  20.957  1.00  0.00    -0.456 OA
ATOM     24  C   UNL     1      17.468  47.071  22.125  1.00  0.00     0.197 A 
ATOM     25  C   UNL     1      19.236  45.800  21.071  1.00  0.00     0.138 A 
ATOM     26  C   UNL     1      18.780  46.992  21.657  1.00  0.00     0.100 A 
ATOM     27  O   UNL     1      17.084  48.125  22.696  1.00  0.00    -0.289 OA
BRANCH  18  28
ATOM     28  O   UNL     1      13.144  44.828  22.679  1.00  0.00    -0.502 OA
ATOM     29  H   UNL     1      12.405  44.402  22.130  1.00  0.00     0.293 HD
ENDBRANCH  18  28
BRANCH  20  30
ATOM     30  O   UNL     1      14.705  47.111  22.987  1.00  0.00    -0.504 OA
ATOM     31  H   UNL     1      14.785  48.027  22.562  1.00  0.00     0.293 HD
ENDBRANCH  20  30
BRANCH  25  32
ATOM     32  C   UNL     1      20.640  45.644  20.608  1.00  0.00     0.017 A 
ATOM     33  C   UNL     1      20.966  44.579  19.743  1.00  0.00     0.012 A 
ATOM     34  C   UNL     1      21.658  46.537  20.996  1.00  0.00     0.012 A 
ATOM     35  C   UNL     1      22.273  44.414  19.282  1.00  0.00     0.001 A 
ATOM     36  C   UNL     1      22.970  46.356  20.543  1.00  0.00     0.001 A 
ATOM     37  C   UNL     1      23.277  45.296  19.689  1.00  0.00     0.000 A 
ENDBRANCH  25  32
ENDBRANCH   1  17
TORSDOF 9
ENDMDL
MODEL 4
REMARK VINA RESULT:    -6.573      4.310      6.566
REMARK INTER + INTRA:          -9.940
REMARK INTER:                  -9.443
REMARK INTRA:                  -0.497
REMARK UNBOUND:                -0.870
REMARK SMILES O=C([O-])[C@H]1O[C@@H](Oc2cc3oc(-c4ccccc4)cc(=O)c3c(O)c2O)[C@H](O)[C@@H](O)[C@@H]1O
REMARK SMILES IDX 7 1 6 2 4 3 31 4 5 5 29 6 27 7 2 8 1 9 3 10 32 11 30 13
REMARK SMILES IDX 28 15 8 17 25 18 9 19 23 20 10 21 22 22 11 23 20 24 12 25
REMARK SMILES IDX 19 26 21 27 26 28 24 30 13 32 14 33 18 34 15 35 17 36 16 37
REMARK H PARENT 32 12 30 14 28 16 26 29 24 31
REMARK Flexibility Score: inf
ROOT
ATOM      1  O   UNL     1      10.373  37.650  23.314  1.00  0.00    -0.458 OA
ENDROOT
BRANCH   1   2
ATOM      2  C   UNL     1      10.819  37.393  24.653  1.00  0.00     0.339 C 
ATOM      3  C   UNL     1      10.420  36.037  26.516  1.00  0.00     0.199 C 
ATOM      4  C   UNL     1      11.311  37.020  27.351  1.00  0.00     0.180 C 
ATOM      5  O   UNL     1       9.846  36.650  25.363  1.00  0.00    -0.328 OA
ATOM      6  C   UNL     1      11.016  38.490  26.961  1.00  0.00     0.181 C 
ATOM      7  C   UNL     1      11.168  38.699  25.431  1.00  0.00     0.214 C 
BRANCH   3   8
ATOM      8  C   UNL     1       9.313  35.424  27.331  1.00  0.00     0.073 C 
ATOM      9  O   UNL     1       8.880  35.994  28.371  1.00  0.00    -0.547 OA
ATOM     10  O   UNL     1       8.875  34.137  27.040  1.00  0.00    -0.547 OA
ENDBRANCH   3   8
BRANCH   4  11
ATOM     11  O   UNL     1      12.665  36.717  27.108  1.00  0.00    -0.387 OA
ATOM     12  H   UNL     1      12.956  36.080  27.813  1.00  0.00     0.211 HD
ENDBRANCH   4  11
BRANCH   6  13
ATOM     13  O   UNL     1       9.707  38.834  27.356  1.00  0.00    -0.387 OA
ATOM     14  H   UNL     1       9.088  38.296  26.788  1.00  0.00     0.211 HD
ENDBRANCH   6  13
BRANCH   7  15
ATOM     15  O   UNL     1      12.480  39.082  25.104  1.00  0.00    -0.384 OA
ATOM     16  H   UNL     1      12.738  39.805  25.737  1.00  0.00     0.211 HD
ENDBRANCH   7  15
ENDBRANCH   1   2
BRANCH   1  17
ATOM     17  C   UNL     1      11.012  38.528  22.431  1.00  0.00     0.172 A 
ATOM     18  C   UNL     1      11.930  38.071  21.467  1.00  0.00     0.201 A 
ATOM     19  C   UNL     1      10.700  39.889  22.502  1.00  0.00     0.098 A 
ATOM     20  C   UNL     1      12.444  38.969  20.505  1.00  0.00     0.176 A 
ATOM     21  C   UNL     1      11.193  40.785  21.553  1.00  0.00     0.146 A 
ATOM     22  C   UNL     1      12.061  40.330  20.535  1.00  0.00     0.111 A 
ATOM     23  O   UNL     1      10.819  42.060  21.606  1.00  0.00    -0.456 OA
ATOM     24  C   UNL     1      12.490  41.274  19.576  1.00  0.00     0.197 A 
ATOM     25  C   UNL     1      11.211  42.976  20.726  1.00  0.00     0.138 A 
ATOM     26  C   UNL     1      12.074  42.602  19.682  1.00  0.00     0.100 A 
ATOM     27  O   UNL     1      13.221  40.938  18.609  1.00  0.00    -0.289 OA
BRANCH  18  28
ATOM     28  O   UNL     1      12.356  36.747  21.451  1.00  0.00    -0.502 OA
ATOM     29  H   UNL     1      13.171  36.432  21.966  1.00  0.00     0.293 HD
ENDBRANCH  18  28
BRANCH  20  30
ATOM     30  O   UNL     1      13.325  38.503  19.522  1.00  0.00    -0.504 OA
ATOM     31  H   UNL     1      13.424  37.520  19.297  1.00  0.00     0.293 HD
ENDBRANCH  20  30
BRANCH  25  32
ATOM     32  C   UNL     1      10.692  44.363  20.851  1.00  0.00     0.017 A 
ATOM     33  C   UNL     1      11.584  45.447  20.719  1.00  0.00     0.012 A 
ATOM     34  C   UNL     1       9.330  44.632  21.086  1.00  0.00     0.012 A 
ATOM     35  C   UNL     1      11.124  46.761  20.819  1.00  0.00     0.001 A 
ATOM     36  C   UNL     1       8.877  45.952  21.202  1.00  0.00     0.001 A 
ATOM     37  C   UNL     1       9.774  47.014  21.070  1.00  0.00     0.000 A 
ENDBRANCH  25  32
ENDBRANCH   1  17
TORSDOF 9
ENDMDL
MODEL 5
REMARK VINA RESULT:    -6.551      4.702      9.307
REMARK INTER + INTRA:          -9.910
REMARK INTER:                  -8.750
REMARK INTRA:                  -1.160
REMARK UNBOUND:                -0.870
REMARK SMILES O=C([O-])[C@H]1O[C@@H](Oc2cc3oc(-c4ccccc4)cc(=O)c3c(O)c2O)[C@H](O)[C@@H](O)[C@@H]1O
REMARK SMILES IDX 7 1 6 2 4 3 31 4 5 5 29 6 27 7 2 8 1 9 3 10 32 11 30 13
REMARK SMILES IDX 28 15 8 17 25 18 9 19 23 20 10 21 22 22 11 23 20 24 12 25
REMARK SMILES IDX 19 26 21 27 26 28 24 30 13 32 14 33 18 34 15 35 17 36 16 37
REMARK H PARENT 32 12 30 14 28 16 26 29 24 31
REMARK Flexibility Score: inf
ROOT
ATOM      1  O   UNL     1      13.281  39.010  23.986  1.00  0.00    -0.458 OA
ENDROOT
BRANCH   1   2
ATOM      2  C   UNL     1      12.765  39.110  22.651  1.00  0.00     0.339 C 
ATOM      3  C   UNL     1      11.949  40.644  21.085  1.00  0.00     0.199 C 
ATOM      4  C   UNL     1      11.425  39.425  20.250  1.00  0.00     0.180 C 
ATOM      5  O   UNL     1      12.096  40.344  22.473  1.00  0.00    -0.328 OA
ATOM      6  C   UNL     1      10.809  38.349  21.179  1.00  0.00     0.181 C 
ATOM      7  C   UNL     1      11.815  37.929  22.284  1.00  0.00     0.214 C 
BRANCH   3   8
ATOM      8  C   UNL     1      11.071  41.859  20.951  1.00  0.00     0.073 C 
ATOM      9  O   UNL     1       9.856  41.822  21.289  1.00  0.00    -0.547 OA
ATOM     10  O   UNL     1      11.550  42.984  20.290  1.00  0.00    -0.547 OA
ENDBRANCH   3   8
BRANCH   4  11
ATOM     11  O   UNL     1      12.502  38.879  19.526  1.00  0.00    -0.387 OA
ATOM     12  H   UNL     1      13.124  38.471  20.183  1.00  0.00     0.211 HD
ENDBRANCH   4  11
BRANCH   6  13
ATOM     13  O   UNL     1       9.636  38.852  21.779  1.00  0.00    -0.387 OA
ATOM     14  H   UNL     1       9.449  39.731  21.345  1.00  0.00     0.211 HD
ENDBRANCH   6  13
BRANCH   7  15
ATOM     15  O   UNL     1      12.594  36.837  21.864  1.00  0.00    -0.384 OA
ATOM     16  H   UNL     1      12.683  36.906  20.876  1.00  0.00     0.211 HD
ENDBRANCH   7  15
ENDBRANCH   1   2
BRANCH   1  17
ATOM     17  C   UNL     1      12.593  38.410  25.048  1.00  0.00     0.172 A 
ATOM     18  C   UNL     1      11.322  38.857  25.452  1.00  0.00     0.201 A 
ATOM     19  C   UNL     1      13.184  37.321  25.695  1.00  0.00     0.098 A 
ATOM     20  C   UNL     1      10.602  38.136  26.432  1.00  0.00     0.176 A 
ATOM     21  C   UNL     1      12.482  36.596  26.657  1.00  0.00     0.146 A 
ATOM     22  C   UNL     1      11.175  36.988  27.026  1.00  0.00     0.111 A 
ATOM     23  O   UNL     1      13.046  35.522  27.202  1.00  0.00    -0.456 OA
ATOM     24  C   UNL     1      10.497  36.187  27.971  1.00  0.00     0.197 A 
ATOM     25  C   UNL     1      12.440  34.751  28.100  1.00  0.00     0.138 A 
ATOM     26  C   UNL     1      11.138  35.075  28.517  1.00  0.00     0.100 A 
ATOM     27  O   UNL     1       9.313  36.439  28.312  1.00  0.00    -0.289 OA
BRANCH  18  28
ATOM     28  O   UNL     1      10.760  40.011  24.915  1.00  0.00    -0.502 OA
ATOM     29  H   UNL     1      10.176  40.636  25.459  1.00  0.00     0.293 HD
ENDBRANCH  18  28
BRANCH  20  30
ATOM     30  O   UNL     1       9.320  38.559  26.803  1.00  0.00    -0.504 OA
ATOM     31  H   UNL     1       8.668  38.972  26.145  1.00  0.00     0.293 HD
ENDBRANCH  20  30
BRANCH  25  32
ATOM     32  C   UNL     1      13.146  33.545  28.608  1.00  0.00     0.017 A 
ATOM     33  C   UNL     1      12.883  33.094  29.917  1.00  0.00     0.012 A 
ATOM     34  C   UNL     1      14.063  32.828  27.815  1.00  0.00     0.012 A 
ATOM     35  C   UNL     1      13.521  31.957  30.417  1.00  0.00     0.001 A 
ATOM     36  C   UNL     1      14.712  31.698  28.328  1.00  0.00     0.001 A 
ATOM     37  C   UNL     1      14.442  31.265  29.627  1.00  0.00     0.000 A 
ENDBRANCH  25  32
ENDBRANCH   1  17
TORSDOF 9
ENDMDL
MODEL 6
REMARK VINA RESULT:    -6.337      1.236      2.249
REMARK INTER + INTRA:          -9.615
REMARK INTER:                  -9.097
REMARK INTRA:                  -0.518
REMARK UNBOUND:                -0.870
REMARK SMILES O=C([O-])[C@H]1O[C@@H](Oc2cc3oc(-c4ccccc4)cc(=O)c3c(O)c2O)[C@H](O)[C@@H](O)[C@@H]1O
REMARK SMILES IDX 7 1 6 2 4 3 31 4 5 5 29 6 27 7 2 8 1 9 3 10 32 11 30 13
REMARK SMILES IDX 28 15 8 17 25 18 9 19 23 20 10 21 22 22 11 23 20 24 12 25
REMARK SMILES IDX 19 26 21 27 26 28 24 30 13 32 14 33 18 34 15 35 17 36 16 37
REMARK H PARENT 32 12 30 14 28 16 26 29 24 31
REMARK Flexibility Score: inf
ROOT
ATOM      1  O   UNL     1      11.237  41.119  20.045  1.00  0.00    -0.458 OA
ENDROOT
BRANCH   1   2
ATOM      2  C   UNL     1      11.542  39.924  20.776  1.00  0.00     0.339 C 
ATOM      3  C   UNL     1      10.717  38.502  22.440  1.00  0.00     0.199 C 
ATOM      4  C   UNL     1      12.143  37.855  22.516  1.00  0.00     0.180 C 
ATOM      5  O   UNL     1      10.737  39.838  21.937  1.00  0.00    -0.328 OA
ATOM      6  C   UNL     1      13.242  38.944  22.427  1.00  0.00     0.181 C 
ATOM      7  C   UNL     1      13.050  39.824  21.162  1.00  0.00     0.214 C 
BRANCH   3   8
ATOM      8  C   UNL     1      10.010  38.505  23.769  1.00  0.00     0.073 C 
ATOM      9  O   UNL     1      10.500  39.108  24.763  1.00  0.00    -0.547 OA
ATOM     10  O   UNL     1       8.896  37.695  23.958  1.00  0.00    -0.547 OA
ENDBRANCH   3   8
BRANCH   4  11
ATOM     11  O   UNL     1      12.279  36.942  21.453  1.00  0.00    -0.387 OA
ATOM     12  H   UNL     1      12.430  37.470  20.626  1.00  0.00     0.211 HD
ENDBRANCH   4  11
BRANCH   6  13
ATOM     13  O   UNL     1      13.200  39.758  23.577  1.00  0.00    -0.387 OA
ATOM     14  H   UNL     1      13.956  39.468  24.159  1.00  0.00     0.211 HD
ENDBRANCH   6  13
BRANCH   7  15
ATOM     15  O   UNL     1      13.761  39.296  20.071  1.00  0.00    -0.384 OA
ATOM     16  H   UNL     1      14.237  38.486  20.398  1.00  0.00     0.211 HD
ENDBRANCH   7  15
ENDBRANCH   1   2
BRANCH   1  17
ATOM     17  C   UNL     1      11.673  42.397  20.417  1.00  0.00     0.172 A 
ATOM     18  C   UNL     1      10.776  43.469  20.571  1.00  0.00     0.201 A 
ATOM     19  C   UNL     1      13.035  42.590  20.667  1.00  0.00     0.098 A 
ATOM     20  C   UNL     1      11.236  44.703  21.085  1.00  0.00     0.176 A 
ATOM     21  C   UNL     1      13.502  43.799  21.182  1.00  0.00     0.146 A 
ATOM     22  C   UNL     1      12.603  44.865  21.410  1.00  0.00     0.111 A 
ATOM     23  O   UNL     1      14.792  43.926  21.476  1.00  0.00    -0.456 OA
ATOM     24  C   UNL     1      13.127  46.048  21.976  1.00  0.00     0.197 A 
ATOM     25  C   UNL     1      15.320  45.027  22.001  1.00  0.00     0.138 A 
ATOM     26  C   UNL     1      14.490  46.131  22.259  1.00  0.00     0.100 A 
ATOM     27  O   UNL     1      12.383  47.023  22.258  1.00  0.00    -0.289 OA
BRANCH  18  28
ATOM     28  O   UNL     1       9.437  43.345  20.212  1.00  0.00    -0.502 OA
ATOM     29  H   UNL     1       9.116  42.655  19.542  1.00  0.00     0.293 HD
ENDBRANCH  18  28
BRANCH  20  30
ATOM     30  O   UNL     1      10.333  45.755  21.276  1.00  0.00    -0.504 OA
ATOM     31  H   UNL     1       9.648  46.022  20.579  1.00  0.00     0.293 HD
ENDBRANCH  20  30
BRANCH  25  32
ATOM     32  C   UNL     1      16.768  45.043  22.337  1.00  0.00     0.017 A 
ATOM     33  C   UNL     1      17.165  45.323  23.660  1.00  0.00     0.012 A 
ATOM     34  C   UNL     1      17.760  44.772  21.375  1.00  0.00     0.012 A 
ATOM     35  C   UNL     1      18.517  45.332  24.009  1.00  0.00     0.001 A 
ATOM     36  C   UNL     1      19.115  44.799  21.726  1.00  0.00     0.001 A 
ATOM     37  C   UNL     1      19.492  45.080  23.041  1.00  0.00     0.000 A 
ENDBRANCH  25  32
ENDBRANCH   1  17
TORSDOF 9
ENDMDL
MODEL 7
REMARK VINA RESULT:    -6.094      2.104      3.253
REMARK INTER + INTRA:          -9.280
REMARK INTER:                  -8.747
REMARK INTRA:                  -0.533
REMARK UNBOUND:                -0.870
REMARK SMILES O=C([O-])[C@H]1O[C@@H](Oc2cc3oc(-c4ccccc4)cc(=O)c3c(O)c2O)[C@H](O)[C@@H](O)[C@@H]1O
REMARK SMILES IDX 7 1 6 2 4 3 31 4 5 5 29 6 27 7 2 8 1 9 3 10 32 11 30 13
REMARK SMILES IDX 28 15 8 17 25 18 9 19 23 20 10 21 22 22 11 23 20 24 12 25
REMARK SMILES IDX 19 26 21 27 26 28 24 30 13 32 14 33 18 34 15 35 17 36 16 37
REMARK H PARENT 32 12 30 14 28 16 26 29 24 31
REMARK Flexibility Score: inf
ROOT
ATOM      1  O   UNL     1      14.303  41.977  21.270  1.00  0.00    -0.458 OA
ENDROOT
BRANCH   1   2
ATOM      2  C   UNL     1      12.957  41.555  21.010  1.00  0.00     0.339 C 
ATOM      3  C   UNL     1      11.346  39.984  21.648  1.00  0.00     0.199 C 
ATOM      4  C   UNL     1      10.524  40.395  20.377  1.00  0.00     0.180 C 
ATOM      5  O   UNL     1      12.742  40.252  21.518  1.00  0.00    -0.328 OA
ATOM      6  C   UNL     1      11.462  40.596  19.161  1.00  0.00     0.181 C 
ATOM      7  C   UNL     1      12.594  41.605  19.494  1.00  0.00     0.214 C 
BRANCH   3   8
ATOM      8  C   UNL     1      11.171  38.532  22.006  1.00  0.00     0.073 C 
ATOM      9  O   UNL     1      10.318  38.174  22.864  1.00  0.00    -0.547 OA
ATOM     10  O   UNL     1      12.071  37.590  21.521  1.00  0.00    -0.547 OA
ENDBRANCH   3   8
BRANCH   4  11
ATOM     11  O   UNL     1       9.832  41.589  20.658  1.00  0.00    -0.387 OA
ATOM     12  H   UNL     1      10.456  42.185  21.148  1.00  0.00     0.211 HD
ENDBRANCH   4  11
BRANCH   6  13
ATOM     13  O   UNL     1      12.029  39.361  18.787  1.00  0.00    -0.387 OA
ATOM     14  H   UNL     1      11.329  38.668  18.941  1.00  0.00     0.211 HD
ENDBRANCH   6  13
BRANCH   7  15
ATOM     15  O   UNL     1      12.210  42.916  19.165  1.00  0.00    -0.384 OA
ATOM     16  H   UNL     1      11.306  42.860  18.754  1.00  0.00     0.211 HD
ENDBRANCH   7  15
ENDBRANCH   1   2
BRANCH   1  17
ATOM     17  C   UNL     1      14.685  43.313  21.443  1.00  0.00     0.172 A 
ATOM     18  C   UNL     1      13.801  44.274  21.967  1.00  0.00     0.201 A 
ATOM     19  C   UNL     1      15.991  43.681  21.106  1.00  0.00     0.098 A 
ATOM     20  C   UNL     1      14.270  45.575  22.257  1.00  0.00     0.176 A 
ATOM     21  C   UNL     1      16.469  44.960  21.395  1.00  0.00     0.146 A 
ATOM     22  C   UNL     1      15.615  45.917  21.987  1.00  0.00     0.111 A 
ATOM     23  O   UNL     1      17.738  45.255  21.128  1.00  0.00    -0.456 OA
ATOM     24  C   UNL     1      16.169  47.178  22.298  1.00  0.00     0.197 A 
ATOM     25  C   UNL     1      18.288  46.435  21.399  1.00  0.00     0.138 A 
ATOM     26  C   UNL     1      17.504  47.440  21.990  1.00  0.00     0.100 A 
ATOM     27  O   UNL     1      15.489  48.067  22.874  1.00  0.00    -0.289 OA
BRANCH  18  28
ATOM     28  O   UNL     1      12.462  43.971  22.195  1.00  0.00    -0.502 OA
ATOM     29  H   UNL     1      11.724  44.659  22.090  1.00  0.00     0.293 HD
ENDBRANCH  18  28
BRANCH  20  30
ATOM     30  O   UNL     1      13.399  46.517  22.817  1.00  0.00    -0.504 OA
ATOM     31  H   UNL     1      13.274  46.621  23.817  1.00  0.00     0.293 HD
ENDBRANCH  20  30
BRANCH  25  32
ATOM     32  C   UNL     1      19.730  46.641  21.104  1.00  0.00     0.017 A 
ATOM     33  C   UNL     1      20.154  47.875  20.570  1.00  0.00     0.012 A 
ATOM     34  C   UNL     1      20.694  45.645  21.353  1.00  0.00     0.012 A 
ATOM     35  C   UNL     1      21.503  48.103  20.294  1.00  0.00     0.001 A 
ATOM     36  C   UNL     1      22.043  45.873  21.059  1.00  0.00     0.001 A 
ATOM     37  C   UNL     1      22.446  47.100  20.529  1.00  0.00     0.000 A 
ENDBRANCH  25  32
ENDBRANCH   1  17
TORSDOF 9
ENDMDL
MODEL 8
REMARK VINA RESULT:    -5.872      9.594     13.795
REMARK INTER + INTRA:          -8.973
REMARK INTER:                  -8.010
REMARK INTRA:                  -0.963
REMARK UNBOUND:                -0.870
REMARK SMILES O=C([O-])[C@H]1O[C@@H](Oc2cc3oc(-c4ccccc4)cc(=O)c3c(O)c2O)[C@H](O)[C@@H](O)[C@@H]1O
REMARK SMILES IDX 7 1 6 2 4 3 31 4 5 5 29 6 27 7 2 8 1 9 3 10 32 11 30 13
REMARK SMILES IDX 28 15 8 17 25 18 9 19 23 20 10 21 22 22 11 23 20 24 12 25
REMARK SMILES IDX 19 26 21 27 26 28 24 30 13 32 14 33 18 34 15 35 17 36 16 37
REMARK H PARENT 32 12 30 14 28 16 26 29 24 31
REMARK Flexibility Score: inf
ROOT
ATOM      1  O   UNL     1      14.813  30.725  28.512  1.00  0.00    -0.458 OA
ENDROOT
BRANCH   1   2
ATOM      2  C   UNL     1      14.885  30.137  29.819  1.00  0.00     0.339 C 
ATOM      3  C   UNL     1      13.810  28.615  31.232  1.00  0.00     0.199 C 
ATOM      4  C   UNL     1      14.670  29.190  32.410  1.00  0.00     0.180 C 
ATOM      5  O   UNL     1      13.647  29.542  30.159  1.00  0.00    -0.328 OA
ATOM      6  C   UNL     1      14.773  30.732  32.310  1.00  0.00     0.181 C 
ATOM      7  C   UNL     1      15.305  31.163  30.916  1.00  0.00     0.214 C 
BRANCH   3   8
ATOM      8  C   UNL     1      12.447  28.157  31.677  1.00  0.00     0.073 C 
ATOM      9  O   UNL     1      12.220  27.875  32.886  1.00  0.00    -0.547 OA
ATOM     10  O   UNL     1      11.472  27.875  30.728  1.00  0.00    -0.547 OA
ENDBRANCH   3   8
BRANCH   4  11
ATOM     11  O   UNL     1      15.953  28.613  32.354  1.00  0.00    -0.387 OA
ATOM     12  H   UNL     1      16.148  28.418  31.400  1.00  0.00     0.211 HD
ENDBRANCH   4  11
BRANCH   6  13
ATOM     13  O   UNL     1      13.506  31.310  32.528  1.00  0.00    -0.387 OA
ATOM     14  H   UNL     1      13.377  31.993  31.813  1.00  0.00     0.211 HD
ENDBRANCH   6  13
BRANCH   7  15
ATOM     15  O   UNL     1      16.706  31.266  30.924  1.00  0.00    -0.384 OA
ATOM     16  H   UNL     1      16.998  31.334  29.975  1.00  0.00     0.211 HD
ENDBRANCH   7  15
ENDBRANCH   1   2
BRANCH   1  17
ATOM     17  C   UNL     1      13.614  31.007  27.846  1.00  0.00     0.172 A 
ATOM     18  C   UNL     1      12.829  29.990  27.272  1.00  0.00     0.201 A 
ATOM     19  C   UNL     1      13.184  32.336  27.781  1.00  0.00     0.098 A 
ATOM     20  C   UNL     1      11.559  30.301  26.735  1.00  0.00     0.176 A 
ATOM     21  C   UNL     1      11.930  32.656  27.261  1.00  0.00     0.146 A 
ATOM     22  C   UNL     1      11.097  31.638  26.745  1.00  0.00     0.111 A 
ATOM     23  O   UNL     1      11.522  33.921  27.281  1.00  0.00    -0.456 OA
ATOM     24  C   UNL     1       9.821  32.017  26.276  1.00  0.00     0.197 A 
ATOM     25  C   UNL     1      10.331  34.313  26.839  1.00  0.00     0.138 A 
ATOM     26  C   UNL     1       9.444  33.360  26.311  1.00  0.00     0.100 A 
ATOM     27  O   UNL     1       9.001  31.163  25.849  1.00  0.00    -0.289 OA
BRANCH  18  28
ATOM     28  O   UNL     1      13.286  28.677  27.209  1.00  0.00    -0.502 OA
ATOM     29  H   UNL     1      13.331  28.078  28.026  1.00  0.00     0.293 HD
ENDBRANCH  18  28
BRANCH  20  30
ATOM     30  O   UNL     1      10.763  29.281  26.202  1.00  0.00    -0.504 OA
ATOM     31  H   UNL     1      10.957  28.845  25.308  1.00  0.00     0.293 HD
ENDBRANCH  20  30
BRANCH  25  32
ATOM     32  C   UNL     1       9.957  35.748  26.954  1.00  0.00     0.017 A 
ATOM     33  C   UNL     1       9.252  36.362  25.899  1.00  0.00     0.012 A 
ATOM     34  C   UNL     1      10.273  36.513  28.093  1.00  0.00     0.012 A 
ATOM     35  C   UNL     1       8.877  37.704  25.982  1.00  0.00     0.001 A 
ATOM     36  C   UNL     1       9.909  37.863  28.164  1.00  0.00     0.001 A 
ATOM     37  C   UNL     1       9.213  38.457  27.110  1.00  0.00     0.000 A 
ENDBRANCH  25  32
ENDBRANCH   1  17
TORSDOF 9
ENDMDL
MODEL 9
REMARK VINA RESULT:    -5.687      5.831      9.835
REMARK INTER + INTRA:          -8.718
REMARK INTER:                  -7.819
REMARK INTRA:                  -0.898
REMARK UNBOUND:                -0.870
REMARK SMILES O=C([O-])[C@H]1O[C@@H](Oc2cc3oc(-c4ccccc4)cc(=O)c3c(O)c2O)[C@H](O)[C@@H](O)[C@@H]1O
REMARK SMILES IDX 7 1 6 2 4 3 31 4 5 5 29 6 27 7 2 8 1 9 3 10 32 11 30 13
REMARK SMILES IDX 28 15 8 17 25 18 9 19 23 20 10 21 22 22 11 23 20 24 12 25
REMARK SMILES IDX 19 26 21 27 26 28 24 30 13 32 14 33 18 34 15 35 17 36 16 37
REMARK H PARENT 32 12 30 14 28 16 26 29 24 31
REMARK Flexibility Score: inf
ROOT
ATOM      1  O   UNL     1      13.407  34.850  28.708  1.00  0.00    -0.458 OA
ENDROOT
BRANCH   1   2
ATOM      2  C   UNL     1      13.414  33.416  28.737  1.00  0.00     0.339 C 
ATOM      3  C   UNL     1      13.268  31.587  30.188  1.00  0.00     0.199 C 
ATOM      4  C   UNL     1      13.771  30.684  29.008  1.00  0.00     0.180 C 
ATOM      5  O   UNL     1      13.663  32.952  30.051  1.00  0.00    -0.328 OA
ATOM      6  C   UNL     1      14.901  31.393  28.221  1.00  0.00     0.181 C 
ATOM      7  C   UNL     1      14.449  32.800  27.747  1.00  0.00     0.214 C 
BRANCH   3   8
ATOM      8  C   UNL     1      13.727  31.092  31.533  1.00  0.00     0.073 C 
ATOM      9  O   UNL     1      14.309  31.863  32.345  1.00  0.00    -0.547 OA
ATOM     10  O   UNL     1      13.668  29.734  31.823  1.00  0.00    -0.547 OA
ENDBRANCH   3   8
BRANCH   4  11
ATOM     11  O   UNL     1      12.684  30.413  28.156  1.00  0.00    -0.387 OA
ATOM     12  H   UNL     1      13.039  29.916  27.372  1.00  0.00     0.211 HD
ENDBRANCH   4  11
BRANCH   6  13
ATOM     13  O   UNL     1      16.044  31.516  29.036  1.00  0.00    -0.387 OA
ATOM     14  H   UNL     1      15.839  31.042  29.889  1.00  0.00     0.211 HD
ENDBRANCH   6  13
BRANCH   7  15
ATOM     15  O   UNL     1      13.868  32.736  26.469  1.00  0.00    -0.384 OA
ATOM     16  H   UNL     1      14.236  31.927  26.022  1.00  0.00     0.211 HD
ENDBRANCH   7  15
ENDBRANCH   1   2
BRANCH   1  17
ATOM     17  C   UNL     1      12.478  35.613  27.990  1.00  0.00     0.172 A 
ATOM     18  C   UNL     1      11.247  36.001  28.550  1.00  0.00     0.201 A 
ATOM     19  C   UNL     1      12.808  36.017  26.692  1.00  0.00     0.098 A 
ATOM     20  C   UNL     1      10.402  36.888  27.845  1.00  0.00     0.176 A 
ATOM     21  C   UNL     1      11.987  36.898  25.989  1.00  0.00     0.146 A 
ATOM     22  C   UNL     1      10.780  37.354  26.565  1.00  0.00     0.111 A 
ATOM     23  O   UNL     1      12.365  37.319  24.785  1.00  0.00    -0.456 OA
ATOM     24  C   UNL     1      10.015  38.281  25.824  1.00  0.00     0.197 A 
ATOM     25  C   UNL     1      11.665  38.183  24.057  1.00  0.00     0.138 A 
ATOM     26  C   UNL     1      10.453  38.685  24.562  1.00  0.00     0.100 A 
ATOM     27  O   UNL     1       8.955  38.775  26.290  1.00  0.00    -0.289 OA
BRANCH  18  28
ATOM     28  O   UNL     1      10.835  35.515  29.787  1.00  0.00    -0.502 OA
ATOM     29  H   UNL     1      10.800  36.099  30.616  1.00  0.00     0.293 HD
ENDBRANCH  18  28
BRANCH  20  30
ATOM     30  O   UNL     1       9.197  37.305  28.423  1.00  0.00    -0.504 OA
ATOM     31  H   UNL     1       8.297  36.937  28.137  1.00  0.00     0.293 HD
ENDBRANCH  20  30
BRANCH  25  32
ATOM     32  C   UNL     1      12.206  38.624  22.745  1.00  0.00     0.017 A 
ATOM     33  C   UNL     1      12.506  37.657  21.764  1.00  0.00     0.012 A 
ATOM     34  C   UNL     1      12.417  39.983  22.442  1.00  0.00     0.012 A 
ATOM     35  C   UNL     1      13.003  38.040  20.517  1.00  0.00     0.001 A 
ATOM     36  C   UNL     1      12.932  40.361  21.196  1.00  0.00     0.001 A 
ATOM     37  C   UNL     1      13.225  39.390  20.237  1.00  0.00     0.000 A 
ENDBRANCH  25  32
ENDBRANCH   1  17
TORSDOF 9
ENDMDL
