MODEL 1
REMARK VINA RESULT:    -3.867      0.000      0.000
REMARK INTER + INTRA:          -4.289
REMARK INTER:                  -4.093
REMARK INTRA:                  -0.196
REMARK UNBOUND:                -0.196
REMARK SMILES C=C1CC[C@]2(C(C)C)C[C@H]12
REMARK SMILES IDX 5 1 4 2 3 3 2 4 1 5 10 6 9 7 6 8 7 9 8 10
REMARK H PARENT
REMARK Flexibility Score: inf
ROOT
ATOM      1  C   UNL     1     134.406 139.782 135.462  1.00  0.00    -0.020 C 
ATOM      2  C   UNL     1     134.508 139.956 133.937  1.00  0.00     0.012 C 
ATOM      3  C   UNL     1     135.989 140.132 133.594  1.00  0.00     0.031 C 
ATOM      4  C   UNL     1     136.694 140.120 134.911  1.00  0.00    -0.074 C 
ATOM      5  C   UNL     1     138.010 140.293 135.052  1.00  0.00     0.008 C 
ATOM      6  C   UNL     1     135.794 139.916 136.072  1.00  0.00     0.021 C 
ATOM      7  C   UNL     1     134.758 141.014 136.298  1.00  0.00     0.016 C 
ENDROOT
BRANCH   1   8
ATOM      8  C   UNL     1     133.345 138.795 136.037  1.00  0.00    -0.011 C 
ATOM      9  C   UNL     1     134.043 137.695 136.844  1.00  0.00     0.008 C 
ATOM     10  C   UNL     1     132.381 138.176 135.011  1.00  0.00     0.008 C 
ENDBRANCH   1   8
TORSDOF 1
ENDMDL
MODEL 2
REMARK VINA RESULT:    -3.867      6.363      7.969
REMARK INTER + INTRA:          -4.289
REMARK INTER:                  -4.112
REMARK INTRA:                  -0.177
REMARK UNBOUND:                -0.196
REMARK SMILES C=C1CC[C@]2(C(C)C)C[C@H]12
REMARK SMILES IDX 5 1 4 2 3 3 2 4 1 5 10 6 9 7 6 8 7 9 8 10
REMARK H PARENT
REMARK Flexibility Score: inf
ROOT
ATOM      1  C   UNL     1     138.230 132.846 135.462  1.00  0.00    -0.020 C 
ATOM      2  C   UNL     1     138.126 132.660 133.939  1.00  0.00     0.012 C 
ATOM      3  C   UNL     1     136.643 132.495 133.599  1.00  0.00     0.031 C 
ATOM      4  C   UNL     1     135.939 132.524 134.915  1.00  0.00    -0.074 C 
ATOM      5  C   UNL     1     134.621 132.365 135.059  1.00  0.00     0.008 C 
ATOM      6  C   UNL     1     136.842 132.730 136.074  1.00  0.00     0.021 C 
ATOM      7  C   UNL     1     137.868 131.625 136.310  1.00  0.00     0.016 C 
ENDROOT
BRANCH   1   8
ATOM      8  C   UNL     1     139.301 133.828 136.028  1.00  0.00    -0.011 C 
ATOM      9  C   UNL     1     138.619 134.903 136.881  1.00  0.00     0.008 C 
ATOM     10  C   UNL     1     140.229 134.479 134.988  1.00  0.00     0.008 C 
ENDBRANCH   1   8
TORSDOF 1
ENDMDL
MODEL 3
REMARK VINA RESULT:    -3.853      3.733      5.627
REMARK INTER + INTRA:          -4.275
REMARK INTER:                  -4.091
REMARK INTRA:                  -0.184
REMARK UNBOUND:                -0.196
REMARK SMILES C=C1CC[C@]2(C(C)C)C[C@H]12
REMARK SMILES IDX 5 1 4 2 3 3 2 4 1 5 10 6 9 7 6 8 7 9 8 10
REMARK H PARENT
REMARK Flexibility Score: inf
ROOT
ATOM      1  C   UNL     1     139.767 138.222 135.509  1.00  0.00    -0.020 C 
ATOM      2  C   UNL     1     139.955 138.101 133.987  1.00  0.00     0.012 C 
ATOM      3  C   UNL     1     140.107 136.613 133.662  1.00  0.00     0.031 C 
ATOM      4  C   UNL     1     140.069 135.923 134.986  1.00  0.00    -0.074 C 
ATOM      5  C   UNL     1     140.218 134.605 135.143  1.00  0.00     0.008 C 
ATOM      6  C   UNL     1     139.870 136.839 136.135  1.00  0.00     0.021 C 
ATOM      7  C   UNL     1     140.983 137.858 136.362  1.00  0.00     0.016 C 
ENDROOT
BRANCH   1   8
ATOM      8  C   UNL     1     138.793 139.307 136.062  1.00  0.00    -0.011 C 
ATOM      9  C   UNL     1     137.695 138.640 136.899  1.00  0.00     0.008 C 
ATOM     10  C   UNL     1     138.172 140.247 135.015  1.00  0.00     0.008 C 
ENDBRANCH   1   8
TORSDOF 1
ENDMDL
MODEL 4
REMARK VINA RESULT:    -3.792      6.151      7.238
REMARK INTER + INTRA:          -4.210
REMARK INTER:                  -3.944
REMARK INTRA:                  -0.265
REMARK UNBOUND:                -0.196
REMARK SMILES C=C1CC[C@]2(C(C)C)C[C@H]12
REMARK SMILES IDX 5 1 4 2 3 3 2 4 1 5 10 6 9 7 6 8 7 9 8 10
REMARK H PARENT
REMARK Flexibility Score: inf
ROOT
ATOM      1  C   UNL     1     136.813 132.621 135.590  1.00  0.00    -0.020 C 
ATOM      2  C   UNL     1     136.599 133.998 136.239  1.00  0.00     0.012 C 
ATOM      3  C   UNL     1     137.916 134.769 136.122  1.00  0.00     0.031 C 
ATOM      4  C   UNL     1     138.866 133.814 135.478  1.00  0.00    -0.074 C 
ATOM      5  C   UNL     1     140.150 134.089 135.238  1.00  0.00     0.008 C 
ATOM      6  C   UNL     1     138.261 132.504 135.136  1.00  0.00     0.021 C 
ATOM      7  C   UNL     1     137.770 131.679 136.323  1.00  0.00     0.016 C 
ENDROOT
BRANCH   1   8
ATOM      8  C   UNL     1     135.642 131.979 134.784  1.00  0.00    -0.011 C 
ATOM      9  C   UNL     1     135.953 132.036 133.284  1.00  0.00     0.008 C 
ATOM     10  C   UNL     1     134.243 132.554 135.063  1.00  0.00     0.008 C 
ENDBRANCH   1   8
TORSDOF 1
ENDMDL
MODEL 5
REMARK VINA RESULT:    -3.789      4.042      6.033
REMARK INTER + INTRA:          -4.206
REMARK INTER:                  -3.943
REMARK INTRA:                  -0.263
REMARK UNBOUND:                -0.196
REMARK SMILES C=C1CC[C@]2(C(C)C)C[C@H]12
REMARK SMILES IDX 5 1 4 2 3 3 2 4 1 5 10 6 9 7 6 8 7 9 8 10
REMARK H PARENT
REMARK Flexibility Score: inf
ROOT
ATOM      1  C   UNL     1     140.002 136.841 135.563  1.00  0.00    -0.020 C 
ATOM      2  C   UNL     1     138.629 136.585 136.207  1.00  0.00     0.012 C 
ATOM      3  C   UNL     1     137.821 137.880 136.093  1.00  0.00     0.031 C 
ATOM      4  C   UNL     1     138.751 138.860 135.456  1.00  0.00    -0.074 C 
ATOM      5  C   UNL     1     138.440 140.137 135.220  1.00  0.00     0.008 C 
ATOM      6  C   UNL     1     140.079 138.294 135.116  1.00  0.00     0.021 C 
ATOM      7  C   UNL     1     140.913 137.821 136.304  1.00  0.00     0.016 C 
ENDROOT
BRANCH   1   8
ATOM      8  C   UNL     1     140.679 135.693 134.754  1.00  0.00    -0.011 C 
ATOM      9  C   UNL     1     140.629 136.014 133.257  1.00  0.00     0.008 C 
ATOM     10  C   UNL     1     140.136 134.278 135.017  1.00  0.00     0.008 C 
ENDBRANCH   1   8
TORSDOF 1
ENDMDL
MODEL 6
REMARK VINA RESULT:    -3.786      0.702      3.970
REMARK INTER + INTRA:          -4.204
REMARK INTER:                  -3.932
REMARK INTRA:                  -0.271
REMARK UNBOUND:                -0.196
REMARK SMILES C=C1CC[C@]2(C(C)C)C[C@H]12
REMARK SMILES IDX 5 1 4 2 3 3 2 4 1 5 10 6 9 7 6 8 7 9 8 10
REMARK H PARENT
REMARK Flexibility Score: inf
ROOT
ATOM      1  C   UNL     1     135.772 139.998 135.602  1.00  0.00    -0.020 C 
ATOM      2  C   UNL     1     136.020 138.622 136.242  1.00  0.00     0.012 C 
ATOM      3  C   UNL     1     134.717 137.826 136.137  1.00  0.00     0.031 C 
ATOM      4  C   UNL     1     133.741 138.764 135.506  1.00  0.00    -0.074 C 
ATOM      5  C   UNL     1     132.460 138.465 135.279  1.00  0.00     0.008 C 
ATOM      6  C   UNL     1     134.317 140.088 135.164  1.00  0.00     0.021 C 
ATOM      7  C   UNL     1     134.804 140.917 136.349  1.00  0.00     0.016 C 
ENDROOT
BRANCH   1   8
ATOM      8  C   UNL     1     136.920 140.666 134.786  1.00  0.00    -0.011 C 
ATOM      9  C   UNL     1     136.613 140.576 133.287  1.00  0.00     0.008 C 
ATOM     10  C   UNL     1     138.338 140.142 135.073  1.00  0.00     0.008 C 
ENDBRANCH   1   8
TORSDOF 1
ENDMDL
MODEL 7
REMARK VINA RESULT:    -3.785      5.232      6.966
REMARK INTER + INTRA:          -4.202
REMARK INTER:                  -3.909
REMARK INTRA:                  -0.293
REMARK UNBOUND:                -0.196
REMARK SMILES C=C1CC[C@]2(C(C)C)C[C@H]12
REMARK SMILES IDX 5 1 4 2 3 3 2 4 1 5 10 6 9 7 6 8 7 9 8 10
REMARK H PARENT
REMARK Flexibility Score: inf
ROOT
ATOM      1  C   UNL     1     139.966 136.118 134.918  1.00  0.00    -0.020 C 
ATOM      2  C   UNL     1     138.563 136.219 134.298  1.00  0.00     0.012 C 
ATOM      3  C   UNL     1     137.926 134.830 134.377  1.00  0.00     0.031 C 
ATOM      4  C   UNL     1     138.980 133.955 134.972  1.00  0.00    -0.074 C 
ATOM      5  C   UNL     1     138.835 132.643 135.169  1.00  0.00     0.008 C 
ATOM      6  C   UNL     1     140.231 134.673 135.317  1.00  0.00     0.021 C 
ATOM      7  C   UNL     1     140.982 135.284 134.137  1.00  0.00     0.016 C 
ENDROOT
BRANCH   1   8
ATOM      8  C   UNL     1     140.505 137.316 135.757  1.00  0.00    -0.011 C 
ATOM      9  C   UNL     1     139.960 137.235 137.188  1.00  0.00     0.008 C 
ATOM     10  C   UNL     1     140.253 138.715 135.167  1.00  0.00     0.008 C 
ENDBRANCH   1   8
TORSDOF 1
ENDMDL
MODEL 8
REMARK VINA RESULT:    -3.778      3.387      5.567
REMARK INTER + INTRA:          -4.195
REMARK INTER:                  -3.922
REMARK INTRA:                  -0.273
REMARK UNBOUND:                -0.196
REMARK SMILES C=C1CC[C@]2(C(C)C)C[C@H]12
REMARK SMILES IDX 5 1 4 2 3 3 2 4 1 5 10 6 9 7 6 8 7 9 8 10
REMARK H PARENT
REMARK Flexibility Score: inf
ROOT
ATOM      1  C   UNL     1     132.694 135.850 135.612  1.00  0.00    -0.020 C 
ATOM      2  C   UNL     1     134.086 136.088 136.221  1.00  0.00     0.012 C 
ATOM      3  C   UNL     1     134.867 134.777 136.105  1.00  0.00     0.031 C 
ATOM      4  C   UNL     1     133.905 133.807 135.501  1.00  0.00    -0.074 C 
ATOM      5  C   UNL     1     134.187 132.522 135.274  1.00  0.00     0.008 C 
ATOM      6  C   UNL     1     132.580 134.394 135.184  1.00  0.00     0.021 C 
ATOM      7  C   UNL     1     131.782 134.896 136.385  1.00  0.00     0.016 C 
ENDROOT
BRANCH   1   8
ATOM      8  C   UNL     1     132.019 137.001 134.805  1.00  0.00    -0.011 C 
ATOM      9  C   UNL     1     132.082 136.689 133.306  1.00  0.00     0.008 C 
ATOM     10  C   UNL     1     132.557 138.416 135.080  1.00  0.00     0.008 C 
ENDBRANCH   1   8
TORSDOF 1
ENDMDL
MODEL 9
REMARK VINA RESULT:    -3.760      1.511      2.533
REMARK INTER + INTRA:          -4.176
REMARK INTER:                  -3.886
REMARK INTRA:                  -0.289
REMARK UNBOUND:                -0.196
REMARK SMILES C=C1CC[C@]2(C(C)C)C[C@H]12
REMARK SMILES IDX 5 1 4 2 3 3 2 4 1 5 10 6 9 7 6 8 7 9 8 10
REMARK H PARENT
REMARK Flexibility Score: inf
ROOT
ATOM      1  C   UNL     1     136.382 139.943 134.939  1.00  0.00    -0.020 C 
ATOM      2  C   UNL     1     136.301 138.500 134.414  1.00  0.00     0.012 C 
ATOM      3  C   UNL     1     137.708 137.903 134.494  1.00  0.00     0.031 C 
ATOM      4  C   UNL     1     138.570 139.015 134.995  1.00  0.00    -0.074 C 
ATOM      5  C   UNL     1     139.891 138.915 135.163  1.00  0.00     0.008 C 
ATOM      6  C   UNL     1     137.830 140.268 135.278  1.00  0.00     0.021 C 
ATOM      7  C   UNL     1     137.168 140.925 134.069  1.00  0.00     0.016 C 
ENDROOT
BRANCH   1   8
ATOM      8  C   UNL     1     135.193 140.507 135.774  1.00  0.00    -0.011 C 
ATOM      9  C   UNL     1     135.303 140.024 137.225  1.00  0.00     0.008 C 
ATOM     10  C   UNL     1     133.787 140.219 135.219  1.00  0.00     0.008 C 
ENDBRANCH   1   8
TORSDOF 1
ENDMDL
