MODEL 1
REMARK VINA RESULT:     0.315      0.000      0.000
REMARK INTER + INTRA:           3.666
REMARK INTER:                   0.426
REMARK INTRA:                   3.240
REMARK UNBOUND:                 3.240
REMARK SMILES O=c1c(-c2ccc(O)cc2)coc2c([C@@H]3O[C@@H](CO)[C@@H](O)[C@H](O)[C@@H]3O)c(O)ccc12
REMARK SMILES IDX 3 1 11 2 12 3 13 4 30 5 2 6 1 7 29 8 28 9 26 10 14 11 4 12
REMARK SMILES IDX 5 13 6 14 7 15 10 16 9 17 8 18 15 20 24 21 16 22 22 23 17 24
REMARK SMILES IDX 20 25 25 26 23 28 18 30 19 31 21 33 27 35
REMARK H PARENT 8 19 25 27 23 29 19 32 21 34 27 36
REMARK Flexibility Score: inf
ROOT
ATOM      1  C   UNL     1       4.448  -4.978  14.156  1.00  0.00     0.065 A 
ATOM      2  C   UNL     1       4.271  -5.681  15.354  1.00  0.00     0.208 A 
ATOM      3  O   UNL     1       4.217  -7.008  15.364  1.00  0.00    -0.463 OA
ATOM      4  C   UNL     1       4.324  -7.755  14.267  1.00  0.00     0.147 A 
ATOM      5  C   UNL     1       4.546  -7.124  13.020  1.00  0.00     0.066 A 
ATOM      6  C   UNL     1       4.599  -5.720  12.971  1.00  0.00     0.200 A 
ATOM      7  O   UNL     1       4.809  -5.127  11.875  1.00  0.00    -0.288 OA
ATOM      8  C   UNL     1       4.739  -7.907  11.875  1.00  0.00     0.020 A 
ATOM      9  C   UNL     1       4.788  -9.291  11.980  1.00  0.00     0.047 A 
ATOM     10  C   UNL     1       4.593  -9.927  13.212  1.00  0.00     0.125 A 
ATOM     11  C   UNL     1       4.229  -9.171  14.361  1.00  0.00     0.069 A 
ENDROOT
BRANCH   1  12
ATOM     12  C   UNL     1       4.487  -3.494  14.165  1.00  0.00    -0.011 A 
ATOM     13  C   UNL     1       4.044  -2.766  13.047  1.00  0.00     0.013 A 
ATOM     14  C   UNL     1       4.088  -1.368  13.050  1.00  0.00     0.047 A 
ATOM     15  C   UNL     1       4.581  -0.681  14.168  1.00  0.00     0.115 A 
ATOM     16  C   UNL     1       4.986  -2.798  15.281  1.00  0.00     0.013 A 
ATOM     17  C   UNL     1       5.030  -1.400  15.281  1.00  0.00     0.047 A 
BRANCH  15  18
ATOM     18  O   UNL     1       4.630   0.710  14.183  1.00  0.00    -0.508 OA
ATOM     19  H   UNL     1       5.246   1.225  13.565  1.00  0.00     0.293 HD
ENDBRANCH  15  18
ENDBRANCH   1  12
BRANCH  11  20
ATOM     20  C   UNL     1       3.876  -9.802  15.727  1.00  0.00     0.188 C 
ATOM     21  C   UNL     1       4.344 -11.288  15.976  1.00  0.00     0.179 C 
ATOM     22  O   UNL     1       4.082  -8.938  16.845  1.00  0.00    -0.362 OA
ATOM     23  C   UNL     1       5.654 -11.429  16.775  1.00  0.00     0.177 C 
ATOM     24  C   UNL     1       5.359  -9.064  17.459  1.00  0.00     0.176 C 
ATOM     25  C   UNL     1       5.620 -10.488  17.977  1.00  0.00     0.177 C 
BRANCH  21  26
ATOM     26  O   UNL     1       4.387 -12.073  14.811  1.00  0.00    -0.387 OA
ATOM     27  H   UNL     1       5.313 -12.049  14.457  1.00  0.00     0.211 HD
ENDBRANCH  21  26
BRANCH  23  28
ATOM     28  O   UNL     1       6.770 -11.126  15.973  1.00  0.00    -0.387 OA
ATOM     29  H   UNL     1       7.127 -10.253  16.281  1.00  0.00     0.211 HD
ENDBRANCH  23  28
BRANCH  24  30
ATOM     30  C   UNL     1       5.479  -8.023  18.580  1.00  0.00     0.191 C 
BRANCH  30  31
ATOM     31  O   UNL     1       4.598  -6.955  18.360  1.00  0.00    -0.394 OA
ATOM     32  H   UNL     1       4.385  -6.583  19.255  1.00  0.00     0.210 HD
ENDBRANCH  30  31
ENDBRANCH  24  30
BRANCH  25  33
ATOM     33  O   UNL     1       4.608 -10.891  18.866  1.00  0.00    -0.388 OA
ATOM     34  H   UNL     1       4.035 -10.099  19.036  1.00  0.00     0.211 HD
ENDBRANCH  25  33
ENDBRANCH  11  20
BRANCH  10  35
ATOM     35  O   UNL     1       4.825 -11.299  13.283  1.00  0.00    -0.507 OA
ATOM     36  H   UNL     1       5.761 -11.685  13.310  1.00  0.00     0.293 HD
ENDBRANCH  10  35
TORSDOF 9
ENDMDL
