MODEL 1
REMARK VINA RESULT:    -3.682      0.000      0.000
REMARK INTER + INTRA:          -5.144
REMARK INTER:                  -4.758
REMARK INTRA:                  -0.385
REMARK UNBOUND:                -0.385
REMARK SMILES CCO[C@H]1O[C@H](CO)[C@H](O)[C@H](O)[C@@H]1O
REMARK SMILES IDX 4 1 13 2 11 3 9 4 6 5 5 6 3 7 2 8 1 9 14 10 12 12 7 14 8 15
REMARK SMILES IDX 10 17
REMARK H PARENT 14 11 12 13 8 16 10 18
REMARK Flexibility Score: inf
ROOT
ATOM      1  C   UNL     1      19.392  -7.772   4.728  1.00  0.00     0.281 C 
ATOM      2  C   UNL     1      17.889  -7.943   5.014  1.00  0.00     0.202 C 
ATOM      3  C   UNL     1      17.526  -7.459   6.441  1.00  0.00     0.179 C 
ATOM      4  C   UNL     1      18.770  -7.442   7.370  1.00  0.00     0.177 C 
ATOM      5  C   UNL     1      19.830  -8.521   6.988  1.00  0.00     0.178 C 
ATOM      6  O   UNL     1      20.204  -8.542   5.609  1.00  0.00    -0.341 OA
ENDROOT
BRANCH   1   7
ATOM      7  O   UNL     1      19.742  -6.400   4.783  1.00  0.00    -0.350 OA
BRANCH   7   8
ATOM      8  C   UNL     1      21.077  -6.215   4.361  1.00  0.00     0.160 C 
ATOM      9  C   UNL     1      21.289  -4.750   4.014  1.00  0.00     0.035 C 
ENDBRANCH   7   8
ENDBRANCH   1   7
BRANCH   2  10
ATOM     10  O   UNL     1      17.549  -9.296   4.833  1.00  0.00    -0.385 OA
ATOM     11  H   UNL     1      16.627  -9.318   4.466  1.00  0.00     0.211 HD
ENDBRANCH   2  10
BRANCH   3  12
ATOM     12  O   UNL     1      16.494  -8.255   6.971  1.00  0.00    -0.387 OA
ATOM     13  H   UNL     1      15.763  -8.273   6.299  1.00  0.00     0.211 HD
ENDBRANCH   3  12
BRANCH   5  14
ATOM     14  C   UNL     1      19.436  -9.952   7.411  1.00  0.00     0.191 C 
BRANCH  14  15
ATOM     15  O   UNL     1      19.425 -10.084   8.808  1.00  0.00    -0.394 OA
ATOM     16  H   UNL     1      19.005 -10.960   9.009  1.00  0.00     0.210 HD
ENDBRANCH  14  15
ENDBRANCH   5  14
BRANCH   4  17
ATOM     17  O   UNL     1      18.432  -7.474   8.737  1.00  0.00    -0.387 OA
ATOM     18  H   UNL     1      19.257  -7.624   9.263  1.00  0.00     0.211 HD
ENDBRANCH   4  17
TORSDOF 7
ENDMDL
MODEL 2
REMARK VINA RESULT:    -3.171      2.086      4.128
REMARK INTER + INTRA:          -4.483
REMARK INTER:                  -4.276
REMARK INTRA:                  -0.207
REMARK UNBOUND:                -0.385
REMARK SMILES CCO[C@H]1O[C@H](CO)[C@H](O)[C@H](O)[C@@H]1O
REMARK SMILES IDX 4 1 13 2 11 3 9 4 6 5 5 6 3 7 2 8 1 9 14 10 12 12 7 14 8 15
REMARK SMILES IDX 10 17
REMARK H PARENT 14 11 12 13 8 16 10 18
REMARK Flexibility Score: inf
ROOT
ATOM      1  C   UNL     1      19.471  -8.563   4.782  1.00  0.00     0.281 C 
ATOM      2  C   UNL     1      19.588  -7.611   5.985  1.00  0.00     0.202 C 
ATOM      3  C   UNL     1      20.061  -6.201   5.546  1.00  0.00     0.179 C 
ATOM      4  C   UNL     1      20.787  -6.245   4.176  1.00  0.00     0.177 C 
ATOM      5  C   UNL     1      21.517  -7.599   3.917  1.00  0.00     0.178 C 
ATOM      6  O   UNL     1      20.719  -8.767   4.125  1.00  0.00    -0.341 OA
ENDROOT
BRANCH   1   7
ATOM      7  O   UNL     1      18.494  -8.081   3.876  1.00  0.00    -0.350 OA
BRANCH   7   8
ATOM      8  C   UNL     1      17.196  -8.346   4.365  1.00  0.00     0.160 C 
ATOM      9  C   UNL     1      16.404  -7.048   4.398  1.00  0.00     0.035 C 
ENDBRANCH   7   8
ENDBRANCH   1   7
BRANCH   2  10
ATOM     10  O   UNL     1      20.473  -8.176   6.921  1.00  0.00    -0.385 OA
ATOM     11  H   UNL     1      20.589  -9.131   6.672  1.00  0.00     0.211 HD
ENDBRANCH   2  10
BRANCH   3  12
ATOM     12  O   UNL     1      20.872  -5.634   6.547  1.00  0.00    -0.387 OA
ATOM     13  H   UNL     1      21.342  -4.859   6.140  1.00  0.00     0.211 HD
ENDBRANCH   3  12
BRANCH   5  14
ATOM     14  C   UNL     1      22.832  -7.756   4.708  1.00  0.00     0.191 C 
BRANCH  14  15
ATOM     15  O   UNL     1      23.124  -6.596   5.441  1.00  0.00    -0.394 OA
ATOM     16  H   UNL     1      22.883  -6.785   6.385  1.00  0.00     0.210 HD
ENDBRANCH  14  15
ENDBRANCH   5  14
BRANCH   4  17
ATOM     17  O   UNL     1      21.623  -5.131   3.964  1.00  0.00    -0.387 OA
ATOM     18  H   UNL     1      21.550  -4.528   4.746  1.00  0.00     0.211 HD
ENDBRANCH   4  17
TORSDOF 7
ENDMDL
MODEL 3
REMARK VINA RESULT:    -3.145      1.867      3.547
REMARK INTER + INTRA:          -4.449
REMARK INTER:                  -4.045
REMARK INTRA:                  -0.405
REMARK UNBOUND:                -0.385
REMARK SMILES CCO[C@H]1O[C@H](CO)[C@H](O)[C@H](O)[C@@H]1O
REMARK SMILES IDX 4 1 13 2 11 3 9 4 6 5 5 6 3 7 2 8 1 9 14 10 12 12 7 14 8 15
REMARK SMILES IDX 10 17
REMARK H PARENT 14 11 12 13 8 16 10 18
REMARK Flexibility Score: inf
ROOT
ATOM      1  C   UNL     1      17.828  -8.203   4.959  1.00  0.00     0.281 C 
ATOM      2  C   UNL     1      18.084  -8.303   6.474  1.00  0.00     0.202 C 
ATOM      3  C   UNL     1      19.013  -7.164   6.966  1.00  0.00     0.179 C 
ATOM      4  C   UNL     1      19.851  -6.569   5.803  1.00  0.00     0.177 C 
ATOM      5  C   UNL     1      20.158  -7.609   4.680  1.00  0.00     0.178 C 
ATOM      6  O   UNL     1      19.024  -8.329   4.195  1.00  0.00    -0.341 OA
ENDROOT
BRANCH   1   7
ATOM      7  O   UNL     1      17.160  -6.989   4.660  1.00  0.00    -0.350 OA
BRANCH   7   8
ATOM      8  C   UNL     1      15.832  -7.027   5.139  1.00  0.00     0.160 C 
ATOM      9  C   UNL     1      14.986  -7.860   4.188  1.00  0.00     0.035 C 
ENDBRANCH   7   8
ENDBRANCH   1   7
BRANCH   2  10
ATOM     10  O   UNL     1      18.636  -9.566   6.753  1.00  0.00    -0.385 OA
ATOM     11  H   UNL     1      18.796 -10.013   5.881  1.00  0.00     0.211 HD
ENDBRANCH   2  10
BRANCH   3  12
ATOM     12  O   UNL     1      19.832  -7.629   8.011  1.00  0.00    -0.387 OA
ATOM     13  H   UNL     1      20.771  -7.595   7.687  1.00  0.00     0.211 HD
ENDBRANCH   3  12
BRANCH   5  14
ATOM     14  C   UNL     1      21.258  -8.622   5.060  1.00  0.00     0.191 C 
BRANCH  14  15
ATOM     15  O   UNL     1      22.472  -7.975   5.335  1.00  0.00    -0.394 OA
ATOM     16  H   UNL     1      23.168  -8.681   5.382  1.00  0.00     0.210 HD
ENDBRANCH  14  15
ENDBRANCH   5  14
BRANCH   4  17
ATOM     17  O   UNL     1      21.005  -5.896   6.248  1.00  0.00    -0.387 OA
ATOM     18  H   UNL     1      21.398  -6.406   7.001  1.00  0.00     0.211 HD
ENDBRANCH   4  17
TORSDOF 7
ENDMDL
MODEL 4
REMARK VINA RESULT:    -3.070      1.346      3.035
REMARK INTER + INTRA:          -4.353
REMARK INTER:                  -4.054
REMARK INTRA:                  -0.300
REMARK UNBOUND:                -0.385
REMARK SMILES CCO[C@H]1O[C@H](CO)[C@H](O)[C@H](O)[C@@H]1O
REMARK SMILES IDX 4 1 13 2 11 3 9 4 6 5 5 6 3 7 2 8 1 9 14 10 12 12 7 14 8 15
REMARK SMILES IDX 10 17
REMARK H PARENT 14 11 12 13 8 16 10 18
REMARK Flexibility Score: inf
ROOT
ATOM      1  C   UNL     1      19.724  -7.058   5.252  1.00  0.00     0.281 C 
ATOM      2  C   UNL     1      20.098  -7.628   6.632  1.00  0.00     0.202 C 
ATOM      3  C   UNL     1      19.403  -8.990   6.887  1.00  0.00     0.179 C 
ATOM      4  C   UNL     1      18.151  -9.169   5.989  1.00  0.00     0.177 C 
ATOM      5  C   UNL     1      17.458  -7.817   5.635  1.00  0.00     0.178 C 
ATOM      6  O   UNL     1      18.328  -6.804   5.127  1.00  0.00    -0.341 OA
ENDROOT
BRANCH   1   7
ATOM      7  O   UNL     1      20.175  -7.931   4.230  1.00  0.00    -0.350 OA
BRANCH   7   8
ATOM      8  C   UNL     1      21.574  -7.823   4.072  1.00  0.00     0.160 C 
ATOM      9  C   UNL     1      21.940  -6.360   3.876  1.00  0.00     0.035 C 
ENDBRANCH   7   8
ENDBRANCH   1   7
BRANCH   2  10
ATOM     10  O   UNL     1      19.748  -6.685   7.615  1.00  0.00    -0.385 OA
ATOM     11  H   UNL     1      20.585  -6.233   7.896  1.00  0.00     0.211 HD
ENDBRANCH   2  10
BRANCH   3  12
ATOM     12  O   UNL     1      19.086  -9.119   8.252  1.00  0.00    -0.387 OA
ATOM     13  H   UNL     1      19.033 -10.090   8.452  1.00  0.00     0.211 HD
ENDBRANCH   3  12
BRANCH   5  14
ATOM     14  C   UNL     1      16.637  -7.219   6.797  1.00  0.00     0.191 C 
BRANCH  14  15
ATOM     15  O   UNL     1      15.282  -7.570   6.693  1.00  0.00    -0.394 OA
ATOM     16  H   UNL     1      15.022  -7.430   5.745  1.00  0.00     0.210 HD
ENDBRANCH  14  15
ENDBRANCH   5  14
BRANCH   4  17
ATOM     17  O   UNL     1      17.248 -10.125   6.493  1.00  0.00    -0.387 OA
ATOM     18  H   UNL     1      16.426 -10.105   5.941  1.00  0.00     0.211 HD
ENDBRANCH   4  17
TORSDOF 7
ENDMDL
MODEL 5
REMARK VINA RESULT:    -3.067     10.488     12.646
REMARK INTER + INTRA:          -4.349
REMARK INTER:                  -3.849
REMARK INTRA:                  -0.500
REMARK UNBOUND:                -0.385
REMARK SMILES CCO[C@H]1O[C@H](CO)[C@H](O)[C@H](O)[C@@H]1O
REMARK SMILES IDX 4 1 13 2 11 3 9 4 6 5 5 6 3 7 2 8 1 9 14 10 12 12 7 14 8 15
REMARK SMILES IDX 10 17
REMARK H PARENT 14 11 12 13 8 16 10 18
REMARK Flexibility Score: inf
ROOT
ATOM      1  C   UNL     1       5.825  -8.415   5.417  1.00  0.00     0.281 C 
ATOM      2  C   UNL     1       6.711  -7.157   5.363  1.00  0.00     0.202 C 
ATOM      3  C   UNL     1       8.069  -7.452   4.677  1.00  0.00     0.179 C 
ATOM      4  C   UNL     1       8.407  -8.966   4.709  1.00  0.00     0.177 C 
ATOM      5  C   UNL     1       7.807  -9.698   5.950  1.00  0.00     0.178 C 
ATOM      6  O   UNL     1       6.415  -9.465   6.176  1.00  0.00    -0.341 OA
ENDROOT
BRANCH   1   7
ATOM      7  O   UNL     1       5.519  -8.848   4.102  1.00  0.00    -0.350 OA
BRANCH   7   8
ATOM      8  C   UNL     1       4.483  -9.808   4.129  1.00  0.00     0.160 C 
ATOM      9  C   UNL     1       3.208  -9.149   4.631  1.00  0.00     0.035 C 
ENDBRANCH   7   8
ENDBRANCH   1   7
BRANCH   2  10
ATOM     10  O   UNL     1       6.895  -6.683   6.674  1.00  0.00    -0.385 OA
ATOM     11  H   UNL     1       7.708  -6.113   6.666  1.00  0.00     0.211 HD
ENDBRANCH   2  10
BRANCH   3  12
ATOM     12  O   UNL     1       9.084  -6.680   5.270  1.00  0.00    -0.387 OA
ATOM     13  H   UNL     1       9.190  -5.860   4.720  1.00  0.00     0.211 HD
ENDBRANCH   3  12
BRANCH   5  14
ATOM     14  C   UNL     1       8.570  -9.418   7.262  1.00  0.00     0.191 C 
BRANCH  14  15
ATOM     15  O   UNL     1       7.690  -9.055   8.293  1.00  0.00    -0.394 OA
ATOM     16  H   UNL     1       7.194  -9.876   8.547  1.00  0.00     0.210 HD
ENDBRANCH  14  15
ENDBRANCH   5  14
BRANCH   4  17
ATOM     17  O   UNL     1       9.781  -9.224   4.541  1.00  0.00    -0.387 OA
ATOM     18  H   UNL     1      10.027  -9.027   3.602  1.00  0.00     0.211 HD
ENDBRANCH   4  17
TORSDOF 7
ENDMDL
MODEL 6
REMARK VINA RESULT:    -3.065      9.453     11.542
REMARK INTER + INTRA:          -4.347
REMARK INTER:                  -3.868
REMARK INTRA:                  -0.479
REMARK UNBOUND:                -0.385
REMARK SMILES CCO[C@H]1O[C@H](CO)[C@H](O)[C@H](O)[C@@H]1O
REMARK SMILES IDX 4 1 13 2 11 3 9 4 6 5 5 6 3 7 2 8 1 9 14 10 12 12 7 14 8 15
REMARK SMILES IDX 10 17
REMARK H PARENT 14 11 12 13 8 16 10 18
REMARK Flexibility Score: inf
ROOT
ATOM      1  C   UNL     1       9.155  -7.991   5.510  1.00  0.00     0.281 C 
ATOM      2  C   UNL     1       8.589  -9.007   6.518  1.00  0.00     0.202 C 
ATOM      3  C   UNL     1       7.429  -9.829   5.900  1.00  0.00     0.179 C 
ATOM      4  C   UNL     1       6.794  -9.096   4.688  1.00  0.00     0.177 C 
ATOM      5  C   UNL     1       6.885  -7.543   4.800  1.00  0.00     0.178 C 
ATOM      6  O   UNL     1       8.185  -7.032   5.100  1.00  0.00    -0.341 OA
ENDROOT
BRANCH   1   7
ATOM      7  O   UNL     1       9.702  -8.670   4.392  1.00  0.00    -0.350 OA
BRANCH   7   8
ATOM      8  C   UNL     1      11.072  -8.942   4.603  1.00  0.00     0.160 C 
ATOM      9  C   UNL     1      11.746  -7.694   5.152  1.00  0.00     0.035 C 
ENDBRANCH   7   8
ENDBRANCH   1   7
BRANCH   2  10
ATOM     10  O   UNL     1       8.167  -8.312   7.665  1.00  0.00    -0.385 OA
ATOM     11  H   UNL     1       8.971  -8.160   8.227  1.00  0.00     0.211 HD
ENDBRANCH   2  10
BRANCH   3  12
ATOM     12  O   UNL     1       6.472 -10.125   6.888  1.00  0.00    -0.387 OA
ATOM     13  H   UNL     1       5.810  -9.385   6.887  1.00  0.00     0.211 HD
ENDBRANCH   3  12
BRANCH   5  14
ATOM     14  C   UNL     1       5.877  -6.934   5.797  1.00  0.00     0.191 C 
BRANCH  14  15
ATOM     15  O   UNL     1       6.524  -6.125   6.743  1.00  0.00    -0.394 OA
ATOM     16  H   UNL     1       5.815  -5.722   7.308  1.00  0.00     0.210 HD
ENDBRANCH  14  15
ENDBRANCH   5  14
BRANCH   4  17
ATOM     17  O   UNL     1       5.490  -9.543   4.401  1.00  0.00    -0.387 OA
ATOM     18  H   UNL     1       5.299 -10.340   4.957  1.00  0.00     0.211 HD
ENDBRANCH   4  17
TORSDOF 7
ENDMDL
MODEL 7
REMARK VINA RESULT:    -3.019      1.777      3.503
REMARK INTER + INTRA:          -4.287
REMARK INTER:                  -3.914
REMARK INTRA:                  -0.373
REMARK UNBOUND:                -0.385
REMARK SMILES CCO[C@H]1O[C@H](CO)[C@H](O)[C@H](O)[C@@H]1O
REMARK SMILES IDX 4 1 13 2 11 3 9 4 6 5 5 6 3 7 2 8 1 9 14 10 12 12 7 14 8 15
REMARK SMILES IDX 10 17
REMARK H PARENT 14 11 12 13 8 16 10 18
REMARK Flexibility Score: inf
ROOT
ATOM      1  C   UNL     1      18.462  -7.830   6.435  1.00  0.00     0.281 C 
ATOM      2  C   UNL     1      18.145  -9.101   5.627  1.00  0.00     0.202 C 
ATOM      3  C   UNL     1      17.168  -8.800   4.462  1.00  0.00     0.179 C 
ATOM      4  C   UNL     1      16.365  -7.496   4.713  1.00  0.00     0.177 C 
ATOM      5  C   UNL     1      16.131  -7.208   6.229  1.00  0.00     0.178 C 
ATOM      6  O   UNL     1      17.303  -7.269   7.045  1.00  0.00    -0.341 OA
ENDROOT
BRANCH   1   7
ATOM      7  O   UNL     1      19.111  -6.879   5.609  1.00  0.00    -0.350 OA
BRANCH   7   8
ATOM      8  C   UNL     1      20.429  -7.297   5.319  1.00  0.00     0.160 C 
ATOM      9  C   UNL     1      21.272  -6.079   4.979  1.00  0.00     0.035 C 
ENDBRANCH   7   8
ENDBRANCH   1   7
BRANCH   2  10
ATOM     10  O   UNL     1      17.615 -10.067   6.500  1.00  0.00    -0.385 OA
ATOM     11  H   UNL     1      17.623  -9.672   7.411  1.00  0.00     0.211 HD
ENDBRANCH   2  10
BRANCH   3  12
ATOM     12  O   UNL     1      16.318  -9.901   4.251  1.00  0.00    -0.387 OA
ATOM     13  H   UNL     1      16.658 -10.647   4.813  1.00  0.00     0.211 HD
ENDBRANCH   3  12
BRANCH   5  14
ATOM     14  C   UNL     1      15.042  -8.096   6.867  1.00  0.00     0.191 C 
BRANCH  14  15
ATOM     15  O   UNL     1      13.796  -7.888   6.257  1.00  0.00    -0.394 OA
ATOM     16  H   UNL     1      13.114  -7.938   6.976  1.00  0.00     0.210 HD
ENDBRANCH  14  15
ENDBRANCH   5  14
BRANCH   4  17
ATOM     17  O   UNL     1      15.177  -7.432   3.960  1.00  0.00    -0.387 OA
ATOM     18  H   UNL     1      15.413  -7.404   2.999  1.00  0.00     0.211 HD
ENDBRANCH   4  17
TORSDOF 7
ENDMDL
MODEL 8
REMARK VINA RESULT:    -3.019      3.293      5.309
REMARK INTER + INTRA:          -4.287
REMARK INTER:                  -3.867
REMARK INTRA:                  -0.419
REMARK UNBOUND:                -0.385
REMARK SMILES CCO[C@H]1O[C@H](CO)[C@H](O)[C@H](O)[C@@H]1O
REMARK SMILES IDX 4 1 13 2 11 3 9 4 6 5 5 6 3 7 2 8 1 9 14 10 12 12 7 14 8 15
REMARK SMILES IDX 10 17
REMARK H PARENT 14 11 12 13 8 16 10 18
REMARK Flexibility Score: inf
ROOT
ATOM      1  C   UNL     1      14.286  -8.115   4.132  1.00  0.00     0.281 C 
ATOM      2  C   UNL     1      14.639  -9.421   4.866  1.00  0.00     0.202 C 
ATOM      3  C   UNL     1      15.168  -9.139   6.296  1.00  0.00     0.179 C 
ATOM      4  C   UNL     1      15.704  -7.689   6.430  1.00  0.00     0.177 C 
ATOM      5  C   UNL     1      16.275  -7.125   5.092  1.00  0.00     0.178 C 
ATOM      6  O   UNL     1      15.415  -7.265   3.959  1.00  0.00    -0.341 OA
ENDROOT
BRANCH   1   7
ATOM      7  O   UNL     1      13.243  -7.442   4.815  1.00  0.00    -0.350 OA
BRANCH   7   8
ATOM      8  C   UNL     1      12.047  -8.191   4.751  1.00  0.00     0.160 C 
ATOM      9  C   UNL     1      11.323  -8.083   6.083  1.00  0.00     0.035 C 
ENDBRANCH   7   8
ENDBRANCH   1   7
BRANCH   2  10
ATOM     10  O   UNL     1      15.587 -10.124   4.101  1.00  0.00    -0.385 OA
ATOM     11  H   UNL     1      16.464 -10.017   4.554  1.00  0.00     0.211 HD
ENDBRANCH   2  10
BRANCH   3  12
ATOM     12  O   UNL     1      16.148 -10.089   6.641  1.00  0.00    -0.387 OA
ATOM     13  H   UNL     1      16.283 -10.029   7.623  1.00  0.00     0.211 HD
ENDBRANCH   3  12
BRANCH   5  14
ATOM     14  C   UNL     1      17.664  -7.689   4.725  1.00  0.00     0.191 C 
BRANCH  14  15
ATOM     15  O   UNL     1      18.637  -7.281   5.651  1.00  0.00    -0.394 OA
ATOM     16  H   UNL     1      18.819  -8.062   6.237  1.00  0.00     0.210 HD
ENDBRANCH  14  15
ENDBRANCH   5  14
BRANCH   4  17
ATOM     17  O   UNL     1      16.596  -7.533   7.508  1.00  0.00    -0.387 OA
ATOM     18  H   UNL     1      16.404  -6.671   7.955  1.00  0.00     0.211 HD
ENDBRANCH   4  17
TORSDOF 7
ENDMDL
