MODEL 1
REMARK VINA RESULT:    -1.431      0.000      0.000
REMARK INTER + INTRA:          -1.431
REMARK INTER:                  -1.431
REMARK INTRA:                   0.000
REMARK UNBOUND:                 0.000
REMARK SMILES CC(C)=C1CC[C@H](C)CC1=O
REMARK SMILES IDX 8 1 7 2 6 3 5 4 4 5 2 6 1 7 3 8 10 9 11 10 9 11
REMARK H PARENT
REMARK Flexibility Score: inf
ROOT
ATOM      1  C   UNL     1      89.702  26.716  14.364  1.00  0.00     0.008 C 
ATOM      2  C   UNL     1      90.962  26.889  13.508  1.00  0.00    -0.006 C 
ATOM      3  C   UNL     1      90.975  25.875  12.353  1.00  0.00     0.008 C 
ATOM      4  C   UNL     1      92.276  25.966  11.546  1.00  0.00     0.039 C 
ATOM      5  C   UNL     1      92.578  27.385  11.081  1.00  0.00    -0.006 C 
ATOM      6  C   UNL     1      93.233  27.623   9.908  1.00  0.00    -0.070 C 
ATOM      7  C   UNL     1      93.489  29.027   9.409  1.00  0.00     0.039 C 
ATOM      8  C   UNL     1      93.704  26.487   9.028  1.00  0.00     0.039 C 
ATOM      9  C   UNL     1      92.220  28.476  12.035  1.00  0.00     0.159 C 
ATOM     10  O   UNL     1      92.894  29.540  12.097  1.00  0.00    -0.295 OA
ATOM     11  C   UNL     1      91.042  28.319  12.952  1.00  0.00     0.084 C 
ENDROOT
TORSDOF 0
ENDMDL
MODEL 2
REMARK VINA RESULT:    -1.416      1.486      4.558
REMARK INTER + INTRA:          -1.416
REMARK INTER:                  -1.416
REMARK INTRA:                   0.000
REMARK UNBOUND:                 0.000
REMARK SMILES CC(C)=C1CC[C@H](C)CC1=O
REMARK SMILES IDX 8 1 7 2 6 3 5 4 4 5 2 6 1 7 3 8 10 9 11 10 9 11
REMARK H PARENT
REMARK Flexibility Score: inf
ROOT
ATOM      1  C   UNL     1      95.107  27.311   6.768  1.00  0.00     0.008 C 
ATOM      2  C   UNL     1      93.961  27.210   7.781  1.00  0.00    -0.006 C 
ATOM      3  C   UNL     1      94.212  26.060   8.769  1.00  0.00     0.008 C 
ATOM      4  C   UNL     1      93.027  25.880   9.727  1.00  0.00     0.039 C 
ATOM      5  C   UNL     1      92.639  27.176  10.426  1.00  0.00    -0.006 C 
ATOM      6  C   UNL     1      92.124  27.174  11.690  1.00  0.00    -0.070 C 
ATOM      7  C   UNL     1      91.787  28.457  12.415  1.00  0.00     0.039 C 
ATOM      8  C   UNL     1      91.900  25.882  12.443  1.00  0.00     0.039 C 
ATOM      9  C   UNL     1      92.747  28.419   9.607  1.00  0.00     0.159 C 
ATOM     10  O   UNL     1      91.960  29.389   9.781  1.00  0.00    -0.295 OA
ATOM     11  C   UNL     1      93.803  28.533   8.546  1.00  0.00     0.084 C 
ENDROOT
TORSDOF 0
ENDMDL
MODEL 3
REMARK VINA RESULT:    -1.379      4.459      5.625
REMARK INTER + INTRA:          -1.379
REMARK INTER:                  -1.379
REMARK INTRA:                   0.000
REMARK UNBOUND:                 0.000
REMARK SMILES CC(C)=C1CC[C@H](C)CC1=O
REMARK SMILES IDX 8 1 7 2 6 3 5 4 4 5 2 6 1 7 3 8 10 9 11 10 9 11
REMARK H PARENT
REMARK Flexibility Score: inf
ROOT
ATOM      1  C   UNL     1      90.066  26.480  17.180  1.00  0.00     0.008 C 
ATOM      2  C   UNL     1      90.825  27.806  17.054  1.00  0.00    -0.006 C 
ATOM      3  C   UNL     1      92.027  27.835  18.014  1.00  0.00     0.008 C 
ATOM      4  C   UNL     1      92.738  29.193  17.975  1.00  0.00     0.039 C 
ATOM      5  C   UNL     1      93.110  29.618  16.560  1.00  0.00    -0.006 C 
ATOM      6  C   UNL     1      94.223  30.368  16.314  1.00  0.00    -0.070 C 
ATOM      7  C   UNL     1      94.633  30.749  14.910  1.00  0.00     0.039 C 
ATOM      8  C   UNL     1      95.125  30.825  17.439  1.00  0.00     0.039 C 
ATOM      9  C   UNL     1      92.130  29.265  15.492  1.00  0.00     0.159 C 
ATOM     10  O   UNL     1      91.970  30.001  14.480  1.00  0.00    -0.295 OA
ATOM     11  C   UNL     1      91.303  28.017  15.610  1.00  0.00     0.084 C 
ENDROOT
TORSDOF 0
ENDMDL
MODEL 4
REMARK VINA RESULT:    -1.378      4.412      6.419
REMARK INTER + INTRA:          -1.378
REMARK INTER:                  -1.378
REMARK INTRA:                   0.000
REMARK UNBOUND:                 0.000
REMARK SMILES CC(C)=C1CC[C@H](C)CC1=O
REMARK SMILES IDX 8 1 7 2 6 3 5 4 4 5 2 6 1 7 3 8 10 9 11 10 9 11
REMARK H PARENT
REMARK Flexibility Score: inf
ROOT
ATOM      1  C   UNL     1      93.437  31.396  11.555  1.00  0.00     0.008 C 
ATOM      2  C   UNL     1      93.685  30.685  12.890  1.00  0.00    -0.006 C 
ATOM      3  C   UNL     1      94.728  31.446  13.724  1.00  0.00     0.008 C 
ATOM      4  C   UNL     1      95.062  30.695  15.018  1.00  0.00     0.039 C 
ATOM      5  C   UNL     1      93.820  30.335  15.823  1.00  0.00    -0.006 C 
ATOM      6  C   UNL     1      93.851  30.274  17.186  1.00  0.00    -0.070 C 
ATOM      7  C   UNL     1      92.612  29.973  17.998  1.00  0.00     0.039 C 
ATOM      8  C   UNL     1      95.125  30.543  17.955  1.00  0.00     0.039 C 
ATOM      9  C   UNL     1      92.617  29.945  15.031  1.00  0.00     0.159 C 
ATOM     10  O   UNL     1      91.789  29.101  15.468  1.00  0.00    -0.295 OA
ATOM     11  C   UNL     1      92.374  30.555  13.680  1.00  0.00     0.084 C 
ENDROOT
TORSDOF 0
ENDMDL
MODEL 5
REMARK VINA RESULT:    -1.333      3.757      4.908
REMARK INTER + INTRA:          -1.333
REMARK INTER:                  -1.333
REMARK INTRA:                   0.000
REMARK UNBOUND:                 0.000
REMARK SMILES CC(C)=C1CC[C@H](C)CC1=O
REMARK SMILES IDX 8 1 7 2 6 3 5 4 4 5 2 6 1 7 3 8 10 9 11 10 9 11
REMARK H PARENT
REMARK Flexibility Score: inf
ROOT
ATOM      1  C   UNL     1      94.907  30.429  17.660  1.00  0.00     0.008 C 
ATOM      2  C   UNL     1      94.102  30.705  16.385  1.00  0.00    -0.006 C 
ATOM      3  C   UNL     1      95.012  30.645  15.147  1.00  0.00     0.008 C 
ATOM      4  C   UNL     1      94.244  31.017  13.872  1.00  0.00     0.039 C 
ATOM      5  C   UNL     1      92.969  30.203  13.699  1.00  0.00    -0.006 C 
ATOM      6  C   UNL     1      92.496  29.879  12.461  1.00  0.00    -0.070 C 
ATOM      7  C   UNL     1      91.263  29.025  12.277  1.00  0.00     0.039 C 
ATOM      8  C   UNL     1      93.209  30.331  11.206  1.00  0.00     0.039 C 
ATOM      9  C   UNL     1      92.218  29.888  14.951  1.00  0.00     0.159 C 
ATOM     10  O   UNL     1      90.961  29.789  14.954  1.00  0.00    -0.295 OA
ATOM     11  C   UNL     1      92.957  29.690  16.243  1.00  0.00     0.084 C 
ENDROOT
TORSDOF 0
ENDMDL
MODEL 6
REMARK VINA RESULT:    -1.315      2.195      3.676
REMARK INTER + INTRA:          -1.315
REMARK INTER:                  -1.315
REMARK INTRA:                   0.000
REMARK UNBOUND:                 0.000
REMARK SMILES CC(C)=C1CC[C@H](C)CC1=O
REMARK SMILES IDX 8 1 7 2 6 3 5 4 4 5 2 6 1 7 3 8 10 9 11 10 9 11
REMARK H PARENT
REMARK Flexibility Score: inf
ROOT
ATOM      1  C   UNL     1      92.867  32.407  13.845  1.00  0.00     0.008 C 
ATOM      2  C   UNL     1      92.365  31.209  13.031  1.00  0.00    -0.006 C 
ATOM      3  C   UNL     1      93.366  30.850  11.922  1.00  0.00     0.008 C 
ATOM      4  C   UNL     1      92.833  29.719  11.034  1.00  0.00     0.039 C 
ATOM      5  C   UNL     1      92.392  28.503  11.839  1.00  0.00    -0.006 C 
ATOM      6  C   UNL     1      92.499  27.240  11.332  1.00  0.00    -0.070 C 
ATOM      7  C   UNL     1      92.118  26.022  12.142  1.00  0.00     0.039 C 
ATOM      8  C   UNL     1      93.044  26.996   9.943  1.00  0.00     0.039 C 
ATOM      9  C   UNL     1      91.736  28.787  13.149  1.00  0.00     0.159 C 
ATOM     10  O   UNL     1      90.837  28.033  13.609  1.00  0.00    -0.295 OA
ATOM     11  C   UNL     1      92.138  29.995  13.946  1.00  0.00     0.084 C 
ENDROOT
TORSDOF 0
ENDMDL
MODEL 7
REMARK VINA RESULT:    -1.293      1.750      2.813
REMARK INTER + INTRA:          -1.293
REMARK INTER:                  -1.293
REMARK INTRA:                   0.000
REMARK UNBOUND:                 0.000
REMARK SMILES CC(C)=C1CC[C@H](C)CC1=O
REMARK SMILES IDX 8 1 7 2 6 3 5 4 4 5 2 6 1 7 3 8 10 9 11 10 9 11
REMARK H PARENT
REMARK Flexibility Score: inf
ROOT
ATOM      1  C   UNL     1      91.166  27.760  13.720  1.00  0.00     0.008 C 
ATOM      2  C   UNL     1      91.534  27.929  12.241  1.00  0.00    -0.006 C 
ATOM      3  C   UNL     1      92.547  29.072  12.062  1.00  0.00     0.008 C 
ATOM      4  C   UNL     1      92.850  29.321  10.579  1.00  0.00     0.039 C 
ATOM      5  C   UNL     1      93.264  28.052   9.845  1.00  0.00    -0.006 C 
ATOM      6  C   UNL     1      94.144  28.091   8.803  1.00  0.00    -0.070 C 
ATOM      7  C   UNL     1      94.606  26.833   8.103  1.00  0.00     0.039 C 
ATOM      8  C   UNL     1      94.732  29.398   8.321  1.00  0.00     0.039 C 
ATOM      9  C   UNL     1      92.565  26.800  10.258  1.00  0.00     0.159 C 
ATOM     10  O   UNL     1      92.335  25.875   9.432  1.00  0.00    -0.295 OA
ATOM     11  C   UNL     1      92.113  26.622  11.678  1.00  0.00     0.084 C 
ENDROOT
TORSDOF 0
ENDMDL
MODEL 8
REMARK VINA RESULT:    -1.240     24.152     25.014
REMARK INTER + INTRA:          -1.240
REMARK INTER:                  -1.240
REMARK INTRA:                   0.000
REMARK UNBOUND:                 0.000
REMARK SMILES CC(C)=C1CC[C@H](C)CC1=O
REMARK SMILES IDX 8 1 7 2 6 3 5 4 4 5 2 6 1 7 3 8 10 9 11 10 9 11
REMARK H PARENT
REMARK Flexibility Score: inf
ROOT
ATOM      1  C   UNL     1      74.875  44.856   6.760  1.00  0.00     0.008 C 
ATOM      2  C   UNL     1      75.000  44.880   5.233  1.00  0.00    -0.006 C 
ATOM      3  C   UNL     1      75.945  46.007   4.785  1.00  0.00     0.008 C 
ATOM      4  C   UNL     1      76.003  46.111   3.255  1.00  0.00     0.039 C 
ATOM      5  C   UNL     1      76.326  44.779   2.591  1.00  0.00    -0.006 C 
ATOM      6  C   UNL     1      77.029  44.721   1.423  1.00  0.00    -0.070 C 
ATOM      7  C   UNL     1      77.405  43.404   0.783  1.00  0.00     0.039 C 
ATOM      8  C   UNL     1      77.502  45.979   0.729  1.00  0.00     0.039 C 
ATOM      9  C   UNL     1      75.732  43.568   3.229  1.00  0.00     0.159 C 
ATOM     10  O   UNL     1      75.397  42.564   2.544  1.00  0.00    -0.295 OA
ATOM     11  C   UNL     1      75.514  43.528   4.714  1.00  0.00     0.084 C 
ENDROOT
TORSDOF 0
ENDMDL
MODEL 9
REMARK VINA RESULT:    -1.033      1.395      4.266
REMARK INTER + INTRA:          -1.033
REMARK INTER:                  -1.033
REMARK INTRA:                   0.000
REMARK UNBOUND:                 0.000
REMARK SMILES CC(C)=C1CC[C@H](C)CC1=O
REMARK SMILES IDX 8 1 7 2 6 3 5 4 4 5 2 6 1 7 3 8 10 9 11 10 9 11
REMARK H PARENT
REMARK Flexibility Score: inf
ROOT
ATOM      1  C   UNL     1      93.088  26.775   9.828  1.00  0.00     0.008 C 
ATOM      2  C   UNL     1      92.132  27.061  10.992  1.00  0.00    -0.006 C 
ATOM      3  C   UNL     1      92.098  25.875  11.969  1.00  0.00     0.008 C 
ATOM      4  C   UNL     1      91.071  26.102  13.086  1.00  0.00     0.039 C 
ATOM      5  C   UNL     1      91.262  27.437  13.793  1.00  0.00    -0.006 C 
ATOM      6  C   UNL     1      90.960  27.589  15.116  1.00  0.00    -0.070 C 
ATOM      7  C   UNL     1      91.198  28.893  15.843  1.00  0.00     0.039 C 
ATOM      8  C   UNL     1      90.404  26.442  15.930  1.00  0.00     0.039 C 
ATOM      9  C   UNL     1      91.684  28.581  12.932  1.00  0.00     0.159 C 
ATOM     10  O   UNL     1      91.319  29.761  13.184  1.00  0.00    -0.295 OA
ATOM     11  C   UNL     1      92.555  28.339  11.733  1.00  0.00     0.084 C 
ENDROOT
TORSDOF 0
ENDMDL
