MODEL 1
REMARK VINA RESULT:    -3.460      0.000      0.000
REMARK INTER + INTRA:          -4.843
REMARK INTER:                  -4.472
REMARK INTRA:                  -0.371
REMARK UNBOUND:                -0.371
REMARK SMILES CO[C@]1(CO)O[C@@H](CO)[C@H](O)[C@@H]1O
REMARK SMILES IDX 3 1 12 2 10 3 7 4 6 5 2 6 1 7 4 8 5 9 13 11 11 13 8 15 9 16
REMARK H PARENT 5 10 13 12 11 14 9 17
REMARK Flexibility Score: inf
ROOT
ATOM      1  C   UNL     1       7.821   3.838   2.213  1.00  0.00     0.221 C 
ATOM      2  C   UNL     1       7.146   4.095   0.847  1.00  0.00     0.207 C 
ATOM      3  C   UNL     1       5.746   3.570   1.072  1.00  0.00     0.180 C 
ATOM      4  C   UNL     1       5.962   2.470   2.113  1.00  0.00     0.179 C 
ATOM      5  O   UNL     1       7.150   2.745   2.829  1.00  0.00    -0.337 OA
ENDROOT
BRANCH   1   6
ATOM      6  O   UNL     1       9.204   3.560   1.995  1.00  0.00    -0.349 OA
ATOM      7  C   UNL     1      10.022   3.966   3.073  1.00  0.00     0.198 C 
ENDBRANCH   1   6
BRANCH   1   8
ATOM      8  C   UNL     1       7.677   5.083   3.125  1.00  0.00     0.224 C 
BRANCH   8   9
ATOM      9  O   UNL     1       7.546   6.252   2.359  1.00  0.00    -0.391 OA
ATOM     10  H   UNL     1       8.090   6.954   2.802  1.00  0.00     0.210 HD
ENDBRANCH   8   9
ENDBRANCH   1   8
BRANCH   2  11
ATOM     11  O   UNL     1       7.800   3.416  -0.203  1.00  0.00    -0.385 OA
ATOM     12  H   UNL     1       7.439   3.749  -1.066  1.00  0.00     0.211 HD
ENDBRANCH   2  11
BRANCH   3  13
ATOM     13  O   UNL     1       5.117   3.122  -0.106  1.00  0.00    -0.387 OA
ATOM     14  H   UNL     1       4.163   2.931   0.090  1.00  0.00     0.211 HD
ENDBRANCH   3  13
BRANCH   4  15
ATOM     15  C   UNL     1       4.782   2.367   3.085  1.00  0.00     0.191 C 
BRANCH  15  16
ATOM     16  O   UNL     1       3.628   2.879   2.480  1.00  0.00    -0.394 OA
ATOM     17  H   UNL     1       3.924   3.647   1.927  1.00  0.00     0.210 HD
ENDBRANCH  15  16
ENDBRANCH   4  15
TORSDOF 7
ENDMDL
MODEL 2
REMARK VINA RESULT:    -3.310      1.688      4.434
REMARK INTER + INTRA:          -4.648
REMARK INTER:                  -4.222
REMARK INTRA:                  -0.426
REMARK UNBOUND:                -0.371
REMARK SMILES CO[C@]1(CO)O[C@@H](CO)[C@H](O)[C@@H]1O
REMARK SMILES IDX 3 1 12 2 10 3 7 4 6 5 2 6 1 7 4 8 5 9 13 11 11 13 8 15 9 16
REMARK H PARENT 5 10 13 12 11 14 9 17
REMARK Flexibility Score: inf
ROOT
ATOM      1  C   UNL     1       7.227   4.432   1.952  1.00  0.00     0.221 C 
ATOM      2  C   UNL     1       6.839   5.928   1.951  1.00  0.00     0.207 C 
ATOM      3  C   UNL     1       8.184   6.613   1.851  1.00  0.00     0.180 C 
ATOM      4  C   UNL     1       9.121   5.619   2.541  1.00  0.00     0.179 C 
ATOM      5  O   UNL     1       8.549   4.328   2.471  1.00  0.00    -0.337 OA
ENDROOT
BRANCH   1   6
ATOM      6  O   UNL     1       6.284   3.715   2.747  1.00  0.00    -0.349 OA
ATOM      7  C   UNL     1       6.523   2.323   2.759  1.00  0.00     0.198 C 
ENDBRANCH   1   6
BRANCH   1   8
ATOM      8  C   UNL     1       7.220   3.876   0.506  1.00  0.00     0.224 C 
BRANCH   8   9
ATOM      9  O   UNL     1       8.513   3.499   0.108  1.00  0.00    -0.391 OA
ATOM     10  H   UNL     1       8.672   2.585   0.459  1.00  0.00     0.210 HD
ENDBRANCH   8   9
ENDBRANCH   1   8
BRANCH   2  11
ATOM     11  O   UNL     1       6.148   6.295   3.125  1.00  0.00    -0.385 OA
ATOM     12  H   UNL     1       6.630   5.914   3.906  1.00  0.00     0.211 HD
ENDBRANCH   2  11
BRANCH   3  13
ATOM     13  O   UNL     1       8.202   7.902   2.422  1.00  0.00    -0.387 OA
ATOM     14  H   UNL     1       9.002   7.985   3.003  1.00  0.00     0.211 HD
ENDBRANCH   3  13
BRANCH   4  15
ATOM     15  C   UNL     1      10.510   5.607   1.897  1.00  0.00     0.191 C 
BRANCH  15  16
ATOM     16  O   UNL     1      10.388   5.756   0.510  1.00  0.00    -0.394 OA
ATOM     17  H   UNL     1       9.862   6.585   0.368  1.00  0.00     0.210 HD
ENDBRANCH  15  16
ENDBRANCH   4  15
TORSDOF 7
ENDMDL
MODEL 3
REMARK VINA RESULT:    -3.261      1.524      4.058
REMARK INTER + INTRA:          -4.585
REMARK INTER:                  -4.429
REMARK INTRA:                  -0.156
REMARK UNBOUND:                -0.371
REMARK SMILES CO[C@]1(CO)O[C@@H](CO)[C@H](O)[C@@H]1O
REMARK SMILES IDX 3 1 12 2 10 3 7 4 6 5 2 6 1 7 4 8 5 9 13 11 11 13 8 15 9 16
REMARK H PARENT 5 10 13 12 11 14 9 17
REMARK Flexibility Score: inf
ROOT
ATOM      1  C   UNL     1       6.518   3.589   1.786  1.00  0.00     0.221 C 
ATOM      2  C   UNL     1       7.874   3.441   1.061  1.00  0.00     0.207 C 
ATOM      3  C   UNL     1       8.660   4.617   1.597  1.00  0.00     0.180 C 
ATOM      4  C   UNL     1       7.567   5.645   1.895  1.00  0.00     0.179 C 
ATOM      5  O   UNL     1       6.345   4.966   2.104  1.00  0.00    -0.337 OA
ENDROOT
BRANCH   1   6
ATOM      6  O   UNL     1       5.485   3.107   0.928  1.00  0.00    -0.349 OA
ATOM      7  C   UNL     1       4.296   2.793   1.623  1.00  0.00     0.198 C 
ENDBRANCH   1   6
BRANCH   1   8
ATOM      8  C   UNL     1       6.523   2.775   3.104  1.00  0.00     0.224 C 
BRANCH   8   9
ATOM      9  O   UNL     1       6.809   1.423   2.857  1.00  0.00    -0.391 OA
ATOM     10  H   UNL     1       7.788   1.305   2.974  1.00  0.00     0.210 HD
ENDBRANCH   8   9
ENDBRANCH   1   8
BRANCH   2  11
ATOM     11  O   UNL     1       7.733   3.499  -0.342  1.00  0.00    -0.385 OA
ATOM     12  H   UNL     1       7.078   4.213  -0.562  1.00  0.00     0.211 HD
ENDBRANCH   2  11
BRANCH   3  13
ATOM     13  O   UNL     1       9.652   5.082   0.711  1.00  0.00    -0.387 OA
ATOM     14  H   UNL     1       9.707   4.464  -0.064  1.00  0.00     0.211 HD
ENDBRANCH   3  13
BRANCH   4  15
ATOM     15  C   UNL     1       7.906   6.496   3.122  1.00  0.00     0.191 C 
BRANCH  15  16
ATOM     16  O   UNL     1       9.215   6.981   3.013  1.00  0.00    -0.394 OA
ATOM     17  H   UNL     1       9.530   7.133   3.941  1.00  0.00     0.210 HD
ENDBRANCH  15  16
ENDBRANCH   4  15
TORSDOF 7
ENDMDL
MODEL 4
REMARK VINA RESULT:    -3.101      1.663      4.045
REMARK INTER + INTRA:          -4.378
REMARK INTER:                  -3.899
REMARK INTRA:                  -0.479
REMARK UNBOUND:                -0.371
REMARK SMILES CO[C@]1(CO)O[C@@H](CO)[C@H](O)[C@@H]1O
REMARK SMILES IDX 3 1 12 2 10 3 7 4 6 5 2 6 1 7 4 8 5 9 13 11 11 13 8 15 9 16
REMARK H PARENT 5 10 13 12 11 14 9 17
REMARK Flexibility Score: inf
ROOT
ATOM      1  C   UNL     1       6.932   4.242   1.791  1.00  0.00     0.221 C 
ATOM      2  C   UNL     1       8.207   3.460   2.177  1.00  0.00     0.207 C 
ATOM      3  C   UNL     1       9.159   4.566   2.574  1.00  0.00     0.180 C 
ATOM      4  C   UNL     1       8.689   5.741   1.714  1.00  0.00     0.179 C 
ATOM      5  O   UNL     1       7.331   5.543   1.374  1.00  0.00    -0.337 OA
ENDROOT
BRANCH   1   6
ATOM      6  O   UNL     1       6.257   3.534   0.753  1.00  0.00    -0.349 OA
ATOM      7  C   UNL     1       5.152   2.789   1.224  1.00  0.00     0.198 C 
ENDBRANCH   1   6
BRANCH   1   8
ATOM      8  C   UNL     1       5.997   4.383   3.019  1.00  0.00     0.224 C 
BRANCH   8   9
ATOM      9  O   UNL     1       5.504   5.694   3.125  1.00  0.00    -0.391 OA
ATOM     10  H   UNL     1       5.546   6.096   2.219  1.00  0.00     0.210 HD
ENDBRANCH   8   9
ENDBRANCH   1   8
BRANCH   2  11
ATOM     11  O   UNL     1       8.706   2.698   1.099  1.00  0.00    -0.385 OA
ATOM     12  H   UNL     1       8.204   1.842   1.061  1.00  0.00     0.211 HD
ENDBRANCH   2  11
BRANCH   3  13
ATOM     13  O   UNL     1      10.516   4.234   2.389  1.00  0.00    -0.387 OA
ATOM     14  H   UNL     1      10.650   3.281   2.632  1.00  0.00     0.211 HD
ENDBRANCH   3  13
BRANCH   4  15
ATOM     15  C   UNL     1       8.853   7.079   2.441  1.00  0.00     0.191 C 
BRANCH  15  16
ATOM     16  O   UNL     1       7.608   7.707   2.559  1.00  0.00    -0.394 OA
ATOM     17  H   UNL     1       7.563   8.058   3.486  1.00  0.00     0.210 HD
ENDBRANCH  15  16
ENDBRANCH   4  15
TORSDOF 7
ENDMDL
MODEL 5
REMARK VINA RESULT:    -2.954      2.181      3.203
REMARK INTER + INTRA:          -4.189
REMARK INTER:                  -3.960
REMARK INTRA:                  -0.228
REMARK UNBOUND:                -0.371
REMARK SMILES CO[C@]1(CO)O[C@@H](CO)[C@H](O)[C@@H]1O
REMARK SMILES IDX 3 1 12 2 10 3 7 4 6 5 2 6 1 7 4 8 5 9 13 11 11 13 8 15 9 16
REMARK H PARENT 5 10 13 12 11 14 9 17
REMARK Flexibility Score: inf
ROOT
ATOM      1  C   UNL     1       9.719   5.034   2.196  1.00  0.00     0.221 C 
ATOM      2  C   UNL     1       8.907   4.167   1.207  1.00  0.00     0.207 C 
ATOM      3  C   UNL     1       7.545   4.824   1.242  1.00  0.00     0.180 C 
ATOM      4  C   UNL     1       7.484   5.401   2.657  1.00  0.00     0.179 C 
ATOM      5  O   UNL     1       8.803   5.604   3.125  1.00  0.00    -0.337 OA
ENDROOT
BRANCH   1   6
ATOM      6  O   UNL     1      10.687   4.208   2.841  1.00  0.00    -0.349 OA
ATOM      7  C   UNL     1      11.902   4.882   3.094  1.00  0.00     0.198 C 
ENDBRANCH   1   6
BRANCH   1   8
ATOM      8  C   UNL     1      10.434   6.183   1.440  1.00  0.00     0.224 C 
BRANCH   8   9
ATOM      9  O   UNL     1      10.662   5.834   0.100  1.00  0.00    -0.391 OA
ATOM     10  H   UNL     1       9.848   5.368  -0.224  1.00  0.00     0.210 HD
ENDBRANCH   8   9
ENDBRANCH   1   8
BRANCH   2  11
ATOM     11  O   UNL     1       8.851   2.817   1.612  1.00  0.00    -0.385 OA
ATOM     12  H   UNL     1       8.072   2.703   2.218  1.00  0.00     0.211 HD
ENDBRANCH   2  11
BRANCH   3  13
ATOM     13  O   UNL     1       6.488   3.941   0.942  1.00  0.00    -0.387 OA
ATOM     14  H   UNL     1       6.800   3.009   1.073  1.00  0.00     0.211 HD
ENDBRANCH   3  13
BRANCH   4  15
ATOM     15  C   UNL     1       6.708   6.720   2.700  1.00  0.00     0.191 C 
BRANCH  15  16
ATOM     16  O   UNL     1       6.926   7.434   1.516  1.00  0.00    -0.394 OA
ATOM     17  H   UNL     1       7.751   7.965   1.662  1.00  0.00     0.210 HD
ENDBRANCH  15  16
ENDBRANCH   4  15
TORSDOF 7
ENDMDL
MODEL 6
REMARK VINA RESULT:    -2.903     11.259     13.872
REMARK INTER + INTRA:          -4.122
REMARK INTER:                  -3.762
REMARK INTRA:                  -0.361
REMARK UNBOUND:                -0.371
REMARK SMILES CO[C@]1(CO)O[C@@H](CO)[C@H](O)[C@@H]1O
REMARK SMILES IDX 3 1 12 2 10 3 7 4 6 5 2 6 1 7 4 8 5 9 13 11 11 13 8 15 9 16
REMARK H PARENT 5 10 13 12 11 14 9 17
REMARK Flexibility Score: inf
ROOT
ATOM      1  C   UNL     1      18.530   7.919   1.000  1.00  0.00     0.221 C 
ATOM      2  C   UNL     1      19.102   6.506   0.747  1.00  0.00     0.207 C 
ATOM      3  C   UNL     1      20.541   6.653   1.188  1.00  0.00     0.180 C 
ATOM      4  C   UNL     1      20.830   8.130   0.910  1.00  0.00     0.179 C 
ATOM      5  O   UNL     1      19.609   8.844   0.919  1.00  0.00    -0.337 OA
ENDROOT
BRANCH   1   6
ATOM      6  O   UNL     1      17.524   8.187   0.025  1.00  0.00    -0.349 OA
ATOM      7  C   UNL     1      16.214   8.018   0.526  1.00  0.00     0.198 C 
ENDBRANCH   1   6
BRANCH   1   8
ATOM      8  C   UNL     1      17.915   8.002   2.420  1.00  0.00     0.224 C 
BRANCH   8   9
ATOM      9  O   UNL     1      18.398   9.125   3.110  1.00  0.00    -0.391 OA
ATOM     10  H   UNL     1      17.612   9.591   3.497  1.00  0.00     0.210 HD
ENDBRANCH   8   9
ENDBRANCH   1   8
BRANCH   2  11
ATOM     11  O   UNL     1      19.004   6.131  -0.610  1.00  0.00    -0.385 OA
ATOM     12  H   UNL     1      18.429   6.793  -1.077  1.00  0.00     0.211 HD
ENDBRANCH   2  11
BRANCH   3  13
ATOM     13  O   UNL     1      21.423   5.769   0.536  1.00  0.00    -0.387 OA
ATOM     14  H   UNL     1      20.985   4.883   0.449  1.00  0.00     0.211 HD
ENDBRANCH   3  13
BRANCH   4  15
ATOM     15  C   UNL     1      21.789   8.726   1.944  1.00  0.00     0.191 C 
BRANCH  15  16
ATOM     16  O   UNL     1      23.077   8.218   1.741  1.00  0.00    -0.394 OA
ATOM     17  H   UNL     1      23.049   7.736   0.874  1.00  0.00     0.210 HD
ENDBRANCH  15  16
ENDBRANCH   4  15
TORSDOF 7
ENDMDL
MODEL 7
REMARK VINA RESULT:    -2.902      1.996      3.544
REMARK INTER + INTRA:          -4.122
REMARK INTER:                  -3.644
REMARK INTRA:                  -0.477
REMARK UNBOUND:                -0.371
REMARK SMILES CO[C@]1(CO)O[C@@H](CO)[C@H](O)[C@@H]1O
REMARK SMILES IDX 3 1 12 2 10 3 7 4 6 5 2 6 1 7 4 8 5 9 13 11 11 13 8 15 9 16
REMARK H PARENT 5 10 13 12 11 14 9 17
REMARK Flexibility Score: inf
ROOT
ATOM      1  C   UNL     1       9.669   5.599   1.778  1.00  0.00     0.221 C 
ATOM      2  C   UNL     1       8.826   6.758   2.357  1.00  0.00     0.207 C 
ATOM      3  C   UNL     1       7.493   6.093   2.616  1.00  0.00     0.180 C 
ATOM      4  C   UNL     1       7.449   4.998   1.548  1.00  0.00     0.179 C 
ATOM      5  O   UNL     1       8.773   4.673   1.172  1.00  0.00    -0.337 OA
ENDROOT
BRANCH   1   6
ATOM      6  O   UNL     1      10.598   6.135   0.837  1.00  0.00    -0.349 OA
ATOM      7  C   UNL     1      11.903   6.257   1.364  1.00  0.00     0.198 C 
ENDBRANCH   1   6
BRANCH   1   8
ATOM      8  C   UNL     1      10.435   4.873   2.913  1.00  0.00     0.224 C 
BRANCH   8   9
ATOM      9  O   UNL     1      10.344   3.479   2.766  1.00  0.00    -0.391 OA
ATOM     10  H   UNL     1      11.178   3.091   3.137  1.00  0.00     0.210 HD
ENDBRANCH   8   9
ENDBRANCH   1   8
BRANCH   2  11
ATOM     11  O   UNL     1       8.712   7.833   1.451  1.00  0.00    -0.385 OA
ATOM     12  H   UNL     1       9.363   8.535   1.713  1.00  0.00     0.211 HD
ENDBRANCH   2  11
BRANCH   3  13
ATOM     13  O   UNL     1       6.401   6.983   2.563  1.00  0.00    -0.387 OA
ATOM     14  H   UNL     1       5.730   6.631   1.923  1.00  0.00     0.211 HD
ENDBRANCH   3  13
BRANCH   4  15
ATOM     15  C   UNL     1       6.729   3.743   2.050  1.00  0.00     0.191 C 
BRANCH  15  16
ATOM     16  O   UNL     1       7.594   2.645   1.985  1.00  0.00    -0.394 OA
ATOM     17  H   UNL     1       7.034   1.868   1.725  1.00  0.00     0.210 HD
ENDBRANCH  15  16
ENDBRANCH   4  15
TORSDOF 7
ENDMDL
MODEL 8
REMARK VINA RESULT:    -2.834      2.536      5.005
REMARK INTER + INTRA:          -4.034
REMARK INTER:                  -3.525
REMARK INTRA:                  -0.509
REMARK UNBOUND:                -0.371
REMARK SMILES CO[C@]1(CO)O[C@@H](CO)[C@H](O)[C@@H]1O
REMARK SMILES IDX 3 1 12 2 10 3 7 4 6 5 2 6 1 7 4 8 5 9 13 11 11 13 8 15 9 16
REMARK H PARENT 5 10 13 12 11 14 9 17
REMARK Flexibility Score: inf
ROOT
ATOM      1  C   UNL     1       8.944   4.699   2.203  1.00  0.00     0.221 C 
ATOM      2  C   UNL     1      10.178   4.572   3.124  1.00  0.00     0.207 C 
ATOM      3  C   UNL     1      10.925   5.856   2.846  1.00  0.00     0.180 C 
ATOM      4  C   UNL     1      10.538   6.165   1.398  1.00  0.00     0.179 C 
ATOM      5  O   UNL     1       9.302   5.540   1.113  1.00  0.00    -0.337 OA
ENDROOT
BRANCH   1   6
ATOM      6  O   UNL     1       8.562   3.395   1.767  1.00  0.00    -0.349 OA
ATOM      7  C   UNL     1       7.997   3.393   0.472  1.00  0.00     0.198 C 
ENDBRANCH   1   6
BRANCH   1   8
ATOM      8  C   UNL     1       7.768   5.357   2.969  1.00  0.00     0.224 C 
BRANCH   8   9
ATOM      9  O   UNL     1       7.155   6.349   2.187  1.00  0.00    -0.391 OA
ATOM     10  H   UNL     1       7.720   7.163   2.251  1.00  0.00     0.210 HD
ENDBRANCH   8   9
ENDBRANCH   1   8
BRANCH   2  11
ATOM     11  O   UNL     1      10.953   3.434   2.816  1.00  0.00    -0.385 OA
ATOM     12  H   UNL     1      10.402   2.819   2.264  1.00  0.00     0.211 HD
ENDBRANCH   2  11
BRANCH   3  13
ATOM     13  O   UNL     1      12.315   5.755   3.053  1.00  0.00    -0.387 OA
ATOM     14  H   UNL     1      12.481   5.201   3.859  1.00  0.00     0.211 HD
ENDBRANCH   3  13
BRANCH   4  15
ATOM     15  C   UNL     1      10.429   7.671   1.147  1.00  0.00     0.191 C 
BRANCH  15  16
ATOM     16  O   UNL     1       9.152   7.978   0.664  1.00  0.00    -0.394 OA
ATOM     17  H   UNL     1       8.609   8.223   1.458  1.00  0.00     0.210 HD
ENDBRANCH  15  16
ENDBRANCH   4  15
TORSDOF 7
ENDMDL
MODEL 9
REMARK VINA RESULT:    -1.662     10.451     13.034
REMARK INTER + INTRA:          -2.518
REMARK INTER:                  -2.112
REMARK INTRA:                  -0.407
REMARK UNBOUND:                -0.371
REMARK SMILES CO[C@]1(CO)O[C@@H](CO)[C@H](O)[C@@H]1O
REMARK SMILES IDX 3 1 12 2 10 3 7 4 6 5 2 6 1 7 4 8 5 9 13 11 11 13 8 15 9 16
REMARK H PARENT 5 10 13 12 11 14 9 17
REMARK Flexibility Score: inf
ROOT
ATOM      1  C   UNL     1      17.775   8.123   1.204  1.00  0.00     0.221 C 
ATOM      2  C   UNL     1      19.118   8.688   1.719  1.00  0.00     0.207 C 
ATOM      3  C   UNL     1      20.130   7.796   1.036  1.00  0.00     0.180 C 
ATOM      4  C   UNL     1      19.367   6.479   0.877  1.00  0.00     0.179 C 
ATOM      5  O   UNL     1      17.980   6.753   0.876  1.00  0.00    -0.337 OA
ENDROOT
BRANCH   1   6
ATOM      6  O   UNL     1      16.790   8.285   2.223  1.00  0.00    -0.349 OA
ATOM      7  C   UNL     1      15.821   7.257   2.218  1.00  0.00     0.198 C 
ENDBRANCH   1   6
BRANCH   1   8
ATOM      8  C   UNL     1      17.332   8.876  -0.076  1.00  0.00     0.224 C 
BRANCH   8   9
ATOM      9  O   UNL     1      16.735   7.997  -0.993  1.00  0.00    -0.391 OA
ATOM     10  H   UNL     1      16.117   7.414  -0.479  1.00  0.00     0.210 HD
ENDBRANCH   8   9
ENDBRANCH   1   8
BRANCH   2  11
ATOM     11  O   UNL     1      19.218   8.616   3.125  1.00  0.00    -0.385 OA
ATOM     12  H   UNL     1      18.709   9.375   3.515  1.00  0.00     0.211 HD
ENDBRANCH   2  11
BRANCH   3  13
ATOM     13  O   UNL     1      21.340   7.669   1.748  1.00  0.00    -0.387 OA
ATOM     14  H   UNL     1      22.007   8.294   1.363  1.00  0.00     0.211 HD
ENDBRANCH   3  13
BRANCH   4  15
ATOM     15  C   UNL     1      19.754   5.749  -0.412  1.00  0.00     0.191 C 
BRANCH  15  16
ATOM     16  O   UNL     1      21.111   5.409  -0.371  1.00  0.00    -0.394 OA
ATOM     17  H   UNL     1      21.204   4.730   0.346  1.00  0.00     0.210 HD
ENDBRANCH  15  16
ENDBRANCH   4  15
TORSDOF 7
ENDMDL
