MODEL 1
REMARK VINA RESULT:    -3.285      0.000      0.000
REMARK INTER + INTRA:          -5.527
REMARK INTER:                  -4.821
REMARK INTRA:                  -0.706
REMARK UNBOUND:                -0.706
REMARK SMILES O=C([O-])CCCCCCCC(=O)[O-]
REMARK SMILES IDX 7 1 6 2 5 3 4 4 2 5 1 6 3 7 8 8 9 9 10 10 11 11 12 12 13 13
REMARK H PARENT
REMARK Flexibility Score: inf
ROOT
ATOM      1  C   UNL     1      69.609  14.708  76.316  1.00  0.00     0.000 C 
ENDROOT
BRANCH   1   2
ATOM      2  C   UNL     1      68.140  14.282  76.145  1.00  0.00     0.000 C 
BRANCH   2   3
ATOM      3  C   UNL     1      67.180  15.482  76.107  1.00  0.00     0.006 C 
BRANCH   3   4
ATOM      4  C   UNL     1      66.008  15.333  77.087  1.00  0.00     0.053 C 
BRANCH   4   5
ATOM      5  C   UNL     1      66.298  16.062  78.361  1.00  0.00     0.041 C 
ATOM      6  O   UNL     1      65.861  15.623  79.457  1.00  0.00    -0.550 OA
ATOM      7  O   UNL     1      67.008  17.256  78.333  1.00  0.00    -0.550 OA
ENDBRANCH   4   5
ENDBRANCH   3   4
ENDBRANCH   2   3
ENDBRANCH   1   2
BRANCH   1   8
ATOM      8  C   UNL     1      69.763  16.220  76.550  1.00  0.00     0.000 C 
BRANCH   8   9
ATOM      9  C   UNL     1      70.399  16.550  77.908  1.00  0.00     0.006 C 
BRANCH   9  10
ATOM     10  C   UNL     1      70.588  15.282  78.746  1.00  0.00     0.053 C 
BRANCH  10  11
ATOM     11  C   UNL     1      70.354  15.570  80.196  1.00  0.00     0.041 C 
ATOM     12  O   UNL     1      71.315  15.892  80.942  1.00  0.00    -0.550 OA
ATOM     13  O   UNL     1      69.064  15.533  80.712  1.00  0.00    -0.550 OA
ENDBRANCH  10  11
ENDBRANCH   9  10
ENDBRANCH   8   9
ENDBRANCH   1   8
TORSDOF 8
ENDMDL
MODEL 2
REMARK VINA RESULT:    -3.244      1.791      2.263
REMARK INTER + INTRA:          -5.467
REMARK INTER:                  -4.990
REMARK INTRA:                  -0.477
REMARK UNBOUND:                -0.706
REMARK SMILES O=C([O-])CCCCCCCC(=O)[O-]
REMARK SMILES IDX 7 1 6 2 5 3 4 4 2 5 1 6 3 7 8 8 9 9 10 10 11 11 12 12 13 13
REMARK H PARENT
REMARK Flexibility Score: inf
ROOT
ATOM      1  C   UNL     1      68.288  14.491  76.211  1.00  0.00     0.000 C 
ENDROOT
BRANCH   1   2
ATOM      2  C   UNL     1      67.545  15.823  76.415  1.00  0.00     0.000 C 
BRANCH   2   3
ATOM      3  C   UNL     1      66.026  15.687  76.221  1.00  0.00     0.006 C 
BRANCH   3   4
ATOM      4  C   UNL     1      65.326  15.072  77.440  1.00  0.00     0.053 C 
BRANCH   4   5
ATOM      5  C   UNL     1      64.475  13.914  77.024  1.00  0.00     0.041 C 
ATOM      6  O   UNL     1      64.991  12.927  76.437  1.00  0.00    -0.550 OA
ATOM      7  O   UNL     1      63.103  13.946  77.240  1.00  0.00    -0.550 OA
ENDBRANCH   4   5
ENDBRANCH   3   4
ENDBRANCH   2   3
ENDBRANCH   1   2
BRANCH   1   8
ATOM      8  C   UNL     1      69.815  14.666  76.175  1.00  0.00     0.000 C 
BRANCH   8   9
ATOM      9  C   UNL     1      70.320  15.695  77.198  1.00  0.00     0.006 C 
BRANCH   9  10
ATOM     10  C   UNL     1      71.072  15.007  78.341  1.00  0.00     0.053 C 
BRANCH  10  11
ATOM     11  C   UNL     1      70.481  15.386  79.662  1.00  0.00     0.041 C 
ATOM     12  O   UNL     1      71.228  15.606  80.651  1.00  0.00    -0.550 OA
ATOM     13  O   UNL     1      69.106  15.544  79.789  1.00  0.00    -0.550 OA
ENDBRANCH  10  11
ENDBRANCH   9  10
ENDBRANCH   8   9
ENDBRANCH   1   8
TORSDOF 8
ENDMDL
MODEL 3
REMARK VINA RESULT:    -3.226      0.548      3.971
REMARK INTER + INTRA:          -5.441
REMARK INTER:                  -4.611
REMARK INTRA:                  -0.830
REMARK UNBOUND:                -0.706
REMARK SMILES O=C([O-])CCCCCCCC(=O)[O-]
REMARK SMILES IDX 7 1 6 2 5 3 4 4 2 5 1 6 3 7 8 8 9 9 10 10 11 11 12 12 13 13
REMARK H PARENT
REMARK Flexibility Score: inf
ROOT
ATOM      1  C   UNL     1      69.529  14.629  76.174  1.00  0.00     0.000 C 
ENDROOT
BRANCH   1   2
ATOM      2  C   UNL     1      69.929  16.008  76.726  1.00  0.00     0.000 C 
BRANCH   2   3
ATOM      3  C   UNL     1      70.828  15.907  77.970  1.00  0.00     0.006 C 
BRANCH   3   4
ATOM      4  C   UNL     1      70.168  15.128  79.115  1.00  0.00     0.053 C 
BRANCH   4   5
ATOM      5  C   UNL     1      70.484  15.768  80.431  1.00  0.00     0.041 C 
ATOM      6  O   UNL     1      71.660  15.746  80.879  1.00  0.00    -0.550 OA
ATOM      7  O   UNL     1      69.470  16.343  81.186  1.00  0.00    -0.550 OA
ENDBRANCH   4   5
ENDBRANCH   3   4
ENDBRANCH   2   3
ENDBRANCH   1   2
BRANCH   1   8
ATOM      8  C   UNL     1      68.005  14.433  76.119  1.00  0.00     0.000 C 
BRANCH   8   9
ATOM      9  C   UNL     1      67.230  15.738  76.355  1.00  0.00     0.006 C 
BRANCH   9  10
ATOM     10  C   UNL     1      66.212  15.573  77.488  1.00  0.00     0.053 C 
BRANCH  10  11
ATOM     11  C   UNL     1      66.692  16.259  78.728  1.00  0.00     0.041 C 
ATOM     12  O   UNL     1      67.322  17.345  78.649  1.00  0.00    -0.550 OA
ATOM     13  O   UNL     1      66.398  15.723  79.977  1.00  0.00    -0.550 OA
ENDBRANCH  10  11
ENDBRANCH   9  10
ENDBRANCH   8   9
ENDBRANCH   1   8
TORSDOF 8
ENDMDL
MODEL 4
REMARK VINA RESULT:    -3.205      1.608      2.581
REMARK INTER + INTRA:          -5.410
REMARK INTER:                  -4.598
REMARK INTRA:                  -0.812
REMARK UNBOUND:                -0.706
REMARK SMILES O=C([O-])CCCCCCCC(=O)[O-]
REMARK SMILES IDX 7 1 6 2 5 3 4 4 2 5 1 6 3 7 8 8 9 9 10 10 11 11 12 12 13 13
REMARK H PARENT
REMARK Flexibility Score: inf
ROOT
ATOM      1  C   UNL     1      71.224  15.072  78.463  1.00  0.00     0.000 C 
ENDROOT
BRANCH   1   2
ATOM      2  C   UNL     1      71.113  14.532  77.026  1.00  0.00     0.000 C 
BRANCH   2   3
ATOM      3  C   UNL     1      69.983  15.205  76.230  1.00  0.00     0.006 C 
BRANCH   3   4
ATOM      4  C   UNL     1      68.655  14.441  76.324  1.00  0.00     0.053 C 
BRANCH   4   5
ATOM      5  C   UNL     1      67.537  15.377  76.660  1.00  0.00     0.041 C 
ATOM      6  O   UNL     1      66.364  14.942  76.791  1.00  0.00    -0.550 OA
ATOM      7  O   UNL     1      67.783  16.739  76.780  1.00  0.00    -0.550 OA
ENDBRANCH   4   5
ENDBRANCH   3   4
ENDBRANCH   2   3
ENDBRANCH   1   2
BRANCH   1   8
ATOM      8  C   UNL     1      70.888  16.569  78.559  1.00  0.00     0.000 C 
BRANCH   8   9
ATOM      9  C   UNL     1      69.809  16.869  79.611  1.00  0.00     0.006 C 
BRANCH   9  10
ATOM     10  C   UNL     1      69.366  15.586  80.321  1.00  0.00     0.053 C 
BRANCH  10  11
ATOM     11  C   UNL     1      68.017  15.769  80.942  1.00  0.00     0.041 C 
ATOM     12  O   UNL     1      67.906  15.918  82.187  1.00  0.00    -0.550 OA
ATOM     13  O   UNL     1      66.884  15.825  80.138  1.00  0.00    -0.550 OA
ENDBRANCH  10  11
ENDBRANCH   9  10
ENDBRANCH   8   9
ENDBRANCH   1   8
TORSDOF 8
ENDMDL
MODEL 5
REMARK VINA RESULT:    -3.153      1.210      4.112
REMARK INTER + INTRA:          -5.333
REMARK INTER:                  -4.626
REMARK INTRA:                  -0.708
REMARK UNBOUND:                -0.706
REMARK SMILES O=C([O-])CCCCCCCC(=O)[O-]
REMARK SMILES IDX 7 1 6 2 5 3 4 4 2 5 1 6 3 7 8 8 9 9 10 10 11 11 12 12 13 13
REMARK H PARENT
REMARK Flexibility Score: inf
ROOT
ATOM      1  C   UNL     1      70.064  15.492  76.592  1.00  0.00     0.000 C 
ENDROOT
BRANCH   1   2
ATOM      2  C   UNL     1      71.014  15.002  77.699  1.00  0.00     0.000 C 
BRANCH   2   3
ATOM      3  C   UNL     1      71.170  16.024  78.837  1.00  0.00     0.006 C 
BRANCH   3   4
ATOM      4  C   UNL     1      70.559  15.538  80.157  1.00  0.00     0.053 C 
BRANCH   4   5
ATOM      5  C   UNL     1      69.177  16.088  80.327  1.00  0.00     0.041 C 
ATOM      6  O   UNL     1      68.898  17.241  79.906  1.00  0.00    -0.550 OA
ATOM      7  O   UNL     1      68.211  15.347  80.995  1.00  0.00    -0.550 OA
ENDBRANCH   4   5
ENDBRANCH   3   4
ENDBRANCH   2   3
ENDBRANCH   1   2
BRANCH   1   8
ATOM      8  C   UNL     1      69.101  14.394  76.112  1.00  0.00     0.000 C 
BRANCH   8   9
ATOM      9  C   UNL     1      67.654  14.891  75.975  1.00  0.00     0.006 C 
BRANCH   9  10
ATOM     10  C   UNL     1      67.356  15.994  76.995  1.00  0.00     0.053 C 
BRANCH  10  11
ATOM     11  C   UNL     1      66.117  15.672  77.769  1.00  0.00     0.041 C 
ATOM     12  O   UNL     1      65.828  16.326  78.805  1.00  0.00    -0.550 OA
ATOM     13  O   UNL     1      65.253  14.680  77.318  1.00  0.00    -0.550 OA
ENDBRANCH  10  11
ENDBRANCH   9  10
ENDBRANCH   8   9
ENDBRANCH   1   8
TORSDOF 8
ENDMDL
MODEL 6
REMARK VINA RESULT:    -3.126      1.472      4.713
REMARK INTER + INTRA:          -5.295
REMARK INTER:                  -4.795
REMARK INTRA:                  -0.500
REMARK UNBOUND:                -0.706
REMARK SMILES O=C([O-])CCCCCCCC(=O)[O-]
REMARK SMILES IDX 7 1 6 2 5 3 4 4 2 5 1 6 3 7 8 8 9 9 10 10 11 11 12 12 13 13
REMARK H PARENT
REMARK Flexibility Score: inf
ROOT
ATOM      1  C   UNL     1      68.389  14.542  76.170  1.00  0.00     0.000 C 
ENDROOT
BRANCH   1   2
ATOM      2  C   UNL     1      69.910  14.759  76.252  1.00  0.00     0.000 C 
BRANCH   2   3
ATOM      3  C   UNL     1      70.305  15.745  77.364  1.00  0.00     0.006 C 
BRANCH   3   4
ATOM      4  C   UNL     1      70.667  15.041  78.678  1.00  0.00     0.053 C 
BRANCH   4   5
ATOM      5  C   UNL     1      69.887  15.622  79.814  1.00  0.00     0.041 C 
ATOM      6  O   UNL     1      70.483  16.098  80.816  1.00  0.00    -0.550 OA
ATOM      7  O   UNL     1      68.498  15.594  79.790  1.00  0.00    -0.550 OA
ENDBRANCH   4   5
ENDBRANCH   3   4
ENDBRANCH   2   3
ENDBRANCH   1   2
BRANCH   1   8
ATOM      8  C   UNL     1      67.596  15.848  76.339  1.00  0.00     0.000 C 
BRANCH   8   9
ATOM      9  C   UNL     1      66.137  15.721  75.875  1.00  0.00     0.006 C 
BRANCH   9  10
ATOM     10  C   UNL     1      65.587  14.323  76.175  1.00  0.00     0.053 C 
BRANCH  10  11
ATOM     11  C   UNL     1      64.573  14.382  77.274  1.00  0.00     0.041 C 
ATOM     12  O   UNL     1      64.828  15.002  78.339  1.00  0.00    -0.550 OA
ATOM     13  O   UNL     1      63.325  13.795  77.100  1.00  0.00    -0.550 OA
ENDBRANCH  10  11
ENDBRANCH   9  10
ENDBRANCH   8   9
ENDBRANCH   1   8
TORSDOF 8
ENDMDL
MODEL 7
REMARK VINA RESULT:    -3.105      1.382      2.637
REMARK INTER + INTRA:          -5.263
REMARK INTER:                  -4.528
REMARK INTRA:                  -0.735
REMARK UNBOUND:                -0.706
REMARK SMILES O=C([O-])CCCCCCCC(=O)[O-]
REMARK SMILES IDX 7 1 6 2 5 3 4 4 2 5 1 6 3 7 8 8 9 9 10 10 11 11 12 12 13 13
REMARK H PARENT
REMARK Flexibility Score: inf
ROOT
ATOM      1  C   UNL     1      67.234  15.690  76.405  1.00  0.00     0.000 C 
ENDROOT
BRANCH   1   2
ATOM      2  C   UNL     1      66.051  15.271  77.295  1.00  0.00     0.000 C 
BRANCH   2   3
ATOM      3  C   UNL     1      65.702  16.334  78.349  1.00  0.00     0.006 C 
BRANCH   3   4
ATOM      4  C   UNL     1      66.111  15.917  79.768  1.00  0.00     0.053 C 
BRANCH   4   5
ATOM      5  C   UNL     1      67.528  16.314  80.040  1.00  0.00     0.041 C 
ATOM      6  O   UNL     1      67.944  17.452  79.700  1.00  0.00    -0.550 OA
ATOM      7  O   UNL     1      68.404  15.407  80.624  1.00  0.00    -0.550 OA
ENDBRANCH   4   5
ENDBRANCH   3   4
ENDBRANCH   2   3
ENDBRANCH   1   2
BRANCH   1   8
ATOM      8  C   UNL     1      68.077  14.491  75.940  1.00  0.00     0.000 C 
BRANCH   8   9
ATOM      9  C   UNL     1      69.577  14.676  76.213  1.00  0.00     0.006 C 
BRANCH   9  10
ATOM     10  C   UNL     1      69.854  16.049  76.835  1.00  0.00     0.053 C 
BRANCH  10  11
ATOM     11  C   UNL     1      70.722  15.910  78.046  1.00  0.00     0.041 C 
ATOM     12  O   UNL     1      71.097  16.933  78.677  1.00  0.00    -0.550 OA
ATOM     13  O   UNL     1      71.076  14.648  78.507  1.00  0.00    -0.550 OA
ENDBRANCH  10  11
ENDBRANCH   9  10
ENDBRANCH   8   9
ENDBRANCH   1   8
TORSDOF 8
ENDMDL
MODEL 8
REMARK VINA RESULT:    -3.064      1.563      1.853
REMARK INTER + INTRA:          -5.203
REMARK INTER:                  -4.372
REMARK INTRA:                  -0.831
REMARK UNBOUND:                -0.706
REMARK SMILES O=C([O-])CCCCCCCC(=O)[O-]
REMARK SMILES IDX 7 1 6 2 5 3 4 4 2 5 1 6 3 7 8 8 9 9 10 10 11 11 12 12 13 13
REMARK H PARENT
REMARK Flexibility Score: inf
ROOT
ATOM      1  C   UNL     1      69.974  15.205  76.246  1.00  0.00     0.000 C 
ENDROOT
BRANCH   1   2
ATOM      2  C   UNL     1      68.687  14.360  76.249  1.00  0.00     0.000 C 
BRANCH   2   3
ATOM      3  C   UNL     1      67.420  15.215  76.085  1.00  0.00     0.006 C 
BRANCH   3   4
ATOM      4  C   UNL     1      67.612  16.657  76.571  1.00  0.00     0.053 C 
BRANCH   4   5
ATOM      5  C   UNL     1      66.892  16.872  77.865  1.00  0.00     0.041 C 
ATOM      6  O   UNL     1      66.975  16.018  78.786  1.00  0.00    -0.550 OA
ATOM      7  O   UNL     1      66.088  17.991  78.036  1.00  0.00    -0.550 OA
ENDBRANCH   4   5
ENDBRANCH   3   4
ENDBRANCH   2   3
ENDBRANCH   1   2
BRANCH   1   8
ATOM      8  C   UNL     1      70.998  14.725  77.288  1.00  0.00     0.000 C 
BRANCH   8   9
ATOM      9  C   UNL     1      70.629  15.142  78.719  1.00  0.00     0.006 C 
BRANCH   9  10
ATOM     10  C   UNL     1      71.333  16.446  79.109  1.00  0.00     0.053 C 
BRANCH  10  11
ATOM     11  C   UNL     1      70.363  17.584  79.120  1.00  0.00     0.041 C 
ATOM     12  O   UNL     1      70.303  18.375  78.142  1.00  0.00    -0.550 OA
ATOM     13  O   UNL     1      69.489  17.743  80.189  1.00  0.00    -0.550 OA
ENDBRANCH  10  11
ENDBRANCH   9  10
ENDBRANCH   8   9
ENDBRANCH   1   8
TORSDOF 8
ENDMDL
MODEL 9
REMARK VINA RESULT:    -3.041      1.560      2.030
REMARK INTER + INTRA:          -5.169
REMARK INTER:                  -4.491
REMARK INTRA:                  -0.678
REMARK UNBOUND:                -0.706
REMARK SMILES O=C([O-])CCCCCCCC(=O)[O-]
REMARK SMILES IDX 7 1 6 2 5 3 4 4 2 5 1 6 3 7 8 8 9 9 10 10 11 11 12 12 13 13
REMARK H PARENT
REMARK Flexibility Score: inf
ROOT
ATOM      1  C   UNL     1      69.876  15.371  76.252  1.00  0.00     0.000 C 
ENDROOT
BRANCH   1   2
ATOM      2  C   UNL     1      68.730  14.375  76.001  1.00  0.00     0.000 C 
BRANCH   2   3
ATOM      3  C   UNL     1      67.362  15.067  75.888  1.00  0.00     0.006 C 
BRANCH   3   4
ATOM      4  C   UNL     1      67.123  16.093  77.003  1.00  0.00     0.053 C 
BRANCH   4   5
ATOM      5  C   UNL     1      66.923  17.458  76.422  1.00  0.00     0.041 C 
ATOM      6  O   UNL     1      65.830  17.760  75.875  1.00  0.00    -0.550 OA
ATOM      7  O   UNL     1      67.962  18.380  76.438  1.00  0.00    -0.550 OA
ENDBRANCH   4   5
ENDBRANCH   3   4
ENDBRANCH   2   3
ENDBRANCH   1   2
BRANCH   1   8
ATOM      8  C   UNL     1      71.030  14.753  77.059  1.00  0.00     0.000 C 
BRANCH   8   9
ATOM      9  C   UNL     1      70.932  15.055  78.561  1.00  0.00     0.006 C 
BRANCH   9  10
ATOM     10  C   UNL     1      70.469  16.495  78.801  1.00  0.00     0.053 C 
BRANCH  10  11
ATOM     11  C   UNL     1      69.340  16.527  79.783  1.00  0.00     0.041 C 
ATOM     12  O   UNL     1      69.084  15.515  80.487  1.00  0.00    -0.550 OA
ATOM     13  O   UNL     1      68.602  17.692  79.957  1.00  0.00    -0.550 OA
ENDBRANCH  10  11
ENDBRANCH   9  10
ENDBRANCH   8   9
ENDBRANCH   1   8
TORSDOF 8
ENDMDL
