MODEL 1
REMARK VINA RESULT:    12.043      0.000      0.000
REMARK INTER + INTRA:          12.912
REMARK INTER:                  13.099
REMARK INTRA:                  -0.187
REMARK UNBOUND:                -0.187
REMARK SMILES CC1=CCC[C@]2(C)CC[C@H](C(C)(C)O)C[C@H]12
REMARK SMILES IDX 11 1 12 2 13 3 10 4 1 5 2 6 3 7 16 8 4 9 6 10 15 11 5 12
REMARK SMILES IDX 7 13 8 14 9 15 14 16
REMARK H PARENT 14 17
REMARK Flexibility Score: inf
ROOT
ATOM      1  C   UNL     1     -36.168  25.442   7.522  1.00  0.00     0.062 C 
ATOM      2  C   UNL     1     -35.147  25.253   8.670  1.00  0.00     0.042 C 
ATOM      3  C   UNL     1     -35.372  25.420   6.199  1.00  0.00     0.042 C 
ENDROOT
BRANCH   1   4
ATOM      4  C   UNL     1     -37.261  24.303   7.519  1.00  0.00     0.021 C 
ATOM      5  C   UNL     1     -40.580  24.021   4.233  1.00  0.00     0.039 C 
ATOM      6  C   UNL     1     -40.708  24.020   5.734  1.00  0.00    -0.074 C 
ATOM      7  C   UNL     1     -41.827  24.532   6.291  1.00  0.00    -0.028 C 
ATOM      8  C   UNL     1     -39.537  23.544   6.582  1.00  0.00     0.021 C 
ATOM      9  C   UNL     1     -42.125  24.481   7.769  1.00  0.00     0.028 C 
ATOM     10  C   UNL     1     -39.997  23.057   7.989  1.00  0.00    -0.026 C 
ATOM     11  C   UNL     1     -38.486  24.677   6.651  1.00  0.00     0.015 C 
ATOM     12  C   UNL     1     -40.906  24.135   8.638  1.00  0.00     0.011 C 
ATOM     13  C   UNL     1     -40.783  21.726   7.853  1.00  0.00     0.012 C 
ATOM     14  C   UNL     1     -38.763  22.768   8.888  1.00  0.00     0.008 C 
ATOM     15  C   UNL     1     -37.746  23.914   8.935  1.00  0.00     0.007 C 
ENDBRANCH   1   4
BRANCH   1  16
ATOM     16  O   UNL     1     -36.770  26.712   7.629  1.00  0.00    -0.390 OA
ATOM     17  H   UNL     1     -36.065  27.376   7.839  1.00  0.00     0.211 HD
ENDBRANCH   1  16
TORSDOF 2
ENDMDL
MODEL 2
REMARK VINA RESULT:    12.592      0.737      1.024
REMARK INTER + INTRA:          13.509
REMARK INTER:                  13.744
REMARK INTRA:                  -0.235
REMARK UNBOUND:                -0.187
REMARK SMILES CC1=CCC[C@]2(C)CC[C@H](C(C)(C)O)C[C@H]12
REMARK SMILES IDX 11 1 12 2 13 3 10 4 1 5 2 6 3 7 16 8 4 9 6 10 15 11 5 12
REMARK SMILES IDX 7 13 8 14 9 15 14 16
REMARK H PARENT 14 17
REMARK Flexibility Score: inf
ROOT
ATOM      1  C   UNL     1     -36.165  25.290   7.254  1.00  0.00     0.062 C 
ATOM      2  C   UNL     1     -36.705  26.695   7.620  1.00  0.00     0.042 C 
ATOM      3  C   UNL     1     -35.054  24.951   8.271  1.00  0.00     0.042 C 
ENDROOT
BRANCH   1   4
ATOM      4  C   UNL     1     -37.303  24.196   7.307  1.00  0.00     0.021 C 
ATOM      5  C   UNL     1     -40.857  24.128   4.265  1.00  0.00     0.039 C 
ATOM      6  C   UNL     1     -40.878  24.096   5.770  1.00  0.00    -0.074 C 
ATOM      7  C   UNL     1     -41.931  24.640   6.417  1.00  0.00    -0.028 C 
ATOM      8  C   UNL     1     -39.670  23.553   6.521  1.00  0.00     0.021 C 
ATOM      9  C   UNL     1     -42.125  24.566   7.912  1.00  0.00     0.028 C 
ATOM     10  C   UNL     1     -40.049  23.052   7.947  1.00  0.00    -0.026 C 
ATOM     11  C   UNL     1     -38.570  24.641   6.538  1.00  0.00     0.015 C 
ATOM     12  C   UNL     1     -40.863  24.150   8.683  1.00  0.00     0.011 C 
ATOM     13  C   UNL     1     -40.898  21.757   7.841  1.00  0.00     0.012 C 
ATOM     14  C   UNL     1     -38.767  22.692   8.749  1.00  0.00     0.008 C 
ATOM     15  C   UNL     1     -37.702  23.794   8.746  1.00  0.00     0.007 C 
ENDBRANCH   1   4
BRANCH   1  16
ATOM     16  O   UNL     1     -35.569  25.330   5.978  1.00  0.00    -0.390 OA
ATOM     17  H   UNL     1     -35.080  24.480   5.833  1.00  0.00     0.211 HD
ENDBRANCH   1  16
TORSDOF 2
ENDMDL
