MODEL 1
REMARK VINA RESULT:    -6.728      0.000      0.000
REMARK INTER + INTRA:          -7.373
REMARK INTER:                  -7.121
REMARK INTRA:                  -0.252
REMARK UNBOUND:                -0.252
REMARK SMILES O=c1cc(-c2ccccc2)oc2ccccc12
REMARK SMILES IDX 4 1 3 2 2 3 1 4 17 5 16 6 15 7 14 8 13 9 12 10 11 11 5 12
REMARK SMILES IDX 8 13 7 14 9 15 6 16 10 17
REMARK H PARENT
REMARK Flexibility Score: inf
ROOT
ATOM      1  C   UNL     1       9.778  12.350  23.785  1.00  0.00     0.138 A 
ATOM      2  C   UNL     1      10.124  13.578  24.388  1.00  0.00     0.100 A 
ATOM      3  C   UNL     1      10.512  14.653  23.588  1.00  0.00     0.193 A 
ATOM      4  O   UNL     1      10.820  15.751  24.129  1.00  0.00    -0.289 OA
ATOM      5  C   UNL     1      10.552  14.499  22.195  1.00  0.00     0.065 A 
ATOM      6  C   UNL     1      10.933  15.543  21.333  1.00  0.00     0.016 A 
ATOM      7  C   UNL     1      10.956  15.334  19.950  1.00  0.00     0.001 A 
ATOM      8  C   UNL     1      10.600  14.090  19.420  1.00  0.00     0.004 A 
ATOM      9  C   UNL     1      10.220  13.048  20.270  1.00  0.00     0.048 A 
ATOM     10  C   UNL     1      10.193  13.246  21.656  1.00  0.00     0.138 A 
ATOM     11  O   UNL     1       9.831  12.249  22.456  1.00  0.00    -0.456 OA
ENDROOT
BRANCH   1  12
ATOM     12  C   UNL     1       9.352  11.150  24.568  1.00  0.00     0.017 A 
ATOM     13  C   UNL     1       8.595   8.826  25.981  1.00  0.00     0.000 A 
ATOM     14  C   UNL     1       9.356   8.719  24.817  1.00  0.00     0.001 A 
ATOM     15  C   UNL     1       8.210  10.083  26.446  1.00  0.00     0.001 A 
ATOM     16  C   UNL     1       9.732   9.868  24.116  1.00  0.00     0.012 A 
ATOM     17  C   UNL     1       8.582  11.238  25.750  1.00  0.00     0.012 A 
ENDBRANCH   1  12
TORSDOF 1
ENDMDL
MODEL 2
REMARK VINA RESULT:    -6.364      1.227      5.806
REMARK INTER + INTRA:          -6.988
REMARK INTER:                  -6.729
REMARK INTRA:                  -0.259
REMARK UNBOUND:                -0.252
REMARK SMILES O=c1cc(-c2ccccc2)oc2ccccc12
REMARK SMILES IDX 4 1 3 2 2 3 1 4 17 5 16 6 15 7 14 8 13 9 12 10 11 11 5 12
REMARK SMILES IDX 8 13 7 14 9 15 6 16 10 17
REMARK H PARENT
REMARK Flexibility Score: inf
ROOT
ATOM      1  C   UNL     1       9.699  13.054  23.123  1.00  0.00     0.138 A 
ATOM      2  C   UNL     1       9.166  13.697  24.260  1.00  0.00     0.100 A 
ATOM      3  C   UNL     1       8.781  12.937  25.365  1.00  0.00     0.193 A 
ATOM      4  O   UNL     1       8.304  13.513  26.381  1.00  0.00    -0.289 OA
ATOM      5  C   UNL     1       8.929  11.543  25.330  1.00  0.00     0.065 A 
ATOM      6  C   UNL     1       8.561  10.719  26.408  1.00  0.00     0.016 A 
ATOM      7  C   UNL     1       8.730   9.333  26.319  1.00  0.00     0.001 A 
ATOM      8  C   UNL     1       9.266   8.762  25.161  1.00  0.00     0.004 A 
ATOM      9  C   UNL     1       9.634   9.575  24.085  1.00  0.00     0.048 A 
ATOM     10  C   UNL     1       9.469  10.963  24.162  1.00  0.00     0.138 A 
ATOM     11  O   UNL     1       9.822  11.726  23.134  1.00  0.00    -0.456 OA
ENDROOT
BRANCH   1  12
ATOM     12  C   UNL     1      10.136  13.794  21.899  1.00  0.00     0.017 A 
ATOM     13  C   UNL     1      10.945  15.108  19.536  1.00  0.00     0.000 A 
ATOM     14  C   UNL     1      10.554  13.770  19.492  1.00  0.00     0.001 A 
ATOM     15  C   UNL     1      10.935  15.795  20.749  1.00  0.00     0.001 A 
ATOM     16  C   UNL     1      10.153  13.117  20.661  1.00  0.00     0.012 A 
ATOM     17  C   UNL     1      10.535  15.150  21.923  1.00  0.00     0.012 A 
ENDBRANCH   1  12
TORSDOF 1
ENDMDL
MODEL 3
REMARK VINA RESULT:    -6.213      4.540      7.122
REMARK INTER + INTRA:          -6.829
REMARK INTER:                  -6.566
REMARK INTRA:                  -0.263
REMARK UNBOUND:                -0.252
REMARK SMILES O=c1cc(-c2ccccc2)oc2ccccc12
REMARK SMILES IDX 4 1 3 2 2 3 1 4 17 5 16 6 15 7 14 8 13 9 12 10 11 11 5 12
REMARK SMILES IDX 8 13 7 14 9 15 6 16 10 17
REMARK H PARENT
REMARK Flexibility Score: inf
ROOT
ATOM      1  C   UNL     1       8.335   7.263  28.535  1.00  0.00     0.138 A 
ATOM      2  C   UNL     1       8.164   8.467  29.250  1.00  0.00     0.100 A 
ATOM      3  C   UNL     1       8.327   9.687  28.593  1.00  0.00     0.193 A 
ATOM      4  O   UNL     1       8.174  10.764  29.233  1.00  0.00    -0.289 OA
ATOM      5  C   UNL     1       8.659   9.700  27.230  1.00  0.00     0.065 A 
ATOM      6  C   UNL     1       8.837  10.894  26.510  1.00  0.00     0.016 A 
ATOM      7  C   UNL     1       9.168  10.848  25.152  1.00  0.00     0.001 A 
ATOM      8  C   UNL     1       9.322   9.618  24.505  1.00  0.00     0.004 A 
ATOM      9  C   UNL     1       9.146   8.427  25.215  1.00  0.00     0.048 A 
ATOM     10  C   UNL     1       8.815   8.460  26.575  1.00  0.00     0.138 A 
ATOM     11  O   UNL     1       8.650   7.322  27.240  1.00  0.00    -0.456 OA
ENDROOT
BRANCH   1  12
ATOM     12  C   UNL     1       8.178   5.914  29.162  1.00  0.00     0.017 A 
ATOM     13  C   UNL     1       7.876   3.329  30.255  1.00  0.00     0.000 A 
ATOM     14  C   UNL     1       7.875   3.507  28.872  1.00  0.00     0.001 A 
ATOM     15  C   UNL     1       8.027   4.430  31.096  1.00  0.00     0.001 A 
ATOM     16  C   UNL     1       8.025   4.786  28.328  1.00  0.00     0.012 A 
ATOM     17  C   UNL     1       8.177   5.714  30.561  1.00  0.00     0.012 A 
ENDBRANCH   1  12
TORSDOF 1
ENDMDL
MODEL 4
REMARK VINA RESULT:    -6.031      1.950      6.548
REMARK INTER + INTRA:          -6.636
REMARK INTER:                  -6.374
REMARK INTRA:                  -0.262
REMARK UNBOUND:                -0.252
REMARK SMILES O=c1cc(-c2ccccc2)oc2ccccc12
REMARK SMILES IDX 4 1 3 2 2 3 1 4 17 5 16 6 15 7 14 8 13 9 12 10 11 11 5 12
REMARK SMILES IDX 8 13 7 14 9 15 6 16 10 17
REMARK H PARENT
REMARK Flexibility Score: inf
ROOT
ATOM      1  C   UNL     1       9.739  12.114  24.654  1.00  0.00     0.138 A 
ATOM      2  C   UNL     1       9.607  10.947  23.872  1.00  0.00     0.100 A 
ATOM      3  C   UNL     1       9.199   9.756  24.476  1.00  0.00     0.193 A 
ATOM      4  O   UNL     1       9.080   8.713  23.776  1.00  0.00    -0.289 OA
ATOM      5  C   UNL     1       8.927   9.737  25.851  1.00  0.00     0.065 A 
ATOM      6  C   UNL     1       8.512   8.571  26.520  1.00  0.00     0.016 A 
ATOM      7  C   UNL     1       8.254   8.608  27.894  1.00  0.00     0.001 A 
ATOM      8  C   UNL     1       8.406   9.801  28.607  1.00  0.00     0.004 A 
ATOM      9  C   UNL     1       8.818  10.963  27.950  1.00  0.00     0.048 A 
ATOM     10  C   UNL     1       9.079  10.938  26.574  1.00  0.00     0.138 A 
ATOM     11  O   UNL     1       9.470  12.049  25.958  1.00  0.00    -0.456 OA
ENDROOT
BRANCH   1  12
ATOM     12  C   UNL     1      10.170  13.429  24.086  1.00  0.00     0.017 A 
ATOM     13  C   UNL     1      11.018  15.863  22.936  1.00  0.00     0.000 A 
ATOM     14  C   UNL     1      11.255  14.658  22.275  1.00  0.00     0.001 A 
ATOM     15  C   UNL     1      10.361  15.863  24.165  1.00  0.00     0.001 A 
ATOM     16  C   UNL     1      10.836  13.452  22.842  1.00  0.00     0.012 A 
ATOM     17  C   UNL     1       9.938  14.660  24.740  1.00  0.00     0.012 A 
ENDBRANCH   1  12
TORSDOF 1
ENDMDL
MODEL 5
REMARK VINA RESULT:    -5.877      2.426      4.539
REMARK INTER + INTRA:          -6.473
REMARK INTER:                  -6.218
REMARK INTRA:                  -0.255
REMARK UNBOUND:                -0.252
REMARK SMILES O=c1cc(-c2ccccc2)oc2ccccc12
REMARK SMILES IDX 4 1 3 2 2 3 1 4 17 5 16 6 15 7 14 8 13 9 12 10 11 11 5 12
REMARK SMILES IDX 8 13 7 14 9 15 6 16 10 17
REMARK H PARENT
REMARK Flexibility Score: inf
ROOT
ATOM      1  C   UNL     1       9.630  14.952  24.296  1.00  0.00     0.138 A 
ATOM      2  C   UNL     1       9.364  13.575  24.150  1.00  0.00     0.100 A 
ATOM      3  C   UNL     1       9.562  12.963  22.911  1.00  0.00     0.193 A 
ATOM      4  O   UNL     1       9.324  11.731  22.780  1.00  0.00    -0.289 OA
ATOM      5  C   UNL     1      10.022  13.727  21.829  1.00  0.00     0.065 A 
ATOM      6  C   UNL     1      10.242  13.173  20.555  1.00  0.00     0.016 A 
ATOM      7  C   UNL     1      10.702  13.982  19.511  1.00  0.00     0.001 A 
ATOM      8  C   UNL     1      10.946  15.341  19.728  1.00  0.00     0.004 A 
ATOM      9  C   UNL     1      10.729  15.900  20.991  1.00  0.00     0.048 A 
ATOM     10  C   UNL     1      10.269  15.100  22.044  1.00  0.00     0.138 A 
ATOM     11  O   UNL     1      10.066  15.640  23.240  1.00  0.00    -0.456 OA
ENDROOT
BRANCH   1  12
ATOM     12  C   UNL     1       9.445  15.684  25.588  1.00  0.00     0.017 A 
ATOM     13  C   UNL     1       9.024  17.000  28.049  1.00  0.00     0.000 A 
ATOM     14  C   UNL     1       8.242  15.899  27.704  1.00  0.00     0.001 A 
ATOM     15  C   UNL     1      10.016  17.449  27.177  1.00  0.00     0.001 A 
ATOM     16  C   UNL     1       8.448  15.245  26.486  1.00  0.00     0.012 A 
ATOM     17  C   UNL     1      10.229  16.801  25.957  1.00  0.00     0.012 A 
ENDBRANCH   1  12
TORSDOF 1
ENDMDL
MODEL 6
REMARK VINA RESULT:    -5.872      3.221      6.434
REMARK INTER + INTRA:          -6.468
REMARK INTER:                  -6.207
REMARK INTRA:                  -0.260
REMARK UNBOUND:                -0.252
REMARK SMILES O=c1cc(-c2ccccc2)oc2ccccc12
REMARK SMILES IDX 4 1 3 2 2 3 1 4 17 5 16 6 15 7 14 8 13 9 12 10 11 11 5 12
REMARK SMILES IDX 8 13 7 14 9 15 6 16 10 17
REMARK H PARENT
REMARK Flexibility Score: inf
ROOT
ATOM      1  C   UNL     1      10.287  16.969  23.245  1.00  0.00     0.138 A 
ATOM      2  C   UNL     1      10.158  15.882  24.135  1.00  0.00     0.100 A 
ATOM      3  C   UNL     1      10.143  14.580  23.634  1.00  0.00     0.193 A 
ATOM      4  O   UNL     1      10.028  13.608  24.431  1.00  0.00    -0.289 OA
ATOM      5  C   UNL     1      10.256  14.369  22.253  1.00  0.00     0.065 A 
ATOM      6  C   UNL     1      10.248  13.084  21.683  1.00  0.00     0.016 A 
ATOM      7  C   UNL     1      10.364  12.931  20.298  1.00  0.00     0.001 A 
ATOM      8  C   UNL     1      10.489  14.054  19.474  1.00  0.00     0.004 A 
ATOM      9  C   UNL     1      10.498  15.336  20.032  1.00  0.00     0.048 A 
ATOM     10  C   UNL     1      10.382  15.500  21.418  1.00  0.00     0.138 A 
ATOM     11  O   UNL     1      10.392  16.722  21.939  1.00  0.00    -0.456 OA
ENDROOT
BRANCH   1  12
ATOM     12  C   UNL     1      10.313  18.394  23.699  1.00  0.00     0.017 A 
ATOM     13  C   UNL     1      10.317  21.055  24.640  1.00  0.00     0.000 A 
ATOM     14  C   UNL     1       9.761  20.040  25.418  1.00  0.00     0.001 A 
ATOM     15  C   UNL     1      10.871  20.753  23.397  1.00  0.00     0.001 A 
ATOM     16  C   UNL     1       9.758  18.722  24.955  1.00  0.00     0.012 A 
ATOM     17  C   UNL     1      10.873  19.436  22.926  1.00  0.00     0.012 A 
ENDBRANCH   1  12
TORSDOF 1
ENDMDL
MODEL 7
REMARK VINA RESULT:    -5.858      1.391      2.567
REMARK INTER + INTRA:          -6.453
REMARK INTER:                  -6.190
REMARK INTRA:                  -0.263
REMARK UNBOUND:                -0.252
REMARK SMILES O=c1cc(-c2ccccc2)oc2ccccc12
REMARK SMILES IDX 4 1 3 2 2 3 1 4 17 5 16 6 15 7 14 8 13 9 12 10 11 11 5 12
REMARK SMILES IDX 8 13 7 14 9 15 6 16 10 17
REMARK H PARENT
REMARK Flexibility Score: inf
ROOT
ATOM      1  C   UNL     1       9.688  12.028  24.274  1.00  0.00     0.138 A 
ATOM      2  C   UNL     1       9.814  11.880  22.877  1.00  0.00     0.100 A 
ATOM      3  C   UNL     1      10.172  12.981  22.098  1.00  0.00     0.193 A 
ATOM      4  O   UNL     1      10.285  12.848  20.848  1.00  0.00    -0.289 OA
ATOM      5  C   UNL     1      10.402  14.219  22.715  1.00  0.00     0.065 A 
ATOM      6  C   UNL     1      10.765  15.367  21.988  1.00  0.00     0.016 A 
ATOM      7  C   UNL     1      10.982  16.577  22.655  1.00  0.00     0.001 A 
ATOM      8  C   UNL     1      10.839  16.651  24.044  1.00  0.00     0.004 A 
ATOM      9  C   UNL     1      10.478  15.515  24.773  1.00  0.00     0.048 A 
ATOM     10  C   UNL     1      10.258  14.298  24.116  1.00  0.00     0.138 A 
ATOM     11  O   UNL     1       9.915  13.224  24.818  1.00  0.00    -0.456 OA
ENDROOT
BRANCH   1  12
ATOM     12  C   UNL     1       9.309  10.900  25.181  1.00  0.00     0.017 A 
ATOM     13  C   UNL     1       8.615   8.708  26.818  1.00  0.00     0.000 A 
ATOM     14  C   UNL     1       9.028   8.494  25.503  1.00  0.00     0.001 A 
ATOM     15  C   UNL     1       8.546  10.006  27.322  1.00  0.00     0.001 A 
ATOM     16  C   UNL     1       9.372   9.578  24.691  1.00  0.00     0.012 A 
ATOM     17  C   UNL     1       8.889  11.096  26.516  1.00  0.00     0.012 A 
ENDBRANCH   1  12
TORSDOF 1
ENDMDL
MODEL 8
REMARK VINA RESULT:    -5.769      3.024      6.952
REMARK INTER + INTRA:          -6.359
REMARK INTER:                  -6.135
REMARK INTRA:                  -0.224
REMARK UNBOUND:                -0.252
REMARK SMILES O=c1cc(-c2ccccc2)oc2ccccc12
REMARK SMILES IDX 4 1 3 2 2 3 1 4 17 5 16 6 15 7 14 8 13 9 12 10 11 11 5 12
REMARK SMILES IDX 8 13 7 14 9 15 6 16 10 17
REMARK H PARENT
REMARK Flexibility Score: inf
ROOT
ATOM      1  C   UNL     1      10.030  16.844  22.286  1.00  0.00     0.138 A 
ATOM      2  C   UNL     1      10.256  16.231  21.035  1.00  0.00     0.100 A 
ATOM      3  C   UNL     1      10.312  14.839  20.950  1.00  0.00     0.193 A 
ATOM      4  O   UNL     1      10.513  14.292  19.832  1.00  0.00    -0.289 OA
ATOM      5  C   UNL     1      10.141  14.069  22.110  1.00  0.00     0.065 A 
ATOM      6  C   UNL     1      10.186  12.663  22.093  1.00  0.00     0.016 A 
ATOM      7  C   UNL     1      10.010  11.944  23.279  1.00  0.00     0.001 A 
ATOM      8  C   UNL     1       9.789  12.617  24.485  1.00  0.00     0.004 A 
ATOM      9  C   UNL     1       9.744  14.014  24.510  1.00  0.00     0.048 A 
ATOM     10  C   UNL     1       9.919  14.744  23.328  1.00  0.00     0.138 A 
ATOM     11  O   UNL     1       9.874  16.071  23.362  1.00  0.00    -0.456 OA
ENDROOT
BRANCH   1  12
ATOM     12  C   UNL     1       9.956  18.327  22.464  1.00  0.00     0.017 A 
ATOM     13  C   UNL     1       9.726  21.125  22.755  1.00  0.00     0.000 A 
ATOM     14  C   UNL     1       8.711  20.403  22.130  1.00  0.00     0.001 A 
ATOM     15  C   UNL     1      10.855  20.462  23.237  1.00  0.00     0.001 A 
ATOM     16  C   UNL     1       8.822  19.017  21.985  1.00  0.00     0.012 A 
ATOM     17  C   UNL     1      10.974  19.076  23.096  1.00  0.00     0.012 A 
ENDBRANCH   1  12
TORSDOF 1
ENDMDL
MODEL 9
REMARK VINA RESULT:    -5.601      3.358      5.553
REMARK INTER + INTRA:          -6.181
REMARK INTER:                  -5.916
REMARK INTRA:                  -0.265
REMARK UNBOUND:                -0.252
REMARK SMILES O=c1cc(-c2ccccc2)oc2ccccc12
REMARK SMILES IDX 4 1 3 2 2 3 1 4 17 5 16 6 15 7 14 8 13 9 12 10 11 11 5 12
REMARK SMILES IDX 8 13 7 14 9 15 6 16 10 17
REMARK H PARENT
REMARK Flexibility Score: inf
ROOT
ATOM      1  C   UNL     1       8.426   8.809  27.634  1.00  0.00     0.138 A 
ATOM      2  C   UNL     1       8.237  10.004  28.359  1.00  0.00     0.100 A 
ATOM      3  C   UNL     1       8.432  11.232  27.725  1.00  0.00     0.193 A 
ATOM      4  O   UNL     1       8.263  12.301  28.374  1.00  0.00    -0.289 OA
ATOM      5  C   UNL     1       8.811  11.261  26.375  1.00  0.00     0.065 A 
ATOM      6  C   UNL     1       9.023  12.464  25.678  1.00  0.00     0.016 A 
ATOM      7  C   UNL     1       9.401  12.434  24.332  1.00  0.00     0.001 A 
ATOM      8  C   UNL     1       9.569  11.212  23.674  1.00  0.00     0.004 A 
ATOM      9  C   UNL     1       9.361  10.012  24.361  1.00  0.00     0.048 A 
ATOM     10  C   UNL     1       8.982  10.029  25.708  1.00  0.00     0.138 A 
ATOM     11  O   UNL     1       8.787   8.884  26.352  1.00  0.00    -0.456 OA
ENDROOT
BRANCH   1  12
ATOM     12  C   UNL     1       8.238   7.453  28.236  1.00  0.00     0.017 A 
ATOM     13  C   UNL     1       7.875   4.937  29.464  1.00  0.00     0.000 A 
ATOM     14  C   UNL     1       7.876   6.098  30.237  1.00  0.00     0.001 A 
ATOM     15  C   UNL     1       8.053   5.022  28.083  1.00  0.00     0.001 A 
ATOM     16  C   UNL     1       8.055   7.345  29.632  1.00  0.00     0.012 A 
ATOM     17  C   UNL     1       8.233   6.266  27.470  1.00  0.00     0.012 A 
ENDBRANCH   1  12
TORSDOF 1
ENDMDL
