MODEL 1
REMARK VINA RESULT:    -6.131      0.000      0.000
REMARK INTER + INTRA:          -7.867
REMARK INTER:                  -7.206
REMARK INTRA:                  -0.661
REMARK UNBOUND:                -0.661
REMARK SMILES C=C(C)[C@H]1CC[C@]2(CO)CC[C@@]3(C)[C@@H](CC[C@@H]4[C@@]5(C)CC[C@@H](O)C(C)(C)[C@H]5CC[C@@]43C)[C@H]12
REMARK SMILES IDX 4 1 5 2 6 3 7 4 32 5 14 6 15 7 16 8 17 9 18 10 20 11 21 12
REMARK SMILES IDX 22 13 24 14 27 15 28 16 29 17 30 18 12 19 11 20 10 21 13 22
REMARK SMILES IDX 31 23 25 24 26 25 19 26 2 27 3 28 1 29 8 30 9 31 23 33
REMARK H PARENT 9 32 23 34
REMARK Flexibility Score: inf
ROOT
ATOM      1  C   UNL     1      -6.899  -8.175 -46.401  1.00  0.00     0.018 C 
ATOM      2  C   UNL     1      -8.394  -7.952 -46.611  1.00  0.00     0.009 C 
ATOM      3  C   UNL     1      -9.067  -8.775 -45.524  1.00  0.00     0.010 C 
ATOM      4  C   UNL     1      -8.208 -10.042 -45.379  1.00  0.00    -0.003 C 
ATOM      5  C   UNL     1      -6.740  -9.522 -45.612  1.00  0.00     0.008 C 
ATOM      6  C   UNL     1      -5.876  -9.275 -44.316  1.00  0.00    -0.000 C 
ATOM      7  C   UNL     1      -4.390  -9.160 -44.687  1.00  0.00     0.005 C 
ATOM      8  C   UNL     1      -3.585  -8.585 -43.534  1.00  0.00     0.005 C 
ATOM      9  C   UNL     1      -3.718  -9.341 -42.176  1.00  0.00     0.002 C 
ATOM     10  C   UNL     1      -2.474 -10.234 -41.734  1.00  0.00    -0.026 C 
ATOM     11  C   UNL     1      -1.134  -9.437 -41.937  1.00  0.00     0.010 C 
ATOM     12  C   UNL     1       0.019  -9.945 -41.068  1.00  0.00     0.033 C 
ATOM     13  C   UNL     1      -0.253  -9.836 -39.556  1.00  0.00     0.120 C 
ATOM     14  C   UNL     1      -1.778  -9.814 -39.163  1.00  0.00    -0.006 C 
ATOM     15  C   UNL     1      -2.622 -10.665 -40.206  1.00  0.00     0.003 C 
ATOM     16  C   UNL     1      -4.097 -10.881 -39.731  1.00  0.00     0.005 C 
ATOM     17  C   UNL     1      -5.112 -11.085 -40.853  1.00  0.00     0.008 C 
ATOM     18  C   UNL     1      -5.195  -9.886 -41.857  1.00  0.00    -0.024 C 
ATOM     19  C   UNL     1      -6.071 -10.307 -43.172  1.00  0.00    -0.024 C 
ATOM     20  C   UNL     1      -7.600 -10.283 -42.854  1.00  0.00     0.008 C 
ATOM     21  C   UNL     1      -8.473 -10.755 -44.014  1.00  0.00     0.010 C 
ATOM     22  C   UNL     1      -5.715 -11.740 -43.691  1.00  0.00     0.012 C 
ATOM     23  C   UNL     1      -5.931  -8.727 -41.087  1.00  0.00     0.012 C 
ATOM     24  C   UNL     1      -2.281  -8.343 -39.019  1.00  0.00     0.014 C 
ATOM     25  C   UNL     1      -1.897 -10.463 -37.755  1.00  0.00     0.014 C 
ATOM     26  C   UNL     1      -2.340 -11.502 -42.627  1.00  0.00     0.012 C 
ENDROOT
BRANCH   1  27
ATOM     27  C   UNL     1      -6.094  -8.075 -47.698  1.00  0.00    -0.077 C 
ATOM     28  C   UNL     1      -5.248  -6.875 -48.039  1.00  0.00     0.039 C 
ATOM     29  C   UNL     1      -6.080  -9.112 -48.553  1.00  0.00     0.008 C 
ENDBRANCH   1  27
BRANCH   4  30
ATOM     30  C   UNL     1      -8.613 -11.050 -46.503  1.00  0.00     0.163 C 
BRANCH  30  31
ATOM     31  O   UNL     1      -7.491 -11.755 -46.969  1.00  0.00    -0.396 OA
ATOM     32  H   UNL     1      -7.387 -12.540 -46.370  1.00  0.00     0.210 HD
ENDBRANCH  30  31
ENDBRANCH   4  30
BRANCH  13  33
ATOM     33  O   UNL     1       0.428  -8.711 -39.052  1.00  0.00    -0.393 OA
ATOM     34  H   UNL     1       0.392  -8.008 -39.750  1.00  0.00     0.210 HD
ENDBRANCH  13  33
TORSDOF 4
ENDMDL
MODEL 2
REMARK VINA RESULT:    -5.673     11.419     13.564
REMARK INTER + INTRA:          -7.330
REMARK INTER:                  -6.851
REMARK INTRA:                  -0.479
REMARK UNBOUND:                -0.661
REMARK SMILES C=C(C)[C@H]1CC[C@]2(CO)CC[C@@]3(C)[C@@H](CC[C@@H]4[C@@]5(C)CC[C@@H](O)C(C)(C)[C@H]5CC[C@@]43C)[C@H]12
REMARK SMILES IDX 4 1 5 2 6 3 7 4 32 5 14 6 15 7 16 8 17 9 18 10 20 11 21 12
REMARK SMILES IDX 22 13 24 14 27 15 28 16 29 17 30 18 12 19 11 20 10 21 13 22
REMARK SMILES IDX 31 23 25 24 26 25 19 26 2 27 3 28 1 29 8 30 9 31 23 33
REMARK H PARENT 9 32 23 34
REMARK Flexibility Score: inf
ROOT
ATOM      1  C   UNL     1      -1.874 -24.504 -45.120  1.00  0.00     0.018 C 
ATOM      2  C   UNL     1      -3.085 -25.433 -45.103  1.00  0.00     0.009 C 
ATOM      3  C   UNL     1      -3.485 -25.524 -43.638  1.00  0.00     0.010 C 
ATOM      4  C   UNL     1      -2.164 -25.512 -42.852  1.00  0.00    -0.003 C 
ATOM      5  C   UNL     1      -1.249 -24.534 -43.682  1.00  0.00     0.008 C 
ATOM      6  C   UNL     1      -1.123 -23.062 -43.130  1.00  0.00    -0.000 C 
ATOM      7  C   UNL     1       0.074 -22.355 -43.782  1.00  0.00     0.005 C 
ATOM      8  C   UNL     1       0.016 -20.856 -43.542  1.00  0.00     0.005 C 
ATOM      9  C   UNL     1      -0.089 -20.416 -42.049  1.00  0.00     0.002 C 
ATOM     10  C   UNL     1       1.228 -19.805 -41.393  1.00  0.00    -0.026 C 
ATOM     11  C   UNL     1       1.881 -18.754 -42.364  1.00  0.00     0.010 C 
ATOM     12  C   UNL     1       2.781 -17.740 -41.654  1.00  0.00     0.033 C 
ATOM     13  C   UNL     1       2.041 -16.877 -40.616  1.00  0.00     0.120 C 
ATOM     14  C   UNL     1       0.730 -17.528 -40.035  1.00  0.00    -0.006 C 
ATOM     15  C   UNL     1       0.878 -19.111 -40.000  1.00  0.00     0.003 C 
ATOM     16  C   UNL     1      -0.287 -19.793 -39.209  1.00  0.00     0.005 C 
ATOM     17  C   UNL     1      -0.608 -21.222 -39.637  1.00  0.00     0.008 C 
ATOM     18  C   UNL     1      -1.025 -21.354 -41.141  1.00  0.00    -0.024 C 
ATOM     19  C   UNL     1      -1.056 -22.928 -41.583  1.00  0.00    -0.024 C 
ATOM     20  C   UNL     1      -2.347 -23.631 -41.055  1.00  0.00     0.008 C 
ATOM     21  C   UNL     1      -2.397 -25.126 -41.356  1.00  0.00     0.010 C 
ATOM     22  C   UNL     1       0.175 -23.725 -41.041  1.00  0.00     0.012 C 
ATOM     23  C   UNL     1      -2.476 -20.753 -41.240  1.00  0.00     0.012 C 
ATOM     24  C   UNL     1      -0.519 -17.045 -40.834  1.00  0.00     0.014 C 
ATOM     25  C   UNL     1       0.561 -16.998 -38.583  1.00  0.00     0.014 C 
ATOM     26  C   UNL     1       2.314 -20.898 -41.176  1.00  0.00     0.012 C 
ENDROOT
BRANCH   1  27
ATOM     27  C   UNL     1      -0.905 -24.810 -46.264  1.00  0.00    -0.077 C 
ATOM     28  C   UNL     1       0.591 -24.722 -46.107  1.00  0.00     0.039 C 
ATOM     29  C   UNL     1      -1.385 -25.230 -47.446  1.00  0.00     0.008 C 
ENDBRANCH   1  27
BRANCH   4  30
ATOM     30  C   UNL     1      -1.565 -26.955 -42.860  1.00  0.00     0.163 C 
BRANCH  30  31
ATOM     31  O   UNL     1      -0.202 -26.929 -43.194  1.00  0.00    -0.396 OA
ATOM     32  H   UNL     1       0.213 -27.702 -42.730  1.00  0.00     0.210 HD
ENDBRANCH  30  31
ENDBRANCH   4  30
BRANCH  13  33
ATOM     33  O   UNL     1       1.783 -15.612 -41.179  1.00  0.00    -0.393 OA
ATOM     34  H   UNL     1       2.508 -15.003 -40.880  1.00  0.00     0.210 HD
ENDBRANCH  13  33
TORSDOF 4
ENDMDL
MODEL 3
REMARK VINA RESULT:    -5.299      8.215     11.568
REMARK INTER + INTRA:          -6.890
REMARK INTER:                  -6.267
REMARK INTRA:                  -0.622
REMARK UNBOUND:                -0.661
REMARK SMILES C=C(C)[C@H]1CC[C@]2(CO)CC[C@@]3(C)[C@@H](CC[C@@H]4[C@@]5(C)CC[C@@H](O)C(C)(C)[C@H]5CC[C@@]43C)[C@H]12
REMARK SMILES IDX 4 1 5 2 6 3 7 4 32 5 14 6 15 7 16 8 17 9 18 10 20 11 21 12
REMARK SMILES IDX 22 13 24 14 27 15 28 16 29 17 30 18 12 19 11 20 10 21 13 22
REMARK SMILES IDX 31 23 25 24 26 25 19 26 2 27 3 28 1 29 8 30 9 31 23 33
REMARK H PARENT 9 32 23 34
REMARK Flexibility Score: inf
ROOT
ATOM      1  C   UNL     1      -0.106 -14.554 -34.533  1.00  0.00     0.018 C 
ATOM      2  C   UNL     1      -1.267 -13.995 -33.715  1.00  0.00     0.009 C 
ATOM      3  C   UNL     1      -2.397 -13.812 -34.716  1.00  0.00     0.010 C 
ATOM      4  C   UNL     1      -1.720 -13.357 -36.019  1.00  0.00    -0.003 C 
ATOM      5  C   UNL     1      -0.362 -14.156 -36.029  1.00  0.00     0.008 C 
ATOM      6  C   UNL     1      -0.322 -15.448 -36.933  1.00  0.00    -0.000 C 
ATOM      7  C   UNL     1       1.132 -15.889 -37.159  1.00  0.00     0.005 C 
ATOM      8  C   UNL     1       1.190 -17.299 -37.720  1.00  0.00     0.005 C 
ATOM      9  C   UNL     1       0.373 -17.539 -39.027  1.00  0.00     0.002 C 
ATOM     10  C   UNL     1       1.211 -17.674 -40.375  1.00  0.00    -0.026 C 
ATOM     11  C   UNL     1       2.438 -18.633 -40.159  1.00  0.00     0.010 C 
ATOM     12  C   UNL     1       2.964 -19.257 -41.454  1.00  0.00     0.033 C 
ATOM     13  C   UNL     1       1.930 -20.135 -42.182  1.00  0.00     0.120 C 
ATOM     14  C   UNL     1       0.429 -19.788 -41.857  1.00  0.00    -0.006 C 
ATOM     15  C   UNL     1       0.284 -18.236 -41.546  1.00  0.00     0.003 C 
ATOM     16  C   UNL     1      -1.214 -17.791 -41.458  1.00  0.00     0.005 C 
ATOM     17  C   UNL     1      -1.475 -16.575 -40.574  1.00  0.00     0.008 C 
ATOM     18  C   UNL     1      -1.037 -16.772 -39.083  1.00  0.00    -0.024 C 
ATOM     19  C   UNL     1      -1.074 -15.342 -38.289  1.00  0.00    -0.024 C 
ATOM     20  C   UNL     1      -2.538 -14.949 -37.916  1.00  0.00     0.008 C 
ATOM     21  C   UNL     1      -2.653 -13.579 -37.251  1.00  0.00     0.010 C 
ATOM     22  C   UNL     1      -0.468 -14.175 -39.135  1.00  0.00     0.012 C 
ATOM     23  C   UNL     1      -2.093 -17.751 -38.448  1.00  0.00     0.012 C 
ATOM     24  C   UNL     1      -0.104 -20.698 -40.706  1.00  0.00     0.014 C 
ATOM     25  C   UNL     1      -0.406 -20.136 -43.122  1.00  0.00     0.014 C 
ATOM     26  C   UNL     1       1.824 -16.308 -40.802  1.00  0.00     0.012 C 
ENDROOT
BRANCH   1  27
ATOM     27  C   UNL     1       1.262 -14.160 -33.974  1.00  0.00    -0.077 C 
ATOM     28  C   UNL     1       2.222 -15.165 -33.392  1.00  0.00     0.039 C 
ATOM     29  C   UNL     1       1.666 -12.881 -34.048  1.00  0.00     0.008 C 
ENDBRANCH   1  27
BRANCH   4  30
ATOM     30  C   UNL     1      -1.446 -11.821 -35.928  1.00  0.00     0.163 C 
BRANCH  30  31
ATOM     31  O   UNL     1      -1.062 -11.308 -37.177  1.00  0.00    -0.396 OA
ATOM     32  H   UNL     1      -0.975 -10.326 -37.060  1.00  0.00     0.210 HD
ENDBRANCH  30  31
ENDBRANCH   4  30
BRANCH  13  33
ATOM     33  O   UNL     1       2.216 -21.488 -41.917  1.00  0.00    -0.393 OA
ATOM     34  H   UNL     1       1.998 -22.001 -42.737  1.00  0.00     0.210 HD
ENDBRANCH  13  33
TORSDOF 4
ENDMDL
MODEL 4
REMARK VINA RESULT:    -5.278      9.614     14.634
REMARK INTER + INTRA:          -6.865
REMARK INTER:                  -6.317
REMARK INTRA:                  -0.548
REMARK UNBOUND:                -0.661
REMARK SMILES C=C(C)[C@H]1CC[C@]2(CO)CC[C@@]3(C)[C@@H](CC[C@@H]4[C@@]5(C)CC[C@@H](O)C(C)(C)[C@H]5CC[C@@]43C)[C@H]12
REMARK SMILES IDX 4 1 5 2 6 3 7 4 32 5 14 6 15 7 16 8 17 9 18 10 20 11 21 12
REMARK SMILES IDX 22 13 24 14 27 15 28 16 29 17 30 18 12 19 11 20 10 21 13 22
REMARK SMILES IDX 31 23 25 24 26 25 19 26 2 27 3 28 1 29 8 30 9 31 23 33
REMARK H PARENT 9 32 23 34
REMARK Flexibility Score: inf
ROOT
ATOM      1  C   UNL     1       5.440 -17.748 -34.304  1.00  0.00     0.018 C 
ATOM      2  C   UNL     1       6.060 -18.804 -35.216  1.00  0.00     0.009 C 
ATOM      3  C   UNL     1       4.875 -19.553 -35.805  1.00  0.00     0.010 C 
ATOM      4  C   UNL     1       3.834 -19.625 -34.676  1.00  0.00    -0.003 C 
ATOM      5  C   UNL     1       4.002 -18.248 -33.930  1.00  0.00     0.008 C 
ATOM      6  C   UNL     1       2.946 -17.132 -34.285  1.00  0.00    -0.000 C 
ATOM      7  C   UNL     1       2.980 -16.018 -33.228  1.00  0.00     0.005 C 
ATOM      8  C   UNL     1       2.240 -14.784 -33.715  1.00  0.00     0.005 C 
ATOM      9  C   UNL     1       0.766 -15.016 -34.168  1.00  0.00     0.002 C 
ATOM     10  C   UNL     1      -0.372 -14.499 -33.180  1.00  0.00    -0.026 C 
ATOM     11  C   UNL     1      -0.038 -13.046 -32.679  1.00  0.00     0.010 C 
ATOM     12  C   UNL     1      -1.265 -12.265 -32.202  1.00  0.00     0.033 C 
ATOM     13  C   UNL     1      -2.324 -12.047 -33.298  1.00  0.00     0.120 C 
ATOM     14  C   UNL     1      -2.287 -13.102 -34.467  1.00  0.00    -0.006 C 
ATOM     15  C   UNL     1      -1.786 -14.507 -33.916  1.00  0.00     0.003 C 
ATOM     16  C   UNL     1      -1.963 -15.649 -34.972  1.00  0.00     0.005 C 
ATOM     17  C   UNL     1      -0.985 -16.812 -34.833  1.00  0.00     0.008 C 
ATOM     18  C   UNL     1       0.519 -16.394 -34.956  1.00  0.00    -0.024 C 
ATOM     19  C   UNL     1       1.490 -17.629 -34.503  1.00  0.00    -0.024 C 
ATOM     20  C   UNL     1       1.588 -18.704 -35.631  1.00  0.00     0.008 C 
ATOM     21  C   UNL     1       2.408 -19.930 -35.237  1.00  0.00     0.010 C 
ATOM     22  C   UNL     1       0.980 -18.343 -33.207  1.00  0.00     0.012 C 
ATOM     23  C   UNL     1       0.754 -16.075 -36.479  1.00  0.00     0.012 C 
ATOM     24  C   UNL     1      -1.429 -12.568 -35.656  1.00  0.00     0.014 C 
ATOM     25  C   UNL     1      -3.741 -13.249 -34.998  1.00  0.00     0.014 C 
ATOM     26  C   UNL     1      -0.445 -15.372 -31.893  1.00  0.00     0.012 C 
ENDROOT
BRANCH   1  27
ATOM     27  C   UNL     1       6.337 -17.382 -33.120  1.00  0.00    -0.077 C 
ATOM     28  C   UNL     1       7.770 -16.946 -33.290  1.00  0.00     0.039 C 
ATOM     29  C   UNL     1       5.829 -17.388 -31.876  1.00  0.00     0.008 C 
ENDBRANCH   1  27
BRANCH   4  30
ATOM     30  C   UNL     1       4.210 -20.807 -33.726  1.00  0.00     0.163 C 
BRANCH  30  31
ATOM     31  O   UNL     1       4.065 -20.433 -32.381  1.00  0.00    -0.396 OA
ATOM     32  H   UNL     1       3.089 -20.364 -32.215  1.00  0.00     0.210 HD
ENDBRANCH  30  31
ENDBRANCH   4  30
BRANCH  13  33
ATOM     33  O   UNL     1      -2.207 -10.731 -33.787  1.00  0.00    -0.393 OA
ATOM     34  H   UNL     1      -1.999 -10.794 -34.754  1.00  0.00     0.210 HD
ENDBRANCH  13  33
TORSDOF 4
ENDMDL
MODEL 5
REMARK VINA RESULT:    -5.188      4.377      7.233
REMARK INTER + INTRA:          -6.759
REMARK INTER:                  -6.120
REMARK INTRA:                  -0.639
REMARK UNBOUND:                -0.661
REMARK SMILES C=C(C)[C@H]1CC[C@]2(CO)CC[C@@]3(C)[C@@H](CC[C@@H]4[C@@]5(C)CC[C@@H](O)C(C)(C)[C@H]5CC[C@@]43C)[C@H]12
REMARK SMILES IDX 4 1 5 2 6 3 7 4 32 5 14 6 15 7 16 8 17 9 18 10 20 11 21 12
REMARK SMILES IDX 22 13 24 14 27 15 28 16 29 17 30 18 12 19 11 20 10 21 13 22
REMARK SMILES IDX 31 23 25 24 26 25 19 26 2 27 3 28 1 29 8 30 9 31 23 33
REMARK H PARENT 9 32 23 34
REMARK Flexibility Score: inf
ROOT
ATOM      1  C   UNL     1      -3.200  -9.523 -40.104  1.00  0.00     0.018 C 
ATOM      2  C   UNL     1      -4.451  -9.074 -40.854  1.00  0.00     0.009 C 
ATOM      3  C   UNL     1      -5.336 -10.309 -40.910  1.00  0.00     0.010 C 
ATOM      4  C   UNL     1      -4.374 -11.494 -41.096  1.00  0.00    -0.003 C 
ATOM      5  C   UNL     1      -3.114 -11.083 -40.244  1.00  0.00     0.008 C 
ATOM      6  C   UNL     1      -2.999 -11.735 -38.813  1.00  0.00    -0.000 C 
ATOM      7  C   UNL     1      -1.572 -11.570 -38.271  1.00  0.00     0.005 C 
ATOM      8  C   UNL     1      -1.518 -11.870 -36.782  1.00  0.00     0.005 C 
ATOM      9  C   UNL     1      -2.071 -13.264 -36.355  1.00  0.00     0.002 C 
ATOM     10  C   UNL     1      -0.992 -14.362 -35.945  1.00  0.00    -0.026 C 
ATOM     11  C   UNL     1       0.082 -13.736 -34.982  1.00  0.00     0.010 C 
ATOM     12  C   UNL     1       0.806 -14.769 -34.115  1.00  0.00     0.033 C 
ATOM     13  C   UNL     1      -0.129 -15.548 -33.172  1.00  0.00     0.120 C 
ATOM     14  C   UNL     1      -1.631 -15.613 -33.642  1.00  0.00    -0.006 C 
ATOM     15  C   UNL     1      -1.706 -15.596 -35.230  1.00  0.00     0.003 C 
ATOM     16  C   UNL     1      -3.148 -15.905 -35.753  1.00  0.00     0.005 C 
ATOM     17  C   UNL     1      -3.481 -15.306 -37.117  1.00  0.00     0.008 C 
ATOM     18  C   UNL     1      -3.372 -13.744 -37.166  1.00  0.00    -0.024 C 
ATOM     19  C   UNL     1      -3.449 -13.219 -38.713  1.00  0.00    -0.024 C 
ATOM     20  C   UNL     1      -4.921 -13.237 -39.235  1.00  0.00     0.008 C 
ATOM     21  C   UNL     1      -5.054 -12.844 -40.704  1.00  0.00     0.010 C 
ATOM     22  C   UNL     1      -2.589 -14.095 -39.683  1.00  0.00     0.012 C 
ATOM     23  C   UNL     1      -4.612 -13.199 -36.366  1.00  0.00     0.012 C 
ATOM     24  C   UNL     1      -2.459 -14.471 -32.976  1.00  0.00     0.014 C 
ATOM     25  C   UNL     1      -2.218 -16.953 -33.116  1.00  0.00     0.014 C 
ATOM     26  C   UNL     1      -0.193 -14.863 -37.183  1.00  0.00     0.012 C 
ENDROOT
BRANCH   1  27
ATOM     27  C   UNL     1      -1.945  -8.756 -40.525  1.00  0.00    -0.077 C 
ATOM     28  C   UNL     1      -1.092  -7.992 -39.545  1.00  0.00     0.039 C 
ATOM     29  C   UNL     1      -1.538  -8.800 -41.805  1.00  0.00     0.008 C 
ENDBRANCH   1  27
BRANCH   4  30
ATOM     30  C   UNL     1      -3.997 -11.597 -42.609  1.00  0.00     0.163 C 
BRANCH  30  31
ATOM     31  O   UNL     1      -2.990 -12.555 -42.808  1.00  0.00    -0.396 OA
ATOM     32  H   UNL     1      -2.324 -12.414 -42.086  1.00  0.00     0.210 HD
ENDBRANCH  30  31
ENDBRANCH   4  30
BRANCH  13  33
ATOM     33  O   UNL     1      -0.016 -15.012 -31.875  1.00  0.00    -0.393 OA
ATOM     34  H   UNL     1      -0.514 -14.154 -31.867  1.00  0.00     0.210 HD
ENDBRANCH  13  33
TORSDOF 4
ENDMDL
MODEL 6
REMARK VINA RESULT:    -5.184      8.687     12.272
REMARK INTER + INTRA:          -6.755
REMARK INTER:                  -6.190
REMARK INTRA:                  -0.565
REMARK UNBOUND:                -0.661
REMARK SMILES C=C(C)[C@H]1CC[C@]2(CO)CC[C@@]3(C)[C@@H](CC[C@@H]4[C@@]5(C)CC[C@@H](O)C(C)(C)[C@H]5CC[C@@]43C)[C@H]12
REMARK SMILES IDX 4 1 5 2 6 3 7 4 32 5 14 6 15 7 16 8 17 9 18 10 20 11 21 12
REMARK SMILES IDX 22 13 24 14 27 15 28 16 29 17 30 18 12 19 11 20 10 21 13 22
REMARK SMILES IDX 31 23 25 24 26 25 19 26 2 27 3 28 1 29 8 30 9 31 23 33
REMARK H PARENT 9 32 23 34
REMARK Flexibility Score: inf
ROOT
ATOM      1  C   UNL     1      -0.018 -12.986 -35.250  1.00  0.00     0.018 C 
ATOM      2  C   UNL     1       0.919 -12.501 -34.147  1.00  0.00     0.009 C 
ATOM      3  C   UNL     1       1.714 -13.733 -33.743  1.00  0.00     0.010 C 
ATOM      4  C   UNL     1       0.725 -14.907 -33.835  1.00  0.00    -0.003 C 
ATOM      5  C   UNL     1      -0.172 -14.537 -35.077  1.00  0.00     0.008 C 
ATOM      6  C   UNL     1       0.186 -15.258 -36.433  1.00  0.00    -0.000 C 
ATOM      7  C   UNL     1      -0.976 -15.118 -37.427  1.00  0.00     0.005 C 
ATOM      8  C   UNL     1      -0.535 -15.489 -38.833  1.00  0.00     0.005 C 
ATOM      9  C   UNL     1       0.105 -16.903 -38.988  1.00  0.00     0.002 C 
ATOM     10  C   UNL     1      -0.794 -18.019 -39.684  1.00  0.00    -0.026 C 
ATOM     11  C   UNL     1      -1.474 -17.439 -40.978  1.00  0.00     0.010 C 
ATOM     12  C   UNL     1      -1.885 -18.512 -41.989  1.00  0.00     0.033 C 
ATOM     13  C   UNL     1      -0.702 -19.337 -42.529  1.00  0.00     0.120 C 
ATOM     14  C   UNL     1       0.556 -19.380 -41.582  1.00  0.00    -0.006 C 
ATOM     15  C   UNL     1       0.097 -19.286 -40.063  1.00  0.00     0.003 C 
ATOM     16  C   UNL     1       1.277 -19.570 -39.075  1.00  0.00     0.005 C 
ATOM     17  C   UNL     1       1.146 -18.906 -37.707  1.00  0.00     0.008 C 
ATOM     18  C   UNL     1       1.053 -17.344 -37.768  1.00  0.00    -0.024 C 
ATOM     19  C   UNL     1       0.619 -16.745 -36.309  1.00  0.00    -0.024 C 
ATOM     20  C   UNL     1       1.832 -16.739 -35.325  1.00  0.00     0.008 C 
ATOM     21  C   UNL     1       1.474 -16.275 -33.916  1.00  0.00     0.010 C 
ATOM     22  C   UNL     1      -0.530 -17.572 -35.643  1.00  0.00     0.012 C 
ATOM     23  C   UNL     1       2.498 -16.839 -38.132  1.00  0.00     0.012 C 
ATOM     24  C   UNL     1       1.578 -18.272 -41.985  1.00  0.00     0.014 C 
ATOM     25  C   UNL     1       1.262 -20.744 -41.821  1.00  0.00     0.014 C 
ATOM     26  C   UNL     1      -1.968 -18.459 -38.762  1.00  0.00     0.012 C 
ENDROOT
BRANCH   1  27
ATOM     27  C   UNL     1      -1.328 -12.198 -35.307  1.00  0.00    -0.077 C 
ATOM     28  C   UNL     1      -2.365 -12.266 -34.216  1.00  0.00     0.039 C 
ATOM     29  C   UNL     1      -1.557 -11.364 -36.335  1.00  0.00     0.008 C 
ENDBRANCH   1  27
BRANCH   4  30
ATOM     30  C   UNL     1      -0.137 -14.937 -32.532  1.00  0.00     0.163 C 
BRANCH  30  31
ATOM     31  O   UNL     1      -0.006 -16.171 -31.875  1.00  0.00    -0.396 OA
ATOM     32  H   UNL     1      -0.876 -16.343 -31.429  1.00  0.00     0.210 HD
ENDBRANCH  30  31
ENDBRANCH   4  30
BRANCH  13  33
ATOM     33  O   UNL     1      -0.367 -18.864 -43.812  1.00  0.00    -0.393 OA
ATOM     34  H   UNL     1      -1.216 -18.641 -44.275  1.00  0.00     0.210 HD
ENDBRANCH  13  33
TORSDOF 4
ENDMDL
MODEL 7
REMARK VINA RESULT:    -5.150     10.742     15.417
REMARK INTER + INTRA:          -6.715
REMARK INTER:                  -6.094
REMARK INTRA:                  -0.621
REMARK UNBOUND:                -0.661
REMARK SMILES C=C(C)[C@H]1CC[C@]2(CO)CC[C@@]3(C)[C@@H](CC[C@@H]4[C@@]5(C)CC[C@@H](O)C(C)(C)[C@H]5CC[C@@]43C)[C@H]12
REMARK SMILES IDX 4 1 5 2 6 3 7 4 32 5 14 6 15 7 16 8 17 9 18 10 20 11 21 12
REMARK SMILES IDX 22 13 24 14 27 15 28 16 29 17 30 18 12 19 11 20 10 21 13 22
REMARK SMILES IDX 31 23 25 24 26 25 19 26 2 27 3 28 1 29 8 30 9 31 23 33
REMARK H PARENT 9 32 23 34
REMARK Flexibility Score: inf
ROOT
ATOM      1  C   UNL     1       6.177 -18.985 -34.015  1.00  0.00     0.018 C 
ATOM      2  C   UNL     1       6.174 -19.528 -32.589  1.00  0.00     0.009 C 
ATOM      3  C   UNL     1       4.716 -19.478 -32.157  1.00  0.00     0.010 C 
ATOM      4  C   UNL     1       4.145 -18.199 -32.791  1.00  0.00    -0.003 C 
ATOM      5  C   UNL     1       4.882 -18.115 -34.181  1.00  0.00     0.008 C 
ATOM      6  C   UNL     1       4.065 -18.619 -35.432  1.00  0.00    -0.000 C 
ATOM      7  C   UNL     1       4.726 -18.123 -36.727  1.00  0.00     0.005 C 
ATOM      8  C   UNL     1       4.179 -18.866 -37.935  1.00  0.00     0.005 C 
ATOM      9  C   UNL     1       2.628 -18.829 -38.104  1.00  0.00     0.002 C 
ATOM     10  C   UNL     1       2.060 -17.883 -39.253  1.00  0.00    -0.026 C 
ATOM     11  C   UNL     1       2.881 -18.087 -40.579  1.00  0.00     0.010 C 
ATOM     12  C   UNL     1       2.117 -17.678 -41.841  1.00  0.00     0.033 C 
ATOM     13  C   UNL     1       0.829 -18.488 -42.073  1.00  0.00     0.120 C 
ATOM     14  C   UNL     1       0.208 -19.122 -40.772  1.00  0.00    -0.006 C 
ATOM     15  C   UNL     1       0.519 -18.201 -39.515  1.00  0.00     0.003 C 
ATOM     16  C   UNL     1      -0.277 -18.650 -38.245  1.00  0.00     0.005 C 
ATOM     17  C   UNL     1       0.383 -18.301 -36.914  1.00  0.00     0.008 C 
ATOM     18  C   UNL     1       1.805 -18.931 -36.728  1.00  0.00    -0.024 C 
ATOM     19  C   UNL     1       2.550 -18.273 -35.430  1.00  0.00    -0.024 C 
ATOM     20  C   UNL     1       1.994 -18.878 -34.101  1.00  0.00     0.008 C 
ATOM     21  C   UNL     1       2.584 -18.241 -32.846  1.00  0.00     0.010 C 
ATOM     22  C   UNL     1       2.367 -16.721 -35.360  1.00  0.00     0.012 C 
ATOM     23  C   UNL     1       1.567 -20.466 -36.474  1.00  0.00     0.012 C 
ATOM     24  C   UNL     1       0.701 -20.592 -40.594  1.00  0.00     0.014 C 
ATOM     25  C   UNL     1      -1.331 -19.193 -40.987  1.00  0.00     0.014 C 
ATOM     26  C   UNL     1       2.232 -16.380 -38.888  1.00  0.00     0.012 C 
ENDROOT
BRANCH   1  27
ATOM     27  C   UNL     1       7.487 -18.287 -34.384  1.00  0.00    -0.077 C 
ATOM     28  C   UNL     1       8.324 -18.702 -35.567  1.00  0.00     0.039 C 
ATOM     29  C   UNL     1       7.897 -17.223 -33.672  1.00  0.00     0.008 C 
ENDBRANCH   1  27
BRANCH   4  30
ATOM     30  C   UNL     1       4.535 -16.980 -31.895  1.00  0.00     0.163 C 
BRANCH  30  31
ATOM     31  O   UNL     1       3.804 -15.838 -32.259  1.00  0.00    -0.396 OA
ATOM     32  H   UNL     1       3.019 -15.805 -31.652  1.00  0.00     0.210 HD
ENDBRANCH  30  31
ENDBRANCH   4  30
BRANCH  13  33
ATOM     33  O   UNL     1       1.077 -19.465 -43.056  1.00  0.00    -0.393 OA
ATOM     34  H   UNL     1       1.665 -19.052 -43.740  1.00  0.00     0.210 HD
ENDBRANCH  13  33
TORSDOF 4
ENDMDL
MODEL 8
REMARK VINA RESULT:    -5.144     12.071     14.505
REMARK INTER + INTRA:          -6.708
REMARK INTER:                  -6.162
REMARK INTRA:                  -0.547
REMARK UNBOUND:                -0.661
REMARK SMILES C=C(C)[C@H]1CC[C@]2(CO)CC[C@@]3(C)[C@@H](CC[C@@H]4[C@@]5(C)CC[C@@H](O)C(C)(C)[C@H]5CC[C@@]43C)[C@H]12
REMARK SMILES IDX 4 1 5 2 6 3 7 4 32 5 14 6 15 7 16 8 17 9 18 10 20 11 21 12
REMARK SMILES IDX 22 13 24 14 27 15 28 16 29 17 30 18 12 19 11 20 10 21 13 22
REMARK SMILES IDX 31 23 25 24 26 25 19 26 2 27 3 28 1 29 8 30 9 31 23 33
REMARK H PARENT 9 32 23 34
REMARK Flexibility Score: inf
ROOT
ATOM      1  C   UNL     1      -2.024 -26.000 -44.172  1.00  0.00     0.018 C 
ATOM      2  C   UNL     1      -1.390 -27.125 -44.987  1.00  0.00     0.009 C 
ATOM      3  C   UNL     1      -0.040 -26.578 -45.422  1.00  0.00     0.010 C 
ATOM      4  C   UNL     1      -0.276 -25.085 -45.705  1.00  0.00    -0.003 C 
ATOM      5  C   UNL     1      -1.332 -24.664 -44.614  1.00  0.00     0.008 C 
ATOM      6  C   UNL     1      -0.762 -23.920 -43.346  1.00  0.00    -0.000 C 
ATOM      7  C   UNL     1      -1.902 -23.233 -42.580  1.00  0.00     0.005 C 
ATOM      8  C   UNL     1      -1.449 -22.812 -41.193  1.00  0.00     0.005 C 
ATOM      9  C   UNL     1      -0.180 -21.905 -41.145  1.00  0.00     0.002 C 
ATOM     10  C   UNL     1      -0.419 -20.365 -40.816  1.00  0.00    -0.026 C 
ATOM     11  C   UNL     1      -1.404 -20.215 -39.600  1.00  0.00     0.010 C 
ATOM     12  C   UNL     1      -1.275 -18.877 -38.868  1.00  0.00     0.033 C 
ATOM     13  C   UNL     1       0.115 -18.642 -38.251  1.00  0.00     0.120 C 
ATOM     14  C   UNL     1       1.283 -19.446 -38.936  1.00  0.00    -0.006 C 
ATOM     15  C   UNL     1       0.968 -19.652 -40.480  1.00  0.00     0.003 C 
ATOM     16  C   UNL     1       2.198 -20.225 -41.260  1.00  0.00     0.005 C 
ATOM     17  C   UNL     1       1.852 -21.036 -42.505  1.00  0.00     0.008 C 
ATOM     18  C   UNL     1       0.954 -22.286 -42.217  1.00  0.00    -0.024 C 
ATOM     19  C   UNL     1       0.392 -22.915 -43.618  1.00  0.00    -0.024 C 
ATOM     20  C   UNL     1       1.498 -23.746 -44.341  1.00  0.00     0.008 C 
ATOM     21  C   UNL     1       1.067 -24.287 -45.701  1.00  0.00     0.010 C 
ATOM     22  C   UNL     1      -0.099 -21.811 -44.612  1.00  0.00     0.012 C 
ATOM     23  C   UNL     1       1.889 -23.337 -41.510  1.00  0.00     0.012 C 
ATOM     24  C   UNL     1       1.541 -20.785 -38.177  1.00  0.00     0.014 C 
ATOM     25  C   UNL     1       2.575 -18.594 -38.786  1.00  0.00     0.014 C 
ATOM     26  C   UNL     1      -1.111 -19.632 -42.002  1.00  0.00     0.012 C 
ENDROOT
BRANCH   1  27
ATOM     27  C   UNL     1      -3.552 -26.002 -44.240  1.00  0.00    -0.077 C 
ATOM     28  C   UNL     1      -4.418 -26.351 -43.058  1.00  0.00     0.039 C 
ATOM     29  C   UNL     1      -4.166 -25.625 -45.374  1.00  0.00     0.008 C 
ENDBRANCH   1  27
BRANCH   4  30
ATOM     30  C   UNL     1      -0.886 -24.939 -47.136  1.00  0.00     0.163 C 
BRANCH  30  31
ATOM     31  O   UNL     1      -0.375 -25.920 -48.000  1.00  0.00    -0.396 OA
ATOM     32  H   UNL     1      -0.733 -26.788 -47.678  1.00  0.00     0.210 HD
ENDBRANCH  30  31
ENDBRANCH   4  30
BRANCH  13  33
ATOM     33  O   UNL     1       0.049 -18.904 -36.868  1.00  0.00    -0.393 OA
ATOM     34  H   UNL     1       0.668 -18.273 -36.419  1.00  0.00     0.210 HD
ENDBRANCH  13  33
TORSDOF 4
ENDMDL
