MODEL 1
REMARK VINA RESULT:    -2.163      0.000      0.000
REMARK INTER + INTRA:          -6.608
REMARK INTER:                  -3.933
REMARK INTRA:                  -2.675
REMARK UNBOUND:                -2.675
REMARK SMILES CCCCCCCCCCCCCC[C@@H](C)C(=O)[O-]
REMARK SMILES IDX 9 1 10 2 11 3 12 4 13 5 14 6 15 7 16 8 17 9 18 10 19 11 8 12
REMARK SMILES IDX 7 13 6 14 5 15 4 16 3 17 2 18 1 19
REMARK H PARENT
REMARK Flexibility Score: inf
ROOT
ATOM      1  C   UNL     1       1.874  14.275  -0.178  1.00  0.00     0.000 C 
ENDROOT
BRANCH   1   2
ATOM      2  C   UNL     1       2.314  12.877  -0.648  1.00  0.00     0.000 C 
BRANCH   2   3
ATOM      3  C   UNL     1       1.617  12.443  -1.947  1.00  0.00     0.000 C 
BRANCH   3   4
ATOM      4  C   UNL     1       2.612  12.013  -3.035  1.00  0.00     0.000 C 
BRANCH   4   5
ATOM      5  C   UNL     1       2.189  12.548  -4.409  1.00  0.00     0.001 C 
BRANCH   5   6
ATOM      6  C   UNL     1       0.726  13.019  -4.390  1.00  0.00     0.009 C 
BRANCH   6   7
ATOM      7  C   UNL     1       0.468  14.154  -5.402  1.00  0.00     0.032 C 
ATOM      8  C   UNL     1       1.560  15.225  -5.300  1.00  0.00     0.014 C 
BRANCH   7   9
ATOM      9  C   UNL     1       0.406  13.628  -6.810  1.00  0.00     0.044 C 
ATOM     10  O   UNL     1      -0.673  13.160  -7.262  1.00  0.00    -0.550 OA
ATOM     11  O   UNL     1       1.534  13.654  -7.622  1.00  0.00    -0.550 OA
ENDBRANCH   7   9
ENDBRANCH   6   7
ENDBRANCH   5   6
ENDBRANCH   4   5
ENDBRANCH   3   4
ENDBRANCH   2   3
ENDBRANCH   1   2
BRANCH   1  12
ATOM     12  C   UNL     1       1.450  15.182  -1.344  1.00  0.00     0.000 C 
BRANCH  12  13
ATOM     13  C   UNL     1       0.039  15.770  -1.150  1.00  0.00    -0.000 C 
BRANCH  13  14
ATOM     14  C   UNL     1      -0.959  15.278  -2.210  1.00  0.00    -0.000 C 
BRANCH  14  15
ATOM     15  C   UNL     1      -1.806  14.093  -1.717  1.00  0.00    -0.000 C 
BRANCH  15  16
ATOM     16  C   UNL     1      -2.171  14.199  -0.224  1.00  0.00    -0.000 C 
BRANCH  16  17
ATOM     17  C   UNL     1      -1.551  13.114   0.682  1.00  0.00    -0.000 C 
BRANCH  17  18
ATOM     18  C   UNL     1      -1.698  11.673   0.164  1.00  0.00    -0.003 C 
ATOM     19  C   UNL     1      -0.530  10.774   0.567  1.00  0.00     0.004 C 
ENDBRANCH  17  18
ENDBRANCH  16  17
ENDBRANCH  15  16
ENDBRANCH  14  15
ENDBRANCH  13  14
ENDBRANCH  12  13
ENDBRANCH   1  12
TORSDOF 14
ENDMDL
MODEL 2
REMARK VINA RESULT:    -2.161      7.124      9.398
REMARK INTER + INTRA:          -6.604
REMARK INTER:                  -4.130
REMARK INTRA:                  -2.474
REMARK UNBOUND:                -2.675
REMARK SMILES CCCCCCCCCCCCCC[C@@H](C)C(=O)[O-]
REMARK SMILES IDX 9 1 10 2 11 3 12 4 13 5 14 6 15 7 16 8 17 9 18 10 19 11 8 12
REMARK SMILES IDX 7 13 6 14 5 15 4 16 3 17 2 18 1 19
REMARK H PARENT
REMARK Flexibility Score: inf
ROOT
ATOM      1  C   UNL     1      -2.542   6.143  -8.641  1.00  0.00     0.000 C 
ENDROOT
BRANCH   1   2
ATOM      2  C   UNL     1      -3.928   6.785  -8.450  1.00  0.00     0.000 C 
BRANCH   2   3
ATOM      3  C   UNL     1      -4.329   7.688  -9.627  1.00  0.00     0.000 C 
BRANCH   3   4
ATOM      4  C   UNL     1      -4.565   9.145  -9.200  1.00  0.00     0.000 C 
BRANCH   4   5
ATOM      5  C   UNL     1      -3.492  10.070  -9.786  1.00  0.00     0.001 C 
BRANCH   5   6
ATOM      6  C   UNL     1      -2.427  10.414  -8.734  1.00  0.00     0.009 C 
BRANCH   6   7
ATOM      7  C   UNL     1      -1.205  11.122  -9.354  1.00  0.00     0.032 C 
ATOM      8  C   UNL     1      -1.158  10.889 -10.868  1.00  0.00     0.014 C 
BRANCH   7   9
ATOM      9  C   UNL     1      -1.225  12.600  -9.070  1.00  0.00     0.044 C 
ATOM     10  O   UNL     1      -1.709  13.398  -9.916  1.00  0.00    -0.550 OA
ATOM     11  O   UNL     1      -0.712  13.094  -7.877  1.00  0.00    -0.550 OA
ENDBRANCH   7   9
ENDBRANCH   6   7
ENDBRANCH   5   6
ENDBRANCH   4   5
ENDBRANCH   3   4
ENDBRANCH   2   3
ENDBRANCH   1   2
BRANCH   1  12
ATOM     12  C   UNL     1      -1.774   6.743  -9.829  1.00  0.00     0.000 C 
BRANCH  12  13
ATOM     13  C   UNL     1      -0.413   7.332  -9.413  1.00  0.00    -0.000 C 
BRANCH  13  14
ATOM     14  C   UNL     1      -0.388   7.793  -7.948  1.00  0.00    -0.000 C 
BRANCH  14  15
ATOM     15  C   UNL     1       0.770   7.169  -7.152  1.00  0.00    -0.000 C 
BRANCH  15  16
ATOM     16  C   UNL     1       0.289   6.189  -6.064  1.00  0.00    -0.000 C 
BRANCH  16  17
ATOM     17  C   UNL     1       0.021   4.750  -6.549  1.00  0.00    -0.000 C 
BRANCH  17  18
ATOM     18  C   UNL     1       0.932   4.267  -7.691  1.00  0.00    -0.003 C 
ATOM     19  C   UNL     1       0.154   3.678  -8.866  1.00  0.00     0.004 C 
ENDBRANCH  17  18
ENDBRANCH  16  17
ENDBRANCH  15  16
ENDBRANCH  14  15
ENDBRANCH  13  14
ENDBRANCH  12  13
ENDBRANCH   1  12
TORSDOF 14
ENDMDL
MODEL 3
REMARK VINA RESULT:    -2.145      1.507      3.307
REMARK INTER + INTRA:          -6.574
REMARK INTER:                  -4.007
REMARK INTRA:                  -2.567
REMARK UNBOUND:                -2.675
REMARK SMILES CCCCCCCCCCCCCC[C@@H](C)C(=O)[O-]
REMARK SMILES IDX 9 1 10 2 11 3 12 4 13 5 14 6 15 7 16 8 17 9 18 10 19 11 8 12
REMARK SMILES IDX 7 13 6 14 5 15 4 16 3 17 2 18 1 19
REMARK H PARENT
REMARK Flexibility Score: inf
ROOT
ATOM      1  C   UNL     1      -1.398  16.302  -1.786  1.00  0.00     0.000 C 
ENDROOT
BRANCH   1   2
ATOM      2  C   UNL     1      -1.722  15.136  -0.836  1.00  0.00     0.000 C 
BRANCH   2   3
ATOM      3  C   UNL     1      -1.940  13.809  -1.580  1.00  0.00     0.000 C 
BRANCH   3   4
ATOM      4  C   UNL     1      -0.661  13.294  -2.256  1.00  0.00     0.000 C 
BRANCH   4   5
ATOM      5  C   UNL     1      -0.788  13.345  -3.784  1.00  0.00     0.001 C 
BRANCH   5   6
ATOM      6  C   UNL     1       0.593  13.286  -4.454  1.00  0.00     0.009 C 
BRANCH   6   7
ATOM      7  C   UNL     1       0.654  14.141  -5.736  1.00  0.00     0.032 C 
ATOM      8  C   UNL     1       1.989  14.890  -5.821  1.00  0.00     0.014 C 
BRANCH   7   9
ATOM      9  C   UNL     1       0.469  13.295  -6.967  1.00  0.00     0.044 C 
ATOM     10  O   UNL     1       1.464  12.751  -7.515  1.00  0.00    -0.550 OA
ATOM     11  O   UNL     1      -0.797  13.108  -7.509  1.00  0.00    -0.550 OA
ENDBRANCH   7   9
ENDBRANCH   6   7
ENDBRANCH   5   6
ENDBRANCH   4   5
ENDBRANCH   3   4
ENDBRANCH   2   3
ENDBRANCH   1   2
BRANCH   1  12
ATOM     12  C   UNL     1      -0.022  16.927  -1.505  1.00  0.00     0.000 C 
BRANCH  12  13
ATOM     13  C   UNL     1       0.994  16.642  -2.627  1.00  0.00    -0.000 C 
BRANCH  13  14
ATOM     14  C   UNL     1       2.147  15.737  -2.168  1.00  0.00    -0.000 C 
BRANCH  14  15
ATOM     15  C   UNL     1       2.084  15.419  -0.665  1.00  0.00    -0.000 C 
BRANCH  15  16
ATOM     16  C   UNL     1       2.357  13.934  -0.355  1.00  0.00    -0.000 C 
BRANCH  16  17
ATOM     17  C   UNL     1       2.996  13.131  -1.507  1.00  0.00    -0.000 C 
BRANCH  17  18
ATOM     18  C   UNL     1       2.494  11.683  -1.647  1.00  0.00    -0.003 C 
ATOM     19  C   UNL     1       3.255  10.701  -0.759  1.00  0.00     0.004 C 
ENDBRANCH  17  18
ENDBRANCH  16  17
ENDBRANCH  15  16
ENDBRANCH  14  15
ENDBRANCH  13  14
ENDBRANCH  12  13
ENDBRANCH   1  12
TORSDOF 14
ENDMDL
MODEL 4
REMARK VINA RESULT:    -2.102      5.788      9.567
REMARK INTER + INTRA:          -6.498
REMARK INTER:                  -4.065
REMARK INTRA:                  -2.432
REMARK UNBOUND:                -2.675
REMARK SMILES CCCCCCCCCCCCCC[C@@H](C)C(=O)[O-]
REMARK SMILES IDX 9 1 10 2 11 3 12 4 13 5 14 6 15 7 16 8 17 9 18 10 19 11 8 12
REMARK SMILES IDX 7 13 6 14 5 15 4 16 3 17 2 18 1 19
REMARK H PARENT
REMARK Flexibility Score: inf
ROOT
ATOM      1  C   UNL     1      -2.316  11.182 -12.776  1.00  0.00     0.000 C 
ENDROOT
BRANCH   1   2
ATOM      2  C   UNL     1      -3.490  12.017 -12.234  1.00  0.00     0.000 C 
BRANCH   2   3
ATOM      3  C   UNL     1      -3.054  13.410 -11.755  1.00  0.00     0.000 C 
BRANCH   3   4
ATOM      4  C   UNL     1      -1.558  13.475 -11.409  1.00  0.00     0.000 C 
BRANCH   4   5
ATOM      5  C   UNL     1      -1.330  13.237  -9.912  1.00  0.00     0.001 C 
BRANCH   5   6
ATOM      6  C   UNL     1       0.044  12.597  -9.659  1.00  0.00     0.009 C 
BRANCH   6   7
ATOM      7  C   UNL     1       0.067  11.763  -8.361  1.00  0.00     0.032 C 
ATOM      8  C   UNL     1       1.064  10.606  -8.482  1.00  0.00     0.014 C 
BRANCH   7   9
ATOM      9  C   UNL     1       0.420  12.613  -7.171  1.00  0.00     0.044 C 
ATOM     10  O   UNL     1       1.591  12.594  -6.707  1.00  0.00    -0.550 OA
ATOM     11  O   UNL     1      -0.540  13.423  -6.574  1.00  0.00    -0.550 OA
ENDBRANCH   7   9
ENDBRANCH   6   7
ENDBRANCH   5   6
ENDBRANCH   4   5
ENDBRANCH   3   4
ENDBRANCH   2   3
ENDBRANCH   1   2
BRANCH   1  12
ATOM     12  C   UNL     1      -2.342   9.731 -12.271  1.00  0.00     0.000 C 
BRANCH  12  13
ATOM     13  C   UNL     1      -1.320   9.480 -11.147  1.00  0.00    -0.000 C 
BRANCH  13  14
ATOM     14  C   UNL     1      -1.967   8.915  -9.873  1.00  0.00    -0.000 C 
BRANCH  14  15
ATOM     15  C   UNL     1      -3.004   9.874  -9.264  1.00  0.00    -0.000 C 
BRANCH  15  16
ATOM     16  C   UNL     1      -4.255   9.145  -8.736  1.00  0.00    -0.000 C 
BRANCH  16  17
ATOM     17  C   UNL     1      -5.177   8.554  -9.822  1.00  0.00    -0.000 C 
BRANCH  17  18
ATOM     18  C   UNL     1      -5.790   9.584 -10.786  1.00  0.00    -0.003 C 
ATOM     19  C   UNL     1      -7.318   9.551 -10.799  1.00  0.00     0.004 C 
ENDBRANCH  17  18
ENDBRANCH  16  17
ENDBRANCH  15  16
ENDBRANCH  14  15
ENDBRANCH  13  14
ENDBRANCH  12  13
ENDBRANCH   1  12
TORSDOF 14
ENDMDL
MODEL 5
REMARK VINA RESULT:    -2.101      2.943      5.882
REMARK INTER + INTRA:          -6.495
REMARK INTER:                  -3.877
REMARK INTRA:                  -2.618
REMARK UNBOUND:                -2.675
REMARK SMILES CCCCCCCCCCCCCC[C@@H](C)C(=O)[O-]
REMARK SMILES IDX 9 1 10 2 11 3 12 4 13 5 14 6 15 7 16 8 17 9 18 10 19 11 8 12
REMARK SMILES IDX 7 13 6 14 5 15 4 16 3 17 2 18 1 19
REMARK H PARENT
REMARK Flexibility Score: inf
ROOT
ATOM      1  C   UNL     1      -0.058  14.700  -2.549  1.00  0.00     0.000 C 
ENDROOT
BRANCH   1   2
ATOM      2  C   UNL     1      -1.335  15.288  -1.923  1.00  0.00     0.000 C 
BRANCH   2   3
ATOM      3  C   UNL     1      -2.309  14.204  -1.436  1.00  0.00     0.000 C 
BRANCH   3   4
ATOM      4  C   UNL     1      -1.915  13.626  -0.069  1.00  0.00     0.000 C 
BRANCH   4   5
ATOM      5  C   UNL     1      -1.627  12.123  -0.170  1.00  0.00     0.001 C 
BRANCH   5   6
ATOM      6  C   UNL     1      -0.373  11.746   0.633  1.00  0.00     0.009 C 
BRANCH   6   7
ATOM      7  C   UNL     1       0.919  11.914  -0.194  1.00  0.00     0.032 C 
ATOM      8  C   UNL     1       1.745  13.094   0.331  1.00  0.00     0.014 C 
BRANCH   7   9
ATOM      9  C   UNL     1       1.752  10.662  -0.167  1.00  0.00     0.044 C 
ATOM     10  O   UNL     1       3.007  10.740  -0.096  1.00  0.00    -0.550 OA
ATOM     11  O   UNL     1       1.146   9.411  -0.220  1.00  0.00    -0.550 OA
ENDBRANCH   7   9
ENDBRANCH   6   7
ENDBRANCH   5   6
ENDBRANCH   4   5
ENDBRANCH   3   4
ENDBRANCH   2   3
ENDBRANCH   1   2
BRANCH   1  12
ATOM     12  C   UNL     1      -0.340  13.450  -3.398  1.00  0.00     0.000 C 
BRANCH  12  13
ATOM     13  C   UNL     1      -0.039  13.673  -4.892  1.00  0.00    -0.000 C 
BRANCH  13  14
ATOM     14  C   UNL     1       0.970  14.806  -5.132  1.00  0.00    -0.000 C 
BRANCH  14  15
ATOM     15  C   UNL     1       2.102  14.396  -6.088  1.00  0.00    -0.000 C 
BRANCH  15  16
ATOM     16  C   UNL     1       3.396  14.005  -5.350  1.00  0.00    -0.000 C 
BRANCH  16  17
ATOM     17  C   UNL     1       3.393  14.273  -3.831  1.00  0.00    -0.000 C 
BRANCH  17  18
ATOM     18  C   UNL     1       3.603  13.030  -2.950  1.00  0.00    -0.003 C 
ATOM     19  C   UNL     1       2.927  11.781  -3.512  1.00  0.00     0.004 C 
ENDBRANCH  17  18
ENDBRANCH  16  17
ENDBRANCH  15  16
ENDBRANCH  14  15
ENDBRANCH  13  14
ENDBRANCH  12  13
ENDBRANCH   1  12
TORSDOF 14
ENDMDL
MODEL 6
REMARK VINA RESULT:    -2.091      2.611      4.655
REMARK INTER + INTRA:          -6.477
REMARK INTER:                  -3.776
REMARK INTRA:                  -2.701
REMARK UNBOUND:                -2.675
REMARK SMILES CCCCCCCCCCCCCC[C@@H](C)C(=O)[O-]
REMARK SMILES IDX 9 1 10 2 11 3 12 4 13 5 14 6 15 7 16 8 17 9 18 10 19 11 8 12
REMARK SMILES IDX 7 13 6 14 5 15 4 16 3 17 2 18 1 19
REMARK H PARENT
REMARK Flexibility Score: inf
ROOT
ATOM      1  C   UNL     1       3.656  15.066  -7.200  1.00  0.00     0.000 C 
ENDROOT
BRANCH   1   2
ATOM      2  C   UNL     1       3.870  13.762  -6.411  1.00  0.00     0.000 C 
BRANCH   2   3
ATOM      3  C   UNL     1       3.570  12.508  -7.248  1.00  0.00     0.000 C 
BRANCH   3   4
ATOM      4  C   UNL     1       2.226  11.860  -6.881  1.00  0.00     0.000 C 
BRANCH   4   5
ATOM      5  C   UNL     1       1.240  11.940  -8.053  1.00  0.00     0.001 C 
BRANCH   5   6
ATOM      6  C   UNL     1       0.478  13.273  -8.042  1.00  0.00     0.009 C 
BRANCH   6   7
ATOM      7  C   UNL     1       0.457  13.942  -9.431  1.00  0.00     0.032 C 
ATOM      8  C   UNL     1       1.724  13.588 -10.219  1.00  0.00     0.014 C 
BRANCH   7   9
ATOM      9  C   UNL     1      -0.759  13.532 -10.218  1.00  0.00     0.044 C 
ATOM     10  O   UNL     1      -1.822  13.220  -9.620  1.00  0.00    -0.550 OA
ATOM     11  O   UNL     1      -0.719  13.494 -11.607  1.00  0.00    -0.550 OA
ENDBRANCH   7   9
ENDBRANCH   6   7
ENDBRANCH   5   6
ENDBRANCH   4   5
ENDBRANCH   3   4
ENDBRANCH   2   3
ENDBRANCH   1   2
BRANCH   1  12
ATOM     12  C   UNL     1       2.580  15.965  -6.571  1.00  0.00     0.000 C 
BRANCH  12  13
ATOM     13  C   UNL     1       2.453  15.756  -5.051  1.00  0.00    -0.000 C 
BRANCH  13  14
ATOM     14  C   UNL     1       0.993  15.637  -4.588  1.00  0.00    -0.000 C 
BRANCH  14  15
ATOM     15  C   UNL     1       0.497  14.182  -4.568  1.00  0.00    -0.000 C 
BRANCH  15  16
ATOM     16  C   UNL     1       0.042  13.724  -3.168  1.00  0.00    -0.000 C 
BRANCH  16  17
ATOM     17  C   UNL     1       0.984  12.726  -2.465  1.00  0.00    -0.000 C 
BRANCH  17  18
ATOM     18  C   UNL     1       2.239  12.341  -3.267  1.00  0.00    -0.003 C 
ATOM     19  C   UNL     1       3.514  12.982  -2.722  1.00  0.00     0.004 C 
ENDBRANCH  17  18
ENDBRANCH  16  17
ENDBRANCH  15  16
ENDBRANCH  14  15
ENDBRANCH  13  14
ENDBRANCH  12  13
ENDBRANCH   1  12
TORSDOF 14
ENDMDL
MODEL 7
REMARK VINA RESULT:    -2.085      7.336     10.297
REMARK INTER + INTRA:          -6.466
REMARK INTER:                  -3.932
REMARK INTRA:                  -2.534
REMARK UNBOUND:                -2.675
REMARK SMILES CCCCCCCCCCCCCC[C@@H](C)C(=O)[O-]
REMARK SMILES IDX 9 1 10 2 11 3 12 4 13 5 14 6 15 7 16 8 17 9 18 10 19 11 8 12
REMARK SMILES IDX 7 13 6 14 5 15 4 16 3 17 2 18 1 19
REMARK H PARENT
REMARK Flexibility Score: inf
ROOT
ATOM      1  C   UNL     1      -1.245   9.809 -11.543  1.00  0.00     0.000 C 
ENDROOT
BRANCH   1   2
ATOM      2  C   UNL     1      -2.695   9.466 -11.930  1.00  0.00     0.000 C 
BRANCH   2   3
ATOM      3  C   UNL     1      -3.728  10.153 -11.024  1.00  0.00     0.000 C 
BRANCH   3   4
ATOM      4  C   UNL     1      -5.156   9.636 -11.258  1.00  0.00     0.000 C 
BRANCH   4   5
ATOM      5  C   UNL     1      -5.823   9.248  -9.933  1.00  0.00     0.001 C 
BRANCH   5   6
ATOM      6  C   UNL     1      -4.771   8.915  -8.863  1.00  0.00     0.009 C 
BRANCH   6   7
ATOM      7  C   UNL     1      -4.621   7.395  -8.649  1.00  0.00     0.032 C 
ATOM      8  C   UNL     1      -3.151   7.025  -8.422  1.00  0.00     0.014 C 
BRANCH   7   9
ATOM      9  C   UNL     1      -5.448   6.921  -7.484  1.00  0.00     0.044 C 
ATOM     10  O   UNL     1      -5.458   5.702  -7.171  1.00  0.00    -0.550 OA
ATOM     11  O   UNL     1      -6.206   7.824  -6.746  1.00  0.00    -0.550 OA
ENDBRANCH   7   9
ENDBRANCH   6   7
ENDBRANCH   5   6
ENDBRANCH   4   5
ENDBRANCH   3   4
ENDBRANCH   2   3
ENDBRANCH   1   2
BRANCH   1  12
ATOM     12  C   UNL     1      -0.699   8.895 -10.435  1.00  0.00     0.000 C 
BRANCH  12  13
ATOM     13  C   UNL     1      -0.154   9.689  -9.233  1.00  0.00    -0.000 C 
BRANCH  13  14
ATOM     14  C   UNL     1      -1.269  10.284  -8.360  1.00  0.00    -0.000 C 
BRANCH  14  15
ATOM     15  C   UNL     1      -1.173  11.814  -8.243  1.00  0.00    -0.000 C 
BRANCH  15  16
ATOM     16  C   UNL     1      -0.097  12.419  -9.166  1.00  0.00    -0.000 C 
BRANCH  16  17
ATOM     17  C   UNL     1      -0.602  13.505 -10.138  1.00  0.00    -0.000 C 
BRANCH  17  18
ATOM     18  C   UNL     1      -2.063  13.346 -10.591  1.00  0.00    -0.003 C 
ATOM     19  C   UNL     1      -2.233  13.459 -12.105  1.00  0.00     0.004 C 
ENDBRANCH  17  18
ENDBRANCH  16  17
ENDBRANCH  15  16
ENDBRANCH  14  15
ENDBRANCH  13  14
ENDBRANCH  12  13
ENDBRANCH   1  12
TORSDOF 14
ENDMDL
MODEL 8
REMARK VINA RESULT:    -2.020      2.303      3.803
REMARK INTER + INTRA:          -6.348
REMARK INTER:                  -3.710
REMARK INTRA:                  -2.638
REMARK UNBOUND:                -2.675
REMARK SMILES CCCCCCCCCCCCCC[C@@H](C)C(=O)[O-]
REMARK SMILES IDX 9 1 10 2 11 3 12 4 13 5 14 6 15 7 16 8 17 9 18 10 19 11 8 12
REMARK SMILES IDX 7 13 6 14 5 15 4 16 3 17 2 18 1 19
REMARK H PARENT
REMARK Flexibility Score: inf
ROOT
ATOM      1  C   UNL     1       0.255  14.895  -3.491  1.00  0.00     0.000 C 
ENDROOT
BRANCH   1   2
ATOM      2  C   UNL     1       0.998  15.494  -4.698  1.00  0.00     0.000 C 
BRANCH   2   3
ATOM      3  C   UNL     1       2.296  16.211  -4.297  1.00  0.00     0.000 C 
BRANCH   3   4
ATOM      4  C   UNL     1       3.261  15.299  -3.523  1.00  0.00     0.000 C 
BRANCH   4   5
ATOM      5  C   UNL     1       3.782  14.168  -4.417  1.00  0.00     0.001 C 
BRANCH   5   6
ATOM      6  C   UNL     1       3.808  12.833  -3.657  1.00  0.00     0.009 C 
BRANCH   6   7
ATOM      7  C   UNL     1       2.929  11.761  -4.335  1.00  0.00     0.032 C 
ATOM      8  C   UNL     1       2.489  12.228  -5.727  1.00  0.00     0.014 C 
BRANCH   7   9
ATOM      9  C   UNL     1       3.657  10.448  -4.448  1.00  0.00     0.044 C 
ATOM     10  O   UNL     1       4.700  10.245  -3.773  1.00  0.00    -0.550 OA
ATOM     11  O   UNL     1       3.185   9.453  -5.295  1.00  0.00    -0.550 OA
ENDBRANCH   7   9
ENDBRANCH   6   7
ENDBRANCH   5   6
ENDBRANCH   4   5
ENDBRANCH   3   4
ENDBRANCH   2   3
ENDBRANCH   1   2
BRANCH   1  12
ATOM     12  C   UNL     1      -0.355  13.518  -3.798  1.00  0.00     0.000 C 
BRANCH  12  13
ATOM     13  C   UNL     1      -1.621  13.235  -2.968  1.00  0.00    -0.000 C 
BRANCH  13  14
ATOM     14  C   UNL     1      -1.685  14.071  -1.680  1.00  0.00    -0.000 C 
BRANCH  14  15
ATOM     15  C   UNL     1      -1.962  13.214  -0.434  1.00  0.00    -0.000 C 
BRANCH  15  16
ATOM     16  C   UNL     1      -0.687  12.897   0.371  1.00  0.00    -0.000 C 
BRANCH  16  17
ATOM     17  C   UNL     1       0.125  11.687  -0.134  1.00  0.00    -0.000 C 
BRANCH  17  18
ATOM     18  C   UNL     1       1.433  12.040  -0.862  1.00  0.00    -0.003 C 
ATOM     19  C   UNL     1       1.930  13.449  -0.544  1.00  0.00     0.004 C 
ENDBRANCH  17  18
ENDBRANCH  16  17
ENDBRANCH  15  16
ENDBRANCH  14  15
ENDBRANCH  13  14
ENDBRANCH  12  13
ENDBRANCH   1  12
TORSDOF 14
ENDMDL
MODEL 9
REMARK VINA RESULT:    -2.008      3.229      5.757
REMARK INTER + INTRA:          -6.326
REMARK INTER:                  -4.060
REMARK INTRA:                  -2.266
REMARK UNBOUND:                -2.675
REMARK SMILES CCCCCCCCCCCCCC[C@@H](C)C(=O)[O-]
REMARK SMILES IDX 9 1 10 2 11 3 12 4 13 5 14 6 15 7 16 8 17 9 18 10 19 11 8 12
REMARK SMILES IDX 7 13 6 14 5 15 4 16 3 17 2 18 1 19
REMARK H PARENT
REMARK Flexibility Score: inf
ROOT
ATOM      1  C   UNL     1      -0.076  13.274  -3.377  1.00  0.00     0.000 C 
ENDROOT
BRANCH   1   2
ATOM      2  C   UNL     1      -1.455  13.418  -2.708  1.00  0.00     0.000 C 
BRANCH   2   3
ATOM      3  C   UNL     1      -1.401  14.242  -1.413  1.00  0.00     0.000 C 
BRANCH   3   4
ATOM      4  C   UNL     1      -2.034  13.510  -0.220  1.00  0.00     0.000 C 
BRANCH   4   5
ATOM      5  C   UNL     1      -1.467  12.091  -0.083  1.00  0.00     0.001 C 
BRANCH   5   6
ATOM      6  C   UNL     1       0.003  12.126   0.362  1.00  0.00     0.009 C 
BRANCH   6   7
ATOM      7  C   UNL     1       0.880  11.155  -0.454  1.00  0.00     0.032 C 
ATOM      8  C   UNL     1       2.238  11.793  -0.771  1.00  0.00     0.014 C 
BRANCH   7   9
ATOM      9  C   UNL     1       1.089   9.858   0.279  1.00  0.00     0.044 C 
ATOM     10  O   UNL     1       0.867   8.762  -0.301  1.00  0.00    -0.550 OA
ATOM     11  O   UNL     1       1.529   9.857   1.598  1.00  0.00    -0.550 OA
ENDBRANCH   7   9
ENDBRANCH   6   7
ENDBRANCH   5   6
ENDBRANCH   4   5
ENDBRANCH   3   4
ENDBRANCH   2   3
ENDBRANCH   1   2
BRANCH   1  12
ATOM     12  C   UNL     1      -0.150  13.377  -4.908  1.00  0.00     0.000 C 
BRANCH  12  13
ATOM     13  C   UNL     1       0.799  14.451  -5.473  1.00  0.00    -0.000 C 
BRANCH  13  14
ATOM     14  C   UNL     1       1.630  15.142  -4.381  1.00  0.00    -0.000 C 
BRANCH  14  15
ATOM     15  C   UNL     1       1.313  16.642  -4.259  1.00  0.00    -0.000 C 
BRANCH  15  16
ATOM     16  C   UNL     1       0.475  16.978  -3.011  1.00  0.00    -0.000 C 
BRANCH  16  17
ATOM     17  C   UNL     1       1.268  17.564  -1.825  1.00  0.00    -0.000 C 
BRANCH  17  18
ATOM     18  C   UNL     1       1.236  16.718  -0.540  1.00  0.00    -0.003 C 
ATOM     19  C   UNL     1       2.042  15.426  -0.658  1.00  0.00     0.004 C 
ENDBRANCH  17  18
ENDBRANCH  16  17
ENDBRANCH  15  16
ENDBRANCH  14  15
ENDBRANCH  13  14
ENDBRANCH  12  13
ENDBRANCH   1  12
TORSDOF 14
ENDMDL
