MODEL 1
REMARK VINA RESULT:    -6.311      0.000      0.000
REMARK INTER + INTRA:          -7.034
REMARK INTER:                  -6.680
REMARK INTRA:                  -0.354
REMARK UNBOUND:                -0.354
REMARK SMILES CC1=CC[C@H]2[C@@H]3[C@@H](C(C)C)CC[C@@]2(C)[C@H]13
REMARK SMILES IDX 1 1 2 2 3 3 4 4 5 5 6 6 15 7 13 8 12 9 11 10 7 11 14 12 8 13
REMARK SMILES IDX 9 14 10 15
REMARK H PARENT
REMARK Flexibility Score: inf
ROOT
ATOM      1  C   UNL     1       3.298  16.873   1.133  1.00  0.00     0.039 C 
ATOM      2  C   UNL     1       2.473  15.625   1.043  1.00  0.00    -0.073 C 
ATOM      3  C   UNL     1       2.272  14.997  -0.146  1.00  0.00    -0.027 C 
ATOM      4  C   UNL     1       1.401  13.735  -0.179  1.00  0.00     0.031 C 
ATOM      5  C   UNL     1       0.912  13.373   1.262  1.00  0.00     0.003 C 
ATOM      6  C   UNL     1       2.133  13.472   2.206  1.00  0.00     0.004 C 
ATOM      7  C   UNL     1       1.836  14.990   2.282  1.00  0.00     0.024 C 
ATOM      8  C   UNL     1       0.359  14.616   1.996  1.00  0.00    -0.022 C 
ATOM      9  C   UNL     1      -0.358  14.145   3.294  1.00  0.00     0.008 C 
ATOM     10  C   UNL     1       0.600  13.408   4.265  1.00  0.00     0.005 C 
ATOM     11  C   UNL     1       1.829  12.747   3.556  1.00  0.00    -0.005 C 
ATOM     12  C   UNL     1      -0.525  15.612   1.210  1.00  0.00     0.012 C 
ENDROOT
BRANCH  11  13
ATOM     13  C   UNL     1       3.071  12.693   4.504  1.00  0.00    -0.014 C 
ATOM     14  C   UNL     1       2.866  13.517   5.790  1.00  0.00     0.007 C 
ATOM     15  C   UNL     1       4.339  13.200   3.791  1.00  0.00     0.007 C 
ENDBRANCH  11  13
TORSDOF 1
ENDMDL
MODEL 2
REMARK VINA RESULT:    -5.965      1.895      5.065
REMARK INTER + INTRA:          -6.668
REMARK INTER:                  -6.433
REMARK INTRA:                  -0.235
REMARK UNBOUND:                -0.354
REMARK SMILES CC1=CC[C@H]2[C@@H]3[C@@H](C(C)C)CC[C@@]2(C)[C@H]13
REMARK SMILES IDX 1 1 2 2 3 3 4 4 5 5 6 6 15 7 13 8 12 9 11 10 7 11 14 12 8 13
REMARK SMILES IDX 9 14 10 15
REMARK H PARENT
REMARK Flexibility Score: inf
ROOT
ATOM      1  C   UNL     1      -1.967  15.215   6.388  1.00  0.00     0.039 C 
ATOM      2  C   UNL     1      -1.174  14.016   5.961  1.00  0.00    -0.073 C 
ATOM      3  C   UNL     1      -1.638  12.755   6.168  1.00  0.00    -0.027 C 
ATOM      4  C   UNL     1      -0.773  11.567   5.729  1.00  0.00     0.031 C 
ATOM      5  C   UNL     1       0.544  12.073   5.052  1.00  0.00     0.003 C 
ATOM      6  C   UNL     1       0.155  13.186   4.052  1.00  0.00     0.004 C 
ATOM      7  C   UNL     1       0.180  14.155   5.260  1.00  0.00     0.024 C 
ATOM      8  C   UNL     1       1.214  13.186   5.890  1.00  0.00    -0.022 C 
ATOM      9  C   UNL     1       2.638  13.444   5.320  1.00  0.00     0.008 C 
ATOM     10  C   UNL     1       2.608  13.915   3.843  1.00  0.00     0.005 C 
ATOM     11  C   UNL     1       1.333  13.454   3.061  1.00  0.00    -0.005 C 
ATOM     12  C   UNL     1       1.256  13.037   7.429  1.00  0.00     0.012 C 
ENDROOT
BRANCH  11  13
ATOM     13  C   UNL     1       0.956  14.473   1.938  1.00  0.00    -0.014 C 
ATOM     14  C   UNL     1       0.540  13.777   0.627  1.00  0.00     0.007 C 
ATOM     15  C   UNL     1       2.125  15.430   1.637  1.00  0.00     0.007 C 
ENDBRANCH  11  13
TORSDOF 1
ENDMDL
MODEL 3
REMARK VINA RESULT:    -5.929      1.224      2.918
REMARK INTER + INTRA:          -6.630
REMARK INTER:                  -6.372
REMARK INTRA:                  -0.258
REMARK UNBOUND:                -0.354
REMARK SMILES CC1=CC[C@H]2[C@@H]3[C@@H](C(C)C)CC[C@@]2(C)[C@H]13
REMARK SMILES IDX 1 1 2 2 3 3 4 4 5 5 6 6 15 7 13 8 12 9 11 10 7 11 14 12 8 13
REMARK SMILES IDX 9 14 10 15
REMARK H PARENT
REMARK Flexibility Score: inf
ROOT
ATOM      1  C   UNL     1       0.256  12.254  -1.258  1.00  0.00     0.039 C 
ATOM      2  C   UNL     1       0.172  13.431  -0.333  1.00  0.00    -0.073 C 
ATOM      3  C   UNL     1      -0.906  14.258  -0.341  1.00  0.00    -0.027 C 
ATOM      4  C   UNL     1      -0.926  15.459   0.612  1.00  0.00     0.031 C 
ATOM      5  C   UNL     1       0.369  15.478   1.491  1.00  0.00     0.003 C 
ATOM      6  C   UNL     1       0.591  14.043   2.023  1.00  0.00     0.004 C 
ATOM      7  C   UNL     1       1.284  13.746   0.671  1.00  0.00     0.024 C 
ATOM      8  C   UNL     1       1.634  15.256   0.631  1.00  0.00    -0.022 C 
ATOM      9  C   UNL     1       2.885  15.562   1.504  1.00  0.00     0.008 C 
ATOM     10  C   UNL     1       2.984  14.634   2.741  1.00  0.00     0.005 C 
ATOM     11  C   UNL     1       1.605  14.062   3.211  1.00  0.00    -0.005 C 
ATOM     12  C   UNL     1       1.735  15.963  -0.742  1.00  0.00     0.012 C 
ENDROOT
BRANCH  11  13
ATOM     13  C   UNL     1       1.771  12.660   3.884  1.00  0.00    -0.014 C 
ATOM     14  C   UNL     1       1.303  12.655   5.352  1.00  0.00     0.007 C 
ATOM     15  C   UNL     1       3.236  12.187   3.833  1.00  0.00     0.007 C 
ENDBRANCH  11  13
TORSDOF 1
ENDMDL
MODEL 4
REMARK VINA RESULT:    -5.918      1.237      4.468
REMARK INTER + INTRA:          -6.618
REMARK INTER:                  -6.569
REMARK INTRA:                  -0.049
REMARK UNBOUND:                -0.354
REMARK SMILES CC1=CC[C@H]2[C@@H]3[C@@H](C(C)C)CC[C@@]2(C)[C@H]13
REMARK SMILES IDX 1 1 2 2 3 3 4 4 5 5 6 6 15 7 13 8 12 9 11 10 7 11 14 12 8 13
REMARK SMILES IDX 9 14 10 15
REMARK H PARENT
REMARK Flexibility Score: inf
ROOT
ATOM      1  C   UNL     1       1.609  13.375   6.092  1.00  0.00     0.039 C 
ATOM      2  C   UNL     1       2.083  13.159   4.687  1.00  0.00    -0.073 C 
ATOM      3  C   UNL     1       2.770  12.039   4.339  1.00  0.00    -0.027 C 
ATOM      4  C   UNL     1       3.247  11.882   2.890  1.00  0.00     0.031 C 
ATOM      5  C   UNL     1       2.789  13.107   2.031  1.00  0.00     0.003 C 
ATOM      6  C   UNL     1       1.300  13.370   2.353  1.00  0.00     0.004 C 
ATOM      7  C   UNL     1       1.801  14.176   3.577  1.00  0.00     0.024 C 
ATOM      8  C   UNL     1       3.087  14.442   2.752  1.00  0.00    -0.022 C 
ATOM      9  C   UNL     1       2.870  15.607   1.744  1.00  0.00     0.008 C 
ATOM     10  C   UNL     1       1.415  15.668   1.214  1.00  0.00     0.005 C 
ATOM     11  C   UNL     1       0.669  14.293   1.262  1.00  0.00    -0.005 C 
ATOM     12  C   UNL     1       4.432  14.602   3.497  1.00  0.00     0.012 C 
ENDROOT
BRANCH  11  13
ATOM     13  C   UNL     1      -0.870  14.488   1.454  1.00  0.00    -0.014 C 
ATOM     14  C   UNL     1      -1.382  15.791   0.811  1.00  0.00     0.007 C 
ATOM     15  C   UNL     1      -1.249  14.494   2.947  1.00  0.00     0.007 C 
ENDBRANCH  11  13
TORSDOF 1
ENDMDL
MODEL 5
REMARK VINA RESULT:    -5.487      1.237      2.941
REMARK INTER + INTRA:          -6.163
REMARK INTER:                  -5.921
REMARK INTRA:                  -0.241
REMARK UNBOUND:                -0.354
REMARK SMILES CC1=CC[C@H]2[C@@H]3[C@@H](C(C)C)CC[C@@]2(C)[C@H]13
REMARK SMILES IDX 1 1 2 2 3 3 4 4 5 5 6 6 15 7 13 8 12 9 11 10 7 11 14 12 8 13
REMARK SMILES IDX 9 14 10 15
REMARK H PARENT
REMARK Flexibility Score: inf
ROOT
ATOM      1  C   UNL     1      -1.865  14.506   1.288  1.00  0.00     0.039 C 
ATOM      2  C   UNL     1      -0.392  14.703   1.484  1.00  0.00    -0.073 C 
ATOM      3  C   UNL     1       0.252  15.778   0.957  1.00  0.00    -0.027 C 
ATOM      4  C   UNL     1       1.764  15.915   1.173  1.00  0.00     0.031 C 
ATOM      5  C   UNL     1       2.299  14.732   2.045  1.00  0.00     0.003 C 
ATOM      6  C   UNL     1       1.336  14.565   3.244  1.00  0.00     0.004 C 
ATOM      7  C   UNL     1       0.451  13.717   2.298  1.00  0.00     0.024 C 
ATOM      8  C   UNL     1       1.759  13.374   1.541  1.00  0.00    -0.022 C 
ATOM      9  C   UNL     1       2.537  12.235   2.261  1.00  0.00     0.008 C 
ATOM     10  C   UNL     1       2.355  12.275   3.799  1.00  0.00     0.005 C 
ATOM     11  C   UNL     1       2.007  13.696   4.355  1.00  0.00    -0.005 C 
ATOM     12  C   UNL     1       1.694  13.117   0.017  1.00  0.00     0.012 C 
ENDROOT
BRANCH  11  13
ATOM     13  C   UNL     1       1.140  13.603   5.652  1.00  0.00    -0.014 C 
ATOM     14  C   UNL     1       1.998  13.441   6.922  1.00  0.00     0.007 C 
ATOM     15  C   UNL     1       0.147  12.427   5.576  1.00  0.00     0.007 C 
ENDBRANCH  11  13
TORSDOF 1
ENDMDL
MODEL 6
REMARK VINA RESULT:    -5.413      1.683      3.616
REMARK INTER + INTRA:          -6.084
REMARK INTER:                  -5.818
REMARK INTRA:                  -0.267
REMARK UNBOUND:                -0.354
REMARK SMILES CC1=CC[C@H]2[C@@H]3[C@@H](C(C)C)CC[C@@]2(C)[C@H]13
REMARK SMILES IDX 1 1 2 2 3 3 4 4 5 5 6 6 15 7 13 8 12 9 11 10 7 11 14 12 8 13
REMARK SMILES IDX 9 14 10 15
REMARK H PARENT
REMARK Flexibility Score: inf
ROOT
ATOM      1  C   UNL     1       4.527  14.867   5.477  1.00  0.00     0.039 C 
ATOM      2  C   UNL     1       3.732  13.967   4.578  1.00  0.00    -0.073 C 
ATOM      3  C   UNL     1       4.324  12.954   3.892  1.00  0.00    -0.027 C 
ATOM      4  C   UNL     1       3.463  12.080   2.972  1.00  0.00     0.031 C 
ATOM      5  C   UNL     1       1.967  12.533   3.035  1.00  0.00     0.003 C 
ATOM      6  C   UNL     1       1.599  12.721   4.525  1.00  0.00     0.004 C 
ATOM      7  C   UNL     1       2.220  14.135   4.406  1.00  0.00     0.024 C 
ATOM      8  C   UNL     1       1.839  14.068   2.904  1.00  0.00    -0.022 C 
ATOM      9  C   UNL     1       0.339  14.423   2.694  1.00  0.00     0.008 C 
ATOM     10  C   UNL     1      -0.548  13.973   3.882  1.00  0.00     0.005 C 
ATOM     11  C   UNL     1       0.047  12.774   4.694  1.00  0.00    -0.005 C 
ATOM     12  C   UNL     1       2.728  14.805   1.875  1.00  0.00     0.012 C 
ENDROOT
BRANCH  11  13
ATOM     13  C   UNL     1      -0.395  12.826   6.192  1.00  0.00    -0.014 C 
ATOM     14  C   UNL     1      -1.317  11.652   6.574  1.00  0.00     0.007 C 
ATOM     15  C   UNL     1      -1.120  14.147   6.513  1.00  0.00     0.007 C 
ENDBRANCH  11  13
TORSDOF 1
ENDMDL
MODEL 7
REMARK VINA RESULT:    -5.041      1.374      4.364
REMARK INTER + INTRA:          -5.690
REMARK INTER:                  -5.447
REMARK INTRA:                  -0.243
REMARK UNBOUND:                -0.354
REMARK SMILES CC1=CC[C@H]2[C@@H]3[C@@H](C(C)C)CC[C@@]2(C)[C@H]13
REMARK SMILES IDX 1 1 2 2 3 3 4 4 5 5 6 6 15 7 13 8 12 9 11 10 7 11 14 12 8 13
REMARK SMILES IDX 9 14 10 15
REMARK H PARENT
REMARK Flexibility Score: inf
ROOT
ATOM      1  C   UNL     1       3.566  11.255   3.391  1.00  0.00     0.039 C 
ATOM      2  C   UNL     1       3.128  12.667   3.139  1.00  0.00    -0.073 C 
ATOM      3  C   UNL     1       3.915  13.721   3.479  1.00  0.00    -0.027 C 
ATOM      4  C   UNL     1       3.405  15.142   3.215  1.00  0.00     0.031 C 
ATOM      5  C   UNL     1       2.000  15.098   2.528  1.00  0.00     0.003 C 
ATOM      6  C   UNL     1       2.072  14.055   1.389  1.00  0.00     0.004 C 
ATOM      7  C   UNL     1       1.787  12.986   2.472  1.00  0.00     0.024 C 
ATOM      8  C   UNL     1       1.053  14.110   3.249  1.00  0.00    -0.022 C 
ATOM      9  C   UNL     1      -0.387  14.317   2.701  1.00  0.00     0.008 C 
ATOM     10  C   UNL     1      -0.487  14.043   1.178  1.00  0.00     0.005 C 
ATOM     11  C   UNL     1       0.865  14.239   0.414  1.00  0.00    -0.005 C 
ATOM     12  C   UNL     1       1.054  14.072   4.795  1.00  0.00     0.012 C 
ENDROOT
BRANCH  11  13
ATOM     13  C   UNL     1       0.952  13.304  -0.836  1.00  0.00    -0.014 C 
ATOM     14  C   UNL     1       1.368  14.064  -2.110  1.00  0.00     0.007 C 
ATOM     15  C   UNL     1      -0.392  12.600  -1.099  1.00  0.00     0.007 C 
ENDBRANCH  11  13
TORSDOF 1
ENDMDL
MODEL 8
REMARK VINA RESULT:    -5.016      1.414      3.748
REMARK INTER + INTRA:          -5.664
REMARK INTER:                  -5.368
REMARK INTRA:                  -0.296
REMARK UNBOUND:                -0.354
REMARK SMILES CC1=CC[C@H]2[C@@H]3[C@@H](C(C)C)CC[C@@]2(C)[C@H]13
REMARK SMILES IDX 1 1 2 2 3 3 4 4 5 5 6 6 15 7 13 8 12 9 11 10 7 11 14 12 8 13
REMARK SMILES IDX 9 14 10 15
REMARK H PARENT
REMARK Flexibility Score: inf
ROOT
ATOM      1  C   UNL     1       0.931  13.135  -0.236  1.00  0.00     0.039 C 
ATOM      2  C   UNL     1       1.530  13.679   1.026  1.00  0.00    -0.073 C 
ATOM      3  C   UNL     1       2.431  14.696   0.997  1.00  0.00    -0.027 C 
ATOM      4  C   UNL     1       3.025  15.197   2.320  1.00  0.00     0.031 C 
ATOM      5  C   UNL     1       2.410  14.411   3.525  1.00  0.00     0.003 C 
ATOM      6  C   UNL     1       0.880  14.355   3.312  1.00  0.00     0.004 C 
ATOM      7  C   UNL     1       1.143  13.130   2.402  1.00  0.00     0.024 C 
ATOM      8  C   UNL     1       2.411  12.888   3.261  1.00  0.00    -0.022 C 
ATOM      9  C   UNL     1       2.055  12.157   4.587  1.00  0.00     0.008 C 
ATOM     10  C   UNL     1       0.652  12.545   5.118  1.00  0.00     0.005 C 
ATOM     11  C   UNL     1       0.166  13.955   4.642  1.00  0.00    -0.005 C 
ATOM     12  C   UNL     1       3.652  12.248   2.596  1.00  0.00     0.012 C 
ENDROOT
BRANCH  11  13
ATOM     13  C   UNL     1      -1.392  14.012   4.531  1.00  0.00    -0.014 C 
ATOM     14  C   UNL     1      -1.866  14.859   3.334  1.00  0.00     0.007 C 
ATOM     15  C   UNL     1      -2.022  14.582   5.817  1.00  0.00     0.007 C 
ENDBRANCH  11  13
TORSDOF 1
ENDMDL
MODEL 9
REMARK VINA RESULT:    -4.687      1.756      4.070
REMARK INTER + INTRA:          -5.316
REMARK INTER:                  -5.053
REMARK INTRA:                  -0.263
REMARK UNBOUND:                -0.354
REMARK SMILES CC1=CC[C@H]2[C@@H]3[C@@H](C(C)C)CC[C@@]2(C)[C@H]13
REMARK SMILES IDX 1 1 2 2 3 3 4 4 5 5 6 6 15 7 13 8 12 9 11 10 7 11 14 12 8 13
REMARK SMILES IDX 9 14 10 15
REMARK H PARENT
REMARK Flexibility Score: inf
ROOT
ATOM      1  C   UNL     1      -2.834  15.335   3.231  1.00  0.00     0.039 C 
ATOM      2  C   UNL     1      -2.187  15.489   1.888  1.00  0.00    -0.073 C 
ATOM      3  C   UNL     1      -2.704  16.323   0.948  1.00  0.00    -0.027 C 
ATOM      4  C   UNL     1      -2.009  16.423  -0.416  1.00  0.00     0.031 C 
ATOM      5  C   UNL     1      -0.738  15.512  -0.447  1.00  0.00     0.003 C 
ATOM      6  C   UNL     1       0.044  15.760   0.863  1.00  0.00     0.004 C 
ATOM      7  C   UNL     1      -0.908  14.731   1.520  1.00  0.00     0.024 C 
ATOM      8  C   UNL     1      -1.043  14.102   0.109  1.00  0.00    -0.022 C 
ATOM      9  C   UNL     1       0.166  13.175  -0.205  1.00  0.00     0.008 C 
ATOM     10  C   UNL     1       1.479  13.670   0.453  1.00  0.00     0.005 C 
ATOM     11  C   UNL     1       1.501  15.210   0.732  1.00  0.00    -0.005 C 
ATOM     12  C   UNL     1      -2.375  13.420  -0.280  1.00  0.00     0.012 C 
ENDROOT
BRANCH  11  13
ATOM     13  C   UNL     1       2.388  15.551   1.974  1.00  0.00    -0.014 C 
ATOM     14  C   UNL     1       3.614  16.406   1.603  1.00  0.00     0.007 C 
ATOM     15  C   UNL     1       2.875  14.270   2.678  1.00  0.00     0.007 C 
ENDBRANCH  11  13
TORSDOF 1
ENDMDL
