MODEL 1
REMARK VINA RESULT:    -4.684      0.000      0.000
REMARK INTER + INTRA:          -5.758
REMARK INTER:                  -5.642
REMARK INTRA:                  -0.116
REMARK UNBOUND:                -0.116
REMARK SMILES Oc1cc(O)c2c(c1)O[C@H](c1ccc(O)c(O)c1)[C@@H](O)C2
REMARK SMILES IDX 21 1 19 2 10 3 9 4 7 5 8 6 2 7 3 8 4 9 6 10 20 11 11 13
REMARK SMILES IDX 18 14 12 15 16 16 13 17 14 18 17 19 15 21 5 23 1 25
REMARK H PARENT 20 12 17 20 15 22 5 24 1 26
REMARK Flexibility Score: inf
ROOT
ATOM      1  C   UNL     1      55.791  48.528 127.992  1.00  0.00     0.079 C 
ATOM      2  C   UNL     1      56.442  49.924 127.922  1.00  0.00     0.164 C 
ATOM      3  C   UNL     1      55.396  50.982 127.519  1.00  0.00     0.232 C 
ATOM      4  O   UNL     1      54.794  50.613 126.279  1.00  0.00    -0.482 OA
ATOM      5  C   UNL     1      54.490  49.285 125.959  1.00  0.00     0.131 A 
ATOM      6  C   UNL     1      53.733  49.021 124.814  1.00  0.00     0.093 A 
ATOM      7  C   UNL     1      53.400  47.705 124.477  1.00  0.00     0.122 A 
ATOM      8  C   UNL     1      53.818  46.653 125.294  1.00  0.00     0.092 A 
ATOM      9  C   UNL     1      54.576  46.898 126.445  1.00  0.00     0.126 A 
ATOM     10  C   UNL     1      54.952  48.223 126.768  1.00  0.00     0.039 A 
ENDROOT
BRANCH   2  11
ATOM     11  O   UNL     1      57.053  50.246 129.149  1.00  0.00    -0.389 OA
ATOM     12  H   UNL     1      57.653  49.493 129.392  1.00  0.00     0.211 HD
ENDBRANCH   2  11
BRANCH   3  13
ATOM     13  C   UNL     1      56.023  52.350 127.395  1.00  0.00    -0.001 A 
ATOM     14  C   UNL     1      56.436  52.835 126.142  1.00  0.00     0.057 A 
ATOM     15  C   UNL     1      56.246  53.132 128.539  1.00  0.00     0.012 A 
ATOM     16  C   UNL     1      57.044  54.095 126.032  1.00  0.00     0.157 A 
ATOM     17  C   UNL     1      56.852  54.387 128.431  1.00  0.00     0.050 A 
ATOM     18  C   UNL     1      57.251  54.872 127.178  1.00  0.00     0.157 A 
BRANCH  16  19
ATOM     19  O   UNL     1      57.447  54.577 124.789  1.00  0.00    -0.504 OA
ATOM     20  H   UNL     1      56.780  54.751 124.045  1.00  0.00     0.293 HD
ENDBRANCH  16  19
BRANCH  18  21
ATOM     21  O   UNL     1      57.854  56.123 127.066  1.00  0.00    -0.504 OA
ATOM     22  H   UNL     1      57.411  56.960 127.428  1.00  0.00     0.293 HD
ENDBRANCH  18  21
ENDBRANCH   3  13
BRANCH   9  23
ATOM     23  O   UNL     1      54.924  45.808 127.245  1.00  0.00    -0.507 OA
ATOM     24  H   UNL     1      55.635  45.850 127.963  1.00  0.00     0.293 HD
ENDBRANCH   9  23
BRANCH   7  25
ATOM     25  O   UNL     1      52.649  47.434 123.335  1.00  0.00    -0.508 OA
ATOM     26  H   UNL     1      53.022  47.591 122.405  1.00  0.00     0.293 HD
ENDBRANCH   7  25
TORSDOF 6
ENDMDL
MODEL 2
REMARK VINA RESULT:    -4.628      9.346     13.645
REMARK INTER + INTRA:          -5.692
REMARK INTER:                  -5.321
REMARK INTRA:                  -0.370
REMARK UNBOUND:                -0.116
REMARK SMILES Oc1cc(O)c2c(c1)O[C@H](c1ccc(O)c(O)c1)[C@@H](O)C2
REMARK SMILES IDX 21 1 19 2 10 3 9 4 7 5 8 6 2 7 3 8 4 9 6 10 20 11 11 13
REMARK SMILES IDX 18 14 12 15 16 16 13 17 14 18 17 19 15 21 5 23 1 25
REMARK H PARENT 20 12 17 20 15 22 5 24 1 26
REMARK Flexibility Score: inf
ROOT
ATOM      1  C   UNL     1      57.362  38.127 123.380  1.00  0.00     0.079 C 
ATOM      2  C   UNL     1      56.002  37.597 123.877  1.00  0.00     0.164 C 
ATOM      3  C   UNL     1      54.851  38.386 123.223  1.00  0.00     0.232 C 
ATOM      4  O   UNL     1      55.010  39.778 123.493  1.00  0.00    -0.482 OA
ATOM      5  C   UNL     1      56.262  40.402 123.503  1.00  0.00     0.131 A 
ATOM      6  C   UNL     1      56.324  41.795 123.586  1.00  0.00     0.093 A 
ATOM      7  C   UNL     1      57.561  42.448 123.582  1.00  0.00     0.122 A 
ATOM      8  C   UNL     1      58.738  41.703 123.485  1.00  0.00     0.092 A 
ATOM      9  C   UNL     1      58.696  40.307 123.399  1.00  0.00     0.126 A 
ATOM     10  C   UNL     1      57.450  39.638 123.446  1.00  0.00     0.039 A 
ENDROOT
BRANCH   2  11
ATOM     11  O   UNL     1      55.888  36.217 123.625  1.00  0.00    -0.389 OA
ATOM     12  H   UNL     1      56.455  36.008 122.836  1.00  0.00     0.211 HD
ENDBRANCH   2  11
BRANCH   3  13
ATOM     13  C   UNL     1      53.509  37.917 123.735  1.00  0.00    -0.001 A 
ATOM     14  C   UNL     1      53.160  38.090 125.086  1.00  0.00     0.057 A 
ATOM     15  C   UNL     1      52.616  37.259 122.875  1.00  0.00     0.012 A 
ATOM     16  C   UNL     1      51.925  37.629 125.565  1.00  0.00     0.157 A 
ATOM     17  C   UNL     1      51.385  36.799 123.352  1.00  0.00     0.050 A 
ATOM     18  C   UNL     1      51.036  36.984 124.697  1.00  0.00     0.157 A 
BRANCH  16  19
ATOM     19  O   UNL     1      51.577  37.807 126.903  1.00  0.00    -0.504 OA
ATOM     20  H   UNL     1      52.105  38.422 127.511  1.00  0.00     0.293 HD
ENDBRANCH  16  19
BRANCH  18  21
ATOM     21  O   UNL     1      49.809  36.529 125.176  1.00  0.00    -0.504 OA
ATOM     22  H   UNL     1      49.229  37.102 125.777  1.00  0.00     0.293 HD
ENDBRANCH  18  21
ENDBRANCH   3  13
BRANCH   9  23
ATOM     23  O   UNL     1      59.905  39.621 123.258  1.00  0.00    -0.507 OA
ATOM     24  H   UNL     1      60.297  39.030 123.979  1.00  0.00     0.293 HD
ENDBRANCH   9  23
BRANCH   7  25
ATOM     25  O   UNL     1      57.631  43.837 123.668  1.00  0.00    -0.508 OA
ATOM     26  H   UNL     1      58.344  44.363 123.174  1.00  0.00     0.293 HD
ENDBRANCH   7  25
TORSDOF 6
ENDMDL
MODEL 3
REMARK VINA RESULT:    -4.514      4.784      5.761
REMARK INTER + INTRA:          -5.554
REMARK INTER:                  -5.214
REMARK INTRA:                  -0.339
REMARK UNBOUND:                -0.116
REMARK SMILES Oc1cc(O)c2c(c1)O[C@H](c1ccc(O)c(O)c1)[C@@H](O)C2
REMARK SMILES IDX 21 1 19 2 10 3 9 4 7 5 8 6 2 7 3 8 4 9 6 10 20 11 11 13
REMARK SMILES IDX 18 14 12 15 16 16 13 17 14 18 17 19 15 21 5 23 1 25
REMARK H PARENT 20 12 17 20 15 22 5 24 1 26
REMARK Flexibility Score: inf
ROOT
ATOM      1  C   UNL     1      50.650  52.105 126.606  1.00  0.00     0.079 C 
ATOM      2  C   UNL     1      52.147  52.236 126.952  1.00  0.00     0.164 C 
ATOM      3  C   UNL     1      52.488  53.699 127.297  1.00  0.00     0.232 C 
ATOM      4  O   UNL     1      52.117  54.548 126.212  1.00  0.00    -0.482 OA
ATOM      5  C   UNL     1      50.952  54.343 125.465  1.00  0.00     0.131 A 
ATOM      6  C   UNL     1      50.557  55.318 124.546  1.00  0.00     0.093 A 
ATOM      7  C   UNL     1      49.388  55.148 123.795  1.00  0.00     0.122 A 
ATOM      8  C   UNL     1      48.610  54.003 123.974  1.00  0.00     0.092 A 
ATOM      9  C   UNL     1      48.989  53.016 124.891  1.00  0.00     0.126 A 
ATOM     10  C   UNL     1      50.192  53.162 125.622  1.00  0.00     0.039 A 
ENDROOT
BRANCH   2  11
ATOM     11  O   UNL     1      52.489  51.366 128.003  1.00  0.00    -0.389 OA
ATOM     12  H   UNL     1      52.340  51.852 128.856  1.00  0.00     0.211 HD
ENDBRANCH   2  11
BRANCH   3  13
ATOM     13  C   UNL     1      53.962  53.860 127.590  1.00  0.00    -0.001 A 
ATOM     14  C   UNL     1      54.926  53.381 126.686  1.00  0.00     0.057 A 
ATOM     15  C   UNL     1      54.383  54.449 128.793  1.00  0.00     0.012 A 
ATOM     16  C   UNL     1      56.294  53.507 126.973  1.00  0.00     0.157 A 
ATOM     17  C   UNL     1      55.746  54.574 129.079  1.00  0.00     0.050 A 
ATOM     18  C   UNL     1      56.703  54.106 128.170  1.00  0.00     0.157 A 
BRANCH  16  19
ATOM     19  O   UNL     1      57.248  53.037 126.073  1.00  0.00    -0.504 OA
ATOM     20  H   UNL     1      58.237  53.221 126.203  1.00  0.00     0.293 HD
ENDBRANCH  16  19
BRANCH  18  21
ATOM     21  O   UNL     1      58.063  54.230 128.451  1.00  0.00    -0.504 OA
ATOM     22  H   UNL     1      58.613  54.995 128.077  1.00  0.00     0.293 HD
ENDBRANCH  18  21
ENDBRANCH   3  13
BRANCH   9  23
ATOM     23  O   UNL     1      48.145  51.915 125.057  1.00  0.00    -0.507 OA
ATOM     24  H   UNL     1      47.203  51.986 125.418  1.00  0.00     0.293 HD
ENDBRANCH   9  23
BRANCH   7  25
ATOM     25  O   UNL     1      48.989  56.115 122.875  1.00  0.00    -0.508 OA
ATOM     26  H   UNL     1      49.217  56.035 121.890  1.00  0.00     0.293 HD
ENDBRANCH   7  25
TORSDOF 6
ENDMDL
MODEL 4
REMARK VINA RESULT:    -4.363     16.037     18.192
REMARK INTER + INTRA:          -5.372
REMARK INTER:                  -5.096
REMARK INTRA:                  -0.276
REMARK UNBOUND:                -0.116
REMARK SMILES Oc1cc(O)c2c(c1)O[C@H](c1ccc(O)c(O)c1)[C@@H](O)C2
REMARK SMILES IDX 21 1 19 2 10 3 9 4 7 5 8 6 2 7 3 8 4 9 6 10 20 11 11 13
REMARK SMILES IDX 18 14 12 15 16 16 13 17 14 18 17 19 15 21 5 23 1 25
REMARK H PARENT 20 12 17 20 15 22 5 24 1 26
REMARK Flexibility Score: inf
ROOT
ATOM      1  C   UNL     1      45.998  40.753 134.480  1.00  0.00     0.079 C 
ATOM      2  C   UNL     1      47.106  40.035 135.276  1.00  0.00     0.164 C 
ATOM      3  C   UNL     1      47.305  38.603 134.741  1.00  0.00     0.232 C 
ATOM      4  O   UNL     1      46.068  37.894 134.795  1.00  0.00    -0.482 OA
ATOM      5  C   UNL     1      44.842  38.502 134.500  1.00  0.00     0.131 A 
ATOM      6  C   UNL     1      43.701  37.704 134.389  1.00  0.00     0.093 A 
ATOM      7  C   UNL     1      42.464  38.281 134.079  1.00  0.00     0.122 A 
ATOM      8  C   UNL     1      42.375  39.659 133.871  1.00  0.00     0.092 A 
ATOM      9  C   UNL     1      43.508  40.474 133.977  1.00  0.00     0.126 A 
ATOM     10  C   UNL     1      44.753  39.902 134.332  1.00  0.00     0.039 A 
ENDROOT
BRANCH   2  11
ATOM     11  O   UNL     1      48.303  40.773 135.230  1.00  0.00    -0.389 OA
ATOM     12  H   UNL     1      48.967  40.304 135.801  1.00  0.00     0.211 HD
ENDBRANCH   2  11
BRANCH   3  13
ATOM     13  C   UNL     1      48.352  37.863 135.541  1.00  0.00    -0.001 A 
ATOM     14  C   UNL     1      48.375  37.954 136.944  1.00  0.00     0.057 A 
ATOM     15  C   UNL     1      49.343  37.115 134.887  1.00  0.00     0.012 A 
ATOM     16  C   UNL     1      49.365  37.289 137.683  1.00  0.00     0.157 A 
ATOM     17  C   UNL     1      50.329  36.452 135.622  1.00  0.00     0.050 A 
ATOM     18  C   UNL     1      50.342  36.536 137.021  1.00  0.00     0.157 A 
BRANCH  16  19
ATOM     19  O   UNL     1      49.383  37.375 139.074  1.00  0.00    -0.504 OA
ATOM     20  H   UNL     1      50.199  37.710 139.574  1.00  0.00     0.293 HD
ENDBRANCH  16  19
BRANCH  18  21
ATOM     21  O   UNL     1      51.323  35.875 137.758  1.00  0.00    -0.504 OA
ATOM     22  H   UNL     1      51.538  36.140 138.713  1.00  0.00     0.293 HD
ENDBRANCH  18  21
ENDBRANCH   3  13
BRANCH   9  23
ATOM     23  O   UNL     1      43.362  41.837 133.713  1.00  0.00    -0.507 OA
ATOM     24  H   UNL     1      43.949  42.344 133.063  1.00  0.00     0.293 HD
ENDBRANCH   9  23
BRANCH   7  25
ATOM     25  O   UNL     1      41.321  37.493 133.970  1.00  0.00    -0.508 OA
ATOM     26  H   UNL     1      40.938  37.002 134.770  1.00  0.00     0.293 HD
ENDBRANCH   7  25
TORSDOF 6
ENDMDL
MODEL 5
REMARK VINA RESULT:    -4.352     16.640     18.521
REMARK INTER + INTRA:          -5.359
REMARK INTER:                  -5.023
REMARK INTRA:                  -0.335
REMARK UNBOUND:                -0.116
REMARK SMILES Oc1cc(O)c2c(c1)O[C@H](c1ccc(O)c(O)c1)[C@@H](O)C2
REMARK SMILES IDX 21 1 19 2 10 3 9 4 7 5 8 6 2 7 3 8 4 9 6 10 20 11 11 13
REMARK SMILES IDX 18 14 12 15 16 16 13 17 14 18 17 19 15 21 5 23 1 25
REMARK H PARENT 20 12 17 20 15 22 5 24 1 26
REMARK Flexibility Score: inf
ROOT
ATOM      1  C   UNL     1      50.228  36.626 134.244  1.00  0.00     0.079 C 
ATOM      2  C   UNL     1      48.866  36.608 133.522  1.00  0.00     0.164 C 
ATOM      3  C   UNL     1      48.003  37.800 133.979  1.00  0.00     0.232 C 
ATOM      4  O   UNL     1      47.853  37.769 135.397  1.00  0.00    -0.482 OA
ATOM      5  C   UNL     1      48.893  37.392 136.253  1.00  0.00     0.131 A 
ATOM      6  C   UNL     1      48.734  37.565 137.630  1.00  0.00     0.093 A 
ATOM      7  C   UNL     1      49.763  37.213 138.510  1.00  0.00     0.122 A 
ATOM      8  C   UNL     1      50.958  36.694 138.007  1.00  0.00     0.092 A 
ATOM      9  C   UNL     1      51.136  36.513 136.631  1.00  0.00     0.126 A 
ATOM     10  C   UNL     1      50.083  36.828 135.739  1.00  0.00     0.039 A 
ENDROOT
BRANCH   2  11
ATOM     11  O   UNL     1      49.048  36.608 132.127  1.00  0.00    -0.389 OA
ATOM     12  H   UNL     1      48.596  37.416 131.765  1.00  0.00     0.211 HD
ENDBRANCH   2  11
BRANCH   3  13
ATOM     13  C   UNL     1      46.644  37.773 133.321  1.00  0.00    -0.001 A 
ATOM     14  C   UNL     1      45.673  36.839 133.724  1.00  0.00     0.057 A 
ATOM     15  C   UNL     1      46.352  38.651 132.265  1.00  0.00     0.012 A 
ATOM     16  C   UNL     1      44.421  36.797 133.093  1.00  0.00     0.157 A 
ATOM     17  C   UNL     1      45.105  38.610 131.635  1.00  0.00     0.050 A 
ATOM     18  C   UNL     1      44.137  37.685 132.048  1.00  0.00     0.157 A 
BRANCH  16  19
ATOM     19  O   UNL     1      43.458  35.875 133.498  1.00  0.00    -0.504 OA
ATOM     20  H   UNL     1      43.647  34.879 133.505  1.00  0.00     0.293 HD
ENDBRANCH  16  19
BRANCH  18  21
ATOM     21  O   UNL     1      42.891  37.642 131.424  1.00  0.00    -0.504 OA
ATOM     22  H   UNL     1      42.739  38.062 130.515  1.00  0.00     0.293 HD
ENDBRANCH  18  21
ENDBRANCH   3  13
BRANCH   9  23
ATOM     23  O   UNL     1      52.370  36.033 136.186  1.00  0.00    -0.507 OA
ATOM     24  H   UNL     1      52.957  35.417 136.732  1.00  0.00     0.293 HD
ENDBRANCH   9  23
BRANCH   7  25
ATOM     25  O   UNL     1      49.610  37.380 139.884  1.00  0.00    -0.508 OA
ATOM     26  H   UNL     1      49.205  36.653 140.465  1.00  0.00     0.293 HD
ENDBRANCH   7  25
TORSDOF 6
ENDMDL
MODEL 6
REMARK VINA RESULT:    -4.340      1.897      1.927
REMARK INTER + INTRA:          -5.344
REMARK INTER:                  -5.021
REMARK INTRA:                  -0.324
REMARK UNBOUND:                -0.116
REMARK SMILES Oc1cc(O)c2c(c1)O[C@H](c1ccc(O)c(O)c1)[C@@H](O)C2
REMARK SMILES IDX 21 1 19 2 10 3 9 4 7 5 8 6 2 7 3 8 4 9 6 10 20 11 11 13
REMARK SMILES IDX 18 14 12 15 16 16 13 17 14 18 17 19 15 21 5 23 1 25
REMARK H PARENT 20 12 17 20 15 22 5 24 1 26
REMARK Flexibility Score: inf
ROOT
ATOM      1  C   UNL     1      53.326  49.778 128.737  1.00  0.00     0.079 C 
ATOM      2  C   UNL     1      54.372  50.891 128.527  1.00  0.00     0.164 C 
ATOM      3  C   UNL     1      53.886  51.886 127.455  1.00  0.00     0.232 C 
ATOM      4  O   UNL     1      53.604  51.186 126.243  1.00  0.00    -0.482 OA
ATOM      5  C   UNL     1      53.008  49.920 126.230  1.00  0.00     0.131 A 
ATOM      6  C   UNL     1      52.591  49.381 125.011  1.00  0.00     0.093 A 
ATOM      7  C   UNL     1      51.978  48.124 124.968  1.00  0.00     0.122 A 
ATOM      8  C   UNL     1      51.775  47.410 126.151  1.00  0.00     0.092 A 
ATOM      9  C   UNL     1      52.186  47.935 127.382  1.00  0.00     0.126 A 
ATOM     10  C   UNL     1      52.845  49.187 127.427  1.00  0.00     0.039 A 
ENDROOT
BRANCH   2  11
ATOM     11  O   UNL     1      54.652  51.541 129.743  1.00  0.00    -0.389 OA
ATOM     12  H   UNL     1      53.875  51.399 130.345  1.00  0.00     0.211 HD
ENDBRANCH   2  11
BRANCH   3  13
ATOM     13  C   UNL     1      54.920  52.957 127.196  1.00  0.00    -0.001 A 
ATOM     14  C   UNL     1      56.073  52.670 126.444  1.00  0.00     0.057 A 
ATOM     15  C   UNL     1      54.762  54.238 127.746  1.00  0.00     0.012 A 
ATOM     16  C   UNL     1      57.045  53.658 126.229  1.00  0.00     0.157 A 
ATOM     17  C   UNL     1      55.730  55.224 127.532  1.00  0.00     0.050 A 
ATOM     18  C   UNL     1      56.872  54.937 126.772  1.00  0.00     0.157 A 
BRANCH  16  19
ATOM     19  O   UNL     1      58.184  53.374 125.479  1.00  0.00    -0.504 OA
ATOM     20  H   UNL     1      59.106  53.349 125.901  1.00  0.00     0.293 HD
ENDBRANCH  16  19
BRANCH  18  21
ATOM     21  O   UNL     1      57.839  55.917 126.555  1.00  0.00    -0.504 OA
ATOM     22  H   UNL     1      58.104  56.571 127.282  1.00  0.00     0.293 HD
ENDBRANCH  18  21
ENDBRANCH   3  13
BRANCH   9  23
ATOM     23  O   UNL     1      51.914  47.194 128.535  1.00  0.00    -0.507 OA
ATOM     24  H   UNL     1      50.993  46.847 128.769  1.00  0.00     0.293 HD
ENDBRANCH   9  23
BRANCH   7  25
ATOM     25  O   UNL     1      51.562  47.578 123.756  1.00  0.00    -0.508 OA
ATOM     26  H   UNL     1      51.188  46.637 123.699  1.00  0.00     0.293 HD
ENDBRANCH   7  25
TORSDOF 6
ENDMDL
