MODEL 1
REMARK VINA RESULT:    -4.327      0.000      0.000
REMARK INTER + INTRA:          -4.903
REMARK INTER:                  -4.706
REMARK INTRA:                  -0.197
REMARK UNBOUND:                -0.197
REMARK SMILES Cc1ccc(C(C)C)c(O)c1
REMARK SMILES IDX 1 1 2 2 11 3 9 4 5 5 4 6 3 7 10 8 6 10 7 11 8 12
REMARK H PARENT 10 9
REMARK Flexibility Score: inf
ROOT
ATOM      1  C   UNL     1     -24.059  27.726   7.831  1.00  0.00     0.044 C 
ATOM      2  C   UNL     1     -23.785  26.560   8.734  1.00  0.00    -0.047 A 
ATOM      3  C   UNL     1     -24.086  25.258   8.317  1.00  0.00     0.049 A 
ATOM      4  C   UNL     1     -23.799  24.158   9.141  1.00  0.00     0.119 A 
ATOM      5  C   UNL     1     -23.188  24.359  10.401  1.00  0.00    -0.004 A 
ATOM      6  C   UNL     1     -22.872  25.672  10.798  1.00  0.00     0.008 A 
ATOM      7  C   UNL     1     -23.161  26.760   9.971  1.00  0.00     0.004 A 
ENDROOT
BRANCH   4   8
ATOM      8  O   UNL     1     -24.122  22.875   8.702  1.00  0.00    -0.508 OA
ATOM      9  H   UNL     1     -23.464  22.107   8.767  1.00  0.00     0.293 HD
ENDBRANCH   4   8
BRANCH   5  10
ATOM     10  C   UNL     1     -22.853  23.207  11.338  1.00  0.00     0.017 C 
ATOM     11  C   UNL     1     -21.512  23.423  12.051  1.00  0.00     0.012 C 
ATOM     12  C   UNL     1     -23.985  22.936  12.337  1.00  0.00     0.012 C 
ENDBRANCH   5  10
TORSDOF 2
ENDMDL
MODEL 2
REMARK VINA RESULT:    -3.779      1.477      2.074
REMARK INTER + INTRA:          -4.307
REMARK INTER:                  -4.516
REMARK INTRA:                   0.209
REMARK UNBOUND:                -0.197
REMARK SMILES Cc1ccc(C(C)C)c(O)c1
REMARK SMILES IDX 1 1 2 2 11 3 9 4 5 5 4 6 3 7 10 8 6 10 7 11 8 12
REMARK H PARENT 10 9
REMARK Flexibility Score: inf
ROOT
ATOM      1  C   UNL     1     -24.019  27.076   7.222  1.00  0.00     0.044 C 
ATOM      2  C   UNL     1     -23.760  26.042   8.276  1.00  0.00    -0.047 A 
ATOM      3  C   UNL     1     -23.218  26.413   9.513  1.00  0.00     0.049 A 
ATOM      4  C   UNL     1     -23.007  25.456  10.519  1.00  0.00     0.119 A 
ATOM      5  C   UNL     1     -23.354  24.103  10.292  1.00  0.00    -0.004 A 
ATOM      6  C   UNL     1     -23.917  23.749   9.052  1.00  0.00     0.008 A 
ATOM      7  C   UNL     1     -24.123  24.707   8.057  1.00  0.00     0.004 A 
ENDROOT
BRANCH   4   8
ATOM      8  O   UNL     1     -22.456  25.857  11.735  1.00  0.00    -0.508 OA
ATOM      9  H   UNL     1     -21.456  25.971  11.856  1.00  0.00     0.293 HD
ENDBRANCH   4   8
BRANCH   5  10
ATOM     10  C   UNL     1     -23.149  23.021  11.343  1.00  0.00     0.017 C 
ATOM     11  C   UNL     1     -21.671  22.875  11.730  1.00  0.00     0.012 C 
ATOM     12  C   UNL     1     -24.035  23.248  12.575  1.00  0.00     0.012 C 
ENDBRANCH   5  10
TORSDOF 2
ENDMDL
MODEL 3
REMARK VINA RESULT:    -3.643      3.350      6.106
REMARK INTER + INTRA:          -4.159
REMARK INTER:                  -4.050
REMARK INTRA:                  -0.109
REMARK UNBOUND:                -0.197
REMARK SMILES Cc1ccc(C(C)C)c(O)c1
REMARK SMILES IDX 1 1 2 2 11 3 9 4 5 5 4 6 3 7 10 8 6 10 7 11 8 12
REMARK H PARENT 10 9
REMARK Flexibility Score: inf
ROOT
ATOM      1  C   UNL     1     -19.190  23.624  16.805  1.00  0.00     0.044 C 
ATOM      2  C   UNL     1     -20.125  23.602  15.632  1.00  0.00    -0.047 A 
ATOM      3  C   UNL     1     -21.467  23.239  15.804  1.00  0.00     0.049 A 
ATOM      4  C   UNL     1     -22.357  23.251  14.719  1.00  0.00     0.119 A 
ATOM      5  C   UNL     1     -21.904  23.644  13.437  1.00  0.00    -0.004 A 
ATOM      6  C   UNL     1     -20.558  24.024  13.283  1.00  0.00     0.008 A 
ATOM      7  C   UNL     1     -19.680  24.010  14.369  1.00  0.00     0.004 A 
ENDROOT
BRANCH   4   8
ATOM      8  O   UNL     1     -23.684  22.875  14.922  1.00  0.00    -0.508 OA
ATOM      9  H   UNL     1     -23.965  21.902  14.944  1.00  0.00     0.293 HD
ENDBRANCH   4   8
BRANCH   5  10
ATOM     10  C   UNL     1     -22.821  23.676  12.223  1.00  0.00     0.017 C 
ATOM     11  C   UNL     1     -23.805  24.852  12.282  1.00  0.00     0.012 C 
ATOM     12  C   UNL     1     -22.029  23.670  10.909  1.00  0.00     0.012 C 
ENDBRANCH   5  10
TORSDOF 2
ENDMDL
MODEL 4
REMARK VINA RESULT:    -3.604     19.366     20.243
REMARK INTER + INTRA:          -4.117
REMARK INTER:                  -3.921
REMARK INTRA:                  -0.197
REMARK UNBOUND:                -0.197
REMARK SMILES Cc1ccc(C(C)C)c(O)c1
REMARK SMILES IDX 1 1 2 2 11 3 9 4 5 5 4 6 3 7 10 8 6 10 7 11 8 12
REMARK H PARENT 10 9
REMARK Flexibility Score: inf
ROOT
ATOM      1  C   UNL     1     -17.987  42.969  20.622  1.00  0.00     0.044 C 
ATOM      2  C   UNL     1     -19.091  42.108  21.161  1.00  0.00    -0.047 A 
ATOM      3  C   UNL     1     -20.138  41.696  20.327  1.00  0.00     0.049 A 
ATOM      4  C   UNL     1     -21.155  40.861  20.814  1.00  0.00     0.119 A 
ATOM      5  C   UNL     1     -21.123  40.416  22.157  1.00  0.00    -0.004 A 
ATOM      6  C   UNL     1     -20.054  40.821  22.978  1.00  0.00     0.008 A 
ATOM      7  C   UNL     1     -19.046  41.653  22.484  1.00  0.00     0.004 A 
ENDROOT
BRANCH   4   8
ATOM      8  O   UNL     1     -22.189  40.477  19.961  1.00  0.00    -0.508 OA
ATOM      9  H   UNL     1     -22.871  41.143  19.617  1.00  0.00     0.293 HD
ENDBRANCH   4   8
BRANCH   5  10
ATOM     10  C   UNL     1     -22.197  39.510  22.742  1.00  0.00     0.017 C 
ATOM     11  C   UNL     1     -21.601  38.447  23.674  1.00  0.00     0.012 C 
ATOM     12  C   UNL     1     -23.303  40.313  23.438  1.00  0.00     0.012 C 
ENDBRANCH   5  10
TORSDOF 2
ENDMDL
MODEL 5
REMARK VINA RESULT:    -3.514      5.168      7.143
REMARK INTER + INTRA:          -4.019
REMARK INTER:                  -3.824
REMARK INTRA:                  -0.195
REMARK UNBOUND:                -0.197
REMARK SMILES Cc1ccc(C(C)C)c(O)c1
REMARK SMILES IDX 1 1 2 2 11 3 9 4 5 5 4 6 3 7 10 8 6 10 7 11 8 12
REMARK H PARENT 10 9
REMARK Flexibility Score: inf
ROOT
ATOM      1  C   UNL     1     -21.277  23.901  12.476  1.00  0.00     0.044 C 
ATOM      2  C   UNL     1     -20.915  23.817  13.929  1.00  0.00    -0.047 A 
ATOM      3  C   UNL     1     -21.864  23.400  14.870  1.00  0.00     0.049 A 
ATOM      4  C   UNL     1     -21.524  23.283  16.227  1.00  0.00     0.119 A 
ATOM      5  C   UNL     1     -20.207  23.577  16.654  1.00  0.00    -0.004 A 
ATOM      6  C   UNL     1     -19.259  23.976  15.693  1.00  0.00     0.008 A 
ATOM      7  C   UNL     1     -19.606  24.089  14.346  1.00  0.00     0.004 A 
ENDROOT
BRANCH   4   8
ATOM      8  O   UNL     1     -22.495  22.875  17.140  1.00  0.00    -0.508 OA
ATOM      9  H   UNL     1     -22.953  21.974  17.066  1.00  0.00     0.293 HD
ENDBRANCH   4   8
BRANCH   5  10
ATOM     10  C   UNL     1     -19.779  23.469  18.111  1.00  0.00     0.017 C 
ATOM     11  C   UNL     1     -18.323  23.005  18.244  1.00  0.00     0.012 C 
ATOM     12  C   UNL     1     -20.026  24.776  18.875  1.00  0.00     0.012 C 
ENDBRANCH   5  10
TORSDOF 2
ENDMDL
MODEL 6
REMARK VINA RESULT:    -3.507     12.840     14.095
REMARK INTER + INTRA:          -4.011
REMARK INTER:                  -3.817
REMARK INTRA:                  -0.194
REMARK UNBOUND:                -0.197
REMARK SMILES Cc1ccc(C(C)C)c(O)c1
REMARK SMILES IDX 1 1 2 2 11 3 9 4 5 5 4 6 3 7 10 8 6 10 7 11 8 12
REMARK H PARENT 10 9
REMARK Flexibility Score: inf
ROOT
ATOM      1  C   UNL     1     -19.924  33.246  24.125  1.00  0.00     0.044 C 
ATOM      2  C   UNL     1     -19.868  32.045  23.228  1.00  0.00    -0.047 A 
ATOM      3  C   UNL     1     -18.873  31.076  23.406  1.00  0.00     0.049 A 
ATOM      4  C   UNL     1     -18.836  29.931  22.595  1.00  0.00     0.119 A 
ATOM      5  C   UNL     1     -19.816  29.742  21.592  1.00  0.00    -0.004 A 
ATOM      6  C   UNL     1     -20.821  30.715  21.438  1.00  0.00     0.008 A 
ATOM      7  C   UNL     1     -20.851  31.850  22.250  1.00  0.00     0.004 A 
ENDROOT
BRANCH   4   8
ATOM      8  O   UNL     1     -17.826  28.990  22.791  1.00  0.00    -0.508 OA
ATOM      9  H   UNL     1     -17.123  29.103  23.512  1.00  0.00     0.293 HD
ENDBRANCH   4   8
BRANCH   5  10
ATOM     10  C   UNL     1     -19.827  28.522  20.681  1.00  0.00     0.017 C 
ATOM     11  C   UNL     1     -20.610  27.356  21.299  1.00  0.00     0.012 C 
ATOM     12  C   UNL     1     -20.340  28.864  19.277  1.00  0.00     0.012 C 
ENDBRANCH   5  10
TORSDOF 2
ENDMDL
MODEL 7
REMARK VINA RESULT:    -3.434     14.026     15.347
REMARK INTER + INTRA:          -3.932
REMARK INTER:                  -3.812
REMARK INTRA:                  -0.119
REMARK UNBOUND:                -0.197
REMARK SMILES Cc1ccc(C(C)C)c(O)c1
REMARK SMILES IDX 1 1 2 2 11 3 9 4 5 5 4 6 3 7 10 8 6 10 7 11 8 12
REMARK H PARENT 10 9
REMARK Flexibility Score: inf
ROOT
ATOM      1  C   UNL     1     -18.554  31.025  23.787  1.00  0.00     0.044 C 
ATOM      2  C   UNL     1     -19.710  31.712  23.122  1.00  0.00    -0.047 A 
ATOM      3  C   UNL     1     -20.023  33.039  23.441  1.00  0.00     0.049 A 
ATOM      4  C   UNL     1     -21.080  33.701  22.797  1.00  0.00     0.119 A 
ATOM      5  C   UNL     1     -21.834  33.031  21.805  1.00  0.00    -0.004 A 
ATOM      6  C   UNL     1     -21.496  31.704  21.480  1.00  0.00     0.008 A 
ATOM      7  C   UNL     1     -20.442  31.053  22.126  1.00  0.00     0.004 A 
ENDROOT
BRANCH   4   8
ATOM      8  O   UNL     1     -21.372  35.018  23.146  1.00  0.00    -0.508 OA
ATOM      9  H   UNL     1     -21.048  35.425  24.016  1.00  0.00     0.293 HD
ENDBRANCH   4   8
BRANCH   5  10
ATOM     10  C   UNL     1     -22.992  33.695  21.072  1.00  0.00     0.017 C 
ATOM     11  C   UNL     1     -22.501  34.717  20.039  1.00  0.00     0.012 C 
ATOM     12  C   UNL     1     -23.934  32.662  20.442  1.00  0.00     0.012 C 
ENDBRANCH   5  10
TORSDOF 2
ENDMDL
MODEL 8
REMARK VINA RESULT:    -3.415     12.360     13.684
REMARK INTER + INTRA:          -3.911
REMARK INTER:                  -3.753
REMARK INTRA:                  -0.157
REMARK UNBOUND:                -0.197
REMARK SMILES Cc1ccc(C(C)C)c(O)c1
REMARK SMILES IDX 1 1 2 2 11 3 9 4 5 5 4 6 3 7 10 8 6 10 7 11 8 12
REMARK H PARENT 10 9
REMARK Flexibility Score: inf
ROOT
ATOM      1  C   UNL     1     -18.878  32.591  24.125  1.00  0.00     0.044 C 
ATOM      2  C   UNL     1     -19.349  31.510  23.198  1.00  0.00    -0.047 A 
ATOM      3  C   UNL     1     -20.563  31.646  22.513  1.00  0.00     0.049 A 
ATOM      4  C   UNL     1     -20.994  30.656  21.616  1.00  0.00     0.119 A 
ATOM      5  C   UNL     1     -20.193  29.512  21.388  1.00  0.00    -0.004 A 
ATOM      6  C   UNL     1     -18.967  29.398  22.069  1.00  0.00     0.008 A 
ATOM      7  C   UNL     1     -18.546  30.388  22.959  1.00  0.00     0.004 A 
ENDROOT
BRANCH   4   8
ATOM      8  O   UNL     1     -22.212  30.817  20.957  1.00  0.00    -0.508 OA
ATOM      9  H   UNL     1     -23.076  30.970  21.463  1.00  0.00     0.293 HD
ENDBRANCH   4   8
BRANCH   5  10
ATOM     10  C   UNL     1     -20.607  28.405  20.428  1.00  0.00     0.017 C 
ATOM     11  C   UNL     1     -20.344  28.789  18.966  1.00  0.00     0.012 C 
ATOM     12  C   UNL     1     -19.951  27.065  20.786  1.00  0.00     0.012 C 
ENDBRANCH   5  10
TORSDOF 2
ENDMDL
MODEL 9
REMARK VINA RESULT:    -3.407     11.462     12.370
REMARK INTER + INTRA:          -3.903
REMARK INTER:                  -3.708
REMARK INTRA:                  -0.195
REMARK UNBOUND:                -0.197
REMARK SMILES Cc1ccc(C(C)C)c(O)c1
REMARK SMILES IDX 1 1 2 2 11 3 9 4 5 5 4 6 3 7 10 8 6 10 7 11 8 12
REMARK H PARENT 10 9
REMARK Flexibility Score: inf
ROOT
ATOM      1  C   UNL     1     -23.803  33.952  21.498  1.00  0.00     0.044 C 
ATOM      2  C   UNL     1     -23.238  32.594  21.204  1.00  0.00    -0.047 A 
ATOM      3  C   UNL     1     -23.930  31.706  20.373  1.00  0.00     0.049 A 
ATOM      4  C   UNL     1     -23.392  30.447  20.063  1.00  0.00     0.119 A 
ATOM      5  C   UNL     1     -22.130  30.070  20.582  1.00  0.00    -0.004 A 
ATOM      6  C   UNL     1     -21.437  30.982  21.400  1.00  0.00     0.008 A 
ATOM      7  C   UNL     1     -21.981  32.232  21.703  1.00  0.00     0.004 A 
ENDROOT
BRANCH   4   8
ATOM      8  O   UNL     1     -24.111  29.581  19.240  1.00  0.00    -0.508 OA
ATOM      9  H   UNL     1     -23.652  28.984  18.563  1.00  0.00     0.293 HD
ENDBRANCH   4   8
BRANCH   5  10
ATOM     10  C   UNL     1     -21.495  28.720  20.282  1.00  0.00     0.017 C 
ATOM     11  C   UNL     1     -20.385  28.833  19.229  1.00  0.00     0.012 C 
ATOM     12  C   UNL     1     -20.994  28.030  21.557  1.00  0.00     0.012 C 
ENDBRANCH   5  10
TORSDOF 2
ENDMDL
