MODEL 1
REMARK VINA RESULT:    -3.804      0.000      0.000
REMARK INTER + INTRA:          -4.746
REMARK INTER:                  -4.693
REMARK INTRA:                  -0.053
REMARK UNBOUND:                -0.053
REMARK SMILES CCCCCC(C)=O
REMARK SMILES IDX 4 1 3 2 2 3 1 4 5 5 6 6 8 7 7 8
REMARK H PARENT
REMARK Flexibility Score: inf
ROOT
ATOM      1  C   UNL     1      25.953  57.205  -9.255  1.00  0.00     0.008 C 
ENDROOT
BRANCH   1   2
ATOM      2  C   UNL     1      26.315  58.674  -9.533  1.00  0.00     0.000 C 
BRANCH   2   3
ATOM      3  C   UNL     1      27.473  58.846 -10.537  1.00  0.00    -0.003 C 
ATOM      4  C   UNL     1      27.910  60.304 -10.677  1.00  0.00     0.004 C 
ENDBRANCH   2   3
ENDBRANCH   1   2
BRANCH   1   5
ATOM      5  C   UNL     1      24.570  57.043  -8.609  1.00  0.00     0.075 C 
BRANCH   5   6
ATOM      6  C   UNL     1      24.425  55.672  -8.000  1.00  0.00     0.129 C 
ATOM      7  O   UNL     1      25.415  54.975  -7.846  1.00  0.00    -0.300 OA
ATOM      8  C   UNL     1      23.085  55.137  -7.589  1.00  0.00     0.087 C 
ENDBRANCH   5   6
ENDBRANCH   1   5
TORSDOF 4
ENDMDL
MODEL 2
REMARK VINA RESULT:    -3.724      2.188      5.030
REMARK INTER + INTRA:          -4.647
REMARK INTER:                  -4.540
REMARK INTRA:                  -0.107
REMARK UNBOUND:                -0.053
REMARK SMILES CCCCCC(C)=O
REMARK SMILES IDX 4 1 3 2 2 3 1 4 5 5 6 6 8 7 7 8
REMARK H PARENT
REMARK Flexibility Score: inf
ROOT
ATOM      1  C   UNL     1      25.816  56.869  -9.031  1.00  0.00     0.008 C 
ENDROOT
BRANCH   1   2
ATOM      2  C   UNL     1      24.616  55.911  -8.928  1.00  0.00     0.000 C 
BRANCH   2   3
ATOM      3  C   UNL     1      24.132  55.681  -7.482  1.00  0.00    -0.003 C 
ATOM      4  C   UNL     1      22.806  54.923  -7.426  1.00  0.00     0.004 C 
ENDBRANCH   2   3
ENDBRANCH   1   2
BRANCH   1   5
ATOM      5  C   UNL     1      25.402  58.346  -9.028  1.00  0.00     0.075 C 
BRANCH   5   6
ATOM      6  C   UNL     1      26.463  59.197  -9.677  1.00  0.00     0.129 C 
ATOM      7  O   UNL     1      26.558  60.376  -9.370  1.00  0.00    -0.300 OA
ATOM      8  C   UNL     1      27.400  58.633 -10.703  1.00  0.00     0.087 C 
ENDBRANCH   5   6
ENDBRANCH   1   5
TORSDOF 4
ENDMDL
MODEL 3
REMARK VINA RESULT:    -3.692     16.840     17.914
REMARK INTER + INTRA:          -4.608
REMARK INTER:                  -4.360
REMARK INTRA:                  -0.249
REMARK UNBOUND:                -0.053
REMARK SMILES CCCCCC(C)=O
REMARK SMILES IDX 4 1 3 2 2 3 1 4 5 5 6 6 8 7 7 8
REMARK H PARENT
REMARK Flexibility Score: inf
ROOT
ATOM      1  C   UNL     1      19.516  44.977  -0.008  1.00  0.00     0.008 C 
ENDROOT
BRANCH   1   2
ATOM      2  C   UNL     1      19.795  44.513   1.432  1.00  0.00     0.000 C 
BRANCH   2   3
ATOM      3  C   UNL     1      20.202  43.028   1.535  1.00  0.00    -0.003 C 
ATOM      4  C   UNL     1      21.035  42.569   0.338  1.00  0.00     0.004 C 
ENDBRANCH   2   3
ENDBRANCH   1   2
BRANCH   1   5
ATOM      5  C   UNL     1      18.073  45.456  -0.211  1.00  0.00     0.075 C 
BRANCH   5   6
ATOM      6  C   UNL     1      17.094  44.396   0.222  1.00  0.00     0.129 C 
ATOM      7  O   UNL     1      17.057  43.332  -0.377  1.00  0.00    -0.300 OA
ATOM      8  C   UNL     1      16.153  44.621   1.368  1.00  0.00     0.087 C 
ENDBRANCH   5   6
ENDBRANCH   1   5
TORSDOF 4
ENDMDL
MODEL 4
REMARK VINA RESULT:    -3.585     16.584     18.223
REMARK INTER + INTRA:          -4.475
REMARK INTER:                  -4.192
REMARK INTRA:                  -0.284
REMARK UNBOUND:                -0.053
REMARK SMILES CCCCCC(C)=O
REMARK SMILES IDX 4 1 3 2 2 3 1 4 5 5 6 6 8 7 7 8
REMARK H PARENT
REMARK Flexibility Score: inf
ROOT
ATOM      1  C   UNL     1      17.251  43.568   0.785  1.00  0.00     0.008 C 
ENDROOT
BRANCH   1   2
ATOM      2  C   UNL     1      16.322  44.539   1.534  1.00  0.00     0.000 C 
BRANCH   2   3
ATOM      3  C   UNL     1      15.387  45.340   0.605  1.00  0.00    -0.003 C 
ATOM      4  C   UNL     1      16.024  45.623  -0.756  1.00  0.00     0.004 C 
ENDBRANCH   2   3
ENDBRANCH   1   2
BRANCH   1   5
ATOM      5  C   UNL     1      18.566  43.305   1.531  1.00  0.00     0.075 C 
BRANCH   5   6
ATOM      6  C   UNL     1      19.554  44.413   1.275  1.00  0.00     0.129 C 
ATOM      7  O   UNL     1      20.317  44.755   2.165  1.00  0.00    -0.300 OA
ATOM      8  C   UNL     1      19.615  45.116  -0.049  1.00  0.00     0.087 C 
ENDBRANCH   5   6
ENDBRANCH   1   5
TORSDOF 4
ENDMDL
MODEL 5
REMARK VINA RESULT:    -3.492      4.353      6.183
REMARK INTER + INTRA:          -4.361
REMARK INTER:                  -4.196
REMARK INTRA:                  -0.165
REMARK UNBOUND:                -0.053
REMARK SMILES CCCCCC(C)=O
REMARK SMILES IDX 4 1 3 2 2 3 1 4 5 5 6 6 8 7 7 8
REMARK H PARENT
REMARK Flexibility Score: inf
ROOT
ATOM      1  C   UNL     1      30.288  59.074 -12.597  1.00  0.00     0.008 C 
ENDROOT
BRANCH   1   2
ATOM      2  C   UNL     1      30.014  57.647 -13.100  1.00  0.00     0.000 C 
BRANCH   2   3
ATOM      3  C   UNL     1      31.294  56.854 -13.436  1.00  0.00    -0.003 C 
ATOM      4  C   UNL     1      32.410  57.751 -13.971  1.00  0.00     0.004 C 
ENDBRANCH   2   3
ENDBRANCH   1   2
BRANCH   1   5
ATOM      5  C   UNL     1      29.979  59.250 -11.104  1.00  0.00     0.075 C 
BRANCH   5   6
ATOM      6  C   UNL     1      28.589  59.796 -10.909  1.00  0.00     0.129 C 
ATOM      7  O   UNL     1      28.367  60.973 -11.149  1.00  0.00    -0.300 OA
ATOM      8  C   UNL     1      27.469  58.929 -10.412  1.00  0.00     0.087 C 
ENDBRANCH   5   6
ENDBRANCH   1   5
TORSDOF 4
ENDMDL
MODEL 6
REMARK VINA RESULT:    -3.479     17.790     18.487
REMARK INTER + INTRA:          -4.345
REMARK INTER:                  -4.186
REMARK INTRA:                  -0.159
REMARK UNBOUND:                -0.053
REMARK SMILES CCCCCC(C)=O
REMARK SMILES IDX 4 1 3 2 2 3 1 4 5 5 6 6 8 7 7 8
REMARK H PARENT
REMARK Flexibility Score: inf
ROOT
ATOM      1  C   UNL     1      17.571  44.123   1.472  1.00  0.00     0.008 C 
ENDROOT
BRANCH   1   2
ATOM      2  C   UNL     1      17.307  44.631   0.044  1.00  0.00     0.000 C 
BRANCH   2   3
ATOM      3  C   UNL     1      15.986  45.414  -0.098  1.00  0.00    -0.003 C 
ATOM      4  C   UNL     1      15.060  45.215   1.102  1.00  0.00     0.004 C 
ENDBRANCH   2   3
ENDBRANCH   1   2
BRANCH   1   5
ATOM      5  C   UNL     1      18.574  42.962   1.517  1.00  0.00     0.075 C 
BRANCH   5   6
ATOM      6  C   UNL     1      19.988  43.478   1.464  1.00  0.00     0.129 C 
ATOM      7  O   UNL     1      20.262  44.537   2.007  1.00  0.00    -0.300 OA
ATOM      8  C   UNL     1      21.070  42.725   0.747  1.00  0.00     0.087 C 
ENDBRANCH   5   6
ENDBRANCH   1   5
TORSDOF 4
ENDMDL
MODEL 7
REMARK VINA RESULT:    -3.463     15.127     16.555
REMARK INTER + INTRA:          -4.325
REMARK INTER:                  -4.219
REMARK INTRA:                  -0.106
REMARK UNBOUND:                -0.053
REMARK SMILES CCCCCC(C)=O
REMARK SMILES IDX 4 1 3 2 2 3 1 4 5 5 6 6 8 7 7 8
REMARK H PARENT
REMARK Flexibility Score: inf
ROOT
ATOM      1  C   UNL     1      31.850  45.682   1.184  1.00  0.00     0.008 C 
ENDROOT
BRANCH   1   2
ATOM      2  C   UNL     1      32.622  45.694   2.515  1.00  0.00     0.000 C 
BRANCH   2   3
ATOM      3  C   UNL     1      33.072  47.102   2.956  1.00  0.00    -0.003 C 
ATOM      4  C   UNL     1      32.012  47.814   3.797  1.00  0.00     0.004 C 
ENDBRANCH   2   3
ENDBRANCH   1   2
BRANCH   1   5
ATOM      5  C   UNL     1      30.335  45.534   1.374  1.00  0.00     0.075 C 
BRANCH   5   6
ATOM      6  C   UNL     1      29.676  45.110   0.088  1.00  0.00     0.129 C 
ATOM      7  O   UNL     1      30.143  44.179  -0.548  1.00  0.00    -0.300 OA
ATOM      8  C   UNL     1      28.461  45.816  -0.439  1.00  0.00     0.087 C 
ENDBRANCH   5   6
ENDBRANCH   1   5
TORSDOF 4
ENDMDL
MODEL 8
REMARK VINA RESULT:    -3.444     16.755     18.170
REMARK INTER + INTRA:          -4.302
REMARK INTER:                  -4.031
REMARK INTRA:                  -0.270
REMARK UNBOUND:                -0.053
REMARK SMILES CCCCCC(C)=O
REMARK SMILES IDX 4 1 3 2 2 3 1 4 5 5 6 6 8 7 7 8
REMARK H PARENT
REMARK Flexibility Score: inf
ROOT
ATOM      1  C   UNL     1      17.338  43.727   0.842  1.00  0.00     0.008 C 
ENDROOT
BRANCH   1   2
ATOM      2  C   UNL     1      18.620  43.563   1.677  1.00  0.00     0.000 C 
BRANCH   2   3
ATOM      3  C   UNL     1      19.716  44.593   1.335  1.00  0.00    -0.003 C 
ATOM      4  C   UNL     1      19.597  45.116  -0.097  1.00  0.00     0.004 C 
ENDBRANCH   2   3
ENDBRANCH   1   2
BRANCH   1   5
ATOM      5  C   UNL     1      16.265  44.561   1.553  1.00  0.00     0.075 C 
BRANCH   5   6
ATOM      6  C   UNL     1      15.484  45.382   0.560  1.00  0.00     0.129 C 
ATOM      7  O   UNL     1      14.406  45.854   0.886  1.00  0.00    -0.300 OA
ATOM      8  C   UNL     1      15.997  45.625  -0.830  1.00  0.00     0.087 C 
ENDBRANCH   5   6
ENDBRANCH   1   5
TORSDOF 4
ENDMDL
MODEL 9
REMARK VINA RESULT:    -3.432      6.226      7.441
REMARK INTER + INTRA:          -4.287
REMARK INTER:                  -4.012
REMARK INTRA:                  -0.275
REMARK UNBOUND:                -0.053
REMARK SMILES CCCCCC(C)=O
REMARK SMILES IDX 4 1 3 2 2 3 1 4 5 5 6 6 8 7 7 8
REMARK H PARENT
REMARK Flexibility Score: inf
ROOT
ATOM      1  C   UNL     1      30.336  57.331 -13.150  1.00  0.00     0.008 C 
ENDROOT
BRANCH   1   2
ATOM      2  C   UNL     1      31.556  56.712 -13.853  1.00  0.00     0.000 C 
BRANCH   2   3
ATOM      3  C   UNL     1      32.728  57.698 -14.041  1.00  0.00    -0.003 C 
ATOM      4  C   UNL     1      34.044  57.149 -13.492  1.00  0.00     0.004 C 
ENDBRANCH   2   3
ENDBRANCH   1   2
BRANCH   1   5
ATOM      5  C   UNL     1      30.372  58.864 -13.132  1.00  0.00     0.075 C 
BRANCH   5   6
ATOM      6  C   UNL     1      30.166  59.386 -11.733  1.00  0.00     0.129 C 
ATOM      7  O   UNL     1      29.157  60.020 -11.471  1.00  0.00    -0.300 OA
ATOM      8  C   UNL     1      31.182  59.152 -10.653  1.00  0.00     0.087 C 
ENDBRANCH   5   6
ENDBRANCH   1   5
TORSDOF 4
ENDMDL
