MODEL 1
REMARK VINA RESULT:    -4.499      0.000      0.000
REMARK INTER + INTRA:          -6.177
REMARK INTER:                  -5.814
REMARK INTRA:                  -0.363
REMARK UNBOUND:                -0.363
REMARK SMILES CO[C@@]1(CO)O[C@@H](CO)[C@H](O)[C@@H]1O
REMARK SMILES IDX 3 1 12 2 10 3 7 4 6 5 2 6 1 7 4 8 5 9 13 11 11 13 8 15 9 16
REMARK H PARENT 5 10 13 12 11 14 9 17
REMARK Flexibility Score: inf
ROOT
ATOM      1  C   UNL     1      15.147   0.513  -8.832  1.00  0.00     0.221 C 
ATOM      2  C   UNL     1      14.253   1.166  -7.749  1.00  0.00     0.207 C 
ATOM      3  C   UNL     1      14.776   2.585  -7.742  1.00  0.00     0.180 C 
ATOM      4  C   UNL     1      16.252   2.402  -8.115  1.00  0.00     0.179 C 
ATOM      5  O   UNL     1      16.409   1.155  -8.764  1.00  0.00    -0.337 OA
ENDROOT
BRANCH   1   6
ATOM      6  O   UNL     1      14.622   0.795 -10.131  1.00  0.00    -0.349 OA
ATOM      7  C   UNL     1      15.492   0.454 -11.197  1.00  0.00     0.198 C 
ENDBRANCH   1   6
BRANCH   1   8
ATOM      8  C   UNL     1      15.383  -1.010  -8.617  1.00  0.00     0.224 C 
BRANCH   8   9
ATOM      9  O   UNL     1      16.621  -1.245  -8.000  1.00  0.00    -0.391 OA
ATOM     10  H   UNL     1      17.244  -0.560  -8.359  1.00  0.00     0.210 HD
ENDBRANCH   8   9
ENDBRANCH   1   8
BRANCH   2  11
ATOM     11  O   UNL     1      14.374   0.543  -6.489  1.00  0.00    -0.385 OA
ATOM     12  H   UNL     1      15.006  -0.218  -6.572  1.00  0.00     0.211 HD
ENDBRANCH   2  11
BRANCH   3  13
ATOM     13  O   UNL     1      14.571   3.256  -6.519  1.00  0.00    -0.387 OA
ATOM     14  H   UNL     1      13.866   3.942  -6.641  1.00  0.00     0.211 HD
ENDBRANCH   3  13
BRANCH   4  15
ATOM     15  C   UNL     1      16.754   3.534  -9.021  1.00  0.00     0.191 C 
BRANCH  15  16
ATOM     16  O   UNL     1      18.056   3.261  -9.467  1.00  0.00    -0.394 OA
ATOM     17  H   UNL     1      18.354   2.440  -8.994  1.00  0.00     0.210 HD
ENDBRANCH  15  16
ENDBRANCH   4  15
TORSDOF 7
ENDMDL
MODEL 2
REMARK VINA RESULT:    -4.459      9.739     11.616
REMARK INTER + INTRA:          -6.125
REMARK INTER:                  -5.453
REMARK INTRA:                  -0.672
REMARK UNBOUND:                -0.363
REMARK SMILES CO[C@@]1(CO)O[C@@H](CO)[C@H](O)[C@@H]1O
REMARK SMILES IDX 3 1 12 2 10 3 7 4 6 5 2 6 1 7 4 8 5 9 13 11 11 13 8 15 9 16
REMARK H PARENT 5 10 13 12 11 14 9 17
REMARK Flexibility Score: inf
ROOT
ATOM      1  C   UNL     1      20.512  -0.573 -18.361  1.00  0.00     0.221 C 
ATOM      2  C   UNL     1      21.357  -0.004 -19.528  1.00  0.00     0.207 C 
ATOM      3  C   UNL     1      21.076   1.476 -19.412  1.00  0.00     0.180 C 
ATOM      4  C   UNL     1      19.648   1.505 -18.852  1.00  0.00     0.179 C 
ATOM      5  O   UNL     1      19.373   0.261 -18.236  1.00  0.00    -0.337 OA
ENDROOT
BRANCH   1   6
ATOM      6  O   UNL     1      21.235  -0.453 -17.134  1.00  0.00    -0.349 OA
ATOM      7  C   UNL     1      20.500  -0.839 -15.986  1.00  0.00     0.198 C 
ENDBRANCH   1   6
BRANCH   1   8
ATOM      8  C   UNL     1      20.006  -2.025 -18.601  1.00  0.00     0.224 C 
BRANCH   8   9
ATOM      9  O   UNL     1      18.766  -2.024 -19.255  1.00  0.00    -0.391 OA
ATOM     10  H   UNL     1      18.541  -1.071 -19.421  1.00  0.00     0.210 HD
ENDBRANCH   8   9
ENDBRANCH   1   8
BRANCH   2  11
ATOM     11  O   UNL     1      20.980  -0.526 -20.783  1.00  0.00    -0.385 OA
ATOM     12  H   UNL     1      20.019  -0.771 -20.748  1.00  0.00     0.211 HD
ENDBRANCH   2  11
BRANCH   3  13
ATOM     13  O   UNL     1      21.231   2.178 -20.624  1.00  0.00    -0.387 OA
ATOM     14  H   UNL     1      20.459   2.787 -20.746  1.00  0.00     0.211 HD
ENDBRANCH   3  13
BRANCH   4  15
ATOM     15  C   UNL     1      19.454   2.645 -17.844  1.00  0.00     0.191 C 
BRANCH  15  16
ATOM     16  O   UNL     1      20.467   2.619 -16.875  1.00  0.00    -0.394 OA
ATOM     17  H   UNL     1      20.606   1.665 -16.633  1.00  0.00     0.210 HD
ENDBRANCH  15  16
ENDBRANCH   4  15
TORSDOF 7
ENDMDL
MODEL 3
REMARK VINA RESULT:    -4.406      2.865      4.398
REMARK INTER + INTRA:          -6.057
REMARK INTER:                  -5.449
REMARK INTRA:                  -0.608
REMARK UNBOUND:                -0.363
REMARK SMILES CO[C@@]1(CO)O[C@@H](CO)[C@H](O)[C@@H]1O
REMARK SMILES IDX 3 1 12 2 10 3 7 4 6 5 2 6 1 7 4 8 5 9 13 11 11 13 8 15 9 16
REMARK H PARENT 5 10 13 12 11 14 9 17
REMARK Flexibility Score: inf
ROOT
ATOM      1  C   UNL     1      17.868   1.225  -9.339  1.00  0.00     0.221 C 
ATOM      2  C   UNL     1      19.216   0.489  -9.134  1.00  0.00     0.207 C 
ATOM      3  C   UNL     1      20.188   1.460  -9.764  1.00  0.00     0.180 C 
ATOM      4  C   UNL     1      19.346   2.114 -10.866  1.00  0.00     0.179 C 
ATOM      5  O   UNL     1      17.976   1.945 -10.555  1.00  0.00    -0.337 OA
ENDROOT
BRANCH   1   6
ATOM      6  O   UNL     1      17.684   2.198  -8.309  1.00  0.00    -0.349 OA
ATOM      7  C   UNL     1      16.477   2.934  -8.414  1.00  0.00     0.198 C 
ENDBRANCH   1   6
BRANCH   1   8
ATOM      8  C   UNL     1      16.645   0.271  -9.466  1.00  0.00     0.224 C 
BRANCH   8   9
ATOM      9  O   UNL     1      16.665  -0.709  -8.463  1.00  0.00    -0.391 OA
ATOM     10  H   UNL     1      16.775  -0.224  -7.603  1.00  0.00     0.210 HD
ENDBRANCH   8   9
ENDBRANCH   1   8
BRANCH   2  11
ATOM     11  O   UNL     1      19.248  -0.779  -9.750  1.00  0.00    -0.385 OA
ATOM     12  H   UNL     1      18.372  -1.223  -9.607  1.00  0.00     0.211 HD
ENDBRANCH   2  11
BRANCH   3  13
ATOM     13  O   UNL     1      21.371   0.852 -10.231  1.00  0.00    -0.387 OA
ATOM     14  H   UNL     1      22.048   0.863  -9.507  1.00  0.00     0.211 HD
ENDBRANCH   3  13
BRANCH   4  15
ATOM     15  C   UNL     1      19.670   3.606 -11.021  1.00  0.00     0.191 C 
BRANCH  15  16
ATOM     16  O   UNL     1      20.932   3.891 -10.478  1.00  0.00    -0.394 OA
ATOM     17  H   UNL     1      21.597   3.715 -11.194  1.00  0.00     0.210 HD
ENDBRANCH  15  16
ENDBRANCH   4  15
TORSDOF 7
ENDMDL
MODEL 4
REMARK VINA RESULT:    -4.387      8.552     10.312
REMARK INTER + INTRA:          -6.032
REMARK INTER:                  -5.855
REMARK INTRA:                  -0.177
REMARK UNBOUND:                -0.363
REMARK SMILES CO[C@@]1(CO)O[C@@H](CO)[C@H](O)[C@@H]1O
REMARK SMILES IDX 3 1 12 2 10 3 7 4 6 5 2 6 1 7 4 8 5 9 13 11 11 13 8 15 9 16
REMARK H PARENT 5 10 13 12 11 14 9 17
REMARK Flexibility Score: inf
ROOT
ATOM      1  C   UNL     1      18.103   1.953 -17.278  1.00  0.00     0.221 C 
ATOM      2  C   UNL     1      19.179   1.156 -16.499  1.00  0.00     0.207 C 
ATOM      3  C   UNL     1      20.419   1.449 -17.312  1.00  0.00     0.180 C 
ATOM      4  C   UNL     1      19.861   1.622 -18.730  1.00  0.00     0.179 C 
ATOM      5  O   UNL     1      18.481   1.924 -18.644  1.00  0.00    -0.337 OA
ENDROOT
BRANCH   1   6
ATOM      6  O   UNL     1      18.133   3.326 -16.881  1.00  0.00    -0.349 OA
ATOM      7  C   UNL     1      17.081   3.702 -16.010  1.00  0.00     0.198 C 
ENDBRANCH   1   6
BRANCH   1   8
ATOM      8  C   UNL     1      16.674   1.347 -17.174  1.00  0.00     0.224 C 
BRANCH   8   9
ATOM      9  O   UNL     1      16.050   1.310 -18.429  1.00  0.00    -0.391 OA
ATOM     10  H   UNL     1      16.780   1.327 -19.102  1.00  0.00     0.210 HD
ENDBRANCH   8   9
ENDBRANCH   1   8
BRANCH   2  11
ATOM     11  O   UNL     1      18.896  -0.224 -16.430  1.00  0.00    -0.385 OA
ATOM     12  H   UNL     1      18.016  -0.345 -15.987  1.00  0.00     0.211 HD
ENDBRANCH   2  11
BRANCH   3  13
ATOM     13  O   UNL     1      21.413   0.456 -17.204  1.00  0.00    -0.387 OA
ATOM     14  H   UNL     1      21.863   0.543 -16.325  1.00  0.00     0.211 HD
ENDBRANCH   3  13
BRANCH   4  15
ATOM     15  C   UNL     1      20.594   2.727 -19.501  1.00  0.00     0.191 C 
BRANCH  15  16
ATOM     16  O   UNL     1      21.282   2.185 -20.596  1.00  0.00    -0.394 OA
ATOM     17  H   UNL     1      22.158   1.866 -20.253  1.00  0.00     0.210 HD
ENDBRANCH  15  16
ENDBRANCH   4  15
TORSDOF 7
ENDMDL
MODEL 5
REMARK VINA RESULT:    -4.342      3.189      4.878
REMARK INTER + INTRA:          -5.975
REMARK INTER:                  -5.391
REMARK INTRA:                  -0.584
REMARK UNBOUND:                -0.363
REMARK SMILES CO[C@@]1(CO)O[C@@H](CO)[C@H](O)[C@@H]1O
REMARK SMILES IDX 3 1 12 2 10 3 7 4 6 5 2 6 1 7 4 8 5 9 13 11 11 13 8 15 9 16
REMARK H PARENT 5 10 13 12 11 14 9 17
REMARK Flexibility Score: inf
ROOT
ATOM      1  C   UNL     1      17.868   2.096 -10.713  1.00  0.00     0.221 C 
ATOM      2  C   UNL     1      18.612   3.444 -10.883  1.00  0.00     0.207 C 
ATOM      3  C   UNL     1      20.052   2.989 -10.938  1.00  0.00     0.180 C 
ATOM      4  C   UNL     1      20.045   1.738 -10.051  1.00  0.00     0.179 C 
ATOM      5  O   UNL     1      18.720   1.251  -9.958  1.00  0.00    -0.337 OA
ENDROOT
BRANCH   1   6
ATOM      6  O   UNL     1      17.702   1.468 -11.985  1.00  0.00    -0.349 OA
ATOM      7  C   UNL     1      16.693   2.047 -12.793  1.00  0.00     0.198 C 
ENDBRANCH   1   6
BRANCH   1   8
ATOM      8  C   UNL     1      16.522   2.215  -9.941  1.00  0.00     0.224 C 
BRANCH   8   9
ATOM      9  O   UNL     1      16.743   2.382  -8.566  1.00  0.00    -0.391 OA
ATOM     10  H   UNL     1      17.598   2.879  -8.481  1.00  0.00     0.210 HD
ENDBRANCH   8   9
ENDBRANCH   1   8
BRANCH   2  11
ATOM     11  O   UNL     1      18.372   4.341  -9.822  1.00  0.00    -0.385 OA
ATOM     12  H   UNL     1      18.890   5.171  -9.985  1.00  0.00     0.211 HD
ENDBRANCH   2  11
BRANCH   3  13
ATOM     13  O   UNL     1      20.972   3.976 -10.531  1.00  0.00    -0.387 OA
ATOM     14  H   UNL     1      21.458   3.654  -9.728  1.00  0.00     0.211 HD
ENDBRANCH   3  13
BRANCH   4  15
ATOM     15  C   UNL     1      20.971   0.644 -10.599  1.00  0.00     0.191 C 
BRANCH  15  16
ATOM     16  O   UNL     1      22.197   1.197 -10.998  1.00  0.00    -0.394 OA
ATOM     17  H   UNL     1      22.272   2.080 -10.549  1.00  0.00     0.210 HD
ENDBRANCH  15  16
ENDBRANCH   4  15
TORSDOF 7
ENDMDL
MODEL 6
REMARK VINA RESULT:    -4.326      1.532      3.834
REMARK INTER + INTRA:          -5.954
REMARK INTER:                  -5.610
REMARK INTRA:                  -0.343
REMARK UNBOUND:                -0.363
REMARK SMILES CO[C@@]1(CO)O[C@@H](CO)[C@H](O)[C@@H]1O
REMARK SMILES IDX 3 1 12 2 10 3 7 4 6 5 2 6 1 7 4 8 5 9 13 11 11 13 8 15 9 16
REMARK H PARENT 5 10 13 12 11 14 9 17
REMARK Flexibility Score: inf
ROOT
ATOM      1  C   UNL     1      15.493   2.152  -8.567  1.00  0.00     0.221 C 
ATOM      2  C   UNL     1      16.923   2.179  -9.162  1.00  0.00     0.207 C 
ATOM      3  C   UNL     1      17.078   0.754  -9.641  1.00  0.00     0.180 C 
ATOM      4  C   UNL     1      16.219  -0.032  -8.643  1.00  0.00     0.179 C 
ATOM      5  O   UNL     1      15.294   0.852  -8.040  1.00  0.00    -0.337 OA
ENDROOT
BRANCH   1   6
ATOM      6  O   UNL     1      14.530   2.316  -9.609  1.00  0.00    -0.349 OA
ATOM      7  C   UNL     1      14.878   3.295 -10.574  1.00  0.00     0.198 C 
ENDBRANCH   1   6
BRANCH   1   8
ATOM      8  C   UNL     1      15.276   3.167  -7.407  1.00  0.00     0.224 C 
BRANCH   8   9
ATOM      9  O   UNL     1      14.501   2.602  -6.384  1.00  0.00    -0.391 OA
ATOM     10  H   UNL     1      13.567   2.587  -6.720  1.00  0.00     0.210 HD
ENDBRANCH   8   9
ENDBRANCH   1   8
BRANCH   2  11
ATOM     11  O   UNL     1      17.905   2.537  -8.214  1.00  0.00    -0.385 OA
ATOM     12  H   UNL     1      17.700   3.446  -7.874  1.00  0.00     0.211 HD
ENDBRANCH   2  11
BRANCH   3  13
ATOM     13  O   UNL     1      18.418   0.323  -9.709  1.00  0.00    -0.387 OA
ATOM     14  H   UNL     1      18.687  -0.037  -8.826  1.00  0.00     0.211 HD
ENDBRANCH   3  13
BRANCH   4  15
ATOM     15  C   UNL     1      15.476  -1.191  -9.320  1.00  0.00     0.191 C 
BRANCH  15  16
ATOM     16  O   UNL     1      14.588  -0.702 -10.290  1.00  0.00    -0.394 OA
ATOM     17  H   UNL     1      14.925  -1.015 -11.170  1.00  0.00     0.210 HD
ENDBRANCH  15  16
ENDBRANCH   4  15
TORSDOF 7
ENDMDL
MODEL 7
REMARK VINA RESULT:    -4.309      1.595      3.209
REMARK INTER + INTRA:          -5.932
REMARK INTER:                  -5.494
REMARK INTRA:                  -0.438
REMARK UNBOUND:                -0.363
REMARK SMILES CO[C@@]1(CO)O[C@@H](CO)[C@H](O)[C@@H]1O
REMARK SMILES IDX 3 1 12 2 10 3 7 4 6 5 2 6 1 7 4 8 5 9 13 11 11 13 8 15 9 16
REMARK H PARENT 5 10 13 12 11 14 9 17
REMARK Flexibility Score: inf
ROOT
ATOM      1  C   UNL     1      16.980   1.692  -9.671  1.00  0.00     0.221 C 
ATOM      2  C   UNL     1      16.454   0.285  -9.291  1.00  0.00     0.207 C 
ATOM      3  C   UNL     1      15.300   0.630  -8.378  1.00  0.00     0.180 C 
ATOM      4  C   UNL     1      15.762   1.942  -7.732  1.00  0.00     0.179 C 
ATOM      5  O   UNL     1      16.758   2.528  -8.548  1.00  0.00    -0.337 OA
ENDROOT
BRANCH   1   6
ATOM      6  O   UNL     1      16.197   2.232 -10.737  1.00  0.00    -0.349 OA
ATOM      7  C   UNL     1      16.504   3.578 -11.059  1.00  0.00     0.198 C 
ENDBRANCH   1   6
BRANCH   1   8
ATOM      8  C   UNL     1      18.503   1.728  -9.988  1.00  0.00     0.224 C 
BRANCH   8   9
ATOM      9  O   UNL     1      19.262   1.752  -8.809  1.00  0.00    -0.391 OA
ATOM     10  H   UNL     1      19.973   1.069  -8.923  1.00  0.00     0.210 HD
ENDBRANCH   8   9
ENDBRANCH   1   8
BRANCH   2  11
ATOM     11  O   UNL     1      17.427  -0.510  -8.650  1.00  0.00    -0.385 OA
ATOM     12  H   UNL     1      18.290  -0.021  -8.657  1.00  0.00     0.211 HD
ENDBRANCH   2  11
BRANCH   3  13
ATOM     13  O   UNL     1      14.987  -0.386  -7.454  1.00  0.00    -0.387 OA
ATOM     14  H   UNL     1      15.725  -1.047  -7.438  1.00  0.00     0.211 HD
ENDBRANCH   3  13
BRANCH   4  15
ATOM     15  C   UNL     1      14.598   2.922  -7.536  1.00  0.00     0.191 C 
BRANCH  15  16
ATOM     16  O   UNL     1      14.279   3.036  -6.175  1.00  0.00    -0.394 OA
ATOM     17  H   UNL     1      14.702   2.264  -5.717  1.00  0.00     0.210 HD
ENDBRANCH  15  16
ENDBRANCH   4  15
TORSDOF 7
ENDMDL
MODEL 8
REMARK VINA RESULT:    -4.246      1.573      3.374
REMARK INTER + INTRA:          -5.850
REMARK INTER:                  -5.664
REMARK INTRA:                  -0.186
REMARK UNBOUND:                -0.363
REMARK SMILES CO[C@@]1(CO)O[C@@H](CO)[C@H](O)[C@@H]1O
REMARK SMILES IDX 3 1 12 2 10 3 7 4 6 5 2 6 1 7 4 8 5 9 13 11 11 13 8 15 9 16
REMARK H PARENT 5 10 13 12 11 14 9 17
REMARK Flexibility Score: inf
ROOT
ATOM      1  C   UNL     1      14.937   0.733 -10.119  1.00  0.00     0.221 C 
ATOM      2  C   UNL     1      16.381   1.294 -10.079  1.00  0.00     0.207 C 
ATOM      3  C   UNL     1      16.434   1.892  -8.692  1.00  0.00     0.180 C 
ATOM      4  C   UNL     1      14.982   2.326  -8.456  1.00  0.00     0.179 C 
ATOM      5  O   UNL     1      14.140   1.599  -9.330  1.00  0.00    -0.337 OA
ENDROOT
BRANCH   1   6
ATOM      6  O   UNL     1      14.894  -0.545  -9.482  1.00  0.00    -0.349 OA
ATOM      7  C   UNL     1      15.696  -1.533 -10.105  1.00  0.00     0.198 C 
ENDBRANCH   1   6
BRANCH   1   8
ATOM      8  C   UNL     1      14.317   0.695 -11.546  1.00  0.00     0.224 C 
BRANCH   8   9
ATOM      9  O   UNL     1      12.938   0.447 -11.489  1.00  0.00    -0.391 OA
ATOM     10  H   UNL     1      12.838  -0.511 -11.250  1.00  0.00     0.210 HD
ENDBRANCH   8   9
ENDBRANCH   1   8
BRANCH   2  11
ATOM     11  O   UNL     1      16.625   2.250 -11.086  1.00  0.00    -0.385 OA
ATOM     12  H   UNL     1      16.980   3.074 -10.662  1.00  0.00     0.211 HD
ENDBRANCH   2  11
BRANCH   3  13
ATOM     13  O   UNL     1      17.373   2.935  -8.562  1.00  0.00    -0.387 OA
ATOM     14  H   UNL     1      17.427   3.205  -7.610  1.00  0.00     0.211 HD
ENDBRANCH   3  13
BRANCH   4  15
ATOM     15  C   UNL     1      14.550   2.102  -7.001  1.00  0.00     0.191 C 
BRANCH  15  16
ATOM     16  O   UNL     1      14.275   3.328  -6.378  1.00  0.00    -0.394 OA
ATOM     17  H   UNL     1      14.390   4.032  -7.070  1.00  0.00     0.210 HD
ENDBRANCH  15  16
ENDBRANCH   4  15
TORSDOF 7
ENDMDL
MODEL 9
REMARK VINA RESULT:    -4.182      8.879     10.953
REMARK INTER + INTRA:          -5.768
REMARK INTER:                  -5.155
REMARK INTRA:                  -0.613
REMARK UNBOUND:                -0.363
REMARK SMILES CO[C@@]1(CO)O[C@@H](CO)[C@H](O)[C@@H]1O
REMARK SMILES IDX 3 1 12 2 10 3 7 4 6 5 2 6 1 7 4 8 5 9 13 11 11 13 8 15 9 16
REMARK H PARENT 5 10 13 12 11 14 9 17
REMARK Flexibility Score: inf
ROOT
ATOM      1  C   UNL     1      20.001   0.518 -16.821  1.00  0.00     0.221 C 
ATOM      2  C   UNL     1      20.535  -0.649 -17.689  1.00  0.00     0.207 C 
ATOM      3  C   UNL     1      20.958   0.078 -18.945  1.00  0.00     0.180 C 
ATOM      4  C   UNL     1      19.971   1.250 -19.005  1.00  0.00     0.179 C 
ATOM      5  O   UNL     1      19.438   1.466 -17.712  1.00  0.00    -0.337 OA
ENDROOT
BRANCH   1   6
ATOM      6  O   UNL     1      21.088   1.176 -16.168  1.00  0.00    -0.349 OA
ATOM      7  C   UNL     1      20.769   2.457 -15.654  1.00  0.00     0.198 C 
ENDBRANCH   1   6
BRANCH   1   8
ATOM      8  C   UNL     1      18.887   0.098 -15.820  1.00  0.00     0.224 C 
BRANCH   8   9
ATOM      9  O   UNL     1      17.636   0.044 -16.452  1.00  0.00    -0.391 OA
ATOM     10  H   UNL     1      17.789   0.317 -17.394  1.00  0.00     0.210 HD
ENDBRANCH   8   9
ENDBRANCH   1   8
BRANCH   2  11
ATOM     11  O   UNL     1      19.559  -1.635 -17.941  1.00  0.00    -0.385 OA
ATOM     12  H   UNL     1      19.723  -2.020 -18.841  1.00  0.00     0.211 HD
ENDBRANCH   2  11
BRANCH   3  13
ATOM     13  O   UNL     1      20.954  -0.735 -20.096  1.00  0.00    -0.387 OA
ATOM     14  H   UNL     1      21.175  -1.666 -19.835  1.00  0.00     0.211 HD
ENDBRANCH   3  13
BRANCH   4  15
ATOM     15  C   UNL     1      20.639   2.531 -19.520  1.00  0.00     0.191 C 
BRANCH  15  16
ATOM     16  O   UNL     1      21.377   2.264 -20.683  1.00  0.00    -0.394 OA
ATOM     17  H   UNL     1      21.953   3.057 -20.844  1.00  0.00     0.210 HD
ENDBRANCH  15  16
ENDBRANCH   4  15
TORSDOF 7
ENDMDL
