MODEL 1
REMARK VINA RESULT:     0.671      0.000      0.000
REMARK INTER + INTRA:           0.611
REMARK INTER:                   0.730
REMARK INTRA:                  -0.118
REMARK UNBOUND:                -0.118
REMARK SMILES Cc1ccc(C(C)C)cc1O
REMARK SMILES IDX 1 1 2 2 10 3 9 4 5 5 4 6 3 7 11 8 6 10 7 11 8 12
REMARK H PARENT 11 9
REMARK Flexibility Score: inf
ROOT
ATOM      1  C   UNL     1       0.624   6.604  -7.221  1.00  0.00     0.048 C 
ATOM      2  C   UNL     1       0.152   6.201  -8.591  1.00  0.00    -0.009 A 
ATOM      3  C   UNL     1      -1.198   6.355  -8.975  1.00  0.00     0.118 A 
ATOM      4  C   UNL     1      -1.605   5.970 -10.258  1.00  0.00     0.050 A 
ATOM      5  C   UNL     1      -0.686   5.430 -11.176  1.00  0.00    -0.042 A 
ATOM      6  C   UNL     1       0.654   5.281 -10.788  1.00  0.00     0.004 A 
ATOM      7  C   UNL     1       1.068   5.662  -9.509  1.00  0.00     0.007 A 
ENDROOT
BRANCH   3   8
ATOM      8  O   UNL     1      -2.156   6.884  -8.108  1.00  0.00    -0.508 OA
ATOM      9  H   UNL     1      -2.145   6.724  -7.109  1.00  0.00     0.293 HD
ENDBRANCH   3   8
BRANCH   5  10
ATOM     10  C   UNL     1      -1.124   5.012 -12.567  1.00  0.00     0.013 C 
ATOM     11  C   UNL     1      -0.284   5.710 -13.645  1.00  0.00     0.012 C 
ATOM     12  C   UNL     1      -2.619   5.273 -12.779  1.00  0.00     0.012 C 
ENDBRANCH   5  10
TORSDOF 2
ENDMDL
MODEL 2
REMARK VINA RESULT:     1.999      1.453      2.061
REMARK INTER + INTRA:           2.055
REMARK INTER:                   2.183
REMARK INTRA:                  -0.127
REMARK UNBOUND:                -0.118
REMARK SMILES Cc1ccc(C(C)C)cc1O
REMARK SMILES IDX 1 1 2 2 10 3 9 4 5 5 4 6 3 7 11 8 6 10 7 11 8 12
REMARK H PARENT 11 9
REMARK Flexibility Score: inf
ROOT
ATOM      1  C   UNL     1       0.390   6.685  -7.351  1.00  0.00     0.048 C 
ATOM      2  C   UNL     1      -0.021   6.233  -8.725  1.00  0.00    -0.009 A 
ATOM      3  C   UNL     1       0.910   5.647  -9.612  1.00  0.00     0.118 A 
ATOM      4  C   UNL     1       0.496   5.236 -10.884  1.00  0.00     0.050 A 
ATOM      5  C   UNL     1      -0.839   5.398 -11.297  1.00  0.00    -0.042 A 
ATOM      6  C   UNL     1      -1.758   5.980 -10.410  1.00  0.00     0.004 A 
ATOM      7  C   UNL     1      -1.353   6.393  -9.139  1.00  0.00     0.007 A 
ENDROOT
BRANCH   3   8
ATOM      8  O   UNL     1       2.248   5.460  -9.260  1.00  0.00    -0.508 OA
ATOM      9  H   UNL     1       2.722   4.569  -9.342  1.00  0.00     0.293 HD
ENDBRANCH   3   8
BRANCH   5  10
ATOM     10  C   UNL     1      -1.292   4.954 -12.675  1.00  0.00     0.013 C 
ATOM     11  C   UNL     1      -0.450   5.613 -13.774  1.00  0.00     0.012 C 
ATOM     12  C   UNL     1      -2.785   5.232 -12.883  1.00  0.00     0.012 C 
ENDBRANCH   5  10
TORSDOF 2
ENDMDL
MODEL 3
REMARK VINA RESULT:     2.841      1.603      4.268
REMARK INTER + INTRA:           2.971
REMARK INTER:                   3.099
REMARK INTRA:                  -0.128
REMARK UNBOUND:                -0.118
REMARK SMILES Cc1ccc(C(C)C)cc1O
REMARK SMILES IDX 1 1 2 2 10 3 9 4 5 5 4 6 3 7 11 8 6 10 7 11 8 12
REMARK H PARENT 11 9
REMARK Flexibility Score: inf
ROOT
ATOM      1  C   UNL     1      -0.412   5.409 -13.718  1.00  0.00     0.048 C 
ATOM      2  C   UNL     1      -0.465   5.668 -12.237  1.00  0.00    -0.009 A 
ATOM      3  C   UNL     1      -1.694   5.871 -11.572  1.00  0.00     0.118 A 
ATOM      4  C   UNL     1      -1.709   6.109 -10.193  1.00  0.00     0.050 A 
ATOM      5  C   UNL     1      -0.513   6.150  -9.455  1.00  0.00    -0.042 A 
ATOM      6  C   UNL     1       0.705   5.946 -10.121  1.00  0.00     0.004 A 
ATOM      7  C   UNL     1       0.729   5.709 -11.498  1.00  0.00     0.007 A 
ENDROOT
BRANCH   3   8
ATOM      8  O   UNL     1      -2.914   5.843 -12.252  1.00  0.00    -0.508 OA
ATOM      9  H   UNL     1      -3.104   5.210 -13.019  1.00  0.00     0.293 HD
ENDBRANCH   3   8
BRANCH   5  10
ATOM     10  C   UNL     1      -0.525   6.408  -7.959  1.00  0.00     0.013 C 
ATOM     11  C   UNL     1      -1.123   7.783  -7.638  1.00  0.00     0.012 C 
ATOM     12  C   UNL     1       0.880   6.265  -7.362  1.00  0.00     0.012 C 
ENDBRANCH   5  10
TORSDOF 2
ENDMDL
MODEL 4
REMARK VINA RESULT:     3.262     10.031     11.919
REMARK INTER + INTRA:           3.430
REMARK INTER:                   3.535
REMARK INTRA:                  -0.105
REMARK UNBOUND:                -0.118
REMARK SMILES Cc1ccc(C(C)C)cc1O
REMARK SMILES IDX 1 1 2 2 10 3 9 4 5 5 4 6 3 7 11 8 6 10 7 11 8 12
REMARK H PARENT 11 9
REMARK Flexibility Score: inf
ROOT
ATOM      1  C   UNL     1      13.270   7.493  -8.713  1.00  0.00     0.048 C 
ATOM      2  C   UNL     1      11.951   7.636  -8.004  1.00  0.00    -0.009 A 
ATOM      3  C   UNL     1      10.808   8.123  -8.675  1.00  0.00     0.118 A 
ATOM      4  C   UNL     1       9.595   8.245  -7.987  1.00  0.00     0.050 A 
ATOM      5  C   UNL     1       9.496   7.888  -6.630  1.00  0.00    -0.042 A 
ATOM      6  C   UNL     1      10.636   7.404  -5.970  1.00  0.00     0.004 A 
ATOM      7  C   UNL     1      11.850   7.280  -6.650  1.00  0.00     0.007 A 
ENDROOT
BRANCH   3   8
ATOM      8  O   UNL     1      10.844   8.494 -10.021  1.00  0.00    -0.508 OA
ATOM      9  H   UNL     1      10.761   9.454 -10.332  1.00  0.00     0.293 HD
ENDBRANCH   3   8
BRANCH   5  10
ATOM     10  C   UNL     1       8.184   8.018  -5.880  1.00  0.00     0.013 C 
ATOM     11  C   UNL     1       7.410   6.694  -5.885  1.00  0.00     0.012 C 
ATOM     12  C   UNL     1       7.331   9.157  -6.450  1.00  0.00     0.012 C 
ENDBRANCH   5  10
TORSDOF 2
ENDMDL
MODEL 5
REMARK VINA RESULT:     3.290      2.097      4.563
REMARK INTER + INTRA:           3.460
REMARK INTER:                   3.588
REMARK INTRA:                  -0.127
REMARK UNBOUND:                -0.118
REMARK SMILES Cc1ccc(C(C)C)cc1O
REMARK SMILES IDX 1 1 2 2 10 3 9 4 5 5 4 6 3 7 11 8 6 10 7 11 8 12
REMARK H PARENT 11 9
REMARK Flexibility Score: inf
ROOT
ATOM      1  C   UNL     1      -3.259   5.510 -13.311  1.00  0.00     0.048 C 
ATOM      2  C   UNL     1      -2.134   5.611 -12.318  1.00  0.00    -0.009 A 
ATOM      3  C   UNL     1      -0.787   5.470 -12.720  1.00  0.00     0.118 A 
ATOM      4  C   UNL     1       0.237   5.570 -11.771  1.00  0.00     0.050 A 
ATOM      5  C   UNL     1      -0.055   5.809 -10.416  1.00  0.00    -0.042 A 
ATOM      6  C   UNL     1      -1.395   5.949 -10.024  1.00  0.00     0.004 A 
ATOM      7  C   UNL     1      -2.423   5.850 -10.965  1.00  0.00     0.007 A 
ENDROOT
BRANCH   3   8
ATOM      8  O   UNL     1      -0.435   5.231 -14.050  1.00  0.00    -0.508 OA
ATOM      9  H   UNL     1       0.384   5.637 -14.486  1.00  0.00     0.293 HD
ENDBRANCH   3   8
BRANCH   5  10
ATOM     10  C   UNL     1       1.052   5.918  -9.384  1.00  0.00     0.013 C 
ATOM     11  C   UNL     1       1.877   4.626  -9.318  1.00  0.00     0.012 C 
ATOM     12  C   UNL     1       0.490   6.284  -8.006  1.00  0.00     0.012 C 
ENDBRANCH   5  10
TORSDOF 2
ENDMDL
