MODEL 1
REMARK VINA RESULT:    -5.051      0.000      0.000
REMARK INTER + INTRA:          -5.528
REMARK INTER:                  -5.494
REMARK INTRA:                  -0.034
REMARK UNBOUND:                -0.034
REMARK SMILES O=C([O-])c1ccc(O)cc1
REMARK SMILES IDX 7 1 6 2 9 3 5 4 10 5 4 6 8 7 2 9 1 10 3 11
REMARK H PARENT 8 8
REMARK Flexibility Score: inf
ROOT
ATOM      1  C   UNL     1     100.893  23.734 199.784  1.00  0.00     0.115 A 
ATOM      2  C   UNL     1     101.476  23.747 198.515  1.00  0.00     0.047 A 
ATOM      3  C   UNL     1     101.690  23.497 200.912  1.00  0.00     0.047 A 
ATOM      4  C   UNL     1     102.849  23.525 198.367  1.00  0.00     0.014 A 
ATOM      5  C   UNL     1     103.063  23.273 200.769  1.00  0.00     0.014 A 
ATOM      6  C   UNL     1     103.657  23.285 199.494  1.00  0.00    -0.003 A 
ENDROOT
BRANCH   1   7
ATOM      7  O   UNL     1      99.524  23.958 199.917  1.00  0.00    -0.508 OA
ATOM      8  H   UNL     1      99.161  24.849 200.235  1.00  0.00     0.293 HD
ENDBRANCH   1   7
BRANCH   6   9
ATOM      9  C   UNL     1     105.110  23.048 199.344  1.00  0.00     0.071 C 
ATOM     10  O   UNL     1     105.904  23.326 200.279  1.00  0.00    -0.545 OA
ATOM     11  O   UNL     1     105.617  22.513 198.165  1.00  0.00    -0.545 OA
ENDBRANCH   6   9
TORSDOF 2
ENDMDL
MODEL 2
REMARK VINA RESULT:    -5.051      0.029      1.532
REMARK INTER + INTRA:          -5.528
REMARK INTER:                  -5.494
REMARK INTRA:                  -0.034
REMARK UNBOUND:                -0.034
REMARK SMILES O=C([O-])c1ccc(O)cc1
REMARK SMILES IDX 7 1 6 2 9 3 5 4 10 5 4 6 8 7 2 9 1 10 3 11
REMARK H PARENT 8 8
REMARK Flexibility Score: inf
ROOT
ATOM      1  C   UNL     1     100.884  23.732 199.791  1.00  0.00     0.115 A 
ATOM      2  C   UNL     1     101.686  23.531 200.917  1.00  0.00     0.047 A 
ATOM      3  C   UNL     1     101.460  23.710 198.514  1.00  0.00     0.047 A 
ATOM      4  C   UNL     1     103.060  23.309 200.773  1.00  0.00     0.014 A 
ATOM      5  C   UNL     1     102.833  23.489 198.366  1.00  0.00     0.014 A 
ATOM      6  C   UNL     1     103.648  23.286 199.494  1.00  0.00    -0.003 A 
ENDROOT
BRANCH   1   7
ATOM      7  O   UNL     1      99.517  23.952 199.949  1.00  0.00    -0.508 OA
ATOM      8  H   UNL     1      98.829  23.333 199.535  1.00  0.00     0.293 HD
ENDBRANCH   1   7
BRANCH   6   9
ATOM      9  C   UNL     1     105.100  23.052 199.336  1.00  0.00     0.071 C 
ATOM     10  O   UNL     1     105.900  23.343 200.263  1.00  0.00    -0.545 OA
ATOM     11  O   UNL     1     105.600  22.505 198.160  1.00  0.00    -0.545 OA
ENDBRANCH   6   9
TORSDOF 2
ENDMDL
MODEL 3
REMARK VINA RESULT:    -4.994      3.761      5.029
REMARK INTER + INTRA:          -5.466
REMARK INTER:                  -5.433
REMARK INTRA:                  -0.034
REMARK UNBOUND:                -0.034
REMARK SMILES O=C([O-])c1ccc(O)cc1
REMARK SMILES IDX 7 1 6 2 9 3 5 4 10 5 4 6 8 7 2 9 1 10 3 11
REMARK H PARENT 8 8
REMARK Flexibility Score: inf
ROOT
ATOM      1  C   UNL     1     105.358  26.204 196.138  1.00  0.00     0.115 A 
ATOM      2  C   UNL     1     105.306  25.700 197.440  1.00  0.00     0.047 A 
ATOM      3  C   UNL     1     105.122  25.351 195.053  1.00  0.00     0.047 A 
ATOM      4  C   UNL     1     105.020  24.348 197.661  1.00  0.00     0.014 A 
ATOM      5  C   UNL     1     104.837  23.999 195.269  1.00  0.00     0.014 A 
ATOM      6  C   UNL     1     104.783  23.483 196.577  1.00  0.00    -0.003 A 
ENDROOT
BRANCH   1   7
ATOM      7  O   UNL     1     105.644  27.552 195.933  1.00  0.00    -0.508 OA
ATOM      8  H   UNL     1     105.476  28.246 196.653  1.00  0.00     0.293 HD
ENDBRANCH   1   7
BRANCH   6   9
ATOM      9  C   UNL     1     104.480  22.053 196.805  1.00  0.00     0.071 C 
ATOM     10  O   UNL     1     104.930  21.457 197.818  1.00  0.00    -0.545 OA
ATOM     11  O   UNL     1     103.693  21.348 195.902  1.00  0.00    -0.545 OA
ENDBRANCH   6   9
TORSDOF 2
ENDMDL
MODEL 4
REMARK VINA RESULT:    -4.981      3.836      4.906
REMARK INTER + INTRA:          -5.452
REMARK INTER:                  -5.421
REMARK INTRA:                  -0.031
REMARK UNBOUND:                -0.034
REMARK SMILES O=C([O-])c1ccc(O)cc1
REMARK SMILES IDX 7 1 6 2 9 3 5 4 10 5 4 6 8 7 2 9 1 10 3 11
REMARK H PARENT 8 8
REMARK Flexibility Score: inf
ROOT
ATOM      1  C   UNL     1     105.403  26.174 196.137  1.00  0.00     0.115 A 
ATOM      2  C   UNL     1     105.184  25.344 195.035  1.00  0.00     0.047 A 
ATOM      3  C   UNL     1     105.391  25.631 197.429  1.00  0.00     0.047 A 
ATOM      4  C   UNL     1     104.954  23.976 195.217  1.00  0.00     0.014 A 
ATOM      5  C   UNL     1     105.160  24.264 197.616  1.00  0.00     0.014 A 
ATOM      6  C   UNL     1     104.939  23.422 196.511  1.00  0.00    -0.003 A 
ENDROOT
BRANCH   1   7
ATOM      7  O   UNL     1     105.632  27.534 195.941  1.00  0.00    -0.508 OA
ATOM      8  H   UNL     1     105.743  28.171 196.722  1.00  0.00     0.293 HD
ENDBRANCH   1   7
BRANCH   6   9
ATOM      9  C   UNL     1     104.696  21.976 196.709  1.00  0.00     0.071 C 
ATOM     10  O   UNL     1     103.750  21.398 196.113  1.00  0.00    -0.545 OA
ATOM     11  O   UNL     1     105.510  21.236 197.558  1.00  0.00    -0.545 OA
ENDBRANCH   6   9
TORSDOF 2
ENDMDL
MODEL 5
REMARK VINA RESULT:    -4.936      2.347      3.040
REMARK INTER + INTRA:          -5.403
REMARK INTER:                  -5.374
REMARK INTRA:                  -0.029
REMARK UNBOUND:                -0.034
REMARK SMILES O=C([O-])c1ccc(O)cc1
REMARK SMILES IDX 7 1 6 2 9 3 5 4 10 5 4 6 8 7 2 9 1 10 3 11
REMARK H PARENT 8 8
REMARK Flexibility Score: inf
ROOT
ATOM      1  C   UNL     1     103.005  23.046 200.069  1.00  0.00     0.115 A 
ATOM      2  C   UNL     1     104.395  23.176 200.023  1.00  0.00     0.047 A 
ATOM      3  C   UNL     1     102.222  23.591 199.043  1.00  0.00     0.047 A 
ATOM      4  C   UNL     1     105.005  23.848 198.958  1.00  0.00     0.014 A 
ATOM      5  C   UNL     1     102.827  24.264 197.977  1.00  0.00     0.014 A 
ATOM      6  C   UNL     1     104.226  24.400 197.923  1.00  0.00    -0.003 A 
ENDROOT
BRANCH   1   7
ATOM      7  O   UNL     1     102.411  22.373 201.135  1.00  0.00    -0.508 OA
ATOM      8  H   UNL     1     101.634  21.739 200.994  1.00  0.00     0.293 HD
ENDBRANCH   1   7
BRANCH   6   9
ATOM      9  C   UNL     1     104.866  25.112 196.795  1.00  0.00     0.071 C 
ATOM     10  O   UNL     1     105.611  26.105 197.004  1.00  0.00    -0.545 OA
ATOM     11  O   UNL     1     104.653  24.693 195.487  1.00  0.00    -0.545 OA
ENDBRANCH   6   9
TORSDOF 2
ENDMDL
MODEL 6
REMARK VINA RESULT:    -4.924     13.651     14.923
REMARK INTER + INTRA:          -5.390
REMARK INTER:                  -5.362
REMARK INTRA:                  -0.028
REMARK UNBOUND:                -0.034
REMARK SMILES O=C([O-])c1ccc(O)cc1
REMARK SMILES IDX 7 1 6 2 9 3 5 4 10 5 4 6 8 7 2 9 1 10 3 11
REMARK H PARENT 8 8
REMARK Flexibility Score: inf
ROOT
ATOM      1  C   UNL     1     100.929  30.718 189.697  1.00  0.00     0.115 A 
ATOM      2  C   UNL     1     101.606  31.158 188.557  1.00  0.00     0.047 A 
ATOM      3  C   UNL     1      99.558  30.973 189.832  1.00  0.00     0.047 A 
ATOM      4  C   UNL     1     100.921  31.852 187.553  1.00  0.00     0.014 A 
ATOM      5  C   UNL     1      98.869  31.667 188.832  1.00  0.00     0.014 A 
ATOM      6  C   UNL     1      99.544  32.114 187.682  1.00  0.00    -0.003 A 
ENDROOT
BRANCH   1   7
ATOM      7  O   UNL     1     101.624  30.028 190.687  1.00  0.00    -0.508 OA
ATOM      8  H   UNL     1     102.507  29.569 190.494  1.00  0.00     0.293 HD
ENDBRANCH   1   7
BRANCH   6   9
ATOM      9  C   UNL     1      98.814  32.847 186.624  1.00  0.00     0.071 C 
ATOM     10  O   UNL     1      99.079  34.054 186.382  1.00  0.00    -0.545 OA
ATOM     11  O   UNL     1      97.825  32.212 185.882  1.00  0.00    -0.545 OA
ENDBRANCH   6   9
TORSDOF 2
ENDMDL
MODEL 7
REMARK VINA RESULT:    -4.858      4.668      6.388
REMARK INTER + INTRA:          -5.318
REMARK INTER:                  -5.290
REMARK INTRA:                  -0.027
REMARK UNBOUND:                -0.034
REMARK SMILES O=C([O-])c1ccc(O)cc1
REMARK SMILES IDX 7 1 6 2 9 3 5 4 10 5 4 6 8 7 2 9 1 10 3 11
REMARK H PARENT 8 8
REMARK Flexibility Score: inf
ROOT
ATOM      1  C   UNL     1     105.568  21.266 193.482  1.00  0.00     0.115 A 
ATOM      2  C   UNL     1     104.555  22.124 193.047  1.00  0.00     0.047 A 
ATOM      3  C   UNL     1     106.173  21.482 194.728  1.00  0.00     0.047 A 
ATOM      4  C   UNL     1     104.143  23.193 193.850  1.00  0.00     0.014 A 
ATOM      5  C   UNL     1     105.765  22.550 195.533  1.00  0.00     0.014 A 
ATOM      6  C   UNL     1     104.745  23.417 195.102  1.00  0.00    -0.003 A 
ENDROOT
BRANCH   1   7
ATOM      7  O   UNL     1     105.968  20.205 192.673  1.00  0.00    -0.508 OA
ATOM      8  H   UNL     1     106.256  20.350 191.712  1.00  0.00     0.293 HD
ENDBRANCH   1   7
BRANCH   6   9
ATOM      9  C   UNL     1     104.314  24.547 195.954  1.00  0.00     0.071 C 
ATOM     10  O   UNL     1     103.581  24.349 196.958  1.00  0.00    -0.545 OA
ATOM     11  O   UNL     1     104.714  25.845 195.658  1.00  0.00    -0.545 OA
ENDBRANCH   6   9
TORSDOF 2
ENDMDL
MODEL 8
REMARK VINA RESULT:    -4.842      4.970      6.113
REMARK INTER + INTRA:          -5.301
REMARK INTER:                  -5.265
REMARK INTRA:                  -0.036
REMARK UNBOUND:                -0.034
REMARK SMILES O=C([O-])c1ccc(O)cc1
REMARK SMILES IDX 7 1 6 2 9 3 5 4 10 5 4 6 8 7 2 9 1 10 3 11
REMARK H PARENT 8 8
REMARK Flexibility Score: inf
ROOT
ATOM      1  C   UNL     1     102.917  22.673 194.726  1.00  0.00     0.115 A 
ATOM      2  C   UNL     1     103.728  22.141 195.731  1.00  0.00     0.047 A 
ATOM      3  C   UNL     1     103.369  22.680 193.400  1.00  0.00     0.047 A 
ATOM      4  C   UNL     1     104.987  21.618 195.418  1.00  0.00     0.014 A 
ATOM      5  C   UNL     1     104.627  22.159 193.082  1.00  0.00     0.014 A 
ATOM      6  C   UNL     1     105.450  21.622 194.088  1.00  0.00    -0.003 A 
ENDROOT
BRANCH   1   7
ATOM      7  O   UNL     1     101.665  23.190 195.052  1.00  0.00    -0.508 OA
ATOM      8  H   UNL     1     101.463  23.543 195.980  1.00  0.00     0.293 HD
ENDBRANCH   1   7
BRANCH   6   9
ATOM      9  C   UNL     1     106.781  21.070 193.751  1.00  0.00     0.071 C 
ATOM     10  O   UNL     1     107.193  21.073 192.562  1.00  0.00    -0.545 OA
ATOM     11  O   UNL     1     107.595  20.541 194.746  1.00  0.00    -0.545 OA
ENDBRANCH   6   9
TORSDOF 2
ENDMDL
MODEL 9
REMARK VINA RESULT:    -4.757      6.561      9.304
REMARK INTER + INTRA:          -5.209
REMARK INTER:                  -5.173
REMARK INTRA:                  -0.035
REMARK UNBOUND:                -0.034
REMARK SMILES O=C([O-])c1ccc(O)cc1
REMARK SMILES IDX 7 1 6 2 9 3 5 4 10 5 4 6 8 7 2 9 1 10 3 11
REMARK H PARENT 8 8
REMARK Flexibility Score: inf
ROOT
ATOM      1  C   UNL     1     112.555  21.298 196.386  1.00  0.00     0.115 A 
ATOM      2  C   UNL     1     111.816  20.531 195.482  1.00  0.00     0.047 A 
ATOM      3  C   UNL     1     111.894  22.007 197.398  1.00  0.00     0.047 A 
ATOM      4  C   UNL     1     110.422  20.469 195.584  1.00  0.00     0.014 A 
ATOM      5  C   UNL     1     110.500  21.949 197.503  1.00  0.00     0.014 A 
ATOM      6  C   UNL     1     109.750  21.179 196.596  1.00  0.00    -0.003 A 
ENDROOT
BRANCH   1   7
ATOM      7  O   UNL     1     113.942  21.349 196.273  1.00  0.00    -0.508 OA
ATOM      8  H   UNL     1     114.485  20.529 196.029  1.00  0.00     0.293 HD
ENDBRANCH   1   7
BRANCH   6   9
ATOM      9  C   UNL     1     108.276  21.118 196.708  1.00  0.00     0.071 C 
ATOM     10  O   UNL     1     107.696  21.514 197.753  1.00  0.00    -0.545 OA
ATOM     11  O   UNL     1     107.510  20.621 195.659  1.00  0.00    -0.545 OA
ENDBRANCH   6   9
TORSDOF 2
ENDMDL
