MODEL 1
REMARK VINA RESULT:    -3.562      0.000      0.000
REMARK INTER + INTRA:          -9.020
REMARK INTER:                  -6.686
REMARK INTRA:                  -2.334
REMARK UNBOUND:                -2.334
REMARK SMILES O=C([O-])CCCCCCCCCCCCCCC(=O)[O-]
REMARK SMILES IDX 10 1 9 2 8 3 7 4 6 5 5 6 4 7 2 8 1 9 3 10 11 11 12 12 13 13
REMARK SMILES IDX 14 14 15 15 16 16 17 17 18 18 19 19 20 20
REMARK H PARENT
REMARK Flexibility Score: inf
ROOT
ATOM      1  C   UNL     1      -5.000  -2.757  34.313  1.00  0.00     0.000 C 
ENDROOT
BRANCH   1   2
ATOM      2  C   UNL     1      -3.528  -2.865  33.880  1.00  0.00     0.000 C 
BRANCH   2   3
ATOM      3  C   UNL     1      -2.788  -1.514  33.925  1.00  0.00     0.000 C 
BRANCH   3   4
ATOM      4  C   UNL     1      -1.591  -1.451  34.891  1.00  0.00     0.000 C 
BRANCH   4   5
ATOM      5  C   UNL     1      -1.467  -2.703  35.777  1.00  0.00     0.000 C 
BRANCH   5   6
ATOM      6  C   UNL     1      -0.127  -2.759  36.530  1.00  0.00     0.006 C 
BRANCH   6   7
ATOM      7  C   UNL     1       0.816  -1.611  36.147  1.00  0.00     0.053 C 
BRANCH   7   8
ATOM      8  C   UNL     1       2.089  -2.150  35.574  1.00  0.00     0.041 C 
ATOM      9  O   UNL     1       3.192  -1.625  35.877  1.00  0.00    -0.550 OA
ATOM     10  O   UNL     1       2.061  -3.263  34.745  1.00  0.00    -0.550 OA
ENDBRANCH   7   8
ENDBRANCH   6   7
ENDBRANCH   5   6
ENDBRANCH   4   5
ENDBRANCH   3   4
ENDBRANCH   2   3
ENDBRANCH   1   2
BRANCH   1  11
ATOM     11  C   UNL     1      -5.261  -3.397  35.686  1.00  0.00     0.000 C 
BRANCH  11  12
ATOM     12  C   UNL     1      -5.771  -2.383  36.727  1.00  0.00     0.000 C 
BRANCH  12  13
ATOM     13  C   UNL     1      -4.651  -1.919  37.683  1.00  0.00     0.000 C 
BRANCH  13  14
ATOM     14  C   UNL     1      -4.211  -0.462  37.457  1.00  0.00     0.000 C 
BRANCH  14  15
ATOM     15  C   UNL     1      -5.288   0.386  36.760  1.00  0.00     0.000 C 
BRANCH  15  16
ATOM     16  C   UNL     1      -4.843   0.891  35.378  1.00  0.00     0.006 C 
BRANCH  16  17
ATOM     17  C   UNL     1      -5.943   0.760  34.317  1.00  0.00     0.053 C 
BRANCH  17  18
ATOM     18  C   UNL     1      -5.419   1.157  32.973  1.00  0.00     0.041 C 
ATOM     19  O   UNL     1      -6.146   1.042  31.951  1.00  0.00    -0.550 OA
ATOM     20  O   UNL     1      -4.109   1.601  32.839  1.00  0.00    -0.550 OA
ENDBRANCH  17  18
ENDBRANCH  16  17
ENDBRANCH  15  16
ENDBRANCH  14  15
ENDBRANCH  13  14
ENDBRANCH  12  13
ENDBRANCH  11  12
ENDBRANCH   1  11
TORSDOF 15
ENDMDL
MODEL 2
REMARK VINA RESULT:    -3.551      1.450      2.733
REMARK INTER + INTRA:          -9.000
REMARK INTER:                  -6.470
REMARK INTRA:                  -2.530
REMARK UNBOUND:                -2.334
REMARK SMILES O=C([O-])CCCCCCCCCCCCCCC(=O)[O-]
REMARK SMILES IDX 10 1 9 2 8 3 7 4 6 5 5 6 4 7 2 8 1 9 3 10 11 11 12 12 13 13
REMARK SMILES IDX 14 14 15 15 16 16 17 17 18 18 19 19 20 20
REMARK H PARENT
REMARK Flexibility Score: inf
ROOT
ATOM      1  C   UNL     1      -4.973  -2.405  37.766  1.00  0.00     0.000 C 
ENDROOT
BRANCH   1   2
ATOM      2  C   UNL     1      -5.755  -2.531  36.447  1.00  0.00     0.000 C 
BRANCH   2   3
ATOM      3  C   UNL     1      -5.010  -3.360  35.385  1.00  0.00     0.000 C 
BRANCH   3   4
ATOM      4  C   UNL     1      -3.482  -3.438  35.562  1.00  0.00     0.000 C 
BRANCH   4   5
ATOM      5  C   UNL     1      -2.720  -2.469  34.642  1.00  0.00     0.000 C 
BRANCH   5   6
ATOM      6  C   UNL     1      -2.234  -1.213  35.386  1.00  0.00     0.006 C 
BRANCH   6   7
ATOM      7  C   UNL     1      -1.559  -1.541  36.723  1.00  0.00     0.053 C 
BRANCH   7   8
ATOM      8  C   UNL     1      -0.156  -2.010  36.499  1.00  0.00     0.041 C 
ATOM      9  O   UNL     1       0.118  -3.238  36.549  1.00  0.00    -0.550 OA
ATOM     10  O   UNL     1       0.840  -1.095  36.187  1.00  0.00    -0.550 OA
ENDBRANCH   7   8
ENDBRANCH   6   7
ENDBRANCH   5   6
ENDBRANCH   4   5
ENDBRANCH   3   4
ENDBRANCH   2   3
ENDBRANCH   1   2
BRANCH   1  11
ATOM     11  C   UNL     1      -5.103  -1.010  38.399  1.00  0.00     0.000 C 
BRANCH  11  12
ATOM     12  C   UNL     1      -6.413  -0.301  38.009  1.00  0.00     0.000 C 
BRANCH  12  13
ATOM     13  C   UNL     1      -6.156   1.063  37.332  1.00  0.00     0.000 C 
BRANCH  13  14
ATOM     14  C   UNL     1      -4.865   1.103  36.496  1.00  0.00     0.000 C 
BRANCH  14  15
ATOM     15  C   UNL     1      -5.120   1.446  35.019  1.00  0.00     0.000 C 
BRANCH  15  16
ATOM     16  C   UNL     1      -5.283   0.195  34.140  1.00  0.00     0.006 C 
BRANCH  16  17
ATOM     17  C   UNL     1      -6.731  -0.021  33.681  1.00  0.00     0.053 C 
BRANCH  17  18
ATOM     18  C   UNL     1      -7.164   1.094  32.783  1.00  0.00     0.041 C 
ATOM     19  O   UNL     1      -6.488   1.383  31.761  1.00  0.00    -0.550 OA
ATOM     20  O   UNL     1      -8.284   1.852  33.104  1.00  0.00    -0.550 OA
ENDBRANCH  17  18
ENDBRANCH  16  17
ENDBRANCH  15  16
ENDBRANCH  14  15
ENDBRANCH  13  14
ENDBRANCH  12  13
ENDBRANCH  11  12
ENDBRANCH   1  11
TORSDOF 15
ENDMDL
MODEL 3
REMARK VINA RESULT:    -3.538      1.300      1.822
REMARK INTER + INTRA:          -8.974
REMARK INTER:                  -6.478
REMARK INTRA:                  -2.495
REMARK UNBOUND:                -2.334
REMARK SMILES O=C([O-])CCCCCCCCCCCCCCC(=O)[O-]
REMARK SMILES IDX 10 1 9 2 8 3 7 4 6 5 5 6 4 7 2 8 1 9 3 10 11 11 12 12 13 13
REMARK SMILES IDX 14 14 15 15 16 16 17 17 18 18 19 19 20 20
REMARK H PARENT
REMARK Flexibility Score: inf
ROOT
ATOM      1  C   UNL     1      -5.456  -2.696  36.857  1.00  0.00     0.000 C 
ENDROOT
BRANCH   1   2
ATOM      2  C   UNL     1      -5.377  -2.909  35.336  1.00  0.00     0.000 C 
BRANCH   2   3
ATOM      3  C   UNL     1      -3.961  -3.275  34.853  1.00  0.00     0.000 C 
BRANCH   3   4
ATOM      4  C   UNL     1      -2.856  -3.180  35.922  1.00  0.00     0.000 C 
BRANCH   4   5
ATOM      5  C   UNL     1      -1.579  -2.494  35.406  1.00  0.00     0.000 C 
BRANCH   5   6
ATOM      6  C   UNL     1      -0.599  -2.151  36.541  1.00  0.00     0.006 C 
BRANCH   6   7
ATOM      7  C   UNL     1       0.333  -0.986  36.185  1.00  0.00     0.053 C 
BRANCH   7   8
ATOM      8  C   UNL     1       1.707  -1.491  35.876  1.00  0.00     0.041 C 
ATOM      9  O   UNL     1       2.718  -0.910  36.352  1.00  0.00    -0.550 OA
ATOM     10  O   UNL     1       1.870  -2.632  35.103  1.00  0.00    -0.550 OA
ENDBRANCH   7   8
ENDBRANCH   6   7
ENDBRANCH   5   6
ENDBRANCH   4   5
ENDBRANCH   3   4
ENDBRANCH   2   3
ENDBRANCH   1   2
BRANCH   1  11
ATOM     11  C   UNL     1      -6.397  -1.544  37.244  1.00  0.00     0.000 C 
BRANCH  11  12
ATOM     12  C   UNL     1      -5.853  -0.699  38.411  1.00  0.00     0.000 C 
BRANCH  12  13
ATOM     13  C   UNL     1      -4.552  -1.287  38.997  1.00  0.00     0.000 C 
BRANCH  13  14
ATOM     14  C   UNL     1      -3.308  -0.421  38.732  1.00  0.00     0.000 C 
BRANCH  14  15
ATOM     15  C   UNL     1      -3.607   0.796  37.842  1.00  0.00     0.000 C 
BRANCH  15  16
ATOM     16  C   UNL     1      -3.289   0.540  36.360  1.00  0.00     0.006 C 
BRANCH  16  17
ATOM     17  C   UNL     1      -4.390   1.051  35.421  1.00  0.00     0.053 C 
BRANCH  17  18
ATOM     18  C   UNL     1      -4.257   0.418  34.072  1.00  0.00     0.041 C 
ATOM     19  O   UNL     1      -5.285   0.086  33.425  1.00  0.00    -0.550 OA
ATOM     20  O   UNL     1      -2.998   0.144  33.552  1.00  0.00    -0.550 OA
ENDBRANCH  17  18
ENDBRANCH  16  17
ENDBRANCH  15  16
ENDBRANCH  14  15
ENDBRANCH  13  14
ENDBRANCH  12  13
ENDBRANCH  11  12
ENDBRANCH   1  11
TORSDOF 15
ENDMDL
MODEL 4
REMARK VINA RESULT:    -3.523      1.590      6.391
REMARK INTER + INTRA:          -8.946
REMARK INTER:                  -6.325
REMARK INTRA:                  -2.622
REMARK UNBOUND:                -2.334
REMARK SMILES O=C([O-])CCCCCCCCCCCCCCC(=O)[O-]
REMARK SMILES IDX 10 1 9 2 8 3 7 4 6 5 5 6 4 7 2 8 1 9 3 10 11 11 12 12 13 13
REMARK SMILES IDX 14 14 15 15 16 16 17 17 18 18 19 19 20 20
REMARK H PARENT
REMARK Flexibility Score: inf
ROOT
ATOM      1  C   UNL     1      -5.752  -0.397  37.700  1.00  0.00     0.000 C 
ENDROOT
BRANCH   1   2
ATOM      2  C   UNL     1      -4.273  -0.594  38.074  1.00  0.00     0.000 C 
BRANCH   2   3
ATOM      3  C   UNL     1      -3.313   0.196  37.165  1.00  0.00     0.000 C 
BRANCH   3   4
ATOM      4  C   UNL     1      -3.977   0.929  35.984  1.00  0.00     0.000 C 
BRANCH   4   5
ATOM      5  C   UNL     1      -3.887   0.145  34.664  1.00  0.00     0.000 C 
BRANCH   5   6
ATOM      6  C   UNL     1      -4.952   0.587  33.645  1.00  0.00     0.006 C 
BRANCH   6   7
ATOM      7  C   UNL     1      -6.233  -0.253  33.726  1.00  0.00     0.053 C 
BRANCH   7   8
ATOM      8  C   UNL     1      -7.427   0.631  33.906  1.00  0.00     0.041 C 
ATOM      9  O   UNL     1      -7.899   1.266  32.927  1.00  0.00    -0.550 OA
ATOM     10  O   UNL     1      -8.048   0.716  35.146  1.00  0.00    -0.550 OA
ENDBRANCH   7   8
ENDBRANCH   6   7
ENDBRANCH   5   6
ENDBRANCH   4   5
ENDBRANCH   3   4
ENDBRANCH   2   3
ENDBRANCH   1   2
BRANCH   1  11
ATOM     11  C   UNL     1      -6.406  -1.687  37.180  1.00  0.00     0.000 C 
BRANCH  11  12
ATOM     12  C   UNL     1      -5.386  -2.813  36.933  1.00  0.00     0.000 C 
BRANCH  12  13
ATOM     13  C   UNL     1      -5.363  -3.263  35.456  1.00  0.00     0.000 C 
BRANCH  13  14
ATOM     14  C   UNL     1      -3.965  -3.665  34.955  1.00  0.00     0.000 C 
BRANCH  14  15
ATOM     15  C   UNL     1      -2.863  -3.421  35.998  1.00  0.00     0.000 C 
BRANCH  15  16
ATOM     16  C   UNL     1      -1.697  -2.587  35.445  1.00  0.00     0.006 C 
BRANCH  16  17
ATOM     17  C   UNL     1      -0.514  -2.503  36.418  1.00  0.00     0.053 C 
BRANCH  17  18
ATOM     18  C   UNL     1       0.402  -1.386  36.030  1.00  0.00     0.041 C 
ATOM     19  O   UNL     1      -0.057  -0.360  35.462  1.00  0.00    -0.550 OA
ATOM     20  O   UNL     1       1.770  -1.501  36.244  1.00  0.00    -0.550 OA
ENDBRANCH  17  18
ENDBRANCH  16  17
ENDBRANCH  15  16
ENDBRANCH  14  15
ENDBRANCH  13  14
ENDBRANCH  12  13
ENDBRANCH  11  12
ENDBRANCH   1  11
TORSDOF 15
ENDMDL
MODEL 5
REMARK VINA RESULT:    -3.489      2.078      6.976
REMARK INTER + INTRA:          -8.882
REMARK INTER:                  -6.454
REMARK INTRA:                  -2.429
REMARK UNBOUND:                -2.334
REMARK SMILES O=C([O-])CCCCCCCCCCCCCCC(=O)[O-]
REMARK SMILES IDX 10 1 9 2 8 3 7 4 6 5 5 6 4 7 2 8 1 9 3 10 11 11 12 12 13 13
REMARK SMILES IDX 14 14 15 15 16 16 17 17 18 18 19 19 20 20
REMARK H PARENT
REMARK Flexibility Score: inf
ROOT
ATOM      1  C   UNL     1      -4.215  -0.099  37.738  1.00  0.00     0.000 C 
ENDROOT
BRANCH   1   2
ATOM      2  C   UNL     1      -4.532   0.843  36.564  1.00  0.00     0.000 C 
BRANCH   2   3
ATOM      3  C   UNL     1      -3.577   0.656  35.370  1.00  0.00     0.000 C 
BRANCH   3   4
ATOM      4  C   UNL     1      -4.251   0.262  34.043  1.00  0.00     0.000 C 
BRANCH   4   5
ATOM      5  C   UNL     1      -5.555   1.033  33.779  1.00  0.00     0.000 C 
BRANCH   5   6
ATOM      6  C   UNL     1      -6.794   0.122  33.815  1.00  0.00     0.006 C 
BRANCH   6   7
ATOM      7  C   UNL     1      -7.999   0.788  34.491  1.00  0.00     0.053 C 
BRANCH   7   8
ATOM      8  C   UNL     1      -9.124   0.944  33.517  1.00  0.00     0.041 C 
ATOM      9  O   UNL     1      -9.062   1.816  32.611  1.00  0.00    -0.550 OA
ATOM     10  O   UNL     1     -10.221   0.094  33.580  1.00  0.00    -0.550 OA
ENDBRANCH   7   8
ENDBRANCH   6   7
ENDBRANCH   5   6
ENDBRANCH   4   5
ENDBRANCH   3   4
ENDBRANCH   2   3
ENDBRANCH   1   2
BRANCH   1  11
ATOM     11  C   UNL     1      -5.466  -0.809  38.281  1.00  0.00     0.000 C 
BRANCH  11  12
ATOM     12  C   UNL     1      -6.293  -1.485  37.172  1.00  0.00     0.000 C 
BRANCH  12  13
ATOM     13  C   UNL     1      -5.692  -2.841  36.743  1.00  0.00     0.000 C 
BRANCH  13  14
ATOM     14  C   UNL     1      -5.333  -2.913  35.249  1.00  0.00     0.000 C 
BRANCH  14  15
ATOM     15  C   UNL     1      -4.071  -3.747  34.977  1.00  0.00     0.000 C 
BRANCH  15  16
ATOM     16  C   UNL     1      -2.923  -3.420  35.946  1.00  0.00     0.006 C 
BRANCH  16  17
ATOM     17  C   UNL     1      -1.895  -2.456  35.342  1.00  0.00     0.053 C 
BRANCH  17  18
ATOM     18  C   UNL     1      -0.822  -2.149  36.337  1.00  0.00     0.041 C 
ATOM     19  O   UNL     1      -0.814  -1.043  36.940  1.00  0.00    -0.550 OA
ATOM     20  O   UNL     1       0.203  -3.061  36.560  1.00  0.00    -0.550 OA
ENDBRANCH  17  18
ENDBRANCH  16  17
ENDBRANCH  15  16
ENDBRANCH  14  15
ENDBRANCH  13  14
ENDBRANCH  12  13
ENDBRANCH  11  12
ENDBRANCH   1  11
TORSDOF 15
ENDMDL
MODEL 6
REMARK VINA RESULT:    -3.435      1.503      2.088
REMARK INTER + INTRA:          -8.781
REMARK INTER:                  -6.356
REMARK INTRA:                  -2.425
REMARK UNBOUND:                -2.334
REMARK SMILES O=C([O-])CCCCCCCCCCCCCCC(=O)[O-]
REMARK SMILES IDX 10 1 9 2 8 3 7 4 6 5 5 6 4 7 2 8 1 9 3 10 11 11 12 12 13 13
REMARK SMILES IDX 14 14 15 15 16 16 17 17 18 18 19 19 20 20
REMARK H PARENT
REMARK Flexibility Score: inf
ROOT
ATOM      1  C   UNL     1      -4.471  -3.551  35.606  1.00  0.00     0.000 C 
ENDROOT
BRANCH   1   2
ATOM      2  C   UNL     1      -4.399  -2.943  34.195  1.00  0.00     0.000 C 
BRANCH   2   3
ATOM      3  C   UNL     1      -4.696  -1.432  34.177  1.00  0.00     0.000 C 
BRANCH   3   4
ATOM      4  C   UNL     1      -3.457  -0.517  34.206  1.00  0.00     0.000 C 
BRANCH   4   5
ATOM      5  C   UNL     1      -3.082  -0.059  35.625  1.00  0.00     0.000 C 
BRANCH   5   6
ATOM      6  C   UNL     1      -1.916  -0.869  36.215  1.00  0.00     0.006 C 
BRANCH   6   7
ATOM      7  C   UNL     1      -0.970  -1.415  35.138  1.00  0.00     0.053 C 
BRANCH   7   8
ATOM      8  C   UNL     1      -0.037  -2.426  35.726  1.00  0.00     0.041 C 
ATOM      9  O   UNL     1       1.148  -2.513  35.311  1.00  0.00    -0.550 OA
ATOM     10  O   UNL     1      -0.462  -3.241  36.767  1.00  0.00    -0.550 OA
ENDBRANCH   7   8
ENDBRANCH   6   7
ENDBRANCH   5   6
ENDBRANCH   4   5
ENDBRANCH   3   4
ENDBRANCH   2   3
ENDBRANCH   1   2
BRANCH   1  11
ATOM     11  C   UNL     1      -5.588  -2.929  36.460  1.00  0.00     0.000 C 
BRANCH  11  12
ATOM     12  C   UNL     1      -5.060  -2.301  37.763  1.00  0.00     0.000 C 
BRANCH  12  13
ATOM     13  C   UNL     1      -5.782  -0.979  38.104  1.00  0.00     0.000 C 
BRANCH  13  14
ATOM     14  C   UNL     1      -6.876  -0.594  37.093  1.00  0.00     0.000 C 
BRANCH  14  15
ATOM     15  C   UNL     1      -6.881   0.907  36.761  1.00  0.00     0.000 C 
BRANCH  15  16
ATOM     16  C   UNL     1      -7.482   1.207  35.378  1.00  0.00     0.006 C 
BRANCH  16  17
ATOM     17  C   UNL     1      -6.435   1.698  34.371  1.00  0.00     0.053 C 
BRANCH  17  18
ATOM     18  C   UNL     1      -6.886   1.418  32.973  1.00  0.00     0.041 C 
ATOM     19  O   UNL     1      -8.114   1.309  32.714  1.00  0.00    -0.550 OA
ATOM     20  O   UNL     1      -5.950   1.222  31.964  1.00  0.00    -0.550 OA
ENDBRANCH  17  18
ENDBRANCH  16  17
ENDBRANCH  15  16
ENDBRANCH  14  15
ENDBRANCH  13  14
ENDBRANCH  12  13
ENDBRANCH  11  12
ENDBRANCH   1  11
TORSDOF 15
ENDMDL
MODEL 7
REMARK VINA RESULT:    -3.412      1.976      6.697
REMARK INTER + INTRA:          -8.739
REMARK INTER:                  -6.154
REMARK INTRA:                  -2.585
REMARK UNBOUND:                -2.334
REMARK SMILES O=C([O-])CCCCCCCCCCCCCCC(=O)[O-]
REMARK SMILES IDX 10 1 9 2 8 3 7 4 6 5 5 6 4 7 2 8 1 9 3 10 11 11 12 12 13 13
REMARK SMILES IDX 14 14 15 15 16 16 17 17 18 18 19 19 20 20
REMARK H PARENT
REMARK Flexibility Score: inf
ROOT
ATOM      1  C   UNL     1      -4.786  -3.503  35.461  1.00  0.00     0.000 C 
ENDROOT
BRANCH   1   2
ATOM      2  C   UNL     1      -5.738  -2.897  36.508  1.00  0.00     0.000 C 
BRANCH   2   3
ATOM      3  C   UNL     1      -4.998  -2.324  37.731  1.00  0.00     0.000 C 
BRANCH   3   4
ATOM      4  C   UNL     1      -5.578  -1.014  38.296  1.00  0.00     0.000 C 
BRANCH   4   5
ATOM      5  C   UNL     1      -6.885  -0.589  37.606  1.00  0.00     0.000 C 
BRANCH   5   6
ATOM      6  C   UNL     1      -6.976   0.934  37.408  1.00  0.00     0.006 C 
BRANCH   6   7
ATOM      7  C   UNL     1      -8.255   1.360  36.676  1.00  0.00     0.053 C 
BRANCH   7   8
ATOM      8  C   UNL     1      -8.013   1.428  35.200  1.00  0.00     0.041 C 
ATOM      9  O   UNL     1      -8.537   0.580  34.432  1.00  0.00    -0.550 OA
ATOM     10  O   UNL     1      -7.249   2.459  34.669  1.00  0.00    -0.550 OA
ENDBRANCH   7   8
ENDBRANCH   6   7
ENDBRANCH   5   6
ENDBRANCH   4   5
ENDBRANCH   3   4
ENDBRANCH   2   3
ENDBRANCH   1   2
BRANCH   1  11
ATOM     11  C   UNL     1      -4.576  -2.580  34.250  1.00  0.00     0.000 C 
BRANCH  11  12
ATOM     12  C   UNL     1      -5.519  -1.363  34.260  1.00  0.00     0.000 C 
BRANCH  12  13
ATOM     13  C   UNL     1      -4.746  -0.030  34.357  1.00  0.00     0.000 C 
BRANCH  13  14
ATOM     14  C   UNL     1      -3.251  -0.205  34.672  1.00  0.00     0.000 C 
BRANCH  14  15
ATOM     15  C   UNL     1      -2.894   0.191  36.114  1.00  0.00     0.000 C 
BRANCH  15  16
ATOM     16  C   UNL     1      -1.805  -0.706  36.724  1.00  0.00     0.006 C 
BRANCH  16  17
ATOM     17  C   UNL     1      -1.354  -1.821  35.772  1.00  0.00     0.053 C 
BRANCH  17  18
ATOM     18  C   UNL     1      -0.089  -2.447  36.268  1.00  0.00     0.041 C 
ATOM     19  O   UNL     1      -0.123  -3.559  36.859  1.00  0.00    -0.550 OA
ATOM     20  O   UNL     1       1.121  -1.779  36.127  1.00  0.00    -0.550 OA
ENDBRANCH  17  18
ENDBRANCH  16  17
ENDBRANCH  15  16
ENDBRANCH  14  15
ENDBRANCH  13  14
ENDBRANCH  12  13
ENDBRANCH  11  12
ENDBRANCH   1  11
TORSDOF 15
ENDMDL
MODEL 8
REMARK VINA RESULT:    -3.403      1.132      6.663
REMARK INTER + INTRA:          -8.722
REMARK INTER:                  -6.613
REMARK INTRA:                  -2.109
REMARK UNBOUND:                -2.334
REMARK SMILES O=C([O-])CCCCCCCCCCCCCCC(=O)[O-]
REMARK SMILES IDX 10 1 9 2 8 3 7 4 6 5 5 6 4 7 2 8 1 9 3 10 11 11 12 12 13 13
REMARK SMILES IDX 14 14 15 15 16 16 17 17 18 18 19 19 20 20
REMARK H PARENT
REMARK Flexibility Score: inf
ROOT
ATOM      1  C   UNL     1      -5.750  -2.868  36.546  1.00  0.00     0.000 C 
ENDROOT
BRANCH   1   2
ATOM      2  C   UNL     1      -4.756  -2.439  37.639  1.00  0.00     0.000 C 
BRANCH   2   3
ATOM      3  C   UNL     1      -4.899  -0.956  38.032  1.00  0.00     0.000 C 
BRANCH   3   4
ATOM      4  C   UNL     1      -4.174   0.042  37.110  1.00  0.00     0.000 C 
BRANCH   4   5
ATOM      5  C   UNL     1      -5.115   0.720  36.100  1.00  0.00     0.000 C 
BRANCH   5   6
ATOM      6  C   UNL     1      -4.661   0.514  34.645  1.00  0.00     0.006 C 
BRANCH   6   7
ATOM      7  C   UNL     1      -5.640  -0.345  33.835  1.00  0.00     0.053 C 
BRANCH   7   8
ATOM      8  C   UNL     1      -6.596   0.524  33.080  1.00  0.00     0.041 C 
ATOM      9  O   UNL     1      -7.777   0.672  33.489  1.00  0.00    -0.550 OA
ATOM     10  O   UNL     1      -6.168   1.209  31.950  1.00  0.00    -0.550 OA
ENDBRANCH   7   8
ENDBRANCH   6   7
ENDBRANCH   5   6
ENDBRANCH   4   5
ENDBRANCH   3   4
ENDBRANCH   2   3
ENDBRANCH   1   2
BRANCH   1  11
ATOM     11  C   UNL     1      -5.065  -3.593  35.376  1.00  0.00     0.000 C 
BRANCH  11  12
ATOM     12  C   UNL     1      -3.533  -3.647  35.526  1.00  0.00     0.000 C 
BRANCH  12  13
ATOM     13  C   UNL     1      -2.820  -2.685  34.553  1.00  0.00     0.000 C 
BRANCH  13  14
ATOM     14  C   UNL     1      -1.680  -1.881  35.203  1.00  0.00     0.000 C 
BRANCH  14  15
ATOM     15  C   UNL     1      -0.903  -2.691  36.253  1.00  0.00     0.000 C 
BRANCH  15  16
ATOM     16  C   UNL     1       0.619  -2.624  36.047  1.00  0.00     0.006 C 
BRANCH  16  17
ATOM     17  C   UNL     1       1.067  -1.327  35.362  1.00  0.00     0.053 C 
BRANCH  17  18
ATOM     18  C   UNL     1       2.352  -0.841  35.955  1.00  0.00     0.041 C 
ATOM     19  O   UNL     1       2.446   0.341  36.380  1.00  0.00    -0.550 OA
ATOM     20  O   UNL     1       3.462  -1.676  35.990  1.00  0.00    -0.550 OA
ENDBRANCH  17  18
ENDBRANCH  16  17
ENDBRANCH  15  16
ENDBRANCH  14  15
ENDBRANCH  13  14
ENDBRANCH  12  13
ENDBRANCH  11  12
ENDBRANCH   1  11
TORSDOF 15
ENDMDL
MODEL 9
REMARK VINA RESULT:    -3.371      2.083      6.199
REMARK INTER + INTRA:          -8.660
REMARK INTER:                  -6.233
REMARK INTRA:                  -2.428
REMARK UNBOUND:                -2.334
REMARK SMILES O=C([O-])CCCCCCCCCCCCCCC(=O)[O-]
REMARK SMILES IDX 10 1 9 2 8 3 7 4 6 5 5 6 4 7 2 8 1 9 3 10 11 11 12 12 13 13
REMARK SMILES IDX 14 14 15 15 16 16 17 17 18 18 19 19 20 20
REMARK H PARENT
REMARK Flexibility Score: inf
ROOT
ATOM      1  C   UNL     1      -5.011  -1.980  38.000  1.00  0.00     0.000 C 
ENDROOT
BRANCH   1   2
ATOM      2  C   UNL     1      -5.541  -0.641  38.542  1.00  0.00     0.000 C 
BRANCH   2   3
ATOM      3  C   UNL     1      -6.356   0.148  37.499  1.00  0.00     0.000 C 
BRANCH   3   4
ATOM      4  C   UNL     1      -5.720   1.469  37.028  1.00  0.00     0.000 C 
BRANCH   4   5
ATOM      5  C   UNL     1      -5.877   1.706  35.517  1.00  0.00     0.000 C 
BRANCH   5   6
ATOM      6  C   UNL     1      -6.522   0.508  34.798  1.00  0.00     0.006 C 
BRANCH   6   7
ATOM      7  C   UNL     1      -5.845   0.187  33.460  1.00  0.00     0.053 C 
BRANCH   7   8
ATOM      8  C   UNL     1      -6.162   1.243  32.448  1.00  0.00     0.041 C 
ATOM      9  O   UNL     1      -5.234   1.832  31.834  1.00  0.00    -0.550 OA
ATOM     10  O   UNL     1      -7.484   1.542  32.147  1.00  0.00    -0.550 OA
ENDBRANCH   7   8
ENDBRANCH   6   7
ENDBRANCH   5   6
ENDBRANCH   4   5
ENDBRANCH   3   4
ENDBRANCH   2   3
ENDBRANCH   1   2
BRANCH   1  11
ATOM     11  C   UNL     1      -5.853  -2.518  36.832  1.00  0.00     0.000 C 
BRANCH  11  12
ATOM     12  C   UNL     1      -5.060  -3.472  35.919  1.00  0.00     0.000 C 
BRANCH  12  13
ATOM     13  C   UNL     1      -5.005  -2.968  34.461  1.00  0.00     0.000 C 
BRANCH  13  14
ATOM     14  C   UNL     1      -3.589  -2.972  33.859  1.00  0.00     0.000 C 
BRANCH  14  15
ATOM     15  C   UNL     1      -2.509  -2.551  34.869  1.00  0.00     0.000 C 
BRANCH  15  16
ATOM     16  C   UNL     1      -2.109  -1.074  34.728  1.00  0.00     0.006 C 
BRANCH  16  17
ATOM     17  C   UNL     1      -2.653  -0.201  35.866  1.00  0.00     0.053 C 
BRANCH  17  18
ATOM     18  C   UNL     1      -1.669  -0.140  36.991  1.00  0.00     0.041 C 
ATOM     19  O   UNL     1      -0.457  -0.414  36.788  1.00  0.00    -0.550 OA
ATOM     20  O   UNL     1      -2.100   0.164  38.277  1.00  0.00    -0.550 OA
ENDBRANCH  17  18
ENDBRANCH  16  17
ENDBRANCH  15  16
ENDBRANCH  14  15
ENDBRANCH  13  14
ENDBRANCH  12  13
ENDBRANCH  11  12
ENDBRANCH   1  11
TORSDOF 15
ENDMDL
