MODEL 1
REMARK VINA RESULT:    -4.733      0.000      0.000
REMARK INTER + INTRA:          -5.562
REMARK INTER:                  -5.425
REMARK INTRA:                  -0.137
REMARK UNBOUND:                -0.137
REMARK SMILES O=C([O-])C=Cc1ccc(O)cc1
REMARK SMILES IDX 6 1 7 2 12 3 8 4 11 5 9 6 5 7 4 8 2 9 1 10 3 11 10 12
REMARK H PARENT 10 13
REMARK Flexibility Score: inf
ROOT
ATOM      1  C   UNL     1      -7.335 -25.098  35.251  1.00  0.00    -0.025 A 
ATOM      2  C   UNL     1      -8.455 -25.184  36.105  1.00  0.00     0.012 A 
ATOM      3  C   UNL     1      -6.973 -26.224  34.492  1.00  0.00     0.012 A 
ATOM      4  C   UNL     1      -9.202 -26.364  36.173  1.00  0.00     0.047 A 
ATOM      5  C   UNL     1      -7.725 -27.401  34.563  1.00  0.00     0.047 A 
ATOM      6  C   UNL     1      -8.843 -27.473  35.402  1.00  0.00     0.115 A 
ENDROOT
BRANCH   1   7
ATOM      7  C   UNL     1      -6.500 -23.876  35.151  1.00  0.00     0.010 C 
ATOM      8  C   UNL     1      -6.715 -22.898  34.260  1.00  0.00     0.025 C 
BRANCH   8   9
ATOM      9  C   UNL     1      -5.852 -21.708  34.188  1.00  0.00     0.064 C 
ATOM     10  O   UNL     1      -4.712 -21.733  34.723  1.00  0.00    -0.545 OA
ATOM     11  O   UNL     1      -6.274 -20.554  33.536  1.00  0.00    -0.545 OA
ENDBRANCH   8   9
ENDBRANCH   1   7
BRANCH   6  12
ATOM     12  O   UNL     1      -9.600 -28.639  35.480  1.00  0.00    -0.508 OA
ATOM     13  H   UNL     1     -10.327 -28.845  34.805  1.00  0.00     0.293 HD
ENDBRANCH   6  12
TORSDOF 3
ENDMDL
MODEL 2
REMARK VINA RESULT:    -4.712      0.121      1.402
REMARK INTER + INTRA:          -5.537
REMARK INTER:                  -5.400
REMARK INTRA:                  -0.138
REMARK UNBOUND:                -0.137
REMARK SMILES O=C([O-])C=Cc1ccc(O)cc1
REMARK SMILES IDX 6 1 7 2 12 3 8 4 11 5 9 6 5 7 4 8 2 9 1 10 3 11 10 12
REMARK H PARENT 10 13
REMARK Flexibility Score: inf
ROOT
ATOM      1  C   UNL     1      -7.247 -25.170  35.276  1.00  0.00    -0.025 A 
ATOM      2  C   UNL     1      -6.971 -26.274  34.443  1.00  0.00     0.012 A 
ATOM      3  C   UNL     1      -8.343 -25.239  36.153  1.00  0.00     0.012 A 
ATOM      4  C   UNL     1      -7.763 -27.424  34.510  1.00  0.00     0.047 A 
ATOM      5  C   UNL     1      -9.131 -26.392  36.216  1.00  0.00     0.047 A 
ATOM      6  C   UNL     1      -8.841 -27.489  35.396  1.00  0.00     0.115 A 
ENDROOT
BRANCH   1   7
ATOM      7  C   UNL     1      -6.447 -23.921  35.237  1.00  0.00     0.010 C 
ATOM      8  C   UNL     1      -6.570 -22.986  34.284  1.00  0.00     0.025 C 
BRANCH   8   9
ATOM      9  C   UNL     1      -5.746 -21.767  34.279  1.00  0.00     0.064 C 
ATOM     10  O   UNL     1      -4.655 -21.751  34.907  1.00  0.00    -0.545 OA
ATOM     11  O   UNL     1      -6.152 -20.629  33.589  1.00  0.00    -0.545 OA
ENDBRANCH   8   9
ENDBRANCH   1   7
BRANCH   6  12
ATOM     12  O   UNL     1      -9.619 -28.643  35.451  1.00  0.00    -0.508 OA
ATOM     13  H   UNL     1     -10.393 -28.791  34.814  1.00  0.00     0.293 HD
ENDBRANCH   6  12
TORSDOF 3
ENDMDL
MODEL 3
REMARK VINA RESULT:    -4.224      3.771      4.470
REMARK INTER + INTRA:          -4.978
REMARK INTER:                  -4.841
REMARK INTRA:                  -0.137
REMARK UNBOUND:                -0.137
REMARK SMILES O=C([O-])C=Cc1ccc(O)cc1
REMARK SMILES IDX 6 1 7 2 12 3 8 4 11 5 9 6 5 7 4 8 2 9 1 10 3 11 10 12
REMARK H PARENT 10 13
REMARK Flexibility Score: inf
ROOT
ATOM      1  C   UNL     1      -6.932 -21.540  33.731  1.00  0.00    -0.025 A 
ATOM      2  C   UNL     1      -7.789 -21.675  32.619  1.00  0.00     0.012 A 
ATOM      3  C   UNL     1      -6.105 -22.620  34.085  1.00  0.00     0.012 A 
ATOM      4  C   UNL     1      -7.796 -22.856  31.871  1.00  0.00     0.047 A 
ATOM      5  C   UNL     1      -6.115 -23.799  33.334  1.00  0.00     0.047 A 
ATOM      6  C   UNL     1      -6.958 -23.919  32.223  1.00  0.00     0.115 A 
ENDROOT
BRANCH   1   7
ATOM      7  C   UNL     1      -6.895 -20.314  34.566  1.00  0.00     0.010 C 
ATOM      8  C   UNL     1      -5.901 -19.416  34.527  1.00  0.00     0.025 C 
BRANCH   8   9
ATOM      9  C   UNL     1      -5.900 -18.219  35.383  1.00  0.00     0.064 C 
ATOM     10  O   UNL     1      -5.027 -17.329  35.207  1.00  0.00    -0.545 OA
ATOM     11  O   UNL     1      -6.851 -18.052  36.385  1.00  0.00    -0.545 OA
ENDBRANCH   8   9
ENDBRANCH   1   7
BRANCH   6  12
ATOM     12  O   UNL     1      -6.975 -25.088  31.467  1.00  0.00    -0.508 OA
ATOM     13  H   UNL     1      -6.698 -25.092  30.491  1.00  0.00     0.293 HD
ENDBRANCH   6  12
TORSDOF 3
ENDMDL
MODEL 4
REMARK VINA RESULT:    -4.215      1.809      2.138
REMARK INTER + INTRA:          -4.968
REMARK INTER:                  -4.828
REMARK INTRA:                  -0.140
REMARK UNBOUND:                -0.137
REMARK SMILES O=C([O-])C=Cc1ccc(O)cc1
REMARK SMILES IDX 6 1 7 2 12 3 8 4 11 5 9 6 5 7 4 8 2 9 1 10 3 11 10 12
REMARK H PARENT 10 13
REMARK Flexibility Score: inf
ROOT
ATOM      1  C   UNL     1      -5.662 -24.421  34.385  1.00  0.00    -0.025 A 
ATOM      2  C   UNL     1      -5.790 -25.343  35.446  1.00  0.00     0.012 A 
ATOM      3  C   UNL     1      -6.276 -24.715  33.155  1.00  0.00     0.012 A 
ATOM      4  C   UNL     1      -6.534 -26.514  35.279  1.00  0.00     0.047 A 
ATOM      5  C   UNL     1      -7.020 -25.887  32.994  1.00  0.00     0.047 A 
ATOM      6  C   UNL     1      -7.154 -26.789  34.056  1.00  0.00     0.115 A 
ENDROOT
BRANCH   1   7
ATOM      7  C   UNL     1      -4.874 -23.170  34.504  1.00  0.00     0.010 C 
ATOM      8  C   UNL     1      -5.391 -21.945  34.338  1.00  0.00     0.025 C 
BRANCH   8   9
ATOM      9  C   UNL     1      -4.568 -20.731  34.453  1.00  0.00     0.064 C 
ATOM     10  O   UNL     1      -3.659 -20.676  35.324  1.00  0.00    -0.545 OA
ATOM     11  O   UNL     1      -4.774 -19.640  33.614  1.00  0.00    -0.545 OA
ENDBRANCH   8   9
ENDBRANCH   1   7
BRANCH   6  12
ATOM     12  O   UNL     1      -7.893 -27.959  33.907  1.00  0.00    -0.508 OA
ATOM     13  H   UNL     1      -8.907 -27.952  33.926  1.00  0.00     0.293 HD
ENDBRANCH   6  12
TORSDOF 3
ENDMDL
MODEL 5
REMARK VINA RESULT:    -4.153      4.629      5.806
REMARK INTER + INTRA:          -4.897
REMARK INTER:                  -4.755
REMARK INTRA:                  -0.141
REMARK UNBOUND:                -0.137
REMARK SMILES O=C([O-])C=Cc1ccc(O)cc1
REMARK SMILES IDX 6 1 7 2 12 3 8 4 11 5 9 6 5 7 4 8 2 9 1 10 3 11 10 12
REMARK H PARENT 10 13
REMARK Flexibility Score: inf
ROOT
ATOM      1  C   UNL     1      -5.988 -19.869  34.401  1.00  0.00    -0.025 A 
ATOM      2  C   UNL     1      -6.257 -20.803  33.378  1.00  0.00     0.012 A 
ATOM      3  C   UNL     1      -6.961 -19.649  35.391  1.00  0.00     0.012 A 
ATOM      4  C   UNL     1      -7.462 -21.512  33.367  1.00  0.00     0.047 A 
ATOM      5  C   UNL     1      -8.164 -20.362  35.376  1.00  0.00     0.047 A 
ATOM      6  C   UNL     1      -8.417 -21.297  34.365  1.00  0.00     0.115 A 
ENDROOT
BRANCH   1   7
ATOM      7  C   UNL     1      -4.733 -19.081  34.452  1.00  0.00     0.010 C 
ATOM      8  C   UNL     1      -3.872 -18.982  33.429  1.00  0.00     0.025 C 
BRANCH   8   9
ATOM      9  C   UNL     1      -2.631 -18.198  33.530  1.00  0.00     0.064 C 
ATOM     10  O   UNL     1      -2.639 -16.978  33.216  1.00  0.00    -0.545 OA
ATOM     11  O   UNL     1      -1.447 -18.781  33.969  1.00  0.00    -0.545 OA
ENDBRANCH   8   9
ENDBRANCH   1   7
BRANCH   6  12
ATOM     12  O   UNL     1      -9.611 -22.013  34.341  1.00  0.00    -0.508 OA
ATOM     13  H   UNL     1     -10.509 -21.544  34.307  1.00  0.00     0.293 HD
ENDBRANCH   6  12
TORSDOF 3
ENDMDL
MODEL 6
REMARK VINA RESULT:    -4.149      2.438      5.632
REMARK INTER + INTRA:          -4.892
REMARK INTER:                  -4.756
REMARK INTRA:                  -0.136
REMARK UNBOUND:                -0.137
REMARK SMILES O=C([O-])C=Cc1ccc(O)cc1
REMARK SMILES IDX 6 1 7 2 12 3 8 4 11 5 9 6 5 7 4 8 2 9 1 10 3 11 10 12
REMARK H PARENT 10 13
REMARK Flexibility Score: inf
ROOT
ATOM      1  C   UNL     1      -7.828 -23.139  35.638  1.00  0.00    -0.025 A 
ATOM      2  C   UNL     1      -8.170 -22.294  34.562  1.00  0.00     0.012 A 
ATOM      3  C   UNL     1      -7.480 -22.560  36.871  1.00  0.00     0.012 A 
ATOM      4  C   UNL     1      -8.186 -20.906  34.730  1.00  0.00     0.047 A 
ATOM      5  C   UNL     1      -7.499 -21.172  37.034  1.00  0.00     0.047 A 
ATOM      6  C   UNL     1      -7.854 -20.341  35.965  1.00  0.00     0.115 A 
ENDROOT
BRANCH   1   7
ATOM      7  C   UNL     1      -7.782 -24.617  35.510  1.00  0.00     0.010 C 
ATOM      8  C   UNL     1      -7.017 -25.264  34.620  1.00  0.00     0.025 C 
BRANCH   8   9
ATOM      9  C   UNL     1      -7.013 -26.732  34.520  1.00  0.00     0.064 C 
ATOM     10  O   UNL     1      -6.468 -27.416  35.426  1.00  0.00    -0.545 OA
ATOM     11  O   UNL     1      -7.605 -27.381  33.440  1.00  0.00    -0.545 OA
ENDBRANCH   8   9
ENDBRANCH   1   7
BRANCH   6  12
ATOM     12  O   UNL     1      -7.877 -18.957  36.117  1.00  0.00    -0.508 OA
ATOM     13  H   UNL     1      -7.771 -18.335  35.323  1.00  0.00     0.293 HD
ENDBRANCH   6  12
TORSDOF 3
ENDMDL
MODEL 7
REMARK VINA RESULT:    -4.134     16.613     17.516
REMARK INTER + INTRA:          -4.875
REMARK INTER:                  -4.741
REMARK INTRA:                  -0.134
REMARK UNBOUND:                -0.137
REMARK SMILES O=C([O-])C=Cc1ccc(O)cc1
REMARK SMILES IDX 6 1 7 2 12 3 8 4 11 5 9 6 5 7 4 8 2 9 1 10 3 11 10 12
REMARK H PARENT 10 13
REMARK Flexibility Score: inf
ROOT
ATOM      1  C   UNL     1     -11.826 -33.577  20.884  1.00  0.00    -0.025 A 
ATOM      2  C   UNL     1     -12.949 -33.718  20.043  1.00  0.00     0.012 A 
ATOM      3  C   UNL     1     -11.887 -34.092  22.190  1.00  0.00     0.012 A 
ATOM      4  C   UNL     1     -14.093 -34.380  20.497  1.00  0.00     0.047 A 
ATOM      5  C   UNL     1     -13.034 -34.754  22.639  1.00  0.00     0.047 A 
ATOM      6  C   UNL     1     -14.139 -34.902  21.793  1.00  0.00     0.115 A 
ENDROOT
BRANCH   1   7
ATOM      7  C   UNL     1     -10.592 -32.872  20.457  1.00  0.00     0.010 C 
ATOM      8  C   UNL     1      -9.657 -33.419  19.667  1.00  0.00     0.025 C 
BRANCH   8   9
ATOM      9  C   UNL     1      -8.441 -32.686  19.278  1.00  0.00     0.064 C 
ATOM     10  O   UNL     1      -7.879 -32.951  18.183  1.00  0.00    -0.545 OA
ATOM     11  O   UNL     1      -7.902 -31.702  20.101  1.00  0.00    -0.545 OA
ENDBRANCH   8   9
ENDBRANCH   1   7
BRANCH   6  12
ATOM     12  O   UNL     1     -15.286 -35.561  22.229  1.00  0.00    -0.508 OA
ATOM     13  H   UNL     1     -15.912 -36.022  21.579  1.00  0.00     0.293 HD
ENDBRANCH   6  12
TORSDOF 3
ENDMDL
MODEL 8
REMARK VINA RESULT:    -4.092      4.323      8.194
REMARK INTER + INTRA:          -4.827
REMARK INTER:                  -4.685
REMARK INTRA:                  -0.142
REMARK UNBOUND:                -0.137
REMARK SMILES O=C([O-])C=Cc1ccc(O)cc1
REMARK SMILES IDX 6 1 7 2 12 3 8 4 11 5 9 6 5 7 4 8 2 9 1 10 3 11 10 12
REMARK H PARENT 10 13
REMARK Flexibility Score: inf
ROOT
ATOM      1  C   UNL     1      -4.584 -19.404  33.780  1.00  0.00    -0.025 A 
ATOM      2  C   UNL     1      -3.301 -19.823  33.370  1.00  0.00     0.012 A 
ATOM      3  C   UNL     1      -4.729 -18.134  34.363  1.00  0.00     0.012 A 
ATOM      4  C   UNL     1      -2.200 -18.975  33.521  1.00  0.00     0.047 A 
ATOM      5  C   UNL     1      -3.624 -17.290  34.512  1.00  0.00     0.047 A 
ATOM      6  C   UNL     1      -2.356 -17.707  34.088  1.00  0.00     0.115 A 
ENDROOT
BRANCH   1   7
ATOM      7  C   UNL     1      -5.784 -20.268  33.654  1.00  0.00     0.010 C 
ATOM      8  C   UNL     1      -6.570 -20.606  34.686  1.00  0.00     0.025 C 
BRANCH   8   9
ATOM      9  C   UNL     1      -7.745 -21.476  34.517  1.00  0.00     0.064 C 
ATOM     10  O   UNL     1      -8.660 -21.138  33.721  1.00  0.00    -0.545 OA
ATOM     11  O   UNL     1      -7.861 -22.671  35.220  1.00  0.00    -0.545 OA
ENDBRANCH   8   9
ENDBRANCH   1   7
BRANCH   6  12
ATOM     12  O   UNL     1      -1.249 -16.875  34.230  1.00  0.00    -0.508 OA
ATOM     13  H   UNL     1      -1.318 -15.874  34.089  1.00  0.00     0.293 HD
ENDBRANCH   6  12
TORSDOF 3
ENDMDL
MODEL 9
REMARK VINA RESULT:    -4.085      2.218      5.791
REMARK INTER + INTRA:          -4.819
REMARK INTER:                  -4.684
REMARK INTRA:                  -0.135
REMARK UNBOUND:                -0.137
REMARK SMILES O=C([O-])C=Cc1ccc(O)cc1
REMARK SMILES IDX 6 1 7 2 12 3 8 4 11 5 9 6 5 7 4 8 2 9 1 10 3 11 10 12
REMARK H PARENT 10 13
REMARK Flexibility Score: inf
ROOT
ATOM      1  C   UNL     1      -7.634 -23.167  35.468  1.00  0.00    -0.025 A 
ATOM      2  C   UNL     1      -7.272 -22.635  36.724  1.00  0.00     0.012 A 
ATOM      3  C   UNL     1      -8.153 -22.302  34.490  1.00  0.00     0.012 A 
ATOM      4  C   UNL     1      -7.407 -21.267  36.977  1.00  0.00     0.047 A 
ATOM      5  C   UNL     1      -8.285 -20.934  34.748  1.00  0.00     0.047 A 
ATOM      6  C   UNL     1      -7.910 -20.412  35.992  1.00  0.00     0.115 A 
ENDROOT
BRANCH   1   7
ATOM      7  C   UNL     1      -7.523 -24.612  35.151  1.00  0.00     0.010 C 
ATOM      8  C   UNL     1      -8.294 -25.557  35.706  1.00  0.00     0.025 C 
BRANCH   8   9
ATOM      9  C   UNL     1      -8.141 -26.982  35.370  1.00  0.00     0.064 C 
ATOM     10  O   UNL     1      -9.164 -27.704  35.238  1.00  0.00    -0.545 OA
ATOM     11  O   UNL     1      -6.882 -27.547  35.194  1.00  0.00    -0.545 OA
ENDBRANCH   8   9
ENDBRANCH   1   7
BRANCH   6  12
ATOM     12  O   UNL     1      -8.037 -19.052  36.260  1.00  0.00    -0.508 OA
ATOM     13  H   UNL     1      -8.904 -18.659  36.609  1.00  0.00     0.293 HD
ENDBRANCH   6  12
TORSDOF 3
ENDMDL
