MODEL 1
REMARK VINA RESULT:    -3.370      0.000      0.000
REMARK INTER + INTRA:          -4.786
REMARK INTER:                  -5.143
REMARK INTRA:                   0.357
REMARK UNBOUND:                 0.357
REMARK SMILES CC1=CCC[C@H](C)C(=O)C[C@H](C(C)C)C(=O)C1
REMARK SMILES IDX 8 1 9 2 6 3 7 4 5 5 4 6 3 7 2 8 1 9 10 11 11 12 15 13 16 14
REMARK SMILES IDX 17 15 12 17 13 18 14 19
REMARK H PARENT
REMARK Flexibility Score: 70.00
ROOT
ATOM      1  C   UNL     1      -6.317  29.393  46.653  1.00  0.00     0.136 C 
ATOM      2  O   UNL     1      -5.430  28.595  46.918  1.00  0.00    -0.299 OA
ENDROOT
BRANCH   1   3
ATOM      3  C   UNL     1      -7.330  29.069  45.577  1.00  0.00     0.053 C 
ATOM      4  C   UNL     1      -7.668  27.576  45.634  1.00  0.00     0.016 C 
BRANCH   3   5
ATOM      5  C   UNL     1      -8.618  29.916  45.694  1.00  0.00     0.015 C 
BRANCH   5   6
ATOM      6  C   UNL     1      -8.664  31.111  44.724  1.00  0.00     0.028 C 
BRANCH   6   7
ATOM      7  C   UNL     1      -7.675  30.948  43.591  1.00  0.00    -0.028 C 
ATOM      8  C   UNL     1      -6.421  31.458  43.538  1.00  0.00    -0.070 CG0
ATOM      9  C   UNL     1      -5.586  31.148  42.322  1.00  0.00     0.039 C 
ATOM     10  G   UNL     1      -5.839  32.376  44.593  1.00  0.00     0.000 G0
ENDBRANCH   6   7
ENDBRANCH   5   6
ENDBRANCH   3   5
ENDBRANCH   1   3
BRANCH   1  11
ATOM     11  C   UNL     1      -6.371  30.713  47.385  1.00  0.00     0.087 C 
BRANCH  11  12
ATOM     12  C   UNL     1      -5.168  31.622  47.035  1.00  0.00     0.066 C 
BRANCH  12  13
ATOM     13  C   UNL     1      -4.924  31.631  45.537  1.00  0.00     0.140 C 
ATOM     14  O   UNL     1      -3.964  31.030  45.073  1.00  0.00    -0.299 OA
BRANCH  13  15
ATOM     15  C   UNL     1      -5.822  32.395  44.602  1.00  0.00     0.106 CG0
ATOM     16  G   UNL     1      -6.412  31.458  43.568  1.00  0.00     0.000 G0
ENDBRANCH  13  15
ENDBRANCH  12  13
BRANCH  12  17
ATOM     17  C   UNL     1      -5.294  33.074  47.592  1.00  0.00    -0.006 C 
ATOM     18  C   UNL     1      -3.967  33.565  48.195  1.00  0.00     0.008 C 
ATOM     19  C   UNL     1      -6.431  33.261  48.613  1.00  0.00     0.008 C 
ENDBRANCH  12  17
ENDBRANCH  11  12
ENDBRANCH   1  11
TORSDOF 1
ENDMDL
MODEL 2
REMARK VINA RESULT:    -3.354      2.190      4.354
REMARK INTER + INTRA:          -4.761
REMARK INTER:                  -4.478
REMARK INTRA:                  -0.283
REMARK UNBOUND:                 0.357
REMARK SMILES CC1=CCC[C@H](C)C(=O)C[C@H](C(C)C)C(=O)C1
REMARK SMILES IDX 8 1 9 2 6 3 7 4 5 5 4 6 3 7 2 8 1 9 10 11 11 12 15 13 16 14
REMARK SMILES IDX 17 15 12 17 13 18 14 19
REMARK H PARENT
REMARK Flexibility Score: 70.00
ROOT
ATOM      1  C   UNL     1      -8.425  28.305  44.239  1.00  0.00     0.136 C 
ATOM      2  O   UNL     1      -9.644  28.285  44.145  1.00  0.00    -0.299 OA
ENDROOT
BRANCH   1   3
ATOM      3  C   UNL     1      -7.592  28.919  43.135  1.00  0.00     0.053 C 
ATOM      4  C   UNL     1      -7.844  28.160  41.828  1.00  0.00     0.016 C 
BRANCH   3   5
ATOM      5  C   UNL     1      -7.874  30.427  42.942  1.00  0.00     0.015 C 
BRANCH   5   6
ATOM      6  C   UNL     1      -8.126  31.184  44.260  1.00  0.00     0.028 C 
BRANCH   6   7
ATOM      7  C   UNL     1      -6.845  31.754  44.829  1.00  0.00    -0.028 C 
ATOM      8  C   UNL     1      -6.130  31.251  45.864  1.00  0.00    -0.070 CG0
ATOM      9  C   UNL     1      -4.859  31.961  46.253  1.00  0.00     0.039 C 
ATOM     10  G   UNL     1      -6.571  30.063  46.694  1.00  0.00     0.000 G0
ENDBRANCH   6   7
ENDBRANCH   5   6
ENDBRANCH   3   5
ENDBRANCH   1   3
BRANCH   1  11
ATOM     11  C   UNL     1      -7.763  27.685  45.445  1.00  0.00     0.087 C 
BRANCH  11  12
ATOM     12  C   UNL     1      -6.222  27.811  45.393  1.00  0.00     0.066 C 
BRANCH  12  13
ATOM     13  C   UNL     1      -5.737  28.859  46.378  1.00  0.00     0.140 C 
ATOM     14  O   UNL     1      -4.660  28.715  46.939  1.00  0.00    -0.299 OA
BRANCH  13  15
ATOM     15  C   UNL     1      -6.574  30.065  46.711  1.00  0.00     0.106 CG0
ATOM     16  G   UNL     1      -6.125  31.252  45.883  1.00  0.00     0.000 G0
ENDBRANCH  13  15
ENDBRANCH  12  13
BRANCH  12  17
ATOM     17  C   UNL     1      -5.472  26.457  45.598  1.00  0.00    -0.006 C 
ATOM     18  C   UNL     1      -5.213  25.745  44.260  1.00  0.00     0.008 C 
ATOM     19  C   UNL     1      -6.170  25.493  46.575  1.00  0.00     0.008 C 
ENDBRANCH  12  17
ENDBRANCH  11  12
ENDBRANCH   1  11
TORSDOF 1
ENDMDL
MODEL 3
REMARK VINA RESULT:    -3.269      2.435      4.808
REMARK INTER + INTRA:          -4.632
REMARK INTER:                  -4.321
REMARK INTRA:                  -0.311
REMARK UNBOUND:                 0.357
REMARK SMILES CC1=CCC[C@H](C)C(=O)C[C@H](C(C)C)C(=O)C1
REMARK SMILES IDX 8 1 9 2 6 3 7 4 5 5 4 6 3 7 2 8 1 9 10 11 11 12 15 13 16 14
REMARK SMILES IDX 17 15 12 17 13 18 14 19
REMARK H PARENT
REMARK Flexibility Score: 70.00
ROOT
ATOM      1  C   UNL     1      -5.644  28.594  44.155  1.00  0.00     0.136 C 
ATOM      2  O   UNL     1      -4.478  28.555  43.789  1.00  0.00    -0.299 OA
ENDROOT
BRANCH   1   3
ATOM      3  C   UNL     1      -5.994  28.309  45.598  1.00  0.00     0.053 C 
ATOM      4  C   UNL     1      -5.491  26.912  45.976  1.00  0.00     0.016 C 
BRANCH   3   5
ATOM      5  C   UNL     1      -5.421  29.365  46.571  1.00  0.00     0.015 C 
BRANCH   5   6
ATOM      6  C   UNL     1      -6.500  30.225  47.257  1.00  0.00     0.028 C 
BRANCH   6   7
ATOM      7  C   UNL     1      -6.643  31.576  46.591  1.00  0.00    -0.028 C 
ATOM      8  C   UNL     1      -7.653  31.968  45.777  1.00  0.00    -0.070 CG0
ATOM      9  C   UNL     1      -7.617  33.377  45.240  1.00  0.00     0.039 C 
ATOM     10  G   UNL     1      -8.772  31.055  45.321  1.00  0.00     0.000 G0
ENDBRANCH   6   7
ENDBRANCH   5   6
ENDBRANCH   3   5
ENDBRANCH   1   3
BRANCH   1  11
ATOM     11  C   UNL     1      -6.727  28.895  43.147  1.00  0.00     0.087 C 
BRANCH  11  12
ATOM     12  C   UNL     1      -8.122  29.009  43.808  1.00  0.00     0.066 C 
BRANCH  12  13
ATOM     13  C   UNL     1      -8.522  30.465  43.961  1.00  0.00     0.140 C 
ATOM     14  O   UNL     1      -8.597  31.183  42.974  1.00  0.00    -0.299 OA
BRANCH  13  15
ATOM     15  C   UNL     1      -8.799  31.062  45.314  1.00  0.00     0.106 CG0
ATOM     16  G   UNL     1      -7.644  31.946  45.738  1.00  0.00     0.000 G0
ENDBRANCH  13  15
ENDBRANCH  12  13
BRANCH  12  17
ATOM     17  C   UNL     1      -9.234  28.194  43.078  1.00  0.00    -0.006 C 
ATOM     18  C   UNL     1     -10.211  27.551  44.076  1.00  0.00     0.008 C 
ATOM     19  C   UNL     1      -8.698  27.124  42.111  1.00  0.00     0.008 C 
ENDBRANCH  12  17
ENDBRANCH  11  12
ENDBRANCH   1  11
TORSDOF 1
ENDMDL
MODEL 4
REMARK VINA RESULT:    -3.263     15.002     17.133
REMARK INTER + INTRA:          -4.623
REMARK INTER:                  -4.708
REMARK INTRA:                   0.086
REMARK UNBOUND:                 0.357
REMARK SMILES CC1=CCC[C@H](C)C(=O)C[C@H](C(C)C)C(=O)C1
REMARK SMILES IDX 8 1 9 2 6 3 7 4 5 5 4 6 3 7 2 8 1 9 10 11 11 12 15 13 16 14
REMARK SMILES IDX 17 15 12 17 13 18 14 19
REMARK H PARENT
REMARK Flexibility Score: 70.00
ROOT
ATOM      1  C   UNL     1     -20.780  22.642  39.489  1.00  0.00     0.136 C 
ATOM      2  O   UNL     1     -21.280  22.579  38.375  1.00  0.00    -0.299 OA
ENDROOT
BRANCH   1   3
ATOM      3  C   UNL     1     -21.298  21.756  40.601  1.00  0.00     0.053 C 
ATOM      4  C   UNL     1     -20.120  21.030  41.260  1.00  0.00     0.016 C 
BRANCH   3   5
ATOM      5  C   UNL     1     -22.106  22.539  41.661  1.00  0.00     0.015 C 
BRANCH   5   6
ATOM      6  C   UNL     1     -22.925  23.706  41.079  1.00  0.00     0.028 C 
BRANCH   6   7
ATOM      7  C   UNL     1     -22.930  24.902  42.006  1.00  0.00    -0.028 C 
ATOM      8  C   UNL     1     -21.897  25.750  42.230  1.00  0.00    -0.070 CG0
ATOM      9  C   UNL     1     -22.125  26.902  43.175  1.00  0.00     0.039 C 
ATOM     10  G   UNL     1     -20.513  25.566  41.643  1.00  0.00     0.000 G0
ENDBRANCH   6   7
ENDBRANCH   5   6
ENDBRANCH   3   5
ENDBRANCH   1   3
BRANCH   1  11
ATOM     11  C   UNL     1     -19.670  23.630  39.750  1.00  0.00     0.087 C 
BRANCH  11  12
ATOM     12  C   UNL     1     -19.970  25.019  39.138  1.00  0.00     0.066 C 
BRANCH  12  13
ATOM     13  C   UNL     1     -20.448  25.983  40.209  1.00  0.00     0.140 C 
ATOM     14  O   UNL     1     -20.784  27.118  39.901  1.00  0.00    -0.299 OA
BRANCH  13  15
ATOM     15  C   UNL     1     -20.487  25.583  41.659  1.00  0.00     0.106 CG0
ATOM     16  G   UNL     1     -21.888  25.757  42.209  1.00  0.00     0.000 G0
ENDBRANCH  13  15
ENDBRANCH  12  13
BRANCH  12  17
ATOM     17  C   UNL     1     -18.780  25.623  38.330  1.00  0.00    -0.006 C 
ATOM     18  C   UNL     1     -18.591  24.908  36.981  1.00  0.00     0.008 C 
ATOM     19  C   UNL     1     -17.446  25.647  39.098  1.00  0.00     0.008 C 
ENDBRANCH  12  17
ENDBRANCH  11  12
ENDBRANCH   1  11
TORSDOF 1
ENDMDL
MODEL 5
REMARK VINA RESULT:    -3.095      2.663      4.608
REMARK INTER + INTRA:          -4.366
REMARK INTER:                  -3.930
REMARK INTRA:                  -0.437
REMARK UNBOUND:                 0.357
REMARK SMILES CC1=CCC[C@H](C)C(=O)C[C@H](C(C)C)C(=O)C1
REMARK SMILES IDX 8 1 9 2 6 3 7 4 5 5 4 6 3 7 2 8 1 9 10 11 11 12 15 13 16 14
REMARK SMILES IDX 17 15 12 17 13 18 14 19
REMARK H PARENT
REMARK Flexibility Score: 70.00
ROOT
ATOM      1  C   UNL     1      -6.217  30.791  43.346  1.00  0.00     0.136 C 
ATOM      2  O   UNL     1      -5.298  31.546  43.064  1.00  0.00    -0.299 OA
ENDROOT
BRANCH   1   3
ATOM      3  C   UNL     1      -7.641  31.179  43.016  1.00  0.00     0.053 C 
ATOM      4  C   UNL     1      -7.855  32.658  43.355  1.00  0.00     0.016 C 
BRANCH   3   5
ATOM      5  C   UNL     1      -8.007  30.910  41.539  1.00  0.00     0.015 C 
BRANCH   5   6
ATOM      6  C   UNL     1      -8.279  29.425  41.228  1.00  0.00     0.028 C 
BRANCH   6   7
ATOM      7  C   UNL     1      -9.401  28.874  42.079  1.00  0.00    -0.028 C 
ATOM      8  C   UNL     1      -9.281  27.976  43.086  1.00  0.00    -0.070 CG0
ATOM      9  C   UNL     1     -10.531  27.582  43.830  1.00  0.00     0.039 C 
ATOM     10  G   UNL     1      -7.979  27.297  43.459  1.00  0.00     0.000 G0
ENDBRANCH   6   7
ENDBRANCH   5   6
ENDBRANCH   3   5
ENDBRANCH   1   3
BRANCH   1  11
ATOM     11  C   UNL     1      -5.919  29.491  44.052  1.00  0.00     0.087 C 
BRANCH  11  12
ATOM     12  C   UNL     1      -7.006  29.131  45.093  1.00  0.00     0.066 C 
BRANCH  12  13
ATOM     13  C   UNL     1      -7.539  27.731  44.847  1.00  0.00     0.140 C 
ATOM     14  O   UNL     1      -7.594  26.930  45.770  1.00  0.00    -0.299 OA
BRANCH  13  15
ATOM     15  C   UNL     1      -7.972  27.289  43.476  1.00  0.00     0.106 CG0
ATOM     16  G   UNL     1      -9.278  27.961  43.102  1.00  0.00     0.000 G0
ENDBRANCH  13  15
ENDBRANCH  12  13
BRANCH  12  17
ATOM     17  C   UNL     1      -6.543  29.304  46.573  1.00  0.00    -0.006 C 
ATOM     18  C   UNL     1      -7.246  30.493  47.250  1.00  0.00     0.008 C 
ATOM     19  C   UNL     1      -5.019  29.434  46.745  1.00  0.00     0.008 C 
ENDBRANCH  12  17
ENDBRANCH  11  12
ENDBRANCH   1  11
TORSDOF 1
ENDMDL
MODEL 6
REMARK VINA RESULT:    -3.083      7.005      9.523
REMARK INTER + INTRA:          -4.348
REMARK INTER:                  -3.912
REMARK INTRA:                  -0.436
REMARK UNBOUND:                 0.357
REMARK SMILES CC1=CCC[C@H](C)C(=O)C[C@H](C(C)C)C(=O)C1
REMARK SMILES IDX 8 1 9 2 6 3 7 4 5 5 4 6 3 7 2 8 1 9 10 11 11 12 15 13 16 14
REMARK SMILES IDX 17 15 12 17 13 18 14 19
REMARK H PARENT
REMARK Flexibility Score: 70.00
ROOT
ATOM      1  C   UNL     1     -11.012  27.244  42.984  1.00  0.00     0.136 C 
ATOM      2  O   UNL     1     -10.599  27.683  44.047  1.00  0.00    -0.299 OA
ENDROOT
BRANCH   1   3
ATOM      3  C   UNL     1     -10.257  27.527  41.704  1.00  0.00     0.053 C 
ATOM      4  C   UNL     1     -10.293  29.032  41.417  1.00  0.00     0.016 C 
BRANCH   3   5
ATOM      5  C   UNL     1      -8.795  27.026  41.751  1.00  0.00     0.015 C 
BRANCH   5   6
ATOM      6  C   UNL     1      -8.666  25.490  41.760  1.00  0.00     0.028 C 
BRANCH   6   7
ATOM      7  C   UNL     1      -9.220  24.877  40.493  1.00  0.00    -0.028 C 
ATOM      8  C   UNL     1     -10.340  24.123  40.387  1.00  0.00    -0.070 CG0
ATOM      9  C   UNL     1     -10.732  23.633  39.016  1.00  0.00     0.039 C 
ATOM     10  G   UNL     1     -11.179  23.688  41.571  1.00  0.00     0.000 G0
ENDBRANCH   6   7
ENDBRANCH   5   6
ENDBRANCH   3   5
ENDBRANCH   1   3
BRANCH   1  11
ATOM     11  C   UNL     1     -12.296  26.449  42.958  1.00  0.00     0.087 C 
BRANCH  11  12
ATOM     12  C   UNL     1     -12.614  25.904  41.545  1.00  0.00     0.066 C 
BRANCH  12  13
ATOM     13  C   UNL     1     -12.533  24.388  41.527  1.00  0.00     0.140 C 
ATOM     14  O   UNL     1     -13.559  23.724  41.509  1.00  0.00    -0.299 OA
BRANCH  13  15
ATOM     15  C   UNL     1     -11.207  23.676  41.564  1.00  0.00     0.106 CG0
ATOM     16  G   UNL     1     -10.339  24.134  40.410  1.00  0.00     0.000 G0
ENDBRANCH  13  15
ENDBRANCH  12  13
BRANCH  12  17
ATOM     17  C   UNL     1     -13.977  26.400  40.971  1.00  0.00    -0.006 C 
ATOM     18  C   UNL     1     -13.805  27.055  39.590  1.00  0.00     0.008 C 
ATOM     19  C   UNL     1     -14.746  27.351  41.906  1.00  0.00     0.008 C 
ENDBRANCH  12  17
ENDBRANCH  11  12
ENDBRANCH   1  11
TORSDOF 1
ENDMDL
MODEL 7
REMARK VINA RESULT:    -2.931      2.014      4.652
REMARK INTER + INTRA:          -4.116
REMARK INTER:                  -3.685
REMARK INTRA:                  -0.431
REMARK UNBOUND:                 0.357
REMARK SMILES CC1=CCC[C@H](C)C(=O)C[C@H](C(C)C)C(=O)C1
REMARK SMILES IDX 8 1 9 2 6 3 7 4 5 5 4 6 3 7 2 8 1 9 10 11 11 12 15 13 16 14
REMARK SMILES IDX 17 15 12 17 13 18 14 19
REMARK H PARENT
REMARK Flexibility Score: 70.00
ROOT
ATOM      1  C   UNL     1      -7.463  31.600  43.388  1.00  0.00     0.136 C 
ATOM      2  O   UNL     1      -8.210  31.773  42.437  1.00  0.00    -0.299 OA
ENDROOT
BRANCH   1   3
ATOM      3  C   UNL     1      -6.188  32.405  43.504  1.00  0.00     0.053 C 
ATOM      4  C   UNL     1      -5.384  32.272  42.206  1.00  0.00     0.016 C 
BRANCH   3   5
ATOM      5  C   UNL     1      -6.449  33.896  43.822  1.00  0.00     0.015 C 
BRANCH   5   6
ATOM      6  C   UNL     1      -7.296  34.120  45.089  1.00  0.00     0.028 C 
BRANCH   6   7
ATOM      7  C   UNL     1      -6.468  33.972  46.346  1.00  0.00    -0.028 C 
ATOM      8  C   UNL     1      -6.490  32.926  47.206  1.00  0.00    -0.070 CG0
ATOM      9  C   UNL     1      -5.556  32.966  48.388  1.00  0.00     0.039 C 
ATOM     10  G   UNL     1      -7.446  31.756  47.086  1.00  0.00     0.000 G0
ENDBRANCH   6   7
ENDBRANCH   5   6
ENDBRANCH   3   5
ENDBRANCH   1   3
BRANCH   1  11
ATOM     11  C   UNL     1      -7.807  30.556  44.423  1.00  0.00     0.087 C 
BRANCH  11  12
ATOM     12  C   UNL     1      -6.570  30.114  45.240  1.00  0.00     0.066 C 
BRANCH  12  13
ATOM     13  C   UNL     1      -6.729  30.496  46.700  1.00  0.00     0.140 C 
ATOM     14  O   UNL     1      -6.288  29.762  47.573  1.00  0.00    -0.299 OA
BRANCH  13  15
ATOM     15  C   UNL     1      -7.453  31.751  47.105  1.00  0.00     0.106 CG0
ATOM     16  G   UNL     1      -6.479  32.909  47.188  1.00  0.00     0.000 G0
ENDBRANCH  13  15
ENDBRANCH  12  13
BRANCH  12  17
ATOM     17  C   UNL     1      -6.224  28.600  45.089  1.00  0.00    -0.006 C 
ATOM     18  C   UNL     1      -5.437  28.325  43.797  1.00  0.00     0.008 C 
ATOM     19  C   UNL     1      -7.444  27.664  45.166  1.00  0.00     0.008 C 
ENDBRANCH  12  17
ENDBRANCH  11  12
ENDBRANCH   1  11
TORSDOF 1
ENDMDL
MODEL 8
REMARK VINA RESULT:    -2.838      2.702      4.110
REMARK INTER + INTRA:          -3.975
REMARK INTER:                  -3.835
REMARK INTRA:                  -0.140
REMARK UNBOUND:                 0.357
REMARK SMILES CC1=CCC[C@H](C)C(=O)C[C@H](C(C)C)C(=O)C1
REMARK SMILES IDX 8 1 9 2 6 3 7 4 5 5 4 6 3 7 2 8 1 9 10 11 11 12 15 13 16 14
REMARK SMILES IDX 17 15 12 17 13 18 14 19
REMARK H PARENT
REMARK Flexibility Score: 70.00
ROOT
ATOM      1  C   UNL     1      -8.946  29.383  42.789  1.00  0.00     0.136 C 
ATOM      2  O   UNL     1      -9.800  29.515  41.924  1.00  0.00    -0.299 OA
ENDROOT
BRANCH   1   3
ATOM      3  C   UNL     1      -8.870  28.100  43.587  1.00  0.00     0.053 C 
ATOM      4  C   UNL     1     -10.269  27.736  44.095  1.00  0.00     0.016 C 
BRANCH   3   5
ATOM      5  C   UNL     1      -8.273  26.927  42.776  1.00  0.00     0.015 C 
BRANCH   5   6
ATOM      6  C   UNL     1      -6.733  26.924  42.732  1.00  0.00     0.028 C 
BRANCH   6   7
ATOM      7  C   UNL     1      -6.135  27.000  44.119  1.00  0.00    -0.028 C 
ATOM      8  C   UNL     1      -5.361  27.999  44.608  1.00  0.00    -0.070 CG0
ATOM      9  C   UNL     1      -4.893  27.891  46.037  1.00  0.00     0.039 C 
ATOM     10  G   UNL     1      -4.884  29.177  43.784  1.00  0.00     0.000 G0
ENDBRANCH   6   7
ENDBRANCH   5   6
ENDBRANCH   3   5
ENDBRANCH   1   3
BRANCH   1  11
ATOM     11  C   UNL     1      -7.996  30.521  43.073  1.00  0.00     0.087 C 
BRANCH  11  12
ATOM     12  C   UNL     1      -7.188  30.294  44.374  1.00  0.00     0.066 C 
BRANCH  12  13
ATOM     13  C   UNL     1      -5.699  30.401  44.103  1.00  0.00     0.140 C 
ATOM     14  O   UNL     1      -5.154  31.496  44.113  1.00  0.00    -0.299 OA
BRANCH  13  15
ATOM     15  C   UNL     1      -4.873  29.183  43.786  1.00  0.00     0.106 CG0
ATOM     16  G   UNL     1      -5.348  28.004  44.611  1.00  0.00     0.000 G0
ENDBRANCH  13  15
ENDBRANCH  12  13
BRANCH  12  17
ATOM     17  C   UNL     1      -7.614  31.228  45.549  1.00  0.00    -0.006 C 
ATOM     18  C   UNL     1      -7.950  30.424  46.817  1.00  0.00     0.008 C 
ATOM     19  C   UNL     1      -8.778  32.177  45.211  1.00  0.00     0.008 C 
ENDBRANCH  12  17
ENDBRANCH  11  12
ENDBRANCH   1  11
TORSDOF 1
ENDMDL
MODEL 9
REMARK VINA RESULT:    -2.677      1.803      2.427
REMARK INTER + INTRA:          -3.729
REMARK INTER:                  -3.489
REMARK INTRA:                  -0.240
REMARK UNBOUND:                 0.357
REMARK SMILES CC1=CCC[C@H](C)C(=O)C[C@H](C(C)C)C(=O)C1
REMARK SMILES IDX 8 1 9 2 6 3 7 4 5 5 4 6 3 7 2 8 1 9 10 11 11 12 15 13 16 14
REMARK SMILES IDX 17 15 12 17 13 18 14 19
REMARK H PARENT
REMARK Flexibility Score: 70.00
ROOT
ATOM      1  C   UNL     1      -7.331  29.911  46.223  1.00  0.00     0.136 C 
ATOM      2  O   UNL     1      -6.646  29.765  47.225  1.00  0.00    -0.299 OA
ENDROOT
BRANCH   1   3
ATOM      3  C   UNL     1      -7.611  28.731  45.319  1.00  0.00     0.053 C 
ATOM      4  C   UNL     1      -8.915  28.978  44.553  1.00  0.00     0.016 C 
BRANCH   3   5
ATOM      5  C   UNL     1      -6.455  28.447  44.333  1.00  0.00     0.015 C 
BRANCH   5   6
ATOM      6  C   UNL     1      -6.848  28.617  42.853  1.00  0.00     0.028 C 
BRANCH   6   7
ATOM      7  C   UNL     1      -6.047  29.712  42.185  1.00  0.00    -0.028 C 
ATOM      8  C   UNL     1      -6.354  31.032  42.159  1.00  0.00    -0.070 CG0
ATOM      9  C   UNL     1      -5.397  31.963  41.460  1.00  0.00     0.039 C 
ATOM     10  G   UNL     1      -7.633  31.611  42.728  1.00  0.00     0.000 G0
ENDBRANCH   6   7
ENDBRANCH   5   6
ENDBRANCH   3   5
ENDBRANCH   1   3
BRANCH   1  11
ATOM     11  C   UNL     1      -7.864  31.282  45.882  1.00  0.00     0.087 C 
BRANCH  11  12
ATOM     12  C   UNL     1      -6.806  32.157  45.169  1.00  0.00     0.066 C 
BRANCH  12  13
ATOM     13  C   UNL     1      -7.315  32.612  43.813  1.00  0.00     0.140 C 
ATOM     14  O   UNL     1      -7.495  33.802  43.598  1.00  0.00    -0.299 OA
BRANCH  13  15
ATOM     15  C   UNL     1      -7.638  31.621  42.727  1.00  0.00     0.106 CG0
ATOM     16  G   UNL     1      -6.362  31.027  42.169  1.00  0.00     0.000 G0
ENDBRANCH  13  15
ENDBRANCH  12  13
BRANCH  12  17
ATOM     17  C   UNL     1      -6.314  33.369  46.019  1.00  0.00    -0.006 C 
ATOM     18  C   UNL     1      -4.804  33.604  45.849  1.00  0.00     0.008 C 
ATOM     19  C   UNL     1      -6.660  33.271  47.516  1.00  0.00     0.008 C 
ENDBRANCH  12  17
ENDBRANCH  11  12
ENDBRANCH   1  11
TORSDOF 1
ENDMDL
