MODEL 1
REMARK VINA RESULT:    -3.851      0.000      0.000
REMARK INTER + INTRA:          -4.931
REMARK INTER:                  -5.426
REMARK INTRA:                   0.495
REMARK UNBOUND:                 0.495
REMARK SMILES CC1=CCC(=C(C)C)C(=O)CC(C)=CCC1
REMARK SMILES IDX 12 1 14 2 13 3 15 4 16 5 2 6 1 7 3 8 11 10 9 11 10 12 5 13
REMARK SMILES IDX 6 14 7 15 8 16 4 17
REMARK H PARENT
REMARK Flexibility Score: 60.00
ROOT
ATOM      1  C   UNL     1     -27.916  11.588 -28.635  1.00  0.00    -0.070 C 
ATOM      2  C   UNL     1     -27.065  11.124 -27.693  1.00  0.00    -0.027 C 
ATOM      3  C   UNL     1     -29.011  12.527 -28.195  1.00  0.00     0.039 C 
ENDROOT
BRANCH   2   4
ATOM      4  C   UNL     1     -25.968  10.105 -27.918  1.00  0.00     0.032 C 
BRANCH   4   5
ATOM      5  C   UNL     1     -24.534  10.652 -27.764  1.00  0.00     0.034 C 
BRANCH   5   6
ATOM      6  C   UNL     1     -23.844  10.900 -29.094  1.00  0.00    -0.077 C 
ATOM      7  C   UNL     1     -22.844   9.876 -29.567  1.00  0.00     0.039 C 
ATOM      8  C   UNL     1     -24.016  12.013 -29.848  1.00  0.00    -0.023 CG0
ATOM      9  G   UNL     1     -24.974  13.158 -29.583  1.00  0.00     0.000 G0
ENDBRANCH   5   6
ENDBRANCH   4   5
ENDBRANCH   2   4
BRANCH   1  10
ATOM     10  C   UNL     1     -27.877  11.143 -30.082  1.00  0.00     0.111 C 
BRANCH  10  11
ATOM     11  C   UNL     1     -26.748  11.796 -30.834  1.00  0.00     0.163 C 
ATOM     12  O   UNL     1     -26.207  11.149 -31.772  1.00  0.00    -0.294 OA
BRANCH  11  13
ATOM     13  C   UNL     1     -26.213  13.141 -30.470  1.00  0.00    -0.002 C 
ATOM     14  C   UNL     1     -26.785  14.279 -30.968  1.00  0.00    -0.069 C 
ATOM     15  C   UNL     1     -26.174  15.645 -30.747  1.00  0.00     0.039 C 
ATOM     16  C   UNL     1     -28.065  14.226 -31.773  1.00  0.00     0.039 C 
BRANCH  13  17
ATOM     17  C   UNL     1     -24.961  13.182 -29.608  1.00  0.00     0.066 CG0
ATOM     18  G   UNL     1     -24.033  12.015 -29.886  1.00  0.00     0.000 G0
ENDBRANCH  13  17
ENDBRANCH  11  13
ENDBRANCH  10  11
ENDBRANCH   1  10
TORSDOF 0
ENDMDL
MODEL 2
REMARK VINA RESULT:    -3.838      8.251     10.930
REMARK INTER + INTRA:          -4.913
REMARK INTER:                  -6.302
REMARK INTRA:                   1.389
REMARK UNBOUND:                 0.495
REMARK SMILES CC1=CCC(=C(C)C)C(=O)CC(C)=CCC1
REMARK SMILES IDX 12 1 14 2 13 3 15 4 16 5 2 6 1 7 3 8 11 10 9 11 10 12 5 13
REMARK SMILES IDX 6 14 7 15 8 16 4 17
REMARK H PARENT
REMARK Flexibility Score: 60.00
ROOT
ATOM      1  C   UNL     1     -14.383  14.185 -30.503  1.00  0.00    -0.070 C 
ATOM      2  C   UNL     1     -13.448  13.248 -30.781  1.00  0.00    -0.027 C 
ATOM      3  C   UNL     1     -14.031  15.629 -30.756  1.00  0.00     0.039 C 
ENDROOT
BRANCH   2   4
ATOM      4  C   UNL     1     -13.576  11.765 -30.507  1.00  0.00     0.032 C 
BRANCH   4   5
ATOM      5  C   UNL     1     -13.020  11.308 -29.142  1.00  0.00     0.034 C 
BRANCH   5   6
ATOM      6  C   UNL     1     -14.105  10.892 -28.165  1.00  0.00    -0.077 C 
ATOM      7  C   UNL     1     -13.750  10.850 -26.700  1.00  0.00     0.039 C 
ATOM      8  C   UNL     1     -15.347  10.490 -28.528  1.00  0.00    -0.023 CG0
ATOM      9  G   UNL     1     -15.928  10.467 -29.928  1.00  0.00     0.000 G0
ENDBRANCH   5   6
ENDBRANCH   4   5
ENDBRANCH   2   4
BRANCH   1  10
ATOM     10  C   UNL     1     -15.721  13.862 -29.870  1.00  0.00     0.111 C 
BRANCH  10  11
ATOM     11  C   UNL     1     -16.497  12.866 -30.690  1.00  0.00     0.163 C 
ATOM     12  O   UNL     1     -16.791  13.174 -31.877  1.00  0.00    -0.294 OA
BRANCH  11  13
ATOM     13  C   UNL     1     -16.979  11.568 -30.130  1.00  0.00    -0.002 C 
ATOM     14  C   UNL     1     -18.281  11.413 -29.743  1.00  0.00    -0.069 C 
ATOM     15  C   UNL     1     -18.761  10.169 -29.029  1.00  0.00     0.039 C 
ATOM     16  C   UNL     1     -19.311  12.488 -30.010  1.00  0.00     0.039 C 
BRANCH  13  17
ATOM     17  C   UNL     1     -15.943  10.473 -29.925  1.00  0.00     0.066 CG0
ATOM     18  G   UNL     1     -15.359  10.488 -28.526  1.00  0.00     0.000 G0
ENDBRANCH  13  17
ENDBRANCH  11  13
ENDBRANCH  10  11
ENDBRANCH   1  10
TORSDOF 0
ENDMDL
MODEL 3
REMARK VINA RESULT:    -3.778      9.665     11.601
REMARK INTER + INTRA:          -4.829
REMARK INTER:                  -5.501
REMARK INTRA:                   0.672
REMARK UNBOUND:                 0.495
REMARK SMILES CC1=CCC(=C(C)C)C(=O)CC(C)=CCC1
REMARK SMILES IDX 12 1 14 2 13 3 15 4 16 5 2 6 1 7 3 8 11 10 9 11 10 12 5 13
REMARK SMILES IDX 6 14 7 15 8 16 4 17
REMARK H PARENT
REMARK Flexibility Score: 60.00
ROOT
ATOM      1  C   UNL     1     -16.800  13.140 -30.091  1.00  0.00    -0.070 C 
ATOM      2  C   UNL     1     -16.328  14.008 -31.013  1.00  0.00    -0.027 C 
ATOM      3  C   UNL     1     -17.025  13.651 -28.691  1.00  0.00     0.039 C 
ENDROOT
BRANCH   2   4
ATOM      4  C   UNL     1     -15.948  13.664 -32.438  1.00  0.00     0.032 C 
BRANCH   4   5
ATOM      5  C   UNL     1     -14.706  12.759 -32.577  1.00  0.00     0.034 C 
BRANCH   5   6
ATOM      6  C   UNL     1     -13.612  13.090 -31.577  1.00  0.00    -0.077 C 
ATOM      7  C   UNL     1     -12.861  14.384 -31.764  1.00  0.00     0.039 C 
ATOM      8  C   UNL     1     -13.220  12.269 -30.573  1.00  0.00    -0.023 CG0
ATOM      9  G   UNL     1     -13.837  10.939 -30.186  1.00  0.00     0.000 G0
ENDBRANCH   5   6
ENDBRANCH   4   5
ENDBRANCH   2   4
BRANCH   1  10
ATOM     10  C   UNL     1     -17.024  11.668 -30.372  1.00  0.00     0.111 C 
BRANCH  10  11
ATOM     11  C   UNL     1     -16.280  10.796 -29.397  1.00  0.00     0.163 C 
ATOM     12  O   UNL     1     -16.919   9.878 -28.813  1.00  0.00    -0.294 OA
BRANCH  11  13
ATOM     13  C   UNL     1     -14.844  11.019 -29.055  1.00  0.00    -0.002 C 
ATOM     14  C   UNL     1     -14.474  11.381 -27.789  1.00  0.00    -0.069 C 
ATOM     15  C   UNL     1     -13.051  11.767 -27.451  1.00  0.00     0.039 C 
ATOM     16  C   UNL     1     -15.479  11.417 -26.659  1.00  0.00     0.039 C 
BRANCH  13  17
ATOM     17  C   UNL     1     -13.836  10.918 -30.189  1.00  0.00     0.066 CG0
ATOM     18  G   UNL     1     -13.239  12.265 -30.550  1.00  0.00     0.000 G0
ENDBRANCH  13  17
ENDBRANCH  11  13
ENDBRANCH  10  11
ENDBRANCH   1  10
TORSDOF 0
ENDMDL
MODEL 4
REMARK VINA RESULT:    -3.561      1.855      3.609
REMARK INTER + INTRA:          -4.523
REMARK INTER:                  -4.821
REMARK INTRA:                   0.298
REMARK UNBOUND:                 0.495
REMARK SMILES CC1=CCC(=C(C)C)C(=O)CC(C)=CCC1
REMARK SMILES IDX 12 1 14 2 13 3 15 4 16 5 2 6 1 7 3 8 11 10 9 11 10 12 5 13
REMARK SMILES IDX 6 14 7 15 8 16 4 17
REMARK H PARENT
REMARK Flexibility Score: 60.00
ROOT
ATOM      1  C   UNL     1     -24.411  13.937 -30.741  1.00  0.00    -0.070 C 
ATOM      2  C   UNL     1     -23.646  13.095 -30.011  1.00  0.00    -0.027 C 
ATOM      3  C   UNL     1     -23.718  14.848 -31.722  1.00  0.00     0.039 C 
ENDROOT
BRANCH   2   4
ATOM      4  C   UNL     1     -24.142  12.178 -28.913  1.00  0.00     0.032 C 
BRANCH   4   5
ATOM      5  C   UNL     1     -24.608  10.787 -29.392  1.00  0.00     0.034 C 
BRANCH   5   6
ATOM      6  C   UNL     1     -25.930  10.357 -28.780  1.00  0.00    -0.077 C 
ATOM      7  C   UNL     1     -25.917   9.881 -27.350  1.00  0.00     0.039 C 
ATOM      8  C   UNL     1     -27.104  10.308 -29.455  1.00  0.00    -0.023 CG0
ATOM      9  G   UNL     1     -27.358  10.751 -30.882  1.00  0.00     0.000 G0
ENDBRANCH   5   6
ENDBRANCH   4   5
ENDBRANCH   2   4
BRANCH   1  10
ATOM     10  C   UNL     1     -25.908  14.072 -30.556  1.00  0.00     0.111 C 
BRANCH  10  11
ATOM     11  C   UNL     1     -26.667  13.161 -31.484  1.00  0.00     0.163 C 
ATOM     12  O   UNL     1     -26.432  13.243 -32.721  1.00  0.00    -0.294 OA
BRANCH  11  13
ATOM     13  C   UNL     1     -27.721  12.220 -31.001  1.00  0.00    -0.002 C 
ATOM     14  C   UNL     1     -28.943  12.685 -30.602  1.00  0.00    -0.069 C 
ATOM     15  C   UNL     1     -29.973  11.780 -29.961  1.00  0.00     0.039 C 
ATOM     16  C   UNL     1     -29.327  14.137 -30.781  1.00  0.00     0.039 C 
BRANCH  13  17
ATOM     17  C   UNL     1     -27.341  10.752 -30.884  1.00  0.00     0.066 CG0
ATOM     18  G   UNL     1     -27.104  10.331 -29.447  1.00  0.00     0.000 G0
ENDBRANCH  13  17
ENDBRANCH  11  13
ENDBRANCH  10  11
ENDBRANCH   1  10
TORSDOF 0
ENDMDL
MODEL 5
REMARK VINA RESULT:    -3.498      9.480     12.055
REMARK INTER + INTRA:          -4.434
REMARK INTER:                  -5.649
REMARK INTRA:                   1.215
REMARK UNBOUND:                 0.495
REMARK SMILES CC1=CCC(=C(C)C)C(=O)CC(C)=CCC1
REMARK SMILES IDX 12 1 14 2 13 3 15 4 16 5 2 6 1 7 3 8 11 10 9 11 10 12 5 13
REMARK SMILES IDX 6 14 7 15 8 16 4 17
REMARK H PARENT
REMARK Flexibility Score: 60.00
ROOT
ATOM      1  C   UNL     1     -14.095  11.374 -27.900  1.00  0.00    -0.070 C 
ATOM      2  C   UNL     1     -15.206  11.783 -27.247  1.00  0.00    -0.027 C 
ATOM      3  C   UNL     1     -12.766  11.554 -27.213  1.00  0.00     0.039 C 
ENDROOT
BRANCH   2   4
ATOM      4  C   UNL     1     -16.613  11.775 -27.805  1.00  0.00     0.032 C 
BRANCH   4   5
ATOM      5  C   UNL     1     -17.020  13.062 -28.552  1.00  0.00     0.034 C 
BRANCH   5   6
ATOM      6  C   UNL     1     -16.956  12.920 -30.063  1.00  0.00    -0.077 C 
ATOM      7  C   UNL     1     -18.190  12.423 -30.772  1.00  0.00     0.039 C 
ATOM      8  C   UNL     1     -15.845  13.144 -30.805  1.00  0.00    -0.023 CG0
ATOM      9  G   UNL     1     -14.507  13.662 -30.315  1.00  0.00     0.000 G0
ENDBRANCH   5   6
ENDBRANCH   4   5
ENDBRANCH   2   4
BRANCH   1  10
ATOM     10  C   UNL     1     -14.116  10.832 -29.315  1.00  0.00     0.111 C 
BRANCH  10  11
ATOM     11  C   UNL     1     -13.087  11.507 -30.183  1.00  0.00     0.163 C 
ATOM     12  O   UNL     1     -11.957  10.959 -30.301  1.00  0.00    -0.294 OA
BRANCH  11  13
ATOM     13  C   UNL     1     -13.338  12.819 -30.851  1.00  0.00    -0.002 C 
ATOM     14  C   UNL     1     -12.501  13.276 -31.830  1.00  0.00    -0.069 C 
ATOM     15  C   UNL     1     -12.635  14.666 -32.413  1.00  0.00     0.039 C 
ATOM     16  C   UNL     1     -11.391  12.409 -32.380  1.00  0.00     0.039 C 
BRANCH  13  17
ATOM     17  C   UNL     1     -14.497  13.654 -30.329  1.00  0.00     0.066 CG0
ATOM     18  G   UNL     1     -15.840  13.135 -30.805  1.00  0.00     0.000 G0
ENDBRANCH  13  17
ENDBRANCH  11  13
ENDBRANCH  10  11
ENDBRANCH   1  10
TORSDOF 0
ENDMDL
MODEL 6
REMARK VINA RESULT:    -3.451      9.756     11.579
REMARK INTER + INTRA:          -4.368
REMARK INTER:                  -4.828
REMARK INTRA:                   0.460
REMARK UNBOUND:                 0.495
REMARK SMILES CC1=CCC(=C(C)C)C(=O)CC(C)=CCC1
REMARK SMILES IDX 12 1 14 2 13 3 15 4 16 5 2 6 1 7 3 8 11 10 9 11 10 12 5 13
REMARK SMILES IDX 6 14 7 15 8 16 4 17
REMARK H PARENT
REMARK Flexibility Score: 60.00
ROOT
ATOM      1  C   UNL     1     -16.485  12.126 -30.734  1.00  0.00    -0.070 C 
ATOM      2  C   UNL     1     -17.126  12.110 -29.544  1.00  0.00    -0.027 C 
ATOM      3  C   UNL     1     -16.962  13.102 -31.780  1.00  0.00     0.039 C 
ENDROOT
BRANCH   2   4
ATOM      4  C   UNL     1     -16.860  11.144 -28.410  1.00  0.00     0.032 C 
BRANCH   4   5
ATOM      5  C   UNL     1     -16.089  11.743 -27.215  1.00  0.00     0.034 C 
BRANCH   5   6
ATOM      6  C   UNL     1     -14.598  11.461 -27.265  1.00  0.00    -0.077 C 
ATOM      7  C   UNL     1     -14.079  10.297 -26.460  1.00  0.00     0.039 C 
ATOM      8  C   UNL     1     -13.697  12.226 -27.927  1.00  0.00    -0.023 CG0
ATOM      9  G   UNL     1     -13.988  13.424 -28.810  1.00  0.00     0.000 G0
ENDBRANCH   5   6
ENDBRANCH   4   5
ENDBRANCH   2   4
BRANCH   1  10
ATOM     10  C   UNL     1     -15.379  11.156 -31.095  1.00  0.00     0.111 C 
BRANCH  10  11
ATOM     11  C   UNL     1     -14.023  11.697 -30.728  1.00  0.00     0.163 C 
ATOM     12  O   UNL     1     -13.044  10.901 -30.734  1.00  0.00    -0.294 OA
BRANCH  11  13
ATOM     13  C   UNL     1     -13.812  13.113 -30.303  1.00  0.00    -0.002 C 
ATOM     14  C   UNL     1     -13.392  14.057 -31.199  1.00  0.00    -0.069 C 
ATOM     15  C   UNL     1     -13.019  15.458 -30.768  1.00  0.00     0.039 C 
ATOM     16  C   UNL     1     -13.278  13.742 -32.673  1.00  0.00     0.039 C 
BRANCH  13  17
ATOM     17  C   UNL     1     -13.992  13.429 -28.827  1.00  0.00     0.066 CG0
ATOM     18  G   UNL     1     -13.679  12.238 -27.941  1.00  0.00     0.000 G0
ENDBRANCH  13  17
ENDBRANCH  11  13
ENDBRANCH  10  11
ENDBRANCH   1  10
TORSDOF 0
ENDMDL
MODEL 7
REMARK VINA RESULT:    -3.412      1.846      3.321
REMARK INTER + INTRA:          -4.314
REMARK INTER:                  -5.255
REMARK INTRA:                   0.941
REMARK UNBOUND:                 0.495
REMARK SMILES CC1=CCC(=C(C)C)C(=O)CC(C)=CCC1
REMARK SMILES IDX 12 1 14 2 13 3 15 4 16 5 2 6 1 7 3 8 11 10 9 11 10 12 5 13
REMARK SMILES IDX 6 14 7 15 8 16 4 17
REMARK H PARENT
REMARK Flexibility Score: 60.00
ROOT
ATOM      1  C   UNL     1     -27.854  12.941 -31.140  1.00  0.00    -0.070 C 
ATOM      2  C   UNL     1     -28.166  11.638 -30.963  1.00  0.00    -0.027 C 
ATOM      3  C   UNL     1     -28.939  13.963 -30.912  1.00  0.00     0.039 C 
ENDROOT
BRANCH   2   4
ATOM      4  C   UNL     1     -27.248  10.465 -31.234  1.00  0.00     0.032 C 
BRANCH   4   5
ATOM      5  C   UNL     1     -26.523   9.908 -29.991  1.00  0.00     0.034 C 
BRANCH   5   6
ATOM      6  C   UNL     1     -26.523  10.873 -28.818  1.00  0.00    -0.077 C 
ATOM      7  C   UNL     1     -27.706  10.839 -27.884  1.00  0.00     0.039 C 
ATOM      8  C   UNL     1     -25.566  11.806 -28.596  1.00  0.00    -0.023 CG0
ATOM      9  G   UNL     1     -24.288  12.011 -29.385  1.00  0.00     0.000 G0
ENDBRANCH   5   6
ENDBRANCH   4   5
ENDBRANCH   2   4
BRANCH   1  10
ATOM     10  C   UNL     1     -26.504  13.412 -31.640  1.00  0.00     0.111 C 
BRANCH  10  11
ATOM     11  C   UNL     1     -25.633  13.898 -30.513  1.00  0.00     0.163 C 
ATOM     12  O   UNL     1     -26.030  14.887 -29.838  1.00  0.00    -0.294 OA
BRANCH  11  13
ATOM     13  C   UNL     1     -24.300  13.295 -30.212  1.00  0.00    -0.002 C 
ATOM     14  C   UNL     1     -23.156  13.829 -30.737  1.00  0.00    -0.069 C 
ATOM     15  C   UNL     1     -21.812  13.152 -30.582  1.00  0.00     0.039 C 
ATOM     16  C   UNL     1     -23.181  15.130 -31.508  1.00  0.00     0.039 C 
BRANCH  13  17
ATOM     17  C   UNL     1     -24.286  12.021 -29.383  1.00  0.00     0.066 CG0
ATOM     18  G   UNL     1     -25.575  11.821 -28.612  1.00  0.00     0.000 G0
ENDBRANCH  13  17
ENDBRANCH  11  13
ENDBRANCH  10  11
ENDBRANCH   1  10
TORSDOF 0
ENDMDL
MODEL 8
REMARK VINA RESULT:    -3.364      1.698      3.534
REMARK INTER + INTRA:          -4.246
REMARK INTER:                  -5.288
REMARK INTRA:                   1.042
REMARK UNBOUND:                 0.495
REMARK SMILES CC1=CCC(=C(C)C)C(=O)CC(C)=CCC1
REMARK SMILES IDX 12 1 14 2 13 3 15 4 16 5 2 6 1 7 3 8 11 10 9 11 10 12 5 13
REMARK SMILES IDX 6 14 7 15 8 16 4 17
REMARK H PARENT
REMARK Flexibility Score: 60.00
ROOT
ATOM      1  C   UNL     1     -24.967  10.291 -28.433  1.00  0.00    -0.070 C 
ATOM      2  C   UNL     1     -26.068   9.885 -27.761  1.00  0.00    -0.027 C 
ATOM      3  C   UNL     1     -23.647  10.265 -27.705  1.00  0.00     0.039 C 
ENDROOT
BRANCH   2   4
ATOM      4  C   UNL     1     -27.488   9.929 -28.283  1.00  0.00     0.032 C 
BRANCH   4   5
ATOM      5  C   UNL     1     -28.188  11.296 -28.143  1.00  0.00     0.034 C 
BRANCH   5   6
ATOM      6  C   UNL     1     -28.386  12.004 -29.472  1.00  0.00    -0.077 C 
ATOM      7  C   UNL     1     -29.531  11.552 -30.343  1.00  0.00     0.039 C 
ATOM      8  C   UNL     1     -27.563  12.965 -29.955  1.00  0.00    -0.023 CG0
ATOM      9  G   UNL     1     -26.370  13.586 -29.254  1.00  0.00     0.000 G0
ENDBRANCH   5   6
ENDBRANCH   4   5
ENDBRANCH   2   4
BRANCH   1  10
ATOM     10  C   UNL     1     -25.011  10.850 -29.839  1.00  0.00     0.111 C 
BRANCH  10  11
ATOM     11  C   UNL     1     -24.328  12.189 -29.926  1.00  0.00     0.163 C 
ATOM     12  O   UNL     1     -23.069  12.220 -29.858  1.00  0.00    -0.294 OA
BRANCH  11  13
ATOM     13  C   UNL     1     -25.086  13.472 -30.026  1.00  0.00    -0.002 C 
ATOM     14  C   UNL     1     -24.584  14.528 -30.734  1.00  0.00    -0.069 C 
ATOM     15  C   UNL     1     -25.248  15.887 -30.724  1.00  0.00     0.039 C 
ATOM     16  C   UNL     1     -23.327  14.388 -31.565  1.00  0.00     0.039 C 
BRANCH  13  17
ATOM     17  C   UNL     1     -26.380  13.578 -29.235  1.00  0.00     0.066 CG0
ATOM     18  G   UNL     1     -27.559  12.978 -29.977  1.00  0.00     0.000 G0
ENDBRANCH  13  17
ENDBRANCH  11  13
ENDBRANCH  10  11
ENDBRANCH   1  10
TORSDOF 0
ENDMDL
MODEL 9
REMARK VINA RESULT:    -3.212      7.830     10.422
REMARK INTER + INTRA:          -4.032
REMARK INTER:                  -4.761
REMARK INTRA:                   0.728
REMARK UNBOUND:                 0.495
REMARK SMILES CC1=CCC(=C(C)C)C(=O)CC(C)=CCC1
REMARK SMILES IDX 12 1 14 2 13 3 15 4 16 5 2 6 1 7 3 8 11 10 9 11 10 12 5 13
REMARK SMILES IDX 6 14 7 15 8 16 4 17
REMARK H PARENT
REMARK Flexibility Score: 60.00
ROOT
ATOM      1  C   UNL     1     -15.188  11.613 -27.711  1.00  0.00    -0.070 C 
ATOM      2  C   UNL     1     -14.273  12.466 -28.225  1.00  0.00    -0.027 C 
ATOM      3  C   UNL     1     -15.713  11.892 -26.326  1.00  0.00     0.039 C 
ENDROOT
BRANCH   2   4
ATOM      4  C   UNL     1     -13.561  12.303 -29.551  1.00  0.00     0.032 C 
BRANCH   4   5
ATOM      5  C   UNL     1     -13.732  13.485 -30.527  1.00  0.00     0.034 C 
BRANCH   5   6
ATOM      6  C   UNL     1     -14.648  13.166 -31.696  1.00  0.00    -0.077 C 
ATOM      7  C   UNL     1     -14.024  13.047 -33.063  1.00  0.00     0.039 C 
ATOM      8  C   UNL     1     -15.995  13.050 -31.601  1.00  0.00    -0.023 CG0
ATOM      9  G   UNL     1     -16.832  13.112 -30.339  1.00  0.00     0.000 G0
ENDBRANCH   5   6
ENDBRANCH   4   5
ENDBRANCH   2   4
BRANCH   1  10
ATOM     10  C   UNL     1     -15.637  10.351 -28.418  1.00  0.00     0.111 C 
BRANCH  10  11
ATOM     11  C   UNL     1     -16.302  10.658 -29.734  1.00  0.00     0.163 C 
ATOM     12  O   UNL     1     -15.932  10.012 -30.752  1.00  0.00    -0.294 OA
BRANCH  11  13
ATOM     13  C   UNL     1     -17.329  11.733 -29.882  1.00  0.00    -0.002 C 
ATOM     14  C   UNL     1     -18.657  11.461 -29.703  1.00  0.00    -0.069 C 
ATOM     15  C   UNL     1     -19.730  12.484 -29.999  1.00  0.00     0.039 C 
ATOM     16  C   UNL     1     -19.119  10.112 -29.198  1.00  0.00     0.039 C 
BRANCH  13  17
ATOM     17  C   UNL     1     -16.842  13.102 -30.331  1.00  0.00     0.066 CG0
ATOM     18  G   UNL     1     -15.999  13.029 -31.588  1.00  0.00     0.000 G0
ENDBRANCH  13  17
ENDBRANCH  11  13
ENDBRANCH  10  11
ENDBRANCH   1  10
TORSDOF 0
ENDMDL
