MODEL 1
REMARK VINA RESULT:     8.521      0.000      0.000
REMARK INTER + INTRA:          13.597
REMARK INTER:                  12.008
REMARK INTRA:                   1.589
REMARK UNBOUND:                 1.589
REMARK SMILES C=C(CC[C@@H](C(=O)[O-])[C@H]1[C@H](O)C[C@@]2(C)C3=C(CC[C@]12C)[C@@]1(C)CC[C@H](O)C(C)(C)[C@H]1CC3)C(C)C
REMARK SMILES IDX 4 1 5 2 6 3 7 4 8 5 9 6 10 7 19 8 12 9 13 10 18 11 20 12
REMARK SMILES IDX 14 13 15 14 17 15 16 16 32 17 21 18 31 19 30 20 23 21 22 22
REMARK SMILES IDX 27 23 24 24 25 25 28 26 29 27 11 28 26 30 3 32 2 33 1 34
REMARK SMILES IDX 33 35 34 36 35 37
REMARK H PARENT 11 29 26 31
REMARK Flexibility Score: inf
ROOT
ATOM      1  C   UNL     1       1.947  47.834   8.527  1.00  0.00     0.014 C 
ENDROOT
BRANCH   1   2
ATOM      2  C   UNL     1       3.368  47.346   8.147  1.00  0.00     0.042 C 
BRANCH   2   3
ATOM      3  C   UNL     1       4.307  48.524   8.146  1.00  0.00     0.045 C 
ATOM      4  O   UNL     1       3.858  49.692   7.987  1.00  0.00    -0.550 OA
ATOM      5  O   UNL     1       5.667  48.339   8.366  1.00  0.00    -0.550 OA
ENDBRANCH   2   3
BRANCH   2   6
ATOM      6  C   UNL     1       3.868  46.234   9.129  1.00  0.00     0.033 C 
ATOM      7  C   UNL     1       4.808  46.789  10.241  1.00  0.00     0.119 C 
ATOM      8  C   UNL     1       2.789  45.446   9.936  1.00  0.00    -0.017 C 
ATOM      9  C   UNL     1       4.501  46.000  11.533  1.00  0.00     0.043 C 
ATOM     10  C   UNL     1       3.627  44.815  11.083  1.00  0.00    -0.003 C 
ATOM     11  C   UNL     1       2.080  44.300   9.189  1.00  0.00     0.012 C 
ATOM     12  C   UNL     1       1.695  46.442  10.466  1.00  0.00     0.013 C 
ATOM     13  C   UNL     1       4.593  43.665  10.648  1.00  0.00     0.017 C 
ATOM     14  C   UNL     1       2.686  44.207  12.114  1.00  0.00    -0.064 C 
ATOM     15  C   UNL     1       1.355  43.317  10.159  1.00  0.00     0.032 C 
ATOM     16  C   UNL     1       1.600  43.491  11.685  1.00  0.00    -0.064 C 
ATOM     17  C   UNL     1       2.999  44.369  13.572  1.00  0.00     0.032 C 
ATOM     18  C   UNL     1       0.648  42.748  12.678  1.00  0.00    -0.008 C 
ATOM     19  C   UNL     1       2.524  43.175  14.374  1.00  0.00     0.009 C 
ATOM     20  C   UNL     1       0.994  43.006  14.216  1.00  0.00     0.007 C 
ATOM     21  C   UNL     1       0.766  41.234  12.348  1.00  0.00     0.014 C 
ATOM     22  C   UNL     1      -0.788  43.262  12.376  1.00  0.00     0.016 C 
ATOM     23  C   UNL     1       0.380  41.955  15.265  1.00  0.00    -0.006 C 
ATOM     24  C   UNL     1       0.026  40.323  13.318  1.00  0.00     0.033 C 
ATOM     25  C   UNL     1       0.547  40.496  14.745  1.00  0.00     0.120 C 
ATOM     26  C   UNL     1       1.099  42.048  16.645  1.00  0.00     0.014 C 
ATOM     27  C   UNL     1      -1.120  42.259  15.571  1.00  0.00     0.014 C 
BRANCH   7  28
ATOM     28  O   UNL     1       6.150  46.612   9.867  1.00  0.00    -0.393 OA
ATOM     29  H   UNL     1       6.307  45.633   9.827  1.00  0.00     0.210 HD
ENDBRANCH   7  28
BRANCH  25  30
ATOM     30  O   UNL     1      -0.131  39.587  15.578  1.00  0.00    -0.393 OA
ATOM     31  H   UNL     1       0.363  39.547  16.440  1.00  0.00     0.210 HD
ENDBRANCH  25  30
ENDBRANCH   2   6
ENDBRANCH   1   2
BRANCH   1  32
ATOM     32  C   UNL     1       1.080  48.141   7.294  1.00  0.00     0.031 C 
BRANCH  32  33
ATOM     33  C   UNL     1      -0.395  48.076   7.641  1.00  0.00    -0.075 C 
ATOM     34  C   UNL     1      -1.087  49.223   7.762  1.00  0.00     0.008 C 
BRANCH  33  35
ATOM     35  C   UNL     1      -1.109  46.740   7.798  1.00  0.00     0.008 C 
ATOM     36  C   UNL     1      -1.099  46.271   9.259  1.00  0.00     0.012 C 
ATOM     37  C   UNL     1      -0.503  45.677   6.873  1.00  0.00     0.012 C 
ENDBRANCH  33  35
ENDBRANCH  32  33
ENDBRANCH   1  32
TORSDOF 8
ENDMDL
MODEL 2
REMARK VINA RESULT:    10.113      0.802      1.655
REMARK INTER + INTRA:          15.841
REMARK INTER:                  14.378
REMARK INTRA:                   1.463
REMARK UNBOUND:                 1.589
REMARK SMILES C=C(CC[C@@H](C(=O)[O-])[C@H]1[C@H](O)C[C@@]2(C)C3=C(CC[C@]12C)[C@@]1(C)CC[C@H](O)C(C)(C)[C@H]1CC3)C(C)C
REMARK SMILES IDX 4 1 5 2 6 3 7 4 8 5 9 6 10 7 19 8 12 9 13 10 18 11 20 12
REMARK SMILES IDX 14 13 15 14 17 15 16 16 32 17 21 18 31 19 30 20 23 21 22 22
REMARK SMILES IDX 27 23 24 24 25 25 28 26 29 27 11 28 26 30 3 32 2 33 1 34
REMARK SMILES IDX 33 35 34 36 35 37
REMARK H PARENT 11 29 26 31
REMARK Flexibility Score: inf
ROOT
ATOM      1  C   UNL     1       2.262  48.146   8.703  1.00  0.00     0.014 C 
ENDROOT
BRANCH   1   2
ATOM      2  C   UNL     1       3.569  47.476   8.210  1.00  0.00     0.042 C 
BRANCH   2   3
ATOM      3  C   UNL     1       4.622  48.538   8.017  1.00  0.00     0.045 C 
ATOM      4  O   UNL     1       5.841  48.220   7.965  1.00  0.00    -0.550 OA
ATOM      5  O   UNL     1       4.255  49.869   7.851  1.00  0.00    -0.550 OA
ENDBRANCH   2   3
BRANCH   2   6
ATOM      6  C   UNL     1       4.060  46.380   9.214  1.00  0.00     0.033 C 
ATOM      7  C   UNL     1       4.906  46.967  10.382  1.00  0.00     0.119 C 
ATOM      8  C   UNL     1       2.971  45.538   9.950  1.00  0.00    -0.017 C 
ATOM      9  C   UNL     1       4.558  46.154  11.649  1.00  0.00     0.043 C 
ATOM     10  C   UNL     1       3.767  44.935  11.142  1.00  0.00    -0.003 C 
ATOM     11  C   UNL     1       2.360  44.368   9.156  1.00  0.00     0.012 C 
ATOM     12  C   UNL     1       1.804  46.479  10.420  1.00  0.00     0.013 C 
ATOM     13  C   UNL     1       4.808  43.833  10.759  1.00  0.00     0.017 C 
ATOM     14  C   UNL     1       2.795  44.277  12.111  1.00  0.00    -0.064 C 
ATOM     15  C   UNL     1       1.623  43.346  10.075  1.00  0.00     0.032 C 
ATOM     16  C   UNL     1       1.769  43.518  11.614  1.00  0.00    -0.064 C 
ATOM     17  C   UNL     1       3.013  44.442  13.586  1.00  0.00     0.032 C 
ATOM     18  C   UNL     1       0.794  42.725  12.544  1.00  0.00    -0.008 C 
ATOM     19  C   UNL     1       2.545  43.221  14.352  1.00  0.00     0.009 C 
ATOM     20  C   UNL     1       1.036  42.985  14.101  1.00  0.00     0.007 C 
ATOM     21  C   UNL     1       1.000  41.220  12.214  1.00  0.00     0.014 C 
ATOM     22  C   UNL     1      -0.642  43.177  12.160  1.00  0.00     0.016 C 
ATOM     23  C   UNL     1       0.409  41.899  15.106  1.00  0.00    -0.006 C 
ATOM     24  C   UNL     1       0.245  40.269  13.132  1.00  0.00     0.033 C 
ATOM     25  C   UNL     1       0.672  40.453  14.589  1.00  0.00     0.120 C 
ATOM     26  C   UNL     1       1.039  42.013  16.527  1.00  0.00     0.014 C 
ATOM     27  C   UNL     1      -1.119  42.134  15.324  1.00  0.00     0.014 C 
BRANCH   7  28
ATOM     28  O   UNL     1       6.274  46.853  10.089  1.00  0.00    -0.393 OA
ATOM     29  H   UNL     1       6.341  46.662   9.116  1.00  0.00     0.210 HD
ENDBRANCH   7  28
BRANCH  25  30
ATOM     30  O   UNL     1      -0.013  39.508  15.375  1.00  0.00    -0.393 OA
ATOM     31  H   UNL     1       0.450  38.636  15.262  1.00  0.00     0.210 HD
ENDBRANCH  25  30
ENDBRANCH   2   6
ENDBRANCH   1   2
BRANCH   1  32
ATOM     32  C   UNL     1       1.174  48.187   7.616  1.00  0.00     0.031 C 
BRANCH  32  33
ATOM     33  C   UNL     1      -0.025  48.991   8.081  1.00  0.00    -0.075 C 
ATOM     34  C   UNL     1      -1.081  48.343   8.604  1.00  0.00     0.008 C 
BRANCH  33  35
ATOM     35  C   UNL     1      -0.027  50.512   8.013  1.00  0.00     0.008 C 
ATOM     36  C   UNL     1      -0.343  51.007   6.596  1.00  0.00     0.012 C 
ATOM     37  C   UNL     1       1.302  51.090   8.515  1.00  0.00     0.012 C 
ENDBRANCH  33  35
ENDBRANCH  32  33
ENDBRANCH   1  32
TORSDOF 8
ENDMDL
