MODEL 1
REMARK VINA RESULT:    -2.743      0.000      0.000
REMARK INTER + INTRA:          -7.731
REMARK INTER:                  -4.667
REMARK INTRA:                  -3.064
REMARK UNBOUND:                -3.064
REMARK SMILES CC(=O)CCC[C@H](C)CCC[C@H](C)CCCC(C)C
REMARK SMILES IDX 10 1 11 2 12 3 13 4 14 5 15 6 16 7 17 8 18 9 19 10 9 11 7 12
REMARK SMILES IDX 8 13 6 14 5 15 4 16 2 17 3 18 1 19
REMARK H PARENT
REMARK Flexibility Score: inf
ROOT
ATOM      1  C   UNL     1     135.725 138.363 143.764  1.00  0.00     0.001 C 
ENDROOT
BRANCH   1   2
ATOM      2  C   UNL     1     134.198 138.485 143.587  1.00  0.00     0.003 C 
BRANCH   2   3
ATOM      3  C   UNL     1     133.470 139.172 144.768  1.00  0.00    -0.014 C 
ATOM      4  C   UNL     1     134.388 140.170 145.496  1.00  0.00     0.007 C 
BRANCH   3   5
ATOM      5  C   UNL     1     132.848 138.140 145.739  1.00  0.00     0.003 C 
BRANCH   5   6
ATOM      6  C   UNL     1     132.153 136.982 145.005  1.00  0.00     0.001 C 
BRANCH   6   7
ATOM      7  C   UNL     1     132.576 135.626 145.600  1.00  0.00     0.003 C 
BRANCH   7   8
ATOM      8  C   UNL     1     133.396 134.731 144.641  1.00  0.00    -0.017 C 
ATOM      9  C   UNL     1     133.023 134.950 143.169  1.00  0.00     0.007 C 
ATOM     10  C   UNL     1     133.314 133.243 145.011  1.00  0.00     0.007 C 
ENDBRANCH   7   8
ENDBRANCH   6   7
ENDBRANCH   5   6
ENDBRANCH   3   5
ENDBRANCH   2   3
ENDBRANCH   1   2
BRANCH   1  11
ATOM     11  C   UNL     1     136.216 136.901 143.634  1.00  0.00     0.003 C 
BRANCH  11  12
ATOM     12  C   UNL     1     136.600 136.181 144.957  1.00  0.00    -0.014 C 
ATOM     13  C   UNL     1     137.829 135.264 144.844  1.00  0.00     0.007 C 
BRANCH  12  14
ATOM     14  C   UNL     1     136.660 137.117 146.190  1.00  0.00     0.004 C 
BRANCH  14  15
ATOM     15  C   UNL     1     135.645 136.801 147.303  1.00  0.00     0.008 C 
BRANCH  15  16
ATOM     16  C   UNL     1     136.157 135.706 148.251  1.00  0.00     0.075 C 
BRANCH  16  17
ATOM     17  C   UNL     1     135.437 134.399 148.039  1.00  0.00     0.129 C 
ATOM     18  O   UNL     1     134.276 134.285 148.404  1.00  0.00    -0.300 OA
ATOM     19  C   UNL     1     136.118 133.228 147.395  1.00  0.00     0.087 C 
ENDBRANCH  16  17
ENDBRANCH  15  16
ENDBRANCH  14  15
ENDBRANCH  12  14
ENDBRANCH  11  12
ENDBRANCH   1  11
TORSDOF 12
ENDMDL
MODEL 2
REMARK VINA RESULT:    -2.732      7.299     10.216
REMARK INTER + INTRA:          -7.714
REMARK INTER:                  -4.954
REMARK INTRA:                  -2.760
REMARK UNBOUND:                -3.064
REMARK SMILES CC(=O)CCC[C@H](C)CCC[C@H](C)CCCC(C)C
REMARK SMILES IDX 10 1 11 2 12 3 13 4 14 5 15 6 16 7 17 8 18 9 19 10 9 11 7 12
REMARK SMILES IDX 8 13 6 14 5 15 4 16 2 17 3 18 1 19
REMARK H PARENT
REMARK Flexibility Score: inf
ROOT
ATOM      1  C   UNL     1     143.548 136.183 143.464  1.00  0.00     0.001 C 
ENDROOT
BRANCH   1   2
ATOM      2  C   UNL     1     145.023 136.263 143.907  1.00  0.00     0.003 C 
BRANCH   2   3
ATOM      3  C   UNL     1     145.269 137.147 145.154  1.00  0.00    -0.014 C 
ATOM      4  C   UNL     1     146.536 138.007 144.998  1.00  0.00     0.007 C 
BRANCH   3   5
ATOM      5  C   UNL     1     145.290 136.313 146.456  1.00  0.00     0.003 C 
BRANCH   5   6
ATOM      6  C   UNL     1     144.064 136.575 147.346  1.00  0.00     0.001 C 
BRANCH   6   7
ATOM      7  C   UNL     1     143.271 137.794 146.839  1.00  0.00     0.003 C 
BRANCH   7   8
ATOM      8  C   UNL     1     141.779 137.513 146.541  1.00  0.00    -0.017 C 
ATOM      9  C   UNL     1     141.012 138.778 146.134  1.00  0.00     0.007 C 
ATOM     10  C   UNL     1     141.073 136.794 147.699  1.00  0.00     0.007 C 
ENDBRANCH   7   8
ENDBRANCH   6   7
ENDBRANCH   5   6
ENDBRANCH   3   5
ENDBRANCH   2   3
ENDBRANCH   1   2
BRANCH   1  11
ATOM     11  C   UNL     1     142.986 134.745 143.552  1.00  0.00     0.003 C 
BRANCH  11  12
ATOM     12  C   UNL     1     142.533 134.265 144.959  1.00  0.00    -0.014 C 
ATOM     13  C   UNL     1     141.011 134.123 145.120  1.00  0.00     0.007 C 
BRANCH  12  14
ATOM     14  C   UNL     1     143.311 133.031 145.485  1.00  0.00     0.004 C 
BRANCH  14  15
ATOM     15  C   UNL     1     143.983 132.170 144.400  1.00  0.00     0.008 C 
BRANCH  15  16
ATOM     16  C   UNL     1     145.435 131.824 144.762  1.00  0.00     0.075 C 
BRANCH  16  17
ATOM     17  C   UNL     1     146.408 132.825 144.193  1.00  0.00     0.129 C 
ATOM     18  O   UNL     1     146.437 133.019 142.987  1.00  0.00    -0.300 OA
ATOM     19  C   UNL     1     147.352 133.584 145.078  1.00  0.00     0.087 C 
ENDBRANCH  16  17
ENDBRANCH  15  16
ENDBRANCH  14  15
ENDBRANCH  12  14
ENDBRANCH  11  12
ENDBRANCH   1  11
TORSDOF 12
ENDMDL
MODEL 3
REMARK VINA RESULT:    -2.671      8.580     11.667
REMARK INTER + INTRA:          -7.609
REMARK INTER:                  -5.153
REMARK INTRA:                  -2.455
REMARK UNBOUND:                -3.064
REMARK SMILES CC(=O)CCC[C@H](C)CCC[C@H](C)CCCC(C)C
REMARK SMILES IDX 10 1 11 2 12 3 13 4 14 5 15 6 16 7 17 8 18 9 19 10 9 11 7 12
REMARK SMILES IDX 8 13 6 14 5 15 4 16 2 17 3 18 1 19
REMARK H PARENT
REMARK Flexibility Score: inf
ROOT
ATOM      1  C   UNL     1     138.055 145.410 143.906  1.00  0.00     0.001 C 
ENDROOT
BRANCH   1   2
ATOM      2  C   UNL     1     136.540 145.132 143.978  1.00  0.00     0.003 C 
BRANCH   2   3
ATOM      3  C   UNL     1     136.019 144.791 145.395  1.00  0.00    -0.014 C 
ATOM      4  C   UNL     1     135.636 143.306 145.516  1.00  0.00     0.007 C 
BRANCH   3   5
ATOM      5  C   UNL     1     134.864 145.726 145.824  1.00  0.00     0.003 C 
BRANCH   5   6
ATOM      6  C   UNL     1     135.360 146.970 146.580  1.00  0.00     0.001 C 
BRANCH   6   7
ATOM      7  C   UNL     1     135.107 148.247 145.757  1.00  0.00     0.003 C 
BRANCH   7   8
ATOM      8  C   UNL     1     134.273 148.029 144.472  1.00  0.00    -0.017 C 
ATOM      9  C   UNL     1     135.004 148.507 143.210  1.00  0.00     0.007 C 
ATOM     10  C   UNL     1     132.875 148.654 144.564  1.00  0.00     0.007 C 
ENDBRANCH   7   8
ENDBRANCH   6   7
ENDBRANCH   5   6
ENDBRANCH   3   5
ENDBRANCH   2   3
ENDBRANCH   1   2
BRANCH   1  11
ATOM     11  C   UNL     1     138.366 146.849 143.431  1.00  0.00     0.003 C 
BRANCH  11  12
ATOM     12  C   UNL     1     138.940 147.821 144.499  1.00  0.00    -0.014 C 
ATOM     13  C   UNL     1     138.389 149.254 144.412  1.00  0.00     0.007 C 
BRANCH  12  14
ATOM     14  C   UNL     1     138.920 147.256 145.942  1.00  0.00     0.004 C 
BRANCH  14  15
ATOM     15  C   UNL     1     140.303 147.059 146.588  1.00  0.00     0.008 C 
BRANCH  15  16
ATOM     16  C   UNL     1     141.107 145.949 145.895  1.00  0.00     0.075 C 
BRANCH  16  17
ATOM     17  C   UNL     1     142.531 146.367 145.634  1.00  0.00     0.129 C 
ATOM     18  O   UNL     1     143.447 145.739 146.144  1.00  0.00    -0.300 OA
ATOM     19  C   UNL     1     142.850 147.548 144.767  1.00  0.00     0.087 C 
ENDBRANCH  16  17
ENDBRANCH  15  16
ENDBRANCH  14  15
ENDBRANCH  12  14
ENDBRANCH  11  12
ENDBRANCH   1  11
TORSDOF 12
ENDMDL
MODEL 4
REMARK VINA RESULT:    -2.667      7.978     10.924
REMARK INTER + INTRA:          -7.603
REMARK INTER:                  -4.470
REMARK INTRA:                  -3.133
REMARK UNBOUND:                -3.064
REMARK SMILES CC(=O)CCC[C@H](C)CCC[C@H](C)CCCC(C)C
REMARK SMILES IDX 10 1 11 2 12 3 13 4 14 5 15 6 16 7 17 8 18 9 19 10 9 11 7 12
REMARK SMILES IDX 8 13 6 14 5 15 4 16 2 17 3 18 1 19
REMARK H PARENT
REMARK Flexibility Score: inf
ROOT
ATOM      1  C   UNL     1     143.252 135.906 143.645  1.00  0.00     0.001 C 
ENDROOT
BRANCH   1   2
ATOM      2  C   UNL     1     142.921 134.403 143.560  1.00  0.00     0.003 C 
BRANCH   2   3
ATOM      3  C   UNL     1     142.219 133.830 144.816  1.00  0.00    -0.014 C 
ATOM      4  C   UNL     1     141.310 134.877 145.483  1.00  0.00     0.007 C 
BRANCH   3   5
ATOM      5  C   UNL     1     143.232 133.220 145.813  1.00  0.00     0.003 C 
BRANCH   5   6
ATOM      6  C   UNL     1     144.441 132.580 145.111  1.00  0.00     0.001 C 
BRANCH   6   7
ATOM      7  C   UNL     1     145.734 132.838 145.905  1.00  0.00     0.003 C 
BRANCH   7   8
ATOM      8  C   UNL     1     147.000 133.014 145.034  1.00  0.00    -0.017 C 
ATOM      9  C   UNL     1     147.870 134.192 145.492  1.00  0.00     0.007 C 
ATOM     10  C   UNL     1     146.674 133.125 143.538  1.00  0.00     0.007 C 
ENDBRANCH   7   8
ENDBRANCH   6   7
ENDBRANCH   5   6
ENDBRANCH   3   5
ENDBRANCH   2   3
ENDBRANCH   1   2
BRANCH   1  11
ATOM     11  C   UNL     1     144.773 136.168 143.748  1.00  0.00     0.003 C 
BRANCH  11  12
ATOM     12  C   UNL     1     145.278 136.798 145.077  1.00  0.00    -0.014 C 
ATOM     13  C   UNL     1     146.393 137.840 144.898  1.00  0.00     0.007 C 
BRANCH  12  14
ATOM     14  C   UNL     1     144.144 137.284 146.014  1.00  0.00     0.004 C 
BRANCH  14  15
ATOM     15  C   UNL     1     144.032 136.533 147.353  1.00  0.00     0.008 C 
BRANCH  15  16
ATOM     16  C   UNL     1     145.347 135.831 147.727  1.00  0.00     0.075 C 
BRANCH  16  17
ATOM     17  C   UNL     1     146.223 136.704 148.588  1.00  0.00     0.129 C 
ATOM     18  O   UNL     1     145.738 137.282 149.549  1.00  0.00    -0.300 OA
ATOM     19  C   UNL     1     147.680 136.887 148.285  1.00  0.00     0.087 C 
ENDBRANCH  16  17
ENDBRANCH  15  16
ENDBRANCH  14  15
ENDBRANCH  12  14
ENDBRANCH  11  12
ENDBRANCH   1  11
TORSDOF 12
ENDMDL
MODEL 5
REMARK VINA RESULT:    -2.653      7.963     11.402
REMARK INTER + INTRA:          -7.578
REMARK INTER:                  -4.830
REMARK INTRA:                  -2.748
REMARK UNBOUND:                -3.064
REMARK SMILES CC(=O)CCC[C@H](C)CCC[C@H](C)CCCC(C)C
REMARK SMILES IDX 10 1 11 2 12 3 13 4 14 5 15 6 16 7 17 8 18 9 19 10 9 11 7 12
REMARK SMILES IDX 8 13 6 14 5 15 4 16 2 17 3 18 1 19
REMARK H PARENT
REMARK Flexibility Score: inf
ROOT
ATOM      1  C   UNL     1     136.900 149.079 146.992  1.00  0.00     0.001 C 
ENDROOT
BRANCH   1   2
ATOM      2  C   UNL     1     136.289 149.961 145.885  1.00  0.00     0.003 C 
BRANCH   2   3
ATOM      3  C   UNL     1     136.816 149.657 144.462  1.00  0.00    -0.014 C 
ATOM      4  C   UNL     1     135.865 148.726 143.691  1.00  0.00     0.007 C 
BRANCH   3   5
ATOM      5  C   UNL     1     138.265 149.115 144.488  1.00  0.00     0.003 C 
BRANCH   5   6
ATOM      6  C   UNL     1     138.398 147.751 143.791  1.00  0.00     0.001 C 
BRANCH   6   7
ATOM      7  C   UNL     1     139.162 146.754 144.683  1.00  0.00     0.003 C 
BRANCH   7   8
ATOM      8  C   UNL     1     140.141 147.408 145.686  1.00  0.00    -0.017 C 
ATOM      9  C   UNL     1     141.607 147.254 145.261  1.00  0.00     0.007 C 
ATOM     10  C   UNL     1     139.932 146.909 147.123  1.00  0.00     0.007 C 
ENDBRANCH   7   8
ENDBRANCH   6   7
ENDBRANCH   5   6
ENDBRANCH   3   5
ENDBRANCH   2   3
ENDBRANCH   1   2
BRANCH   1  11
ATOM     11  C   UNL     1     135.923 147.981 147.474  1.00  0.00     0.003 C 
BRANCH  11  12
ATOM     12  C   UNL     1     136.234 146.528 147.015  1.00  0.00    -0.014 C 
ATOM     13  C   UNL     1     136.563 145.560 148.163  1.00  0.00     0.007 C 
BRANCH  12  14
ATOM     14  C   UNL     1     135.202 145.948 146.015  1.00  0.00     0.004 C 
BRANCH  14  15
ATOM     15  C   UNL     1     135.804 145.206 144.809  1.00  0.00     0.008 C 
BRANCH  15  16
ATOM     16  C   UNL     1     136.064 143.724 145.120  1.00  0.00     0.075 C 
BRANCH  16  17
ATOM     17  C   UNL     1     134.790 142.989 145.449  1.00  0.00     0.129 C 
ATOM     18  O   UNL     1     133.905 142.912 144.610  1.00  0.00    -0.300 OA
ATOM     19  C   UNL     1     134.582 142.353 146.791  1.00  0.00     0.087 C 
ENDBRANCH  16  17
ENDBRANCH  15  16
ENDBRANCH  14  15
ENDBRANCH  12  14
ENDBRANCH  11  12
ENDBRANCH   1  11
TORSDOF 12
ENDMDL
MODEL 6
REMARK VINA RESULT:    -2.622      3.100      4.319
REMARK INTER + INTRA:          -7.526
REMARK INTER:                  -5.720
REMARK INTRA:                  -1.806
REMARK UNBOUND:                -3.064
REMARK SMILES CC(=O)CCC[C@H](C)CCC[C@H](C)CCCC(C)C
REMARK SMILES IDX 10 1 11 2 12 3 13 4 14 5 15 6 16 7 17 8 18 9 19 10 9 11 7 12
REMARK SMILES IDX 8 13 6 14 5 15 4 16 2 17 3 18 1 19
REMARK H PARENT
REMARK Flexibility Score: inf
ROOT
ATOM      1  C   UNL     1     136.584 137.206 144.767  1.00  0.00     0.001 C 
ENDROOT
BRANCH   1   2
ATOM      2  C   UNL     1     135.929 137.935 143.576  1.00  0.00     0.003 C 
BRANCH   2   3
ATOM      3  C   UNL     1     134.824 138.944 143.974  1.00  0.00    -0.014 C 
ATOM      4  C   UNL     1     134.919 139.333 145.460  1.00  0.00     0.007 C 
BRANCH   3   5
ATOM      5  C   UNL     1     133.414 138.433 143.596  1.00  0.00     0.003 C 
BRANCH   5   6
ATOM      6  C   UNL     1     132.548 138.124 144.827  1.00  0.00     0.001 C 
BRANCH   6   7
ATOM      7  C   UNL     1     131.875 136.746 144.691  1.00  0.00     0.003 C 
BRANCH   7   8
ATOM      8  C   UNL     1     132.674 135.576 145.314  1.00  0.00    -0.017 C 
ATOM      9  C   UNL     1     133.560 136.027 146.482  1.00  0.00     0.007 C 
ATOM     10  C   UNL     1     133.493 134.802 144.272  1.00  0.00     0.007 C 
ENDBRANCH   7   8
ENDBRANCH   6   7
ENDBRANCH   5   6
ENDBRANCH   3   5
ENDBRANCH   2   3
ENDBRANCH   1   2
BRANCH   1  11
ATOM     11  C   UNL     1     137.031 135.771 144.402  1.00  0.00     0.003 C 
BRANCH  11  12
ATOM     12  C   UNL     1     137.732 134.958 145.527  1.00  0.00    -0.014 C 
ATOM     13  C   UNL     1     136.816 133.955 146.246  1.00  0.00     0.007 C 
BRANCH  12  14
ATOM     14  C   UNL     1     139.089 134.339 145.105  1.00  0.00     0.004 C 
BRANCH  14  15
ATOM     15  C   UNL     1     140.335 135.069 145.636  1.00  0.00     0.008 C 
BRANCH  15  16
ATOM     16  C   UNL     1     141.611 134.234 145.451  1.00  0.00     0.075 C 
BRANCH  16  17
ATOM     17  C   UNL     1     142.471 134.764 144.333  1.00  0.00     0.129 C 
ATOM     18  O   UNL     1     142.883 133.998 143.474  1.00  0.00    -0.300 OA
ATOM     19  C   UNL     1     142.840 136.215 144.254  1.00  0.00     0.087 C 
ENDBRANCH  16  17
ENDBRANCH  15  16
ENDBRANCH  14  15
ENDBRANCH  12  14
ENDBRANCH  11  12
ENDBRANCH   1  11
TORSDOF 12
ENDMDL
MODEL 7
REMARK VINA RESULT:    -2.565     12.825     15.154
REMARK INTER + INTRA:          -7.428
REMARK INTER:                  -4.326
REMARK INTRA:                  -3.103
REMARK UNBOUND:                -3.064
REMARK SMILES CC(=O)CCC[C@H](C)CCC[C@H](C)CCCC(C)C
REMARK SMILES IDX 10 1 11 2 12 3 13 4 14 5 15 6 16 7 17 8 18 9 19 10 9 11 7 12
REMARK SMILES IDX 8 13 6 14 5 15 4 16 2 17 3 18 1 19
REMARK H PARENT
REMARK Flexibility Score: inf
ROOT
ATOM      1  C   UNL     1     145.686 143.299 143.561  1.00  0.00     0.001 C 
ENDROOT
BRANCH   1   2
ATOM      2  C   UNL     1     147.206 143.043 143.608  1.00  0.00     0.003 C 
BRANCH   2   3
ATOM      3  C   UNL     1     147.681 142.237 144.841  1.00  0.00    -0.014 C 
ATOM      4  C   UNL     1     146.596 141.262 145.333  1.00  0.00     0.007 C 
BRANCH   3   5
ATOM      5  C   UNL     1     148.188 143.161 145.973  1.00  0.00     0.003 C 
BRANCH   5   6
ATOM      6  C   UNL     1     148.855 144.439 145.439  1.00  0.00     0.001 C 
BRANCH   6   7
ATOM      7  C   UNL     1     148.286 145.687 146.139  1.00  0.00     0.003 C 
BRANCH   7   8
ATOM      8  C   UNL     1     148.357 146.984 145.298  1.00  0.00    -0.017 C 
ATOM      9  C   UNL     1     147.234 147.970 145.644  1.00  0.00     0.007 C 
ATOM     10  C   UNL     1     148.397 146.706 143.789  1.00  0.00     0.007 C 
ENDBRANCH   7   8
ENDBRANCH   6   7
ENDBRANCH   5   6
ENDBRANCH   3   5
ENDBRANCH   2   3
ENDBRANCH   1   2
BRANCH   1  11
ATOM     11  C   UNL     1     145.338 144.799 143.706  1.00  0.00     0.003 C 
BRANCH  11  12
ATOM     12  C   UNL     1     144.755 145.244 145.077  1.00  0.00    -0.014 C 
ATOM     13  C   UNL     1     143.762 146.414 144.992  1.00  0.00     0.007 C 
BRANCH  12  14
ATOM     14  C   UNL     1     144.234 144.074 145.950  1.00  0.00     0.004 C 
BRANCH  14  15
ATOM     15  C   UNL     1     144.219 144.344 147.465  1.00  0.00     0.008 C 
BRANCH  15  16
ATOM     16  C   UNL     1     145.323 143.565 148.196  1.00  0.00     0.075 C 
BRANCH  16  17
ATOM     17  C   UNL     1     146.262 144.483 148.934  1.00  0.00     0.129 C 
ATOM     18  O   UNL     1     147.260 144.022 149.468  1.00  0.00    -0.300 OA
ATOM     19  C   UNL     1     145.994 145.955 149.036  1.00  0.00     0.087 C 
ENDBRANCH  16  17
ENDBRANCH  15  16
ENDBRANCH  14  15
ENDBRANCH  12  14
ENDBRANCH  11  12
ENDBRANCH   1  11
TORSDOF 12
ENDMDL
MODEL 8
REMARK VINA RESULT:    -2.559     12.211     14.582
REMARK INTER + INTRA:          -7.418
REMARK INTER:                  -4.603
REMARK INTRA:                  -2.815
REMARK UNBOUND:                -3.064
REMARK SMILES CC(=O)CCC[C@H](C)CCC[C@H](C)CCCC(C)C
REMARK SMILES IDX 10 1 11 2 12 3 13 4 14 5 15 6 16 7 17 8 18 9 19 10 9 11 7 12
REMARK SMILES IDX 8 13 6 14 5 15 4 16 2 17 3 18 1 19
REMARK H PARENT
REMARK Flexibility Score: inf
ROOT
ATOM      1  C   UNL     1     145.728 143.273 143.726  1.00  0.00     0.001 C 
ENDROOT
BRANCH   1   2
ATOM      2  C   UNL     1     147.240 143.022 143.564  1.00  0.00     0.003 C 
BRANCH   2   3
ATOM      3  C   UNL     1     147.889 142.249 144.738  1.00  0.00    -0.014 C 
ATOM      4  C   UNL     1     146.904 141.254 145.375  1.00  0.00     0.007 C 
BRANCH   3   5
ATOM      5  C   UNL     1     148.508 143.205 145.785  1.00  0.00     0.003 C 
BRANCH   5   6
ATOM      6  C   UNL     1     149.162 144.440 145.144  1.00  0.00     0.001 C 
BRANCH   6   7
ATOM      7  C   UNL     1     148.673 145.732 145.823  1.00  0.00     0.003 C 
BRANCH   7   8
ATOM      8  C   UNL     1     148.672 146.980 144.908  1.00  0.00    -0.017 C 
ATOM      9  C   UNL     1     147.645 148.031 145.350  1.00  0.00     0.007 C 
ATOM     10  C   UNL     1     148.487 146.622 143.427  1.00  0.00     0.007 C 
ENDBRANCH   7   8
ENDBRANCH   6   7
ENDBRANCH   5   6
ENDBRANCH   3   5
ENDBRANCH   2   3
ENDBRANCH   1   2
BRANCH   1  11
ATOM     11  C   UNL     1     145.372 144.777 143.651  1.00  0.00     0.003 C 
BRANCH  11  12
ATOM     12  C   UNL     1     145.048 145.480 145.000  1.00  0.00    -0.014 C 
ATOM     13  C   UNL     1     143.753 146.307 144.987  1.00  0.00     0.007 C 
BRANCH  12  14
ATOM     14  C   UNL     1     145.157 144.551 146.236  1.00  0.00     0.004 C 
BRANCH  14  15
ATOM     15  C   UNL     1     143.814 144.098 146.835  1.00  0.00     0.008 C 
BRANCH  15  16
ATOM     16  C   UNL     1     143.951 142.784 147.618  1.00  0.00     0.075 C 
BRANCH  16  17
ATOM     17  C   UNL     1     143.498 141.598 146.806  1.00  0.00     0.129 C 
ATOM     18  O   UNL     1     143.901 140.481 147.095  1.00  0.00    -0.300 OA
ATOM     19  C   UNL     1     142.568 141.760 145.641  1.00  0.00     0.087 C 
ENDBRANCH  16  17
ENDBRANCH  15  16
ENDBRANCH  14  15
ENDBRANCH  12  14
ENDBRANCH  11  12
ENDBRANCH   1  11
TORSDOF 12
ENDMDL
MODEL 9
REMARK VINA RESULT:    -2.537     10.496     13.029
REMARK INTER + INTRA:          -7.382
REMARK INTER:                  -4.499
REMARK INTRA:                  -2.882
REMARK UNBOUND:                -3.064
REMARK SMILES CC(=O)CCC[C@H](C)CCC[C@H](C)CCCC(C)C
REMARK SMILES IDX 10 1 11 2 12 3 13 4 14 5 15 6 16 7 17 8 18 9 19 10 9 11 7 12
REMARK SMILES IDX 8 13 6 14 5 15 4 16 2 17 3 18 1 19
REMARK H PARENT
REMARK Flexibility Score: inf
ROOT
ATOM      1  C   UNL     1     138.340 148.318 143.603  1.00  0.00     0.001 C 
ENDROOT
BRANCH   1   2
ATOM      2  C   UNL     1     139.381 147.537 144.430  1.00  0.00     0.003 C 
BRANCH   2   3
ATOM      3  C   UNL     1     138.964 146.087 144.779  1.00  0.00    -0.014 C 
ATOM      4  C   UNL     1     138.112 145.459 143.662  1.00  0.00     0.007 C 
BRANCH   3   5
ATOM      5  C   UNL     1     138.267 146.005 146.157  1.00  0.00     0.003 C 
BRANCH   5   6
ATOM      6  C   UNL     1     138.818 147.031 147.160  1.00  0.00     0.001 C 
BRANCH   6   7
ATOM      7  C   UNL     1     137.674 147.846 147.792  1.00  0.00     0.003 C 
BRANCH   7   8
ATOM      8  C   UNL     1     138.025 149.324 148.091  1.00  0.00    -0.017 C 
ATOM      9  C   UNL     1     139.017 149.468 149.252  1.00  0.00     0.007 C 
ATOM     10  C   UNL     1     136.779 150.189 148.324  1.00  0.00     0.007 C 
ENDBRANCH   7   8
ENDBRANCH   6   7
ENDBRANCH   5   6
ENDBRANCH   3   5
ENDBRANCH   2   3
ENDBRANCH   1   2
BRANCH   1  11
ATOM     11  C   UNL     1     137.783 149.542 144.367  1.00  0.00     0.003 C 
BRANCH  11  12
ATOM     12  C   UNL     1     136.288 149.473 144.788  1.00  0.00    -0.014 C 
ATOM     13  C   UNL     1     135.556 150.824 144.748  1.00  0.00     0.007 C 
BRANCH  12  14
ATOM     14  C   UNL     1     135.491 148.337 144.098  1.00  0.00     0.004 C 
BRANCH  14  15
ATOM     15  C   UNL     1     135.063 147.182 145.022  1.00  0.00     0.008 C 
BRANCH  15  16
ATOM     16  C   UNL     1     134.318 147.690 146.265  1.00  0.00     0.075 C 
BRANCH  16  17
ATOM     17  C   UNL     1     132.894 148.068 145.949  1.00  0.00     0.129 C 
ATOM     18  O   UNL     1     132.570 149.247 145.948  1.00  0.00    -0.300 OA
ATOM     19  C   UNL     1     131.859 147.026 145.643  1.00  0.00     0.087 C 
ENDBRANCH  16  17
ENDBRANCH  15  16
ENDBRANCH  14  15
ENDBRANCH  12  14
ENDBRANCH  11  12
ENDBRANCH   1  11
TORSDOF 12
ENDMDL
