MODEL 1
REMARK VINA RESULT:    -3.857      0.000      0.000
REMARK INTER + INTRA:          -4.875
REMARK INTER:                  -4.759
REMARK INTRA:                  -0.116
REMARK UNBOUND:                -0.116
REMARK SMILES CCCCCC(=O)[O-]
REMARK SMILES IDX 4 1 5 2 6 3 7 4 8 5 3 6 2 7 1 8
REMARK H PARENT
REMARK Flexibility Score: inf
ROOT
ATOM      1  C   UNL     1     -13.010  -2.717 -25.224  1.00  0.00     0.006 C 
ENDROOT
BRANCH   1   2
ATOM      2  C   UNL     1     -12.279  -2.628 -26.569  1.00  0.00     0.053 C 
BRANCH   2   3
ATOM      3  C   UNL     1     -11.672  -1.272 -26.745  1.00  0.00     0.041 C 
ATOM      4  O   UNL     1     -10.444  -1.155 -26.996  1.00  0.00    -0.550 OA
ATOM      5  O   UNL     1     -12.453  -0.135 -26.583  1.00  0.00    -0.550 OA
ENDBRANCH   2   3
ENDBRANCH   1   2
BRANCH   1   6
ATOM      6  C   UNL     1     -12.048  -2.680 -24.025  1.00  0.00     0.000 C 
BRANCH   6   7
ATOM      7  C   UNL     1     -12.750  -2.291 -22.716  1.00  0.00    -0.003 C 
ATOM      8  C   UNL     1     -11.813  -1.506 -21.802  1.00  0.00     0.004 C 
ENDBRANCH   6   7
ENDBRANCH   1   6
TORSDOF 4
ENDMDL
MODEL 2
REMARK VINA RESULT:    -3.853      2.700      4.350
REMARK INTER + INTRA:          -4.870
REMARK INTER:                  -4.797
REMARK INTRA:                  -0.073
REMARK UNBOUND:                -0.116
REMARK SMILES CCCCCC(=O)[O-]
REMARK SMILES IDX 4 1 5 2 6 3 7 4 8 5 3 6 2 7 1 8
REMARK H PARENT
REMARK Flexibility Score: inf
ROOT
ATOM      1  C   UNL     1     -12.000  -2.639 -23.908  1.00  0.00     0.006 C 
ENDROOT
BRANCH   1   2
ATOM      2  C   UNL     1     -12.578  -2.228 -22.548  1.00  0.00     0.053 C 
BRANCH   2   3
ATOM      3  C   UNL     1     -11.586  -1.405 -21.787  1.00  0.00     0.041 C 
ATOM      4  O   UNL     1     -11.860  -0.995 -20.628  1.00  0.00    -0.550 OA
ATOM      5  O   UNL     1     -10.380  -1.050 -22.376  1.00  0.00    -0.550 OA
ENDBRANCH   2   3
ENDBRANCH   1   2
BRANCH   1   6
ATOM      6  C   UNL     1     -13.046  -2.590 -25.034  1.00  0.00     0.000 C 
BRANCH   6   7
ATOM      7  C   UNL     1     -12.431  -2.823 -26.422  1.00  0.00    -0.003 C 
ATOM      8  C   UNL     1     -11.673  -1.589 -26.901  1.00  0.00     0.004 C 
ENDBRANCH   6   7
ENDBRANCH   1   6
TORSDOF 4
ENDMDL
MODEL 3
REMARK VINA RESULT:    -3.814      1.753      2.260
REMARK INTER + INTRA:          -4.822
REMARK INTER:                  -4.725
REMARK INTRA:                  -0.097
REMARK UNBOUND:                -0.116
REMARK SMILES CCCCCC(=O)[O-]
REMARK SMILES IDX 4 1 5 2 6 3 7 4 8 5 3 6 2 7 1 8
REMARK H PARENT
REMARK Flexibility Score: inf
ROOT
ATOM      1  C   UNL     1     -10.998  -1.572 -24.395  1.00  0.00     0.006 C 
ENDROOT
BRANCH   1   2
ATOM      2  C   UNL     1     -12.019  -2.706 -24.554  1.00  0.00     0.053 C 
BRANCH   2   3
ATOM      3  C   UNL     1     -12.397  -2.869 -25.992  1.00  0.00     0.041 C 
ATOM      4  O   UNL     1     -13.101  -3.848 -26.355  1.00  0.00    -0.550 OA
ATOM      5  O   UNL     1     -11.931  -1.966 -26.940  1.00  0.00    -0.550 OA
ENDBRANCH   2   3
ENDBRANCH   1   2
BRANCH   1   6
ATOM      6  C   UNL     1     -10.695  -1.251 -22.922  1.00  0.00     0.000 C 
BRANCH   6   7
ATOM      7  C   UNL     1     -11.845  -1.643 -21.983  1.00  0.00    -0.003 C 
ATOM      8  C   UNL     1     -11.804  -0.829 -20.694  1.00  0.00     0.004 C 
ENDBRANCH   6   7
ENDBRANCH   1   6
TORSDOF 4
ENDMDL
MODEL 4
REMARK VINA RESULT:    -3.582     19.562     20.173
REMARK INTER + INTRA:          -4.535
REMARK INTER:                  -4.391
REMARK INTRA:                  -0.145
REMARK UNBOUND:                -0.116
REMARK SMILES CCCCCC(=O)[O-]
REMARK SMILES IDX 4 1 5 2 6 3 7 4 8 5 3 6 2 7 1 8
REMARK H PARENT
REMARK Flexibility Score: inf
ROOT
ATOM      1  C   UNL     1       5.795   7.576 -25.202  1.00  0.00     0.006 C 
ENDROOT
BRANCH   1   2
ATOM      2  C   UNL     1       6.394   7.368 -26.599  1.00  0.00     0.053 C 
BRANCH   2   3
ATOM      3  C   UNL     1       5.957   6.053 -27.163  1.00  0.00     0.041 C 
ATOM      4  O   UNL     1       5.062   6.009 -28.049  1.00  0.00    -0.550 OA
ATOM      5  O   UNL     1       6.502   4.872 -26.676  1.00  0.00    -0.550 OA
ENDBRANCH   2   3
ENDBRANCH   1   2
BRANCH   1   6
ATOM      6  C   UNL     1       6.868   7.634 -24.102  1.00  0.00     0.000 C 
BRANCH   6   7
ATOM      7  C   UNL     1       7.005   6.308 -23.340  1.00  0.00    -0.003 C 
ATOM      8  C   UNL     1       5.988   6.218 -22.205  1.00  0.00     0.004 C 
ENDBRANCH   6   7
ENDBRANCH   1   6
TORSDOF 4
ENDMDL
MODEL 5
REMARK VINA RESULT:    -3.525     19.098     19.971
REMARK INTER + INTRA:          -4.465
REMARK INTER:                  -4.195
REMARK INTRA:                  -0.271
REMARK UNBOUND:                -0.116
REMARK SMILES CCCCCC(=O)[O-]
REMARK SMILES IDX 4 1 5 2 6 3 7 4 8 5 3 6 2 7 1 8
REMARK H PARENT
REMARK Flexibility Score: inf
ROOT
ATOM      1  C   UNL     1       6.469   7.466 -26.680  1.00  0.00     0.006 C 
ENDROOT
BRANCH   1   2
ATOM      2  C   UNL     1       5.614   6.403 -27.380  1.00  0.00     0.053 C 
BRANCH   2   3
ATOM      3  C   UNL     1       5.602   5.136 -26.585  1.00  0.00     0.041 C 
ATOM      4  O   UNL     1       6.661   4.471 -26.437  1.00  0.00    -0.550 OA
ATOM      5  O   UNL     1       4.411   4.663 -26.048  1.00  0.00    -0.550 OA
ENDBRANCH   2   3
ENDBRANCH   1   2
BRANCH   1   6
ATOM      6  C   UNL     1       5.938   7.828 -25.284  1.00  0.00     0.000 C 
BRANCH   6   7
ATOM      7  C   UNL     1       6.990   7.634 -24.183  1.00  0.00    -0.003 C 
ATOM      8  C   UNL     1       6.623   6.465 -23.272  1.00  0.00     0.004 C 
ENDBRANCH   6   7
ENDBRANCH   1   6
TORSDOF 4
ENDMDL
MODEL 6
REMARK VINA RESULT:    -3.457     14.817     16.480
REMARK INTER + INTRA:          -4.382
REMARK INTER:                  -4.202
REMARK INTRA:                  -0.180
REMARK UNBOUND:                -0.116
REMARK SMILES CCCCCC(=O)[O-]
REMARK SMILES IDX 4 1 5 2 6 3 7 4 8 5 3 6 2 7 1 8
REMARK H PARENT
REMARK Flexibility Score: inf
ROOT
ATOM      1  C   UNL     1     -13.086   2.463  -8.922  1.00  0.00     0.006 C 
ENDROOT
BRANCH   1   2
ATOM      2  C   UNL     1     -11.712   2.510  -8.242  1.00  0.00     0.053 C 
BRANCH   2   3
ATOM      3  C   UNL     1     -11.036   1.178  -8.337  1.00  0.00     0.041 C 
ATOM      4  O   UNL     1     -11.713   0.118  -8.272  1.00  0.00    -0.550 OA
ATOM      5  O   UNL     1      -9.653   1.107  -8.448  1.00  0.00    -0.550 OA
ENDBRANCH   2   3
ENDBRANCH   1   2
BRANCH   1   6
ATOM      6  C   UNL     1     -13.097   3.180 -10.282  1.00  0.00     0.000 C 
BRANCH   6   7
ATOM      7  C   UNL     1     -12.850   2.222 -11.457  1.00  0.00    -0.003 C 
ATOM      8  C   UNL     1     -11.587   2.607 -12.223  1.00  0.00     0.004 C 
ENDBRANCH   6   7
ENDBRANCH   1   6
TORSDOF 4
ENDMDL
MODEL 7
REMARK VINA RESULT:    -3.434     19.432     20.224
REMARK INTER + INTRA:          -4.353
REMARK INTER:                  -4.234
REMARK INTRA:                  -0.120
REMARK UNBOUND:                -0.116
REMARK SMILES CCCCCC(=O)[O-]
REMARK SMILES IDX 4 1 5 2 6 3 7 4 8 5 3 6 2 7 1 8
REMARK H PARENT
REMARK Flexibility Score: inf
ROOT
ATOM      1  C   UNL     1       6.765   7.335 -24.008  1.00  0.00     0.006 C 
ENDROOT
BRANCH   1   2
ATOM      2  C   UNL     1       5.708   7.317 -25.120  1.00  0.00     0.053 C 
BRANCH   2   3
ATOM      3  C   UNL     1       6.363   7.210 -26.461  1.00  0.00     0.041 C 
ATOM      4  O   UNL     1       6.804   8.240 -27.035  1.00  0.00    -0.550 OA
ATOM      5  O   UNL     1       6.443   5.978 -27.099  1.00  0.00    -0.550 OA
ENDBRANCH   2   3
ENDBRANCH   1   2
BRANCH   1   6
ATOM      6  C   UNL     1       6.764   6.046 -23.171  1.00  0.00     0.000 C 
BRANCH   6   7
ATOM      7  C   UNL     1       6.013   6.206 -21.841  1.00  0.00    -0.003 C 
ATOM      8  C   UNL     1       4.623   5.581 -21.916  1.00  0.00     0.004 C 
ENDBRANCH   6   7
ENDBRANCH   1   6
TORSDOF 4
ENDMDL
MODEL 8
REMARK VINA RESULT:    -3.404     16.159     16.631
REMARK INTER + INTRA:          -4.316
REMARK INTER:                  -4.241
REMARK INTRA:                  -0.075
REMARK UNBOUND:                -0.116
REMARK SMILES CCCCCC(=O)[O-]
REMARK SMILES IDX 4 1 5 2 6 3 7 4 8 5 3 6 2 7 1 8
REMARK H PARENT
REMARK Flexibility Score: inf
ROOT
ATOM      1  C   UNL     1     -12.717   3.802 -10.262  1.00  0.00     0.006 C 
ENDROOT
BRANCH   1   2
ATOM      2  C   UNL     1     -13.125   2.780  -9.193  1.00  0.00     0.053 C 
BRANCH   2   3
ATOM      3  C   UNL     1     -12.145   1.650  -9.150  1.00  0.00     0.041 C 
ATOM      4  O   UNL     1     -12.551   0.461  -9.072  1.00  0.00    -0.550 OA
ATOM      5  O   UNL     1     -10.781   1.914  -9.146  1.00  0.00    -0.550 OA
ENDBRANCH   2   3
ENDBRANCH   1   2
BRANCH   1   6
ATOM      6  C   UNL     1     -12.634   5.234  -9.710  1.00  0.00     0.000 C 
BRANCH   6   7
ATOM      7  C   UNL     1     -13.004   6.294 -10.758  1.00  0.00    -0.003 C 
ATOM      8  C   UNL     1     -11.784   6.704 -11.578  1.00  0.00     0.004 C 
ENDBRANCH   6   7
ENDBRANCH   1   6
TORSDOF 4
ENDMDL
MODEL 9
REMARK VINA RESULT:    -3.400     19.148     20.167
REMARK INTER + INTRA:          -4.311
REMARK INTER:                  -4.184
REMARK INTRA:                  -0.127
REMARK UNBOUND:                -0.116
REMARK SMILES CCCCCC(=O)[O-]
REMARK SMILES IDX 4 1 5 2 6 3 7 4 8 5 3 6 2 7 1 8
REMARK H PARENT
REMARK Flexibility Score: inf
ROOT
ATOM      1  C   UNL     1       6.808   6.287 -23.597  1.00  0.00     0.006 C 
ENDROOT
BRANCH   1   2
ATOM      2  C   UNL     1       6.230   6.358 -22.178  1.00  0.00     0.053 C 
BRANCH   2   3
ATOM      3  C   UNL     1       4.881   5.712 -22.132  1.00  0.00     0.041 C 
ATOM      4  O   UNL     1       4.279   5.578 -21.034  1.00  0.00    -0.550 OA
ATOM      5  O   UNL     1       4.309   5.212 -23.295  1.00  0.00    -0.550 OA
ENDBRANCH   2   3
ENDBRANCH   1   2
BRANCH   1   6
ATOM      6  C   UNL     1       6.706   7.627 -24.344  1.00  0.00     0.000 C 
BRANCH   6   7
ATOM      7  C   UNL     1       5.924   7.511 -25.661  1.00  0.00    -0.003 C 
ATOM      8  C   UNL     1       6.714   8.105 -26.823  1.00  0.00     0.004 C 
ENDBRANCH   6   7
ENDBRANCH   1   6
TORSDOF 4
ENDMDL
