MODEL 1
REMARK VINA RESULT:     7.378      0.000      0.000
REMARK INTER + INTRA:          13.042
REMARK INTER:                   9.966
REMARK INTRA:                   3.076
REMARK UNBOUND:                 3.076
REMARK SMILES O=c1c(-c2ccc(O)cc2)coc2c([C@H]3O[C@H](CO)[C@H](O)[C@@H](O)[C@@H]3O)c(O)ccc12
REMARK SMILES IDX 3 1 11 2 12 3 13 4 30 5 2 6 1 7 29 8 28 9 26 10 14 11 4 12
REMARK SMILES IDX 5 13 6 14 7 15 10 16 9 17 8 18 15 20 24 21 16 22 22 23 17 24
REMARK SMILES IDX 20 25 25 26 23 28 18 30 19 31 21 33 27 35
REMARK H PARENT 8 19 25 27 23 29 19 32 21 34 27 36
REMARK Flexibility Score: inf
ROOT
ATOM      1  C   UNL     1      10.278  65.165  -1.875  1.00  0.00     0.065 A 
ATOM      2  C   UNL     1      10.286  66.422  -2.489  1.00  0.00     0.208 A 
ATOM      3  O   UNL     1       9.853  67.497  -1.836  1.00  0.00    -0.463 OA
ATOM      4  C   UNL     1       9.370  67.449  -0.595  1.00  0.00     0.147 A 
ATOM      5  C   UNL     1       9.205  66.191   0.038  1.00  0.00     0.066 A 
ATOM      6  C   UNL     1       9.708  65.046  -0.598  1.00  0.00     0.200 A 
ATOM      7  O   UNL     1       9.719  63.928  -0.001  1.00  0.00    -0.288 OA
ATOM      8  C   UNL     1       8.609  66.124   1.303  1.00  0.00     0.020 A 
ATOM      9  C   UNL     1       8.282  67.290   1.991  1.00  0.00     0.047 A 
ATOM     10  C   UNL     1       8.582  68.540   1.445  1.00  0.00     0.125 A 
ATOM     11  C   UNL     1       9.092  68.646   0.122  1.00  0.00     0.069 A 
ENDROOT
BRANCH   1  12
ATOM     12  C   UNL     1      11.074  64.065  -2.441  1.00  0.00    -0.011 A 
ATOM     13  C   UNL     1      10.602  63.307  -3.529  1.00  0.00     0.013 A 
ATOM     14  C   UNL     1      11.394  62.271  -4.061  1.00  0.00     0.047 A 
ATOM     15  C   UNL     1      12.652  61.993  -3.509  1.00  0.00     0.115 A 
ATOM     16  C   UNL     1      12.309  63.741  -1.860  1.00  0.00     0.013 A 
ATOM     17  C   UNL     1      13.093  62.710  -2.387  1.00  0.00     0.047 A 
BRANCH  15  18
ATOM     18  O   UNL     1      13.432  60.975  -4.058  1.00  0.00    -0.508 OA
ATOM     19  H   UNL     1      13.209  59.996  -3.886  1.00  0.00     0.293 HD
ENDBRANCH  15  18
ENDBRANCH   1  12
BRANCH  11  20
ATOM     20  C   UNL     1       9.456  70.031  -0.427  1.00  0.00     0.188 C 
ATOM     21  C   UNL     1      10.263  69.963  -1.755  1.00  0.00     0.179 C 
ATOM     22  O   UNL     1      10.085  70.840   0.569  1.00  0.00    -0.362 OA
ATOM     23  C   UNL     1      10.291  71.389  -2.361  1.00  0.00     0.177 C 
ATOM     24  C   UNL     1      10.913  71.885   0.056  1.00  0.00     0.176 C 
ATOM     25  C   UNL     1      10.378  72.494  -1.267  1.00  0.00     0.177 C 
BRANCH  21  26
ATOM     26  O   UNL     1       9.653  69.059  -2.654  1.00  0.00    -0.387 OA
ATOM     27  H   UNL     1      10.320  68.861  -3.378  1.00  0.00     0.211 HD
ENDBRANCH  21  26
BRANCH  23  28
ATOM     28  O   UNL     1      11.313  71.506  -3.325  1.00  0.00    -0.387 OA
ATOM     29  H   UNL     1      12.191  71.570  -2.862  1.00  0.00     0.211 HD
ENDBRANCH  23  28
BRANCH  24  30
ATOM     30  C   UNL     1      11.104  72.955   1.152  1.00  0.00     0.191 C 
BRANCH  30  31
ATOM     31  O   UNL     1       9.928  73.122   1.898  1.00  0.00    -0.394 OA
ATOM     32  H   UNL     1      10.196  73.250   2.841  1.00  0.00     0.210 HD
ENDBRANCH  30  31
ENDBRANCH  24  30
BRANCH  25  33
ATOM     33  O   UNL     1       9.094  73.043  -1.071  1.00  0.00    -0.388 OA
ATOM     34  H   UNL     1       8.525  72.346  -0.640  1.00  0.00     0.211 HD
ENDBRANCH  25  33
ENDBRANCH  11  20
BRANCH  10  35
ATOM     35  O   UNL     1       8.483  69.667   2.252  1.00  0.00    -0.507 OA
ATOM     36  H   UNL     1       8.286  70.582   1.868  1.00  0.00     0.293 HD
ENDBRANCH  10  35
TORSDOF 9
ENDMDL
MODEL 2
REMARK VINA RESULT:     8.009      2.805      5.862
REMARK INTER + INTRA:          13.894
REMARK INTER:                  11.000
REMARK INTRA:                   2.895
REMARK UNBOUND:                 3.076
REMARK SMILES O=c1c(-c2ccc(O)cc2)coc2c([C@H]3O[C@H](CO)[C@H](O)[C@@H](O)[C@@H]3O)c(O)ccc12
REMARK SMILES IDX 3 1 11 2 12 3 13 4 30 5 2 6 1 7 29 8 28 9 26 10 14 11 4 12
REMARK SMILES IDX 5 13 6 14 7 15 10 16 9 17 8 18 15 20 24 21 16 22 22 23 17 24
REMARK SMILES IDX 20 25 25 26 23 28 18 30 19 31 21 33 27 35
REMARK H PARENT 8 19 25 27 23 29 19 32 21 34 27 36
REMARK Flexibility Score: inf
ROOT
ATOM      1  C   UNL     1       7.921  65.600   2.550  1.00  0.00     0.065 A 
ATOM      2  C   UNL     1       8.268  66.839   3.101  1.00  0.00     0.208 A 
ATOM      3  O   UNL     1       8.993  67.710   2.403  1.00  0.00    -0.463 OA
ATOM      4  C   UNL     1       9.448  67.460   1.176  1.00  0.00     0.147 A 
ATOM      5  C   UNL     1       9.251  66.175   0.610  1.00  0.00     0.066 A 
ATOM      6  C   UNL     1       8.440  65.256   1.292  1.00  0.00     0.200 A 
ATOM      7  O   UNL     1       8.114  64.157   0.752  1.00  0.00    -0.288 OA
ATOM      8  C   UNL     1       9.810  65.874  -0.638  1.00  0.00     0.020 A 
ATOM      9  C   UNL     1      10.458  66.860  -1.377  1.00  0.00     0.047 A 
ATOM     10  C   UNL     1      10.523  68.172  -0.900  1.00  0.00     0.125 A 
ATOM     11  C   UNL     1      10.058  68.489   0.406  1.00  0.00     0.069 A 
ENDROOT
BRANCH   1  12
ATOM     12  C   UNL     1       6.843  64.803   3.154  1.00  0.00    -0.011 A 
ATOM     13  C   UNL     1       7.086  63.959   4.254  1.00  0.00     0.013 A 
ATOM     14  C   UNL     1       6.030  63.221   4.823  1.00  0.00     0.047 A 
ATOM     15  C   UNL     1       4.735  63.326   4.296  1.00  0.00     0.115 A 
ATOM     16  C   UNL     1       5.556  64.857   2.600  1.00  0.00     0.013 A 
ATOM     17  C   UNL     1       4.507  64.121   3.163  1.00  0.00     0.047 A 
BRANCH  15  18
ATOM     18  O   UNL     1       3.696  62.603   4.881  1.00  0.00    -0.508 OA
ATOM     19  H   UNL     1       2.729  62.754   4.597  1.00  0.00     0.293 HD
ENDBRANCH  15  18
ENDBRANCH   1  12
BRANCH  11  20
ATOM     20  C   UNL     1      10.101  69.948   0.878  1.00  0.00     0.188 C 
ATOM     21  C   UNL     1       9.336  70.174   2.213  1.00  0.00     0.179 C 
ATOM     22  O   UNL     1       9.696  70.844  -0.158  1.00  0.00    -0.362 OA
ATOM     23  C   UNL     1       9.714  71.583   2.737  1.00  0.00     0.177 C 
ATOM     24  C   UNL     1       9.198  72.103   0.301  1.00  0.00     0.176 C 
ATOM     25  C   UNL     1       9.910  72.610   1.582  1.00  0.00     0.177 C 
BRANCH  21  26
ATOM     26  O   UNL     1       9.695  69.187   3.158  1.00  0.00    -0.387 OA
ATOM     27  H   UNL     1       8.889  69.011   3.729  1.00  0.00     0.211 HD
ENDBRANCH  21  26
BRANCH  23  28
ATOM     28  O   UNL     1       8.787  72.027   3.701  1.00  0.00    -0.387 OA
ATOM     29  H   UNL     1       9.250  72.631   4.342  1.00  0.00     0.211 HD
ENDBRANCH  23  28
BRANCH  24  30
ATOM     30  C   UNL     1       9.284  73.125  -0.853  1.00  0.00     0.191 C 
BRANCH  30  31
ATOM     31  O   UNL     1      10.506  73.013  -1.532  1.00  0.00    -0.394 OA
ATOM     32  H   UNL     1      11.185  72.738  -0.868  1.00  0.00     0.210 HD
ENDBRANCH  30  31
ENDBRANCH  24  30
BRANCH  25  33
ATOM     33  O   UNL     1      11.290  72.774   1.346  1.00  0.00    -0.388 OA
ATOM     34  H   UNL     1      11.481  72.463   0.417  1.00  0.00     0.211 HD
ENDBRANCH  25  33
ENDBRANCH  11  20
BRANCH  10  35
ATOM     35  O   UNL     1      10.943  69.180  -1.760  1.00  0.00    -0.507 OA
ATOM     36  H   UNL     1      10.487  70.082  -1.787  1.00  0.00     0.293 HD
ENDBRANCH  10  35
TORSDOF 9
ENDMDL
