MODEL 1
REMARK VINA RESULT:    -3.848      0.000      0.000
REMARK INTER + INTRA:         -12.744
REMARK INTER:                  -8.798
REMARK INTRA:                  -3.946
REMARK UNBOUND:                -3.946
REMARK SMILES CCCCCCCCCCCCCCCCCCCCCCCC(=O)[O-]
REMARK SMILES IDX 13 1 14 2 15 3 16 4 17 5 18 6 19 7 20 8 21 9 22 10 23 11
REMARK SMILES IDX 24 12 25 13 26 14 12 15 11 16 10 17 9 18 8 19 7 20 6 21 5 22
REMARK SMILES IDX 4 23 3 24 2 25 1 26
REMARK H PARENT
REMARK Flexibility Score: inf
ROOT
ATOM      1  C   UNL     1      12.640 -20.841 -37.367  1.00  0.00     0.000 C 
ENDROOT
BRANCH   1   2
ATOM      2  C   UNL     1      14.165 -20.949 -37.171  1.00  0.00     0.000 C 
BRANCH   2   3
ATOM      3  C   UNL     1      14.730 -22.315 -37.600  1.00  0.00     0.000 C 
BRANCH   3   4
ATOM      4  C   UNL     1      13.634 -23.283 -38.073  1.00  0.00     0.000 C 
BRANCH   4   5
ATOM      5  C   UNL     1      13.876 -23.801 -39.501  1.00  0.00     0.000 C 
BRANCH   5   6
ATOM      6  C   UNL     1      13.043 -23.051 -40.555  1.00  0.00     0.000 C 
BRANCH   6   7
ATOM      7  C   UNL     1      13.873 -22.091 -41.432  1.00  0.00     0.000 C 
BRANCH   7   8
ATOM      8  C   UNL     1      13.946 -20.673 -40.834  1.00  0.00     0.000 C 
BRANCH   8   9
ATOM      9  C   UNL     1      15.391 -20.209 -40.587  1.00  0.00     0.000 C 
BRANCH   9  10
ATOM     10  C   UNL     1      16.404 -21.364 -40.663  1.00  0.00     0.006 C 
BRANCH  10  11
ATOM     11  C   UNL     1      17.848 -20.860 -40.787  1.00  0.00     0.053 C 
BRANCH  11  12
ATOM     12  C   UNL     1      18.153 -20.371 -42.170  1.00  0.00     0.041 C 
ATOM     13  O   UNL     1      19.036 -19.492 -42.353  1.00  0.00    -0.550 OA
ATOM     14  O   UNL     1      17.443 -20.870 -43.257  1.00  0.00    -0.550 OA
ENDBRANCH  11  12
ENDBRANCH  10  11
ENDBRANCH   9  10
ENDBRANCH   8   9
ENDBRANCH   7   8
ENDBRANCH   6   7
ENDBRANCH   5   6
ENDBRANCH   4   5
ENDBRANCH   3   4
ENDBRANCH   2   3
ENDBRANCH   1   2
BRANCH   1  15
ATOM     15  C   UNL     1      12.073 -19.409 -37.358  1.00  0.00     0.000 C 
BRANCH  15  16
ATOM     16  C   UNL     1      10.714 -19.295 -38.068  1.00  0.00     0.000 C 
BRANCH  16  17
ATOM     17  C   UNL     1      10.247 -20.630 -38.670  1.00  0.00     0.000 C 
BRANCH  17  18
ATOM     18  C   UNL     1       8.723 -20.691 -38.870  1.00  0.00    -0.000 C 
BRANCH  18  19
ATOM     19  C   UNL     1       8.006 -19.465 -38.279  1.00  0.00    -0.000 C 
BRANCH  19  20
ATOM     20  C   UNL     1       7.247 -19.799 -36.982  1.00  0.00    -0.000 C 
BRANCH  20  21
ATOM     21  C   UNL     1       6.706 -21.239 -36.960  1.00  0.00    -0.000 C 
BRANCH  21  22
ATOM     22  C   UNL     1       7.383 -22.137 -35.903  1.00  0.00    -0.000 C 
BRANCH  22  23
ATOM     23  C   UNL     1       8.481 -21.391 -35.126  1.00  0.00    -0.000 C 
BRANCH  23  24
ATOM     24  C   UNL     1       9.812 -22.163 -35.077  1.00  0.00    -0.000 C 
BRANCH  24  25
ATOM     25  C   UNL     1       9.700 -23.663 -35.398  1.00  0.00    -0.003 C 
ATOM     26  C   UNL     1      10.349 -24.039 -36.730  1.00  0.00     0.004 C 
ENDBRANCH  24  25
ENDBRANCH  23  24
ENDBRANCH  22  23
ENDBRANCH  21  22
ENDBRANCH  20  21
ENDBRANCH  19  20
ENDBRANCH  18  19
ENDBRANCH  17  18
ENDBRANCH  16  17
ENDBRANCH  15  16
ENDBRANCH   1  15
TORSDOF 22
ENDMDL
MODEL 2
REMARK VINA RESULT:    -3.813      4.330      7.780
REMARK INTER + INTRA:         -12.664
REMARK INTER:                  -7.906
REMARK INTRA:                  -4.758
REMARK UNBOUND:                -3.946
REMARK SMILES CCCCCCCCCCCCCCCCCCCCCCCC(=O)[O-]
REMARK SMILES IDX 13 1 14 2 15 3 16 4 17 5 18 6 19 7 20 8 21 9 22 10 23 11
REMARK SMILES IDX 24 12 25 13 26 14 12 15 11 16 10 17 9 18 8 19 7 20 6 21 5 22
REMARK SMILES IDX 4 23 3 24 2 25 1 26
REMARK H PARENT
REMARK Flexibility Score: inf
ROOT
ATOM      1  C   UNL     1      11.594 -23.195 -40.295  1.00  0.00     0.000 C 
ENDROOT
BRANCH   1   2
ATOM      2  C   UNL     1      11.267 -24.381 -39.366  1.00  0.00     0.000 C 
BRANCH   2   3
ATOM      3  C   UNL     1      10.176 -24.051 -38.333  1.00  0.00     0.000 C 
BRANCH   3   4
ATOM      4  C   UNL     1      10.696 -24.109 -36.888  1.00  0.00     0.000 C 
BRANCH   4   5
ATOM      5  C   UNL     1       9.571 -23.994 -35.847  1.00  0.00     0.000 C 
BRANCH   5   6
ATOM      6  C   UNL     1       9.730 -22.767 -34.931  1.00  0.00     0.000 C 
BRANCH   6   7
ATOM      7  C   UNL     1       8.550 -21.776 -35.011  1.00  0.00     0.000 C 
BRANCH   7   8
ATOM      8  C   UNL     1       7.469 -22.240 -36.005  1.00  0.00     0.000 C 
BRANCH   8   9
ATOM      9  C   UNL     1       6.695 -21.066 -36.627  1.00  0.00     0.000 C 
BRANCH   9  10
ATOM     10  C   UNL     1       7.101 -19.707 -36.030  1.00  0.00     0.006 C 
BRANCH  10  11
ATOM     11  C   UNL     1       6.900 -18.555 -37.023  1.00  0.00     0.053 C 
BRANCH  11  12
ATOM     12  C   UNL     1       6.201 -17.389 -36.393  1.00  0.00     0.041 C 
ATOM     13  O   UNL     1       6.169 -16.276 -36.979  1.00  0.00    -0.550 OA
ATOM     14  O   UNL     1       5.606 -17.527 -35.144  1.00  0.00    -0.550 OA
ENDBRANCH  11  12
ENDBRANCH  10  11
ENDBRANCH   9  10
ENDBRANCH   8   9
ENDBRANCH   7   8
ENDBRANCH   6   7
ENDBRANCH   5   6
ENDBRANCH   4   5
ENDBRANCH   3   4
ENDBRANCH   2   3
ENDBRANCH   1   2
BRANCH   1  15
ATOM     15  C   UNL     1      13.049 -22.693 -40.237  1.00  0.00     0.000 C 
BRANCH  15  16
ATOM     16  C   UNL     1      13.896 -23.422 -39.181  1.00  0.00     0.000 C 
BRANCH  16  17
ATOM     17  C   UNL     1      14.196 -22.544 -37.955  1.00  0.00     0.000 C 
BRANCH  17  18
ATOM     18  C   UNL     1      13.617 -21.125 -38.085  1.00  0.00    -0.000 C 
BRANCH  18  19
ATOM     19  C   UNL     1      12.445 -20.881 -37.119  1.00  0.00    -0.000 C 
BRANCH  19  20
ATOM     20  C   UNL     1      11.996 -19.409 -37.102  1.00  0.00    -0.000 C 
BRANCH  20  21
ATOM     21  C   UNL     1      10.528 -19.228 -37.524  1.00  0.00    -0.000 C 
BRANCH  21  22
ATOM     22  C   UNL     1       9.924 -20.472 -38.209  1.00  0.00    -0.000 C 
BRANCH  22  23
ATOM     23  C   UNL     1       9.489 -20.183 -39.657  1.00  0.00    -0.000 C 
BRANCH  23  24
ATOM     24  C   UNL     1      10.320 -19.072 -40.322  1.00  0.00    -0.000 C 
BRANCH  24  25
ATOM     25  C   UNL     1      11.351 -19.565 -41.353  1.00  0.00    -0.003 C 
ATOM     26  C   UNL     1      12.761 -19.038 -41.087  1.00  0.00     0.004 C 
ENDBRANCH  24  25
ENDBRANCH  23  24
ENDBRANCH  22  23
ENDBRANCH  21  22
ENDBRANCH  20  21
ENDBRANCH  19  20
ENDBRANCH  18  19
ENDBRANCH  17  18
ENDBRANCH  16  17
ENDBRANCH  15  16
ENDBRANCH   1  15
TORSDOF 22
ENDMDL
MODEL 3
REMARK VINA RESULT:    -3.805      5.024      9.046
REMARK INTER + INTRA:         -12.644
REMARK INTER:                  -9.309
REMARK INTRA:                  -3.335
REMARK UNBOUND:                -3.946
REMARK SMILES CCCCCCCCCCCCCCCCCCCCCCCC(=O)[O-]
REMARK SMILES IDX 13 1 14 2 15 3 16 4 17 5 18 6 19 7 20 8 21 9 22 10 23 11
REMARK SMILES IDX 24 12 25 13 26 14 12 15 11 16 10 17 9 18 8 19 7 20 6 21 5 22
REMARK SMILES IDX 4 23 3 24 2 25 1 26
REMARK H PARENT
REMARK Flexibility Score: inf
ROOT
ATOM      1  C   UNL     1       8.401 -22.019 -34.871  1.00  0.00     0.000 C 
ENDROOT
BRANCH   1   2
ATOM      2  C   UNL     1       7.368 -22.231 -35.995  1.00  0.00     0.000 C 
BRANCH   2   3
ATOM      3  C   UNL     1       6.873 -20.913 -36.613  1.00  0.00     0.000 C 
BRANCH   3   4
ATOM      4  C   UNL     1       5.612 -21.102 -37.471  1.00  0.00     0.000 C 
BRANCH   4   5
ATOM      5  C   UNL     1       5.524 -20.092 -38.628  1.00  0.00     0.000 C 
BRANCH   5   6
ATOM      6  C   UNL     1       6.893 -19.502 -39.007  1.00  0.00     0.000 C 
BRANCH   6   7
ATOM      7  C   UNL     1       6.900 -17.962 -39.098  1.00  0.00     0.000 C 
BRANCH   7   8
ATOM      8  C   UNL     1       7.397 -17.305 -37.796  1.00  0.00     0.000 C 
BRANCH   8   9
ATOM      9  C   UNL     1       6.251 -16.724 -36.952  1.00  0.00     0.000 C 
BRANCH   9  10
ATOM     10  C   UNL     1       5.989 -17.535 -35.672  1.00  0.00     0.006 C 
BRANCH  10  11
ATOM     11  C   UNL     1       4.753 -17.035 -34.912  1.00  0.00     0.053 C 
BRANCH  11  12
ATOM     12  C   UNL     1       5.091 -16.604 -33.517  1.00  0.00     0.041 C 
ATOM     13  O   UNL     1       4.928 -17.396 -32.552  1.00  0.00    -0.550 OA
ATOM     14  O   UNL     1       5.561 -15.318 -33.281  1.00  0.00    -0.550 OA
ENDBRANCH  11  12
ENDBRANCH  10  11
ENDBRANCH   9  10
ENDBRANCH   8   9
ENDBRANCH   7   8
ENDBRANCH   6   7
ENDBRANCH   5   6
ENDBRANCH   4   5
ENDBRANCH   3   4
ENDBRANCH   2   3
ENDBRANCH   1   2
BRANCH   1  15
ATOM     15  C   UNL     1       9.691 -22.852 -34.993  1.00  0.00     0.000 C 
BRANCH  15  16
ATOM     16  C   UNL     1      10.058 -23.185 -36.449  1.00  0.00     0.000 C 
BRANCH  16  17
ATOM     17  C   UNL     1      11.024 -22.160 -37.065  1.00  0.00     0.000 C 
BRANCH  17  18
ATOM     18  C   UNL     1      10.316 -21.163 -37.998  1.00  0.00    -0.000 C 
BRANCH  18  19
ATOM     19  C   UNL     1      10.213 -19.757 -37.383  1.00  0.00    -0.000 C 
BRANCH  19  20
ATOM     20  C   UNL     1      10.952 -18.695 -38.217  1.00  0.00    -0.000 C 
BRANCH  20  21
ATOM     21  C   UNL     1      12.481 -18.854 -38.168  1.00  0.00    -0.000 C 
BRANCH  21  22
ATOM     22  C   UNL     1      13.131 -19.023 -39.557  1.00  0.00    -0.000 C 
BRANCH  22  23
ATOM     23  C   UNL     1      13.394 -20.500 -39.899  1.00  0.00    -0.000 C 
BRANCH  23  24
ATOM     24  C   UNL     1      14.887 -20.870 -39.850  1.00  0.00    -0.000 C 
BRANCH  24  25
ATOM     25  C   UNL     1      15.246 -21.971 -38.837  1.00  0.00    -0.003 C 
ATOM     26  C   UNL     1      14.817 -21.633 -37.409  1.00  0.00     0.004 C 
ENDBRANCH  24  25
ENDBRANCH  23  24
ENDBRANCH  22  23
ENDBRANCH  21  22
ENDBRANCH  20  21
ENDBRANCH  19  20
ENDBRANCH  18  19
ENDBRANCH  17  18
ENDBRANCH  16  17
ENDBRANCH  15  16
ENDBRANCH   1  15
TORSDOF 22
ENDMDL
MODEL 4
REMARK VINA RESULT:    -3.779      2.714      5.105
REMARK INTER + INTRA:         -12.585
REMARK INTER:                  -8.913
REMARK INTRA:                  -3.671
REMARK UNBOUND:                -3.946
REMARK SMILES CCCCCCCCCCCCCCCCCCCCCCCC(=O)[O-]
REMARK SMILES IDX 13 1 14 2 15 3 16 4 17 5 18 6 19 7 20 8 21 9 22 10 23 11
REMARK SMILES IDX 24 12 25 13 26 14 12 15 11 16 10 17 9 18 8 19 7 20 6 21 5 22
REMARK SMILES IDX 4 23 3 24 2 25 1 26
REMARK H PARENT
REMARK Flexibility Score: inf
ROOT
ATOM      1  C   UNL     1       9.579 -23.148 -36.332  1.00  0.00     0.000 C 
ENDROOT
BRANCH   1   2
ATOM      2  C   UNL     1      10.915 -23.205 -37.099  1.00  0.00     0.000 C 
BRANCH   2   3
ATOM      3  C   UNL     1      10.763 -22.876 -38.594  1.00  0.00     0.000 C 
BRANCH   3   4
ATOM      4  C   UNL     1       9.784 -21.718 -38.846  1.00  0.00     0.000 C 
BRANCH   4   5
ATOM      5  C   UNL     1      10.494 -20.363 -39.004  1.00  0.00     0.000 C 
BRANCH   5   6
ATOM      6  C   UNL     1      10.402 -19.493 -37.738  1.00  0.00     0.000 C 
BRANCH   6   7
ATOM      7  C   UNL     1      11.671 -19.539 -36.861  1.00  0.00     0.000 C 
BRANCH   7   8
ATOM      8  C   UNL     1      12.955 -19.659 -37.703  1.00  0.00     0.000 C 
BRANCH   8   9
ATOM      9  C   UNL     1      13.995 -20.595 -37.066  1.00  0.00     0.000 C 
BRANCH   9  10
ATOM     10  C   UNL     1      14.267 -21.846 -37.920  1.00  0.00     0.006 C 
BRANCH  10  11
ATOM     11  C   UNL     1      14.073 -21.578 -39.418  1.00  0.00     0.053 C 
BRANCH  11  12
ATOM     12  C   UNL     1      15.317 -21.039 -40.055  1.00  0.00     0.041 C 
ATOM     13  O   UNL     1      15.244 -20.344 -41.103  1.00  0.00    -0.550 OA
ATOM     14  O   UNL     1      16.561 -21.327 -39.505  1.00  0.00    -0.550 OA
ENDBRANCH  11  12
ENDBRANCH  10  11
ENDBRANCH   9  10
ENDBRANCH   8   9
ENDBRANCH   7   8
ENDBRANCH   6   7
ENDBRANCH   5   6
ENDBRANCH   4   5
ENDBRANCH   3   4
ENDBRANCH   2   3
ENDBRANCH   1   2
BRANCH   1  15
ATOM     15  C   UNL     1       9.531 -22.146 -35.163  1.00  0.00     0.000 C 
BRANCH  15  16
ATOM     16  C   UNL     1       8.306 -21.218 -35.217  1.00  0.00     0.000 C 
BRANCH  16  17
ATOM     17  C   UNL     1       7.300 -21.627 -36.305  1.00  0.00     0.000 C 
BRANCH  17  18
ATOM     18  C   UNL     1       6.318 -20.498 -36.660  1.00  0.00    -0.000 C 
BRANCH  18  19
ATOM     19  C   UNL     1       6.723 -19.751 -37.942  1.00  0.00    -0.000 C 
BRANCH  19  20
ATOM     20  C   UNL     1       6.991 -18.257 -37.692  1.00  0.00    -0.000 C 
BRANCH  20  21
ATOM     21  C   UNL     1       6.235 -17.712 -36.467  1.00  0.00    -0.000 C 
BRANCH  21  22
ATOM     22  C   UNL     1       4.828 -17.172 -36.799  1.00  0.00    -0.000 C 
BRANCH  22  23
ATOM     23  C   UNL     1       4.052 -16.762 -35.535  1.00  0.00    -0.000 C 
BRANCH  23  24
ATOM     24  C   UNL     1       4.907 -16.830 -34.257  1.00  0.00    -0.000 C 
BRANCH  24  25
ATOM     25  C   UNL     1       5.212 -15.467 -33.612  1.00  0.00    -0.003 C 
ATOM     26  C   UNL     1       4.499 -15.266 -32.275  1.00  0.00     0.004 C 
ENDBRANCH  24  25
ENDBRANCH  23  24
ENDBRANCH  22  23
ENDBRANCH  21  22
ENDBRANCH  20  21
ENDBRANCH  19  20
ENDBRANCH  18  19
ENDBRANCH  17  18
ENDBRANCH  16  17
ENDBRANCH  15  16
ENDBRANCH   1  15
TORSDOF 22
ENDMDL
MODEL 5
REMARK VINA RESULT:    -3.741      5.859      9.586
REMARK INTER + INTRA:         -12.499
REMARK INTER:                  -8.860
REMARK INTRA:                  -3.639
REMARK UNBOUND:                -3.946
REMARK SMILES CCCCCCCCCCCCCCCCCCCCCCCC(=O)[O-]
REMARK SMILES IDX 13 1 14 2 15 3 16 4 17 5 18 6 19 7 20 8 21 9 22 10 23 11
REMARK SMILES IDX 24 12 25 13 26 14 12 15 11 16 10 17 9 18 8 19 7 20 6 21 5 22
REMARK SMILES IDX 4 23 3 24 2 25 1 26
REMARK H PARENT
REMARK Flexibility Score: inf
ROOT
ATOM      1  C   UNL     1       7.423 -20.582 -36.424  1.00  0.00     0.000 C 
ENDROOT
BRANCH   1   2
ATOM      2  C   UNL     1       6.616 -21.807 -36.896  1.00  0.00     0.000 C 
BRANCH   2   3
ATOM      3  C   UNL     1       5.487 -21.442 -37.875  1.00  0.00     0.000 C 
BRANCH   3   4
ATOM      4  C   UNL     1       5.406 -19.931 -38.142  1.00  0.00     0.000 C 
BRANCH   4   5
ATOM      5  C   UNL     1       3.958 -19.428 -38.274  1.00  0.00     0.000 C 
BRANCH   5   6
ATOM      6  C   UNL     1       3.816 -17.931 -37.952  1.00  0.00     0.000 C 
BRANCH   6   7
ATOM      7  C   UNL     1       4.688 -17.020 -38.841  1.00  0.00     0.000 C 
BRANCH   7   8
ATOM      8  C   UNL     1       5.216 -15.793 -38.075  1.00  0.00     0.000 C 
BRANCH   8   9
ATOM      9  C   UNL     1       6.380 -16.140 -37.132  1.00  0.00     0.000 C 
BRANCH   9  10
ATOM     10  C   UNL     1       6.096 -15.745 -35.672  1.00  0.00     0.006 C 
BRANCH  10  11
ATOM     11  C   UNL     1       5.543 -16.917 -34.852  1.00  0.00     0.053 C 
BRANCH  11  12
ATOM     12  C   UNL     1       4.982 -16.464 -33.538  1.00  0.00     0.041 C 
ATOM     13  O   UNL     1       5.055 -17.210 -32.526  1.00  0.00    -0.550 OA
ATOM     14  O   UNL     1       4.356 -15.227 -33.438  1.00  0.00    -0.550 OA
ENDBRANCH  11  12
ENDBRANCH  10  11
ENDBRANCH   9  10
ENDBRANCH   8   9
ENDBRANCH   7   8
ENDBRANCH   6   7
ENDBRANCH   5   6
ENDBRANCH   4   5
ENDBRANCH   3   4
ENDBRANCH   2   3
ENDBRANCH   1   2
BRANCH   1  15
ATOM     15  C   UNL     1       8.415 -20.847 -35.275  1.00  0.00     0.000 C 
BRANCH  15  16
ATOM     16  C   UNL     1       8.378 -22.299 -34.771  1.00  0.00     0.000 C 
BRANCH  16  17
ATOM     17  C   UNL     1       9.738 -23.005 -34.900  1.00  0.00     0.000 C 
BRANCH  17  18
ATOM     18  C   UNL     1       9.758 -24.054 -36.026  1.00  0.00    -0.000 C 
BRANCH  18  19
ATOM     19  C   UNL     1      10.832 -23.756 -37.084  1.00  0.00    -0.000 C 
BRANCH  19  20
ATOM     20  C   UNL     1      10.337 -22.777 -38.164  1.00  0.00    -0.000 C 
BRANCH  20  21
ATOM     21  C   UNL     1      10.922 -21.364 -38.003  1.00  0.00    -0.000 C 
BRANCH  21  22
ATOM     22  C   UNL     1      10.196 -20.294 -38.847  1.00  0.00    -0.000 C 
BRANCH  22  23
ATOM     23  C   UNL     1      10.520 -18.866 -38.375  1.00  0.00    -0.000 C 
BRANCH  23  24
ATOM     24  C   UNL     1       9.270 -17.974 -38.262  1.00  0.00    -0.000 C 
BRANCH  24  25
ATOM     25  C   UNL     1       8.338 -18.009 -39.485  1.00  0.00    -0.003 C 
ATOM     26  C   UNL     1       8.392 -16.726 -40.314  1.00  0.00     0.004 C 
ENDBRANCH  24  25
ENDBRANCH  23  24
ENDBRANCH  22  23
ENDBRANCH  21  22
ENDBRANCH  20  21
ENDBRANCH  19  20
ENDBRANCH  18  19
ENDBRANCH  17  18
ENDBRANCH  16  17
ENDBRANCH  15  16
ENDBRANCH   1  15
TORSDOF 22
ENDMDL
MODEL 6
REMARK VINA RESULT:    -3.735      3.664      7.746
REMARK INTER + INTRA:         -12.484
REMARK INTER:                  -7.524
REMARK INTRA:                  -4.961
REMARK UNBOUND:                -3.946
REMARK SMILES CCCCCCCCCCCCCCCCCCCCCCCC(=O)[O-]
REMARK SMILES IDX 13 1 14 2 15 3 16 4 17 5 18 6 19 7 20 8 21 9 22 10 23 11
REMARK SMILES IDX 24 12 25 13 26 14 12 15 11 16 10 17 9 18 8 19 7 20 6 21 5 22
REMARK SMILES IDX 4 23 3 24 2 25 1 26
REMARK H PARENT
REMARK Flexibility Score: inf
ROOT
ATOM      1  C   UNL     1       9.835 -22.193 -39.109  1.00  0.00     0.000 C 
ENDROOT
BRANCH   1   2
ATOM      2  C   UNL     1       8.569 -23.025 -38.828  1.00  0.00     0.000 C 
BRANCH   2   3
ATOM      3  C   UNL     1       8.810 -24.541 -38.937  1.00  0.00     0.000 C 
BRANCH   3   4
ATOM      4  C   UNL     1       9.033 -25.201 -37.566  1.00  0.00     0.000 C 
BRANCH   4   5
ATOM      5  C   UNL     1       8.669 -24.274 -36.394  1.00  0.00     0.000 C 
BRANCH   5   6
ATOM      6  C   UNL     1       9.878 -23.936 -35.505  1.00  0.00     0.000 C 
BRANCH   6   7
ATOM      7  C   UNL     1       9.768 -22.566 -34.803  1.00  0.00     0.000 C 
BRANCH   7   8
ATOM      8  C   UNL     1       8.436 -21.860 -35.114  1.00  0.00     0.000 C 
BRANCH   8   9
ATOM      9  C   UNL     1       8.629 -20.546 -35.888  1.00  0.00     0.000 C 
BRANCH   9  10
ATOM     10  C   UNL     1       7.299 -19.832 -36.185  1.00  0.00     0.006 C 
BRANCH  10  11
ATOM     11  C   UNL     1       6.963 -19.832 -37.681  1.00  0.00     0.053 C 
BRANCH  11  12
ATOM     12  C   UNL     1       7.143 -18.477 -38.295  1.00  0.00     0.041 C 
ATOM     13  O   UNL     1       7.042 -18.325 -39.540  1.00  0.00    -0.550 OA
ATOM     14  O   UNL     1       7.448 -17.384 -37.491  1.00  0.00    -0.550 OA
ENDBRANCH  11  12
ENDBRANCH  10  11
ENDBRANCH   9  10
ENDBRANCH   8   9
ENDBRANCH   7   8
ENDBRANCH   6   7
ENDBRANCH   5   6
ENDBRANCH   4   5
ENDBRANCH   3   4
ENDBRANCH   2   3
ENDBRANCH   1   2
BRANCH   1  15
ATOM     15  C   UNL     1      11.089 -23.004 -39.487  1.00  0.00     0.000 C 
BRANCH  15  16
ATOM     16  C   UNL     1      12.172 -22.981 -38.396  1.00  0.00     0.000 C 
BRANCH  16  17
ATOM     17  C   UNL     1      12.100 -21.722 -37.517  1.00  0.00     0.000 C 
BRANCH  17  18
ATOM     18  C   UNL     1      13.452 -20.997 -37.405  1.00  0.00    -0.000 C 
BRANCH  18  19
ATOM     19  C   UNL     1      14.628 -21.883 -37.848  1.00  0.00    -0.000 C 
BRANCH  19  20
ATOM     20  C   UNL     1      15.393 -21.288 -39.045  1.00  0.00    -0.000 C 
BRANCH  20  21
ATOM     21  C   UNL     1      14.608 -20.175 -39.761  1.00  0.00    -0.000 C 
BRANCH  21  22
ATOM     22  C   UNL     1      13.858 -20.660 -41.019  1.00  0.00    -0.000 C 
BRANCH  22  23
ATOM     23  C   UNL     1      12.434 -20.083 -41.103  1.00  0.00    -0.000 C 
BRANCH  23  24
ATOM     24  C   UNL     1      12.231 -18.852 -40.200  1.00  0.00    -0.000 C 
BRANCH  24  25
ATOM     25  C   UNL     1      10.807 -18.691 -39.639  1.00  0.00    -0.003 C 
ATOM     26  C   UNL     1      10.784 -18.445 -38.130  1.00  0.00     0.004 C 
ENDBRANCH  24  25
ENDBRANCH  23  24
ENDBRANCH  22  23
ENDBRANCH  21  22
ENDBRANCH  20  21
ENDBRANCH  19  20
ENDBRANCH  18  19
ENDBRANCH  17  18
ENDBRANCH  16  17
ENDBRANCH  15  16
ENDBRANCH   1  15
TORSDOF 22
ENDMDL
MODEL 7
REMARK VINA RESULT:    -3.718      3.473      6.158
REMARK INTER + INTRA:         -12.445
REMARK INTER:                  -8.644
REMARK INTRA:                  -3.802
REMARK UNBOUND:                -3.946
REMARK SMILES CCCCCCCCCCCCCCCCCCCCCCCC(=O)[O-]
REMARK SMILES IDX 13 1 14 2 15 3 16 4 17 5 18 6 19 7 20 8 21 9 22 10 23 11
REMARK SMILES IDX 24 12 25 13 26 14 12 15 11 16 10 17 9 18 8 19 7 20 6 21 5 22
REMARK SMILES IDX 4 23 3 24 2 25 1 26
REMARK H PARENT
REMARK Flexibility Score: inf
ROOT
ATOM      1  C   UNL     1       7.361 -20.536 -36.924  1.00  0.00     0.000 C 
ENDROOT
BRANCH   1   2
ATOM      2  C   UNL     1       8.183 -20.476 -35.622  1.00  0.00     0.000 C 
BRANCH   2   3
ATOM      3  C   UNL     1       8.237 -21.825 -34.884  1.00  0.00     0.000 C 
BRANCH   3   4
ATOM      4  C   UNL     1       9.659 -22.406 -34.824  1.00  0.00     0.000 C 
BRANCH   4   5
ATOM      5  C   UNL     1       9.728 -23.859 -35.323  1.00  0.00     0.000 C 
BRANCH   5   6
ATOM      6  C   UNL     1       9.523 -23.976 -36.844  1.00  0.00     0.000 C 
BRANCH   6   7
ATOM      7  C   UNL     1      10.543 -23.167 -37.671  1.00  0.00     0.000 C 
BRANCH   7   8
ATOM      8  C   UNL     1       9.861 -22.279 -38.728  1.00  0.00     0.000 C 
BRANCH   8   9
ATOM      9  C   UNL     1      10.795 -21.190 -39.279  1.00  0.00     0.000 C 
BRANCH   9  10
ATOM     10  C   UNL     1      10.587 -19.829 -38.593  1.00  0.00     0.006 C 
BRANCH  10  11
ATOM     11  C   UNL     1      11.435 -19.685 -37.323  1.00  0.00     0.053 C 
BRANCH  11  12
ATOM     12  C   UNL     1      12.882 -19.455 -37.639  1.00  0.00     0.041 C 
ATOM     13  O   UNL     1      13.212 -18.650 -38.549  1.00  0.00    -0.550 OA
ATOM     14  O   UNL     1      13.865 -20.150 -36.945  1.00  0.00    -0.550 OA
ENDBRANCH  11  12
ENDBRANCH  10  11
ENDBRANCH   9  10
ENDBRANCH   8   9
ENDBRANCH   7   8
ENDBRANCH   6   7
ENDBRANCH   5   6
ENDBRANCH   4   5
ENDBRANCH   3   4
ENDBRANCH   2   3
ENDBRANCH   1   2
BRANCH   1  15
ATOM     15  C   UNL     1       6.289 -21.641 -36.979  1.00  0.00     0.000 C 
BRANCH  15  16
ATOM     16  C   UNL     1       5.052 -21.240 -37.800  1.00  0.00     0.000 C 
BRANCH  16  17
ATOM     17  C   UNL     1       4.767 -19.730 -37.741  1.00  0.00     0.000 C 
BRANCH  17  18
ATOM     18  C   UNL     1       3.316 -19.385 -38.119  1.00  0.00    -0.000 C 
BRANCH  18  19
ATOM     19  C   UNL     1       3.088 -17.869 -38.239  1.00  0.00    -0.000 C 
BRANCH  19  20
ATOM     20  C   UNL     1       2.581 -17.246 -36.926  1.00  0.00    -0.000 C 
BRANCH  20  21
ATOM     21  C   UNL     1       3.584 -16.256 -36.308  1.00  0.00    -0.000 C 
BRANCH  21  22
ATOM     22  C   UNL     1       4.414 -16.858 -35.154  1.00  0.00    -0.000 C 
BRANCH  22  23
ATOM     23  C   UNL     1       5.893 -17.038 -35.536  1.00  0.00    -0.000 C 
BRANCH  23  24
ATOM     24  C   UNL     1       6.252 -16.370 -36.876  1.00  0.00    -0.000 C 
BRANCH  24  25
ATOM     25  C   UNL     1       7.380 -17.063 -37.661  1.00  0.00    -0.003 C 
ATOM     26  C   UNL     1       7.212 -16.947 -39.175  1.00  0.00     0.004 C 
ENDBRANCH  24  25
ENDBRANCH  23  24
ENDBRANCH  22  23
ENDBRANCH  21  22
ENDBRANCH  20  21
ENDBRANCH  19  20
ENDBRANCH  18  19
ENDBRANCH  17  18
ENDBRANCH  16  17
ENDBRANCH  15  16
ENDBRANCH   1  15
TORSDOF 22
ENDMDL
MODEL 8
REMARK VINA RESULT:    -3.706      2.716      5.547
REMARK INTER + INTRA:         -12.419
REMARK INTER:                  -8.613
REMARK INTRA:                  -3.806
REMARK UNBOUND:                -3.946
REMARK SMILES CCCCCCCCCCCCCCCCCCCCCCCC(=O)[O-]
REMARK SMILES IDX 13 1 14 2 15 3 16 4 17 5 18 6 19 7 20 8 21 9 22 10 23 11
REMARK SMILES IDX 24 12 25 13 26 14 12 15 11 16 10 17 9 18 8 19 7 20 6 21 5 22
REMARK SMILES IDX 4 23 3 24 2 25 1 26
REMARK H PARENT
REMARK Flexibility Score: inf
ROOT
ATOM      1  C   UNL     1       7.085 -21.321 -37.751  1.00  0.00     0.000 C 
ENDROOT
BRANCH   1   2
ATOM      2  C   UNL     1       7.072 -21.990 -36.363  1.00  0.00     0.000 C 
BRANCH   2   3
ATOM      3  C   UNL     1       8.109 -21.391 -35.397  1.00  0.00     0.000 C 
BRANCH   3   4
ATOM      4  C   UNL     1       9.070 -22.450 -34.835  1.00  0.00     0.000 C 
BRANCH   4   5
ATOM      5  C   UNL     1       9.114 -23.727 -35.690  1.00  0.00     0.000 C 
BRANCH   5   6
ATOM      6  C   UNL     1      10.460 -23.914 -36.412  1.00  0.00     0.000 C 
BRANCH   6   7
ATOM      7  C   UNL     1      10.371 -23.743 -37.943  1.00  0.00     0.000 C 
BRANCH   7   8
ATOM      8  C   UNL     1      11.345 -22.671 -38.466  1.00  0.00     0.000 C 
BRANCH   8   9
ATOM      9  C   UNL     1      11.726 -21.643 -37.389  1.00  0.00     0.000 C 
BRANCH   9  10
ATOM     10  C   UNL     1      12.797 -20.649 -37.872  1.00  0.00     0.006 C 
BRANCH  10  11
ATOM     11  C   UNL     1      14.157 -20.893 -37.205  1.00  0.00     0.053 C 
BRANCH  11  12
ATOM     12  C   UNL     1      14.956 -21.934 -37.928  1.00  0.00     0.041 C 
ATOM     13  O   UNL     1      14.940 -23.131 -37.539  1.00  0.00    -0.550 OA
ATOM     14  O   UNL     1      15.742 -21.575 -39.018  1.00  0.00    -0.550 OA
ENDBRANCH  11  12
ENDBRANCH  10  11
ENDBRANCH   9  10
ENDBRANCH   8   9
ENDBRANCH   7   8
ENDBRANCH   6   7
ENDBRANCH   5   6
ENDBRANCH   4   5
ENDBRANCH   3   4
ENDBRANCH   2   3
ENDBRANCH   1   2
BRANCH   1  15
ATOM     15  C   UNL     1       8.377 -20.562 -38.107  1.00  0.00     0.000 C 
BRANCH  15  16
ATOM     16  C   UNL     1       8.594 -20.420 -39.622  1.00  0.00     0.000 C 
BRANCH  16  17
ATOM     17  C   UNL     1       9.355 -19.137 -39.993  1.00  0.00     0.000 C 
BRANCH  17  18
ATOM     18  C   UNL     1       8.420 -17.936 -40.219  1.00  0.00    -0.000 C 
BRANCH  18  19
ATOM     19  C   UNL     1       8.593 -16.850 -39.145  1.00  0.00    -0.000 C 
BRANCH  19  20
ATOM     20  C   UNL     1       7.574 -16.989 -38.000  1.00  0.00    -0.000 C 
BRANCH  20  21
ATOM     21  C   UNL     1       6.217 -17.540 -38.471  1.00  0.00    -0.000 C 
BRANCH  21  22
ATOM     22  C   UNL     1       5.289 -17.969 -37.314  1.00  0.00    -0.000 C 
BRANCH  22  23
ATOM     23  C   UNL     1       6.069 -18.241 -36.016  1.00  0.00    -0.000 C 
BRANCH  23  24
ATOM     24  C   UNL     1       5.680 -17.288 -34.872  1.00  0.00    -0.000 C 
BRANCH  24  25
ATOM     25  C   UNL     1       5.319 -15.860 -35.315  1.00  0.00    -0.003 C 
ATOM     26  C   UNL     1       3.908 -15.443 -34.900  1.00  0.00     0.004 C 
ENDBRANCH  24  25
ENDBRANCH  23  24
ENDBRANCH  22  23
ENDBRANCH  21  22
ENDBRANCH  20  21
ENDBRANCH  19  20
ENDBRANCH  18  19
ENDBRANCH  17  18
ENDBRANCH  16  17
ENDBRANCH  15  16
ENDBRANCH   1  15
TORSDOF 22
ENDMDL
MODEL 9
REMARK VINA RESULT:    -3.704      2.458      4.902
REMARK INTER + INTRA:         -12.414
REMARK INTER:                  -8.883
REMARK INTRA:                  -3.531
REMARK UNBOUND:                -3.946
REMARK SMILES CCCCCCCCCCCCCCCCCCCCCCCC(=O)[O-]
REMARK SMILES IDX 13 1 14 2 15 3 16 4 17 5 18 6 19 7 20 8 21 9 22 10 23 11
REMARK SMILES IDX 24 12 25 13 26 14 12 15 11 16 10 17 9 18 8 19 7 20 6 21 5 22
REMARK SMILES IDX 4 23 3 24 2 25 1 26
REMARK H PARENT
REMARK Flexibility Score: inf
ROOT
ATOM      1  C   UNL     1       9.554 -21.327 -35.271  1.00  0.00     0.000 C 
ENDROOT
BRANCH   1   2
ATOM      2  C   UNL     1       9.233 -22.683 -34.613  1.00  0.00     0.000 C 
BRANCH   2   3
ATOM      3  C   UNL     1       9.811 -23.879 -35.388  1.00  0.00     0.000 C 
BRANCH   3   4
ATOM      4  C   UNL     1       8.988 -24.222 -36.640  1.00  0.00     0.000 C 
BRANCH   4   5
ATOM      5  C   UNL     1       9.761 -23.973 -37.946  1.00  0.00     0.000 C 
BRANCH   5   6
ATOM      6  C   UNL     1      11.172 -24.586 -37.929  1.00  0.00     0.000 C 
BRANCH   6   7
ATOM      7  C   UNL     1      12.304 -23.538 -37.962  1.00  0.00     0.000 C 
BRANCH   7   8
ATOM      8  C   UNL     1      11.764 -22.105 -38.129  1.00  0.00     0.000 C 
BRANCH   8   9
ATOM      9  C   UNL     1      12.697 -21.047 -37.517  1.00  0.00     0.000 C 
BRANCH   9  10
ATOM     10  C   UNL     1      14.182 -21.432 -37.630  1.00  0.00     0.006 C 
BRANCH  10  11
ATOM     11  C   UNL     1      14.813 -20.930 -38.935  1.00  0.00     0.053 C 
BRANCH  11  12
ATOM     12  C   UNL     1      15.664 -21.978 -39.585  1.00  0.00     0.041 C 
ATOM     13  O   UNL     1      15.374 -23.197 -39.460  1.00  0.00    -0.550 OA
ATOM     14  O   UNL     1      16.792 -21.609 -40.308  1.00  0.00    -0.550 OA
ENDBRANCH  11  12
ENDBRANCH  10  11
ENDBRANCH   9  10
ENDBRANCH   8   9
ENDBRANCH   7   8
ENDBRANCH   6   7
ENDBRANCH   5   6
ENDBRANCH   4   5
ENDBRANCH   3   4
ENDBRANCH   2   3
ENDBRANCH   1   2
BRANCH   1  15
ATOM     15  C   UNL     1       8.342 -20.567 -35.842  1.00  0.00     0.000 C 
BRANCH  15  16
ATOM     16  C   UNL     1       8.456 -20.298 -37.352  1.00  0.00     0.000 C 
BRANCH  16  17
ATOM     17  C   UNL     1       7.438 -21.104 -38.175  1.00  0.00     0.000 C 
BRANCH  17  18
ATOM     18  C   UNL     1       6.410 -21.835 -37.294  1.00  0.00    -0.000 C 
BRANCH  18  19
ATOM     19  C   UNL     1       4.976 -21.328 -37.524  1.00  0.00    -0.000 C 
BRANCH  19  20
ATOM     20  C   UNL     1       4.934 -20.073 -38.415  1.00  0.00    -0.000 C 
BRANCH  20  21
ATOM     21  C   UNL     1       4.492 -18.813 -37.652  1.00  0.00    -0.000 C 
BRANCH  21  22
ATOM     22  C   UNL     1       5.517 -17.661 -37.714  1.00  0.00    -0.000 C 
BRANCH  22  23
ATOM     23  C   UNL     1       6.353 -17.559 -36.427  1.00  0.00    -0.000 C 
BRANCH  23  24
ATOM     24  C   UNL     1       5.488 -17.452 -35.157  1.00  0.00    -0.000 C 
BRANCH  24  25
ATOM     25  C   UNL     1       4.684 -16.146 -35.032  1.00  0.00    -0.003 C 
ATOM     26  C   UNL     1       5.551 -14.894 -35.168  1.00  0.00     0.004 C 
ENDBRANCH  24  25
ENDBRANCH  23  24
ENDBRANCH  22  23
ENDBRANCH  21  22
ENDBRANCH  20  21
ENDBRANCH  19  20
ENDBRANCH  18  19
ENDBRANCH  17  18
ENDBRANCH  16  17
ENDBRANCH  15  16
ENDBRANCH   1  15
TORSDOF 22
ENDMDL
